MODEL        1
REMARK 921   NORMALIZED FREE ENERGY PREDICTED BY IDOCK:   -5.84 KCAL/MOL
REMARK 922        TOTAL FREE ENERGY PREDICTED BY IDOCK:   -8.94 KCAL/MOL
REMARK 923 INTER-LIGAND FREE ENERGY PREDICTED BY IDOCK:   -7.88 KCAL/MOL
REMARK 924 INTRA-LIGAND FREE ENERGY PREDICTED BY IDOCK:   -1.05 KCAL/MOL
REMARK 927      BINDING AFFINITY PREDICTED BY RF-SCORE:    0.00 PKD
ROOT
HETATM    1  C   UNL     1     -10.269  19.777  68.291  1.00  0.00    -0.447 C  
HETATM    2  N   UNL     1     -10.748  18.954  67.180  1.00  0.00    -0.451 NA 
HETATM    3  C   UNL     1     -10.655  19.702  65.928  1.00  0.00    -0.466 C  
ENDROOT
BRANCH   2   4
HETATM    4  C   UNL     1      -9.984  17.695  67.132  1.00  0.00    -0.316 C  
BRANCH   4   5
HETATM    5  C   UNL     1     -10.030  16.852  68.421  1.00  0.00    -0.275 C  
BRANCH   5   6
HETATM    6  O   UNL     1     -11.280  16.180  68.618  1.00  0.00    -0.336 OA 
BRANCH   6   7
HETATM    7  C   UNL     1     -11.197  14.787  68.980  1.00  0.00    -0.270 C  
BRANCH   7   8
HETATM    8  C   UNL     1     -12.192  14.452  70.087  1.00  0.00    -0.401 A  
HETATM    9  C   UNL     1     -12.249  13.141  70.597  1.00  0.00    -0.402 A  
HETATM   10  C   UNL     1     -12.951  15.448  70.722  1.00  0.00    -0.510 A  
HETATM   11  C   UNL     1     -13.000  12.850  71.737  1.00  0.00    -0.416 A  
HETATM   12  C   UNL     1     -13.713  15.150  71.853  1.00  0.00    -0.577 A  
HETATM   13  C   UNL     1     -13.724  13.857  72.370  1.00  0.00    -0.678 A  
ENDBRANCH   7   8
BRANCH   7  14
HETATM   14  C   UNL     1     -11.342  13.934  67.717  1.00  0.00    -0.335 A  
HETATM   15  C   UNL     1     -12.565  13.436  65.657  1.00  0.00    -0.496 A  
HETATM   16  C   UNL     1     -12.376  14.214  66.799  1.00  0.00    -0.333 A  
HETATM   17  C   UNL     1     -10.681  12.077  66.287  1.00  0.00    -0.302 A  
HETATM   18  C   UNL     1     -10.464  12.860  67.431  1.00  0.00    -0.235 A  
HETATM   19  C   UNL     1     -11.726  12.359  65.409  1.00  0.00    -0.452 A  
HETATM   20  C   UNL     1      -9.280  12.539  68.306  1.00  0.00    -0.186 C  
ENDBRANCH   7  14
ENDBRANCH   6   7
ENDBRANCH   5   6
ENDBRANCH   4   5
ENDBRANCH   2   4
TORSDOF 6
ENDMDL
MODEL        2
REMARK 921   NORMALIZED FREE ENERGY PREDICTED BY IDOCK:   -5.81 KCAL/MOL
REMARK 922        TOTAL FREE ENERGY PREDICTED BY IDOCK:   -8.90 KCAL/MOL
REMARK 923 INTER-LIGAND FREE ENERGY PREDICTED BY IDOCK:   -7.91 KCAL/MOL
REMARK 924 INTRA-LIGAND FREE ENERGY PREDICTED BY IDOCK:   -0.99 KCAL/MOL
REMARK 927      BINDING AFFINITY PREDICTED BY RF-SCORE:    0.00 PKD
ROOT
HETATM    1  C   UNL     1     -12.262  14.712  64.225  1.00  0.00    -0.408 C  
HETATM    2  N   UNL     1     -12.649  13.387  64.713  1.00  0.00    -0.637 NA 
HETATM    3  C   UNL     1     -12.185  12.359  63.784  1.00  0.00    -0.533 C  
ENDROOT
BRANCH   2   4
HETATM    4  C   UNL     1     -12.118  13.188  66.073  1.00  0.00    -0.436 C  
BRANCH   4   5
HETATM    5  C   UNL     1     -11.786  14.481  66.842  1.00  0.00    -0.382 C  
BRANCH   5   6
HETATM    6  O   UNL     1     -11.887  14.341  68.264  1.00  0.00    -0.322 OA 
BRANCH   6   7
HETATM    7  C   UNL     1     -11.719  15.550  69.031  1.00  0.00    -0.377 C  
BRANCH   7   8
HETATM    8  C   UNL     1     -12.246  15.371  70.452  1.00  0.00    -0.430 A  
HETATM    9  C   UNL     1     -13.033  14.248  70.765  1.00  0.00    -0.368 A  
HETATM   10  C   UNL     1     -11.844  16.217  71.498  1.00  0.00    -0.528 A  
HETATM   11  C   UNL     1     -13.362  13.952  72.089  1.00  0.00    -0.555 A  
HETATM   12  C   UNL     1     -12.187  15.926  72.820  1.00  0.00    -0.604 A  
HETATM   13  C   UNL     1     -12.931  14.786  73.116  1.00  0.00    -0.623 A  
ENDBRANCH   7   8
BRANCH   7  14
HETATM   14  C   UNL     1     -10.255  15.994  68.948  1.00  0.00    -0.231 A  
HETATM   15  C   UNL     1      -7.894  15.505  69.358  1.00  0.00    -0.231 A  
HETATM   16  C   UNL     1      -9.235  15.122  69.382  1.00  0.00    -0.175 A  
HETATM   17  C   UNL     1      -8.531  17.640  68.447  1.00  0.00    -0.287 A  
HETATM   18  C   UNL     1      -9.884  17.265  68.446  1.00  0.00    -0.309 A  
HETATM   19  C   UNL     1      -7.544  16.769  68.904  1.00  0.00    -0.239 A  
HETATM   20  C   UNL     1     -10.894  18.229  67.880  1.00  0.00    -0.232 C  
ENDBRANCH   7  14
ENDBRANCH   6   7
ENDBRANCH   5   6
ENDBRANCH   4   5
ENDBRANCH   2   4
TORSDOF 6
ENDMDL
MODEL        3
REMARK 921   NORMALIZED FREE ENERGY PREDICTED BY IDOCK:   -5.80 KCAL/MOL
REMARK 922        TOTAL FREE ENERGY PREDICTED BY IDOCK:   -8.89 KCAL/MOL
REMARK 923 INTER-LIGAND FREE ENERGY PREDICTED BY IDOCK:   -7.60 KCAL/MOL
REMARK 924 INTRA-LIGAND FREE ENERGY PREDICTED BY IDOCK:   -1.29 KCAL/MOL
REMARK 927      BINDING AFFINITY PREDICTED BY RF-SCORE:    0.00 PKD
ROOT
HETATM    1  C   UNL     1      -8.647  16.609  66.234  1.00  0.00    -0.324 C  
HETATM    2  N   UNL     1      -9.858  17.325  65.828  1.00  0.00    -0.551 NA 
HETATM    3  C   UNL     1     -10.750  16.424  65.101  1.00  0.00    -0.291 C  
ENDROOT
BRANCH   2   4
HETATM    4  C   UNL     1     -10.506  17.909  67.015  1.00  0.00    -0.340 C  
BRANCH   4   5
HETATM    5  C   UNL     1     -10.385  17.075  68.305  1.00  0.00    -0.347 C  
BRANCH   5   6
HETATM    6  O   UNL     1     -11.533  16.259  68.566  1.00  0.00    -0.371 OA 
BRANCH   6   7
HETATM    7  C   UNL     1     -11.264  14.907  68.987  1.00  0.00    -0.264 C  
BRANCH   7   8
HETATM    8  C   UNL     1     -12.255  14.462  70.059  1.00  0.00    -0.408 A  
HETATM    9  C   UNL     1     -12.232  13.132  70.519  1.00  0.00    -0.405 A  
HETATM   10  C   UNL     1     -13.094  15.379  70.712  1.00  0.00    -0.479 A  
HETATM   11  C   UNL     1     -12.983  12.747  71.629  1.00  0.00    -0.402 A  
HETATM   12  C   UNL     1     -13.856  14.987  71.814  1.00  0.00    -0.576 A  
HETATM   13  C   UNL     1     -13.788  13.677  72.282  1.00  0.00    -0.689 A  
ENDBRANCH   7   8
BRANCH   7  14
HETATM   14  C   UNL     1     -11.213  14.000  67.754  1.00  0.00    -0.302 A  
HETATM   15  C   UNL     1     -12.349  13.052  65.807  1.00  0.00    -0.477 A  
HETATM   16  C   UNL     1     -12.343  13.895  66.917  1.00  0.00    -0.331 A  
HETATM   17  C   UNL     1     -10.088  12.395  66.308  1.00  0.00    -0.257 A  
HETATM   18  C   UNL     1     -10.058  13.253  67.419  1.00  0.00    -0.233 A  
HETATM   19  C   UNL     1     -11.227  12.290  65.511  1.00  0.00    -0.376 A  
HETATM   20  C   UNL     1      -8.776  13.366  68.202  1.00  0.00    -0.179 C  
ENDBRANCH   7  14
ENDBRANCH   6   7
ENDBRANCH   5   6
ENDBRANCH   4   5
ENDBRANCH   2   4
TORSDOF 6
ENDMDL
MODEL        4
REMARK 921   NORMALIZED FREE ENERGY PREDICTED BY IDOCK:   -5.73 KCAL/MOL
REMARK 922        TOTAL FREE ENERGY PREDICTED BY IDOCK:   -8.80 KCAL/MOL
REMARK 923 INTER-LIGAND FREE ENERGY PREDICTED BY IDOCK:   -7.83 KCAL/MOL
REMARK 924 INTRA-LIGAND FREE ENERGY PREDICTED BY IDOCK:   -0.97 KCAL/MOL
REMARK 927      BINDING AFFINITY PREDICTED BY RF-SCORE:    0.00 PKD
ROOT
HETATM    1  C   UNL     1     -12.232  14.464  64.342  1.00  0.00    -0.458 C  
HETATM    2  N   UNL     1     -12.416  13.061  64.715  1.00  0.00    -0.568 NA 
HETATM    3  C   UNL     1     -12.556  12.239  63.515  1.00  0.00    -0.476 C  
ENDROOT
BRANCH   2   4
HETATM    4  C   UNL     1     -11.290  12.623  65.559  1.00  0.00    -0.321 C  
BRANCH   4   5
HETATM    5  C   UNL     1     -11.660  12.267  67.011  1.00  0.00    -0.349 C  
BRANCH   5   6
HETATM    6  O   UNL     1     -12.141  13.384  67.768  1.00  0.00    -0.338 OA 
BRANCH   6   7
HETATM    7  C   UNL     1     -11.305  13.812  68.862  1.00  0.00    -0.288 C  
BRANCH   7   8
HETATM    8  C   UNL     1     -10.458  15.017  68.461  1.00  0.00    -0.232 A  
HETATM    9  C   UNL     1     -10.948  15.923  67.502  1.00  0.00    -0.280 A  
HETATM   10  C   UNL     1      -9.265  15.334  69.130  1.00  0.00    -0.234 A  
HETATM   11  C   UNL     1     -10.294  17.132  67.261  1.00  0.00    -0.320 A  
HETATM   12  C   UNL     1      -8.605  16.538  68.876  1.00  0.00    -0.241 A  
HETATM   13  C   UNL     1      -9.128  17.443  67.955  1.00  0.00    -0.255 A  
ENDBRANCH   7   8
BRANCH   7  14
HETATM   14  C   UNL     1     -12.177  14.034  70.101  1.00  0.00    -0.425 A  
HETATM   15  C   UNL     1     -13.412  15.579  71.540  1.00  0.00    -0.582 A  
HETATM   16  C   UNL     1     -12.647  15.329  70.401  1.00  0.00    -0.421 A  
HETATM   17  C   UNL     1     -13.289  13.246  72.119  1.00  0.00    -0.618 A  
HETATM   18  C   UNL     1     -12.534  12.973  70.967  1.00  0.00    -0.385 A  
HETATM   19  C   UNL     1     -13.720  14.539  72.407  1.00  0.00    -0.583 A  
HETATM   20  C   UNL     1     -12.152  11.544  70.683  1.00  0.00    -0.450 C  
ENDBRANCH   7  14
ENDBRANCH   6   7
ENDBRANCH   5   6
ENDBRANCH   4   5
ENDBRANCH   2   4
TORSDOF 6
ENDMDL
MODEL        5
REMARK 921   NORMALIZED FREE ENERGY PREDICTED BY IDOCK:   -5.73 KCAL/MOL
REMARK 922        TOTAL FREE ENERGY PREDICTED BY IDOCK:   -8.80 KCAL/MOL
REMARK 923 INTER-LIGAND FREE ENERGY PREDICTED BY IDOCK:   -7.81 KCAL/MOL
REMARK 924 INTRA-LIGAND FREE ENERGY PREDICTED BY IDOCK:   -0.99 KCAL/MOL
REMARK 927      BINDING AFFINITY PREDICTED BY RF-SCORE:    0.00 PKD
ROOT
HETATM    1  C   UNL     1     -12.245  14.793  64.184  1.00  0.00    -0.295 C  
HETATM    2  N   UNL     1     -12.690  13.503  64.713  1.00  0.00    -0.680 NA 
HETATM    3  C   UNL     1     -12.348  12.434  63.776  1.00  0.00    -0.528 C  
ENDROOT
BRANCH   2   4
HETATM    4  C   UNL     1     -12.098  13.285  66.044  1.00  0.00    -0.436 C  
BRANCH   4   5
HETATM    5  C   UNL     1     -11.864  14.562  66.873  1.00  0.00    -0.377 C  
BRANCH   5   6
HETATM    6  O   UNL     1     -11.640  14.306  68.265  1.00  0.00    -0.288 OA 
BRANCH   6   7
HETATM    7  C   UNL     1     -11.464  15.468  69.100  1.00  0.00    -0.348 C  
BRANCH   7   8
HETATM    8  C   UNL     1     -11.917  15.185  70.530  1.00  0.00    -0.371 A  
HETATM    9  C   UNL     1     -11.716  16.157  71.527  1.00  0.00    -0.533 A  
HETATM   10  C   UNL     1     -12.667  14.043  70.852  1.00  0.00    -0.420 A  
HETATM   11  C   UNL     1     -12.292  16.014  72.791  1.00  0.00    -0.603 A  
HETATM   12  C   UNL     1     -13.230  13.896  72.121  1.00  0.00    -0.536 A  
HETATM   13  C   UNL     1     -13.057  14.888  73.084  1.00  0.00    -0.615 A  
ENDBRANCH   7   8
BRANCH   7  14
HETATM   14  C   UNL     1     -10.018  15.956  68.977  1.00  0.00    -0.233 A  
HETATM   15  C   UNL     1      -7.636  15.560  69.368  1.00  0.00    -0.225 A  
HETATM   16  C   UNL     1      -8.963  15.136  69.428  1.00  0.00    -0.176 A  
HETATM   17  C   UNL     1      -8.357  17.636  68.386  1.00  0.00    -0.290 A  
HETATM   18  C   UNL     1      -9.696  17.218  68.421  1.00  0.00    -0.293 A  
HETATM   19  C   UNL     1      -7.334  16.817  68.861  1.00  0.00    -0.235 A  
HETATM   20  C   UNL     1     -10.746  18.126  67.835  1.00  0.00    -0.331 C  
ENDBRANCH   7  14
ENDBRANCH   6   7
ENDBRANCH   5   6
ENDBRANCH   4   5
ENDBRANCH   2   4
TORSDOF 6
ENDMDL
MODEL        6
REMARK 921   NORMALIZED FREE ENERGY PREDICTED BY IDOCK:   -5.69 KCAL/MOL
REMARK 922        TOTAL FREE ENERGY PREDICTED BY IDOCK:   -8.74 KCAL/MOL
REMARK 923 INTER-LIGAND FREE ENERGY PREDICTED BY IDOCK:   -7.76 KCAL/MOL
REMARK 924 INTRA-LIGAND FREE ENERGY PREDICTED BY IDOCK:   -0.98 KCAL/MOL
REMARK 927      BINDING AFFINITY PREDICTED BY RF-SCORE:    0.00 PKD
ROOT
HETATM    1  C   UNL     1     -14.106  15.276  71.951  1.00  0.00    -0.557 C  
HETATM    2  N   UNL     1     -12.925  15.946  72.498  1.00  0.00    -0.458 NA 
HETATM    3  C   UNL     1     -12.584  15.375  73.799  1.00  0.00    -0.611 C  
ENDROOT
BRANCH   2   4
HETATM    4  C   UNL     1     -11.812  15.845  71.538  1.00  0.00    -0.468 C  
BRANCH   4   5
HETATM    5  C   UNL     1     -12.109  15.013  70.276  1.00  0.00    -0.329 C  
BRANCH   5   6
HETATM    6  O   UNL     1     -11.994  15.761  69.059  1.00  0.00    -0.385 OA 
BRANCH   6   7
HETATM    7  C   UNL     1     -10.789  15.545  68.298  1.00  0.00    -0.292 C  
BRANCH   7   8
HETATM    8  C   UNL     1     -11.102  14.886  66.958  1.00  0.00    -0.338 A  
HETATM    9  C   UNL     1     -10.146  14.919  65.926  1.00  0.00    -0.348 A  
HETATM   10  C   UNL     1     -12.259  14.113  66.770  1.00  0.00    -0.429 A  
HETATM   11  C   UNL     1     -10.318  14.160  64.767  1.00  0.00    -0.387 A  
HETATM   12  C   UNL     1     -12.435  13.366  65.604  1.00  0.00    -0.519 A  
HETATM   13  C   UNL     1     -11.458  13.377  64.611  1.00  0.00    -0.375 A  
ENDBRANCH   7   8
BRANCH   7  14
HETATM   14  C   UNL     1     -10.023  16.867  68.191  1.00  0.00    -0.285 A  
HETATM   15  C   UNL     1      -9.998  19.224  67.537  1.00  0.00    -0.460 A  
HETATM   16  C   UNL     1     -10.672  18.012  67.686  1.00  0.00    -0.360 A  
HETATM   17  C   UNL     1      -8.000  18.205  68.412  1.00  0.00    -0.312 A  
HETATM   18  C   UNL     1      -8.668  16.983  68.586  1.00  0.00    -0.261 A  
HETATM   19  C   UNL     1      -8.658  19.316  67.887  1.00  0.00    -0.348 A  
HETATM   20  C   UNL     1      -7.917  15.839  69.216  1.00  0.00    -0.239 C  
ENDBRANCH   7  14
ENDBRANCH   6   7
ENDBRANCH   5   6
ENDBRANCH   4   5
ENDBRANCH   2   4
TORSDOF 6
ENDMDL
MODEL        7
REMARK 921   NORMALIZED FREE ENERGY PREDICTED BY IDOCK:   -5.62 KCAL/MOL
REMARK 922        TOTAL FREE ENERGY PREDICTED BY IDOCK:   -8.65 KCAL/MOL
REMARK 923 INTER-LIGAND FREE ENERGY PREDICTED BY IDOCK:   -7.65 KCAL/MOL
REMARK 924 INTRA-LIGAND FREE ENERGY PREDICTED BY IDOCK:   -1.00 KCAL/MOL
REMARK 927      BINDING AFFINITY PREDICTED BY RF-SCORE:    0.00 PKD
ROOT
HETATM    1  C   UNL     1      -8.903  20.275  67.443  1.00  0.00    -0.344 C  
HETATM    2  N   UNL     1     -10.219  19.634  67.408  1.00  0.00    -0.403 NA 
HETATM    3  C   UNL     1     -10.513  19.171  66.054  1.00  0.00    -0.467 C  
ENDROOT
BRANCH   2   4
HETATM    4  C   UNL     1     -10.260  18.538  68.391  1.00  0.00    -0.372 C  
BRANCH   4   5
HETATM    5  C   UNL     1     -10.390  17.125  67.791  1.00  0.00    -0.347 C  
BRANCH   5   6
HETATM    6  O   UNL     1     -11.448  16.353  68.374  1.00  0.00    -0.338 OA 
BRANCH   6   7
HETATM    7  C   UNL     1     -11.091  15.027  68.815  1.00  0.00    -0.261 C  
BRANCH   7   8
HETATM    8  C   UNL     1     -11.924  14.614  70.025  1.00  0.00    -0.376 A  
HETATM    9  C   UNL     1     -12.674  15.583  70.717  1.00  0.00    -0.511 A  
HETATM   10  C   UNL     1     -12.088  13.265  70.380  1.00  0.00    -0.401 A  
HETATM   11  C   UNL     1     -13.595  15.209  71.696  1.00  0.00    -0.560 A  
HETATM   12  C   UNL     1     -13.000  12.895  71.370  1.00  0.00    -0.362 A  
HETATM   13  C   UNL     1     -13.765  13.865  72.015  1.00  0.00    -0.577 A  
ENDBRANCH   7   8
BRANCH   7  14
HETATM   14  C   UNL     1     -11.177  14.066  67.626  1.00  0.00    -0.317 A  
HETATM   15  C   UNL     1     -12.389  13.285  65.650  1.00  0.00    -0.521 A  
HETATM   16  C   UNL     1     -12.255  14.166  66.723  1.00  0.00    -0.429 A  
HETATM   17  C   UNL     1     -10.362  12.176  66.324  1.00  0.00    -0.250 A  
HETATM   18  C   UNL     1     -10.201  13.066  67.398  1.00  0.00    -0.231 A  
HETATM   19  C   UNL     1     -11.450  12.281  65.460  1.00  0.00    -0.408 A  
HETATM   20  C   UNL     1      -8.970  12.937  68.257  1.00  0.00    -0.175 C  
ENDBRANCH   7  14
ENDBRANCH   6   7
ENDBRANCH   5   6
ENDBRANCH   4   5
ENDBRANCH   2   4
TORSDOF 6
ENDMDL
MODEL        8
REMARK 921   NORMALIZED FREE ENERGY PREDICTED BY IDOCK:   -5.60 KCAL/MOL
REMARK 922        TOTAL FREE ENERGY PREDICTED BY IDOCK:   -8.61 KCAL/MOL
REMARK 923 INTER-LIGAND FREE ENERGY PREDICTED BY IDOCK:   -8.41 KCAL/MOL
REMARK 924 INTRA-LIGAND FREE ENERGY PREDICTED BY IDOCK:   -0.20 KCAL/MOL
REMARK 927      BINDING AFFINITY PREDICTED BY RF-SCORE:    0.00 PKD
ROOT
HETATM    1  C   UNL     1     -12.385  13.974  64.727  1.00  0.00    -0.413 C  
HETATM    2  N   UNL     1     -12.258  12.662  65.364  1.00  0.00    -0.530 NA 
HETATM    3  C   UNL     1     -11.395  11.798  64.561  1.00  0.00    -0.281 C  
ENDROOT
BRANCH   2   4
HETATM    4  C   UNL     1     -11.752  12.829  66.738  1.00  0.00    -0.392 C  
BRANCH   4   5
HETATM    5  C   UNL     1     -11.522  11.518  67.514  1.00  0.00    -0.282 C  
BRANCH   5   6
HETATM    6  O   UNL     1     -12.392  11.363  68.642  1.00  0.00    -0.491 OA 
BRANCH   6   7
HETATM    7  C   UNL     1     -11.804  11.620  69.933  1.00  0.00    -0.358 C  
BRANCH   7   8
HETATM    8  C   UNL     1     -12.459  12.827  70.599  1.00  0.00    -0.328 A  
HETATM    9  C   UNL     1     -13.075  12.679  71.855  1.00  0.00    -0.470 A  
HETATM   10  C   UNL     1     -12.333  14.120  70.066  1.00  0.00    -0.403 A  
HETATM   11  C   UNL     1     -13.504  13.793  72.577  1.00  0.00    -0.682 A  
HETATM   12  C   UNL     1     -12.776  15.232  70.784  1.00  0.00    -0.491 A  
HETATM   13  C   UNL     1     -13.346  15.070  72.045  1.00  0.00    -0.475 A  
ENDBRANCH   7   8
BRANCH   7  14
HETATM   14  C   UNL     1     -11.847  10.335  70.766  1.00  0.00    -0.459 A  
HETATM   15  C   UNL     1     -13.131   8.784  72.155  1.00  0.00    -0.451 A  
HETATM   16  C   UNL     1     -13.060   9.927  71.358  1.00  0.00    -0.500 A  
HETATM   17  C   UNL     1     -10.784   8.396  71.786  1.00  0.00    -0.355 A  
HETATM   18  C   UNL     1     -10.698   9.532  70.966  1.00  0.00    -0.411 A  
HETATM   19  C   UNL     1     -11.989   8.027  72.380  1.00  0.00    -0.405 A  
HETATM   20  C   UNL     1      -9.380   9.840  70.304  1.00  0.00    -0.236 C  
ENDBRANCH   7  14
ENDBRANCH   6   7
ENDBRANCH   5   6
ENDBRANCH   4   5
ENDBRANCH   2   4
TORSDOF 6
ENDMDL
MODEL        9
REMARK 921   NORMALIZED FREE ENERGY PREDICTED BY IDOCK:   -5.60 KCAL/MOL
REMARK 922        TOTAL FREE ENERGY PREDICTED BY IDOCK:   -8.61 KCAL/MOL
REMARK 923 INTER-LIGAND FREE ENERGY PREDICTED BY IDOCK:   -7.74 KCAL/MOL
REMARK 924 INTRA-LIGAND FREE ENERGY PREDICTED BY IDOCK:   -0.87 KCAL/MOL
REMARK 927      BINDING AFFINITY PREDICTED BY RF-SCORE:    0.00 PKD
ROOT
HETATM    1  C   UNL     1     -10.102  19.670  68.712  1.00  0.00    -0.437 C  
HETATM    2  N   UNL     1     -10.557  18.726  67.691  1.00  0.00    -0.428 NA 
HETATM    3  C   UNL     1     -10.283  19.259  66.359  1.00  0.00    -0.449 C  
ENDROOT
BRANCH   2   4
HETATM    4  C   UNL     1      -9.915  17.417  67.908  1.00  0.00    -0.301 C  
BRANCH   4   5
HETATM    5  C   UNL     1     -10.330  16.690  69.201  1.00  0.00    -0.326 C  
BRANCH   5   6
HETATM    6  O   UNL     1     -10.338  15.263  69.076  1.00  0.00    -0.223 OA 
BRANCH   6   7
HETATM    7  C   UNL     1     -11.589  14.673  68.670  1.00  0.00    -0.314 C  
BRANCH   7   8
HETATM    8  C   UNL     1     -11.480  14.075  67.270  1.00  0.00    -0.372 A  
HETATM    9  C   UNL     1     -10.242  13.581  66.820  1.00  0.00    -0.264 A  
HETATM   10  C   UNL     1     -12.613  13.864  66.469  1.00  0.00    -0.245 A  
HETATM   11  C   UNL     1     -10.151  12.853  65.632  1.00  0.00    -0.282 A  
HETATM   12  C   UNL     1     -12.518  13.148  65.274  1.00  0.00    -0.550 A  
HETATM   13  C   UNL     1     -11.291  12.629  64.865  1.00  0.00    -0.347 A  
ENDBRANCH   7   8
BRANCH   7  14
HETATM   14  C   UNL     1     -12.049  13.686  69.747  1.00  0.00    -0.396 A  
HETATM   15  C   UNL     1     -12.137  11.386  70.576  1.00  0.00    -0.487 A  
HETATM   16  C   UNL     1     -11.706  12.322  69.637  1.00  0.00    -0.386 A  
HETATM   17  C   UNL     1     -13.256  13.138  71.789  1.00  0.00    -0.494 A  
HETATM   18  C   UNL     1     -12.815  14.097  70.864  1.00  0.00    -0.404 A  
HETATM   19  C   UNL     1     -12.925  11.792  71.645  1.00  0.00    -0.467 A  
HETATM   20  C   UNL     1     -13.156  15.543  71.113  1.00  0.00    -0.573 C  
ENDBRANCH   7  14
ENDBRANCH   6   7
ENDBRANCH   5   6
ENDBRANCH   4   5
ENDBRANCH   2   4
TORSDOF 6
ENDMDL
MODEL       10
REMARK 921   NORMALIZED FREE ENERGY PREDICTED BY IDOCK:   -5.57 KCAL/MOL
REMARK 922        TOTAL FREE ENERGY PREDICTED BY IDOCK:   -8.57 KCAL/MOL
REMARK 923 INTER-LIGAND FREE ENERGY PREDICTED BY IDOCK:   -7.61 KCAL/MOL
REMARK 924 INTRA-LIGAND FREE ENERGY PREDICTED BY IDOCK:   -0.97 KCAL/MOL
REMARK 927      BINDING AFFINITY PREDICTED BY RF-SCORE:    0.00 PKD
ROOT
HETATM    1  C   UNL     1      -9.993  19.633  68.199  1.00  0.00    -0.437 C  
HETATM    2  N   UNL     1     -10.741  18.701  67.353  1.00  0.00    -0.435 NA 
HETATM    3  C   UNL     1     -10.604  19.081  65.949  1.00  0.00    -0.393 C  
ENDROOT
BRANCH   2   4
HETATM    4  C   UNL     1     -10.277  17.326  67.604  1.00  0.00    -0.333 C  
BRANCH   4   5
HETATM    5  C   UNL     1     -10.874  16.651  68.854  1.00  0.00    -0.321 C  
BRANCH   5   6
HETATM    6  O   UNL     1     -11.769  15.574  68.548  1.00  0.00    -0.363 OA 
BRANCH   6   7
HETATM    7  C   UNL     1     -11.228  14.245  68.687  1.00  0.00    -0.264 C  
BRANCH   7   8
HETATM    8  C   UNL     1     -11.988  13.457  69.749  1.00  0.00    -0.396 A  
HETATM    9  C   UNL     1     -11.851  12.057  69.806  1.00  0.00    -0.401 A  
HETATM   10  C   UNL     1     -12.704  14.099  70.772  1.00  0.00    -0.414 A  
HETATM   11  C   UNL     1     -12.369  11.331  70.880  1.00  0.00    -0.490 A  
HETATM   12  C   UNL     1     -13.234  13.368  71.837  1.00  0.00    -0.522 A  
HETATM   13  C   UNL     1     -13.052  11.989  71.900  1.00  0.00    -0.475 A  
ENDBRANCH   7   8
BRANCH   7  14
HETATM   14  C   UNL     1     -11.185  13.577  67.310  1.00  0.00    -0.319 A  
HETATM   15  C   UNL     1     -12.311  13.059  65.200  1.00  0.00    -0.536 A  
HETATM   16  C   UNL     1     -12.296  13.685  66.446  1.00  0.00    -0.441 A  
HETATM   17  C   UNL     1     -10.098  12.207  65.615  1.00  0.00    -0.274 A  
HETATM   18  C   UNL     1     -10.058  12.846  66.865  1.00  0.00    -0.241 A  
HETATM   19  C   UNL     1     -11.217  12.308  64.791  1.00  0.00    -0.364 A  
HETATM   20  C   UNL     1      -8.794  12.748  67.679  1.00  0.00    -0.189 C  
ENDBRANCH   7  14
ENDBRANCH   6   7
ENDBRANCH   5   6
ENDBRANCH   4   5
ENDBRANCH   2   4
TORSDOF 6
ENDMDL
MODEL       11
REMARK 921   NORMALIZED FREE ENERGY PREDICTED BY IDOCK:   -5.55 KCAL/MOL
REMARK 922        TOTAL FREE ENERGY PREDICTED BY IDOCK:   -8.55 KCAL/MOL
REMARK 923 INTER-LIGAND FREE ENERGY PREDICTED BY IDOCK:   -7.62 KCAL/MOL
REMARK 924 INTRA-LIGAND FREE ENERGY PREDICTED BY IDOCK:   -0.93 KCAL/MOL
REMARK 927      BINDING AFFINITY PREDICTED BY RF-SCORE:    0.00 PKD
ROOT
HETATM    1  C   UNL     1     -12.618  12.085  63.467  1.00  0.00    -0.507 C  
HETATM    2  N   UNL     1     -11.484  11.991  64.389  1.00  0.00    -0.344 NA 
HETATM    3  C   UNL     1     -10.231  11.971  63.638  1.00  0.00    -0.444 C  
ENDROOT
BRANCH   2   4
HETATM    4  C   UNL     1     -11.537  13.106  65.351  1.00  0.00    -0.333 C  
BRANCH   4   5
HETATM    5  C   UNL     1     -11.736  12.692  66.821  1.00  0.00    -0.392 C  
BRANCH   5   6
HETATM    6  O   UNL     1     -12.159  13.771  67.665  1.00  0.00    -0.363 OA 
BRANCH   6   7
HETATM    7  C   UNL     1     -11.354  14.008  68.837  1.00  0.00    -0.280 C  
BRANCH   7   8
HETATM    8  C   UNL     1     -10.481  15.247  68.657  1.00  0.00    -0.235 A  
HETATM    9  C   UNL     1      -9.243  15.327  69.321  1.00  0.00    -0.233 A  
HETATM   10  C   UNL     1     -10.806  16.247  67.726  1.00  0.00    -0.315 A  
HETATM   11  C   UNL     1      -8.338  16.347  69.024  1.00  0.00    -0.225 A  
HETATM   12  C   UNL     1      -9.904  17.274  67.442  1.00  0.00    -0.272 A  
HETATM   13  C   UNL     1      -8.665  17.315  68.078  1.00  0.00    -0.231 A  
ENDBRANCH   7   8
BRANCH   7  14
HETATM   14  C   UNL     1     -12.264  14.047  70.068  1.00  0.00    -0.414 A  
HETATM   15  C   UNL     1     -13.633  15.354  71.618  1.00  0.00    -0.603 A  
HETATM   16  C   UNL     1     -12.830  15.271  70.480  1.00  0.00    -0.421 A  
HETATM   17  C   UNL     1     -13.356  12.989  71.971  1.00  0.00    -0.588 A  
HETATM   18  C   UNL     1     -12.562  12.883  70.818  1.00  0.00    -0.314 A  
HETATM   19  C   UNL     1     -13.884  14.216  72.371  1.00  0.00    -0.638 A  
HETATM   20  C   UNL     1     -12.075  11.519  70.407  1.00  0.00    -0.471 C  
ENDBRANCH   7  14
ENDBRANCH   6   7
ENDBRANCH   5   6
ENDBRANCH   4   5
ENDBRANCH   2   4
TORSDOF 6
ENDMDL
MODEL       12
REMARK 921   NORMALIZED FREE ENERGY PREDICTED BY IDOCK:   -5.43 KCAL/MOL
REMARK 922        TOTAL FREE ENERGY PREDICTED BY IDOCK:   -8.39 KCAL/MOL
REMARK 923 INTER-LIGAND FREE ENERGY PREDICTED BY IDOCK:   -7.41 KCAL/MOL
REMARK 924 INTRA-LIGAND FREE ENERGY PREDICTED BY IDOCK:   -0.98 KCAL/MOL
REMARK 927      BINDING AFFINITY PREDICTED BY RF-SCORE:    0.00 PKD
ROOT
HETATM    1  C   UNL     1     -12.409  12.171  63.443  1.00  0.00    -0.538 C  
HETATM    2  N   UNL     1     -12.708  13.044  64.579  1.00  0.00    -0.701 NA 
HETATM    3  C   UNL     1     -12.088  12.515  65.792  1.00  0.00    -0.378 C  
ENDROOT
BRANCH   2   4
HETATM    4  C   UNL     1     -12.260  14.415  64.279  1.00  0.00    -0.423 C  
BRANCH   4   5
HETATM    5  C   UNL     1     -10.788  14.712  64.623  1.00  0.00    -0.313 C  
BRANCH   5   6
HETATM    6  O   UNL     1     -10.561  16.064  65.040  1.00  0.00    -0.551 OA 
BRANCH   6   7
HETATM    7  C   UNL     1      -9.752  16.232  66.221  1.00  0.00    -0.304 C  
BRANCH   7   8
HETATM    8  C   UNL     1      -9.630  17.708  66.592  1.00  0.00    -0.301 A  
HETATM    9  C   UNL     1     -10.483  18.649  65.987  1.00  0.00    -0.456 A  
HETATM   10  C   UNL     1      -8.794  18.138  67.634  1.00  0.00    -0.253 A  
HETATM   11  C   UNL     1     -10.535  19.966  66.446  1.00  0.00    -0.589 A  
HETATM   12  C   UNL     1      -8.837  19.460  68.082  1.00  0.00    -0.376 A  
HETATM   13  C   UNL     1      -9.718  20.369  67.499  1.00  0.00    -0.571 A  
ENDBRANCH   7   8
BRANCH   7  14
HETATM   14  C   UNL     1     -10.305  15.341  67.337  1.00  0.00    -0.256 A  
HETATM   15  C   UNL     1     -12.032  14.922  69.018  1.00  0.00    -0.307 A  
HETATM   16  C   UNL     1     -11.515  15.687  67.972  1.00  0.00    -0.294 A  
HETATM   17  C   UNL     1     -10.162  13.419  68.826  1.00  0.00    -0.128 A  
HETATM   18  C   UNL     1      -9.637  14.166  67.759  1.00  0.00    -0.219 A  
HETATM   19  C   UNL     1     -11.347  13.796  69.454  1.00  0.00    -0.306 A  
HETATM   20  C   UNL     1      -8.385  13.669  67.084  1.00  0.00    -0.151 C  
ENDBRANCH   7  14
ENDBRANCH   6   7
ENDBRANCH   5   6
ENDBRANCH   4   5
ENDBRANCH   2   4
TORSDOF 6
ENDMDL
MODEL       13
REMARK 921   NORMALIZED FREE ENERGY PREDICTED BY IDOCK:   -5.43 KCAL/MOL
REMARK 922        TOTAL FREE ENERGY PREDICTED BY IDOCK:   -8.38 KCAL/MOL
REMARK 923 INTER-LIGAND FREE ENERGY PREDICTED BY IDOCK:   -7.34 KCAL/MOL
REMARK 924 INTRA-LIGAND FREE ENERGY PREDICTED BY IDOCK:   -1.04 KCAL/MOL
REMARK 927      BINDING AFFINITY PREDICTED BY RF-SCORE:    0.00 PKD
ROOT
HETATM    1  C   UNL     1     -14.404  15.165  71.746  1.00  0.00    -0.597 C  
HETATM    2  N   UNL     1     -13.237  14.477  72.301  1.00  0.00    -0.358 NA 
HETATM    3  C   UNL     1     -13.506  13.045  72.409  1.00  0.00    -0.515 C  
ENDROOT
BRANCH   2   4
HETATM    4  C   UNL     1     -12.056  14.759  71.466  1.00  0.00    -0.350 C  
BRANCH   4   5
HETATM    5  C   UNL     1     -12.326  15.622  70.219  1.00  0.00    -0.370 C  
BRANCH   5   6
HETATM    6  O   UNL     1     -11.157  16.283  69.719  1.00  0.00    -0.326 OA 
BRANCH   6   7
HETATM    7  C   UNL     1     -11.024  16.328  68.284  1.00  0.00    -0.348 C  
BRANCH   7   8
HETATM    8  C   UNL     1     -10.505  17.688  67.828  1.00  0.00    -0.379 A  
HETATM    9  C   UNL     1     -10.586  18.043  66.468  1.00  0.00    -0.263 A  
HETATM   10  C   UNL     1     -10.086  18.663  68.748  1.00  0.00    -0.398 A  
HETATM   11  C   UNL     1     -10.307  19.346  66.052  1.00  0.00    -0.584 A  
HETATM   12  C   UNL     1      -9.793  19.961  68.326  1.00  0.00    -0.514 A  
HETATM   13  C   UNL     1      -9.920  20.306  66.982  1.00  0.00    -0.601 A  
ENDBRANCH   7   8
BRANCH   7  14
HETATM   14  C   UNL     1     -10.177  15.138  67.824  1.00  0.00    -0.236 A  
HETATM   15  C   UNL     1      -8.032  13.961  67.855  1.00  0.00    -0.160 A  
HETATM   16  C   UNL     1      -8.849  15.008  68.281  1.00  0.00    -0.172 A  
HETATM   17  C   UNL     1      -9.842  13.114  66.512  1.00  0.00    -0.265 A  
HETATM   18  C   UNL     1     -10.683  14.151  66.945  1.00  0.00    -0.286 A  
HETATM   19  C   UNL     1      -8.525  13.022  66.959  1.00  0.00    -0.142 A  
HETATM   20  C   UNL     1     -12.114  14.157  66.472  1.00  0.00    -0.481 C  
ENDBRANCH   7  14
ENDBRANCH   6   7
ENDBRANCH   5   6
ENDBRANCH   4   5
ENDBRANCH   2   4
TORSDOF 6
ENDMDL
MODEL       14
REMARK 921   NORMALIZED FREE ENERGY PREDICTED BY IDOCK:   -5.41 KCAL/MOL
REMARK 922        TOTAL FREE ENERGY PREDICTED BY IDOCK:   -8.37 KCAL/MOL
REMARK 923 INTER-LIGAND FREE ENERGY PREDICTED BY IDOCK:   -7.23 KCAL/MOL
REMARK 924 INTRA-LIGAND FREE ENERGY PREDICTED BY IDOCK:   -1.14 KCAL/MOL
REMARK 927      BINDING AFFINITY PREDICTED BY RF-SCORE:    0.00 PKD
ROOT
HETATM    1  C   UNL     1     -10.249  11.779  63.581  1.00  0.00    -0.428 C  
HETATM    2  N   UNL     1     -11.410  12.661  63.460  1.00  0.00    -0.481 NA 
HETATM    3  C   UNL     1     -12.642  11.879  63.538  1.00  0.00    -0.459 C  
ENDROOT
BRANCH   2   4
HETATM    4  C   UNL     1     -11.348  13.704  64.500  1.00  0.00    -0.375 C  
BRANCH   4   5
HETATM    5  C   UNL     1     -12.624  13.857  65.350  1.00  0.00    -0.507 C  
BRANCH   5   6
HETATM    6  O   UNL     1     -12.385  14.439  66.638  1.00  0.00    -0.409 OA 
BRANCH   6   7
HETATM    7  C   UNL     1     -11.192  13.999  67.317  1.00  0.00    -0.312 C  
BRANCH   7   8
HETATM    8  C   UNL     1     -10.295  15.183  67.664  1.00  0.00    -0.248 A  
HETATM    9  C   UNL     1     -10.867  16.453  67.865  1.00  0.00    -0.328 A  
HETATM   10  C   UNL     1      -8.929  15.017  67.940  1.00  0.00    -0.175 A  
HETATM   11  C   UNL     1     -10.108  17.507  68.375  1.00  0.00    -0.358 A  
HETATM   12  C   UNL     1      -8.168  16.077  68.437  1.00  0.00    -0.165 A  
HETATM   13  C   UNL     1      -8.760  17.316  68.670  1.00  0.00    -0.268 A  
ENDBRANCH   7   8
BRANCH   7  14
HETATM   14  C   UNL     1     -11.590  13.131  68.514  1.00  0.00    -0.361 A  
HETATM   15  C   UNL     1     -12.380  12.991  70.825  1.00  0.00    -0.394 A  
HETATM   16  C   UNL     1     -12.045  13.745  69.700  1.00  0.00    -0.392 A  
HETATM   17  C   UNL     1     -11.841  10.977  69.622  1.00  0.00    -0.414 A  
HETATM   18  C   UNL     1     -11.517  11.718  68.475  1.00  0.00    -0.353 A  
HETATM   19  C   UNL     1     -12.264  11.609  70.791  1.00  0.00    -0.443 A  
HETATM   20  C   UNL     1     -11.126  10.971  67.226  1.00  0.00    -0.359 C  
ENDBRANCH   7  14
ENDBRANCH   6   7
ENDBRANCH   5   6
ENDBRANCH   4   5
ENDBRANCH   2   4
TORSDOF 6
ENDMDL
MODEL       15
REMARK 921   NORMALIZED FREE ENERGY PREDICTED BY IDOCK:   -5.39 KCAL/MOL
REMARK 922        TOTAL FREE ENERGY PREDICTED BY IDOCK:   -8.34 KCAL/MOL
REMARK 923 INTER-LIGAND FREE ENERGY PREDICTED BY IDOCK:   -8.17 KCAL/MOL
REMARK 924 INTRA-LIGAND FREE ENERGY PREDICTED BY IDOCK:   -0.17 KCAL/MOL
REMARK 927      BINDING AFFINITY PREDICTED BY RF-SCORE:    0.00 PKD
ROOT
HETATM    1  C   UNL     1     -11.174  14.900  66.863  1.00  0.00    -0.343 C  
HETATM    2  N   UNL     1     -10.934  13.620  66.195  1.00  0.00    -0.283 NA 
HETATM    3  C   UNL     1      -9.589  13.139  66.506  1.00  0.00    -0.268 C  
ENDROOT
BRANCH   2   4
HETATM    4  C   UNL     1     -11.974  12.655  66.592  1.00  0.00    -0.312 C  
BRANCH   4   5
HETATM    5  C   UNL     1     -11.506  11.547  67.555  1.00  0.00    -0.282 C  
BRANCH   5   6
HETATM    6  O   UNL     1     -12.327  11.421  68.723  1.00  0.00    -0.480 OA 
BRANCH   6   7
HETATM    7  C   UNL     1     -11.673  11.672  69.983  1.00  0.00    -0.321 C  
BRANCH   7   8
HETATM    8  C   UNL     1     -12.288  12.879  70.685  1.00  0.00    -0.385 A  
HETATM    9  C   UNL     1     -12.191  14.151  70.092  1.00  0.00    -0.415 A  
HETATM   10  C   UNL     1     -13.082  12.737  71.834  1.00  0.00    -0.474 A  
HETATM   11  C   UNL     1     -12.909  15.234  70.602  1.00  0.00    -0.462 A  
HETATM   12  C   UNL     1     -13.788  13.825  72.350  1.00  0.00    -0.681 A  
HETATM   13  C   UNL     1     -13.714  15.069  71.726  1.00  0.00    -0.551 A  
ENDBRANCH   7   8
BRANCH   7  14
HETATM   14  C   UNL     1     -11.677  10.385  70.813  1.00  0.00    -0.464 A  
HETATM   15  C   UNL     1     -12.882   8.854  72.293  1.00  0.00    -0.475 A  
HETATM   16  C   UNL     1     -12.849   9.999  71.497  1.00  0.00    -0.537 A  
HETATM   17  C   UNL     1     -10.580   8.419  71.741  1.00  0.00    -0.352 A  
HETATM   18  C   UNL     1     -10.534   9.556  70.920  1.00  0.00    -0.382 A  
HETATM   19  C   UNL     1     -11.743   8.073  72.427  1.00  0.00    -0.444 A  
HETATM   20  C   UNL     1      -9.266   9.840  70.158  1.00  0.00    -0.253 C  
ENDBRANCH   7  14
ENDBRANCH   6   7
ENDBRANCH   5   6
ENDBRANCH   4   5
ENDBRANCH   2   4
TORSDOF 6
ENDMDL
MODEL       16
REMARK 921   NORMALIZED FREE ENERGY PREDICTED BY IDOCK:   -5.39 KCAL/MOL
REMARK 922        TOTAL FREE ENERGY PREDICTED BY IDOCK:   -8.33 KCAL/MOL
REMARK 923 INTER-LIGAND FREE ENERGY PREDICTED BY IDOCK:   -7.47 KCAL/MOL
REMARK 924 INTRA-LIGAND FREE ENERGY PREDICTED BY IDOCK:   -0.86 KCAL/MOL
REMARK 927      BINDING AFFINITY PREDICTED BY RF-SCORE:    0.00 PKD
ROOT
HETATM    1  C   UNL     1     -10.534  19.287  66.405  1.00  0.00    -0.474 C  
HETATM    2  N   UNL     1      -9.627  18.266  65.879  1.00  0.00    -0.491 NA 
HETATM    3  C   UNL     1      -8.285  18.462  66.424  1.00  0.00    -0.257 C  
ENDROOT
BRANCH   2   4
HETATM    4  C   UNL     1     -10.161  16.927  66.185  1.00  0.00    -0.333 C  
BRANCH   4   5
HETATM    5  C   UNL     1      -9.353  16.121  67.219  1.00  0.00    -0.213 C  
BRANCH   5   6
HETATM    6  O   UNL     1      -9.638  14.717  67.197  1.00  0.00    -0.222 OA 
BRANCH   6   7
HETATM    7  C   UNL     1     -11.031  14.358  67.107  1.00  0.00    -0.303 C  
BRANCH   7   8
HETATM    8  C   UNL     1     -11.345  13.724  65.755  1.00  0.00    -0.309 A  
HETATM    9  C   UNL     1     -10.290  13.347  64.903  1.00  0.00    -0.382 A  
HETATM   10  C   UNL     1     -12.653  13.366  65.395  1.00  0.00    -0.528 A  
HETATM   11  C   UNL     1     -10.533  12.590  63.756  1.00  0.00    -0.451 A  
HETATM   12  C   UNL     1     -12.895  12.620  64.240  1.00  0.00    -0.306 A  
HETATM   13  C   UNL     1     -11.835  12.219  63.430  1.00  0.00    -0.563 A  
ENDBRANCH   7   8
BRANCH   7  14
HETATM   14  C   UNL     1     -11.403  13.492  68.315  1.00  0.00    -0.328 A  
HETATM   15  C   UNL     1     -11.625  11.266  69.304  1.00  0.00    -0.390 A  
HETATM   16  C   UNL     1     -11.262  12.091  68.240  1.00  0.00    -0.315 A  
HETATM   17  C   UNL     1     -12.268  13.207  70.573  1.00  0.00    -0.405 A  
HETATM   18  C   UNL     1     -11.890  14.054  69.520  1.00  0.00    -0.378 A  
HETATM   19  C   UNL     1     -12.142  11.823  70.465  1.00  0.00    -0.439 A  
HETATM   20  C   UNL     1     -11.993  15.543  69.725  1.00  0.00    -0.384 C  
ENDBRANCH   7  14
ENDBRANCH   6   7
ENDBRANCH   5   6
ENDBRANCH   4   5
ENDBRANCH   2   4
TORSDOF 6
ENDMDL
MODEL       17
REMARK 921   NORMALIZED FREE ENERGY PREDICTED BY IDOCK:   -5.38 KCAL/MOL
REMARK 922        TOTAL FREE ENERGY PREDICTED BY IDOCK:   -8.31 KCAL/MOL
REMARK 923 INTER-LIGAND FREE ENERGY PREDICTED BY IDOCK:   -7.83 KCAL/MOL
REMARK 924 INTRA-LIGAND FREE ENERGY PREDICTED BY IDOCK:   -0.48 KCAL/MOL
REMARK 927      BINDING AFFINITY PREDICTED BY RF-SCORE:    0.00 PKD
ROOT
HETATM    1  C   UNL     1     -13.001   8.845  71.652  1.00  0.00    -0.354 C  
HETATM    2  N   UNL     1     -11.919   9.823  71.539  1.00  0.00    -0.395 NA 
HETATM    3  C   UNL     1     -10.851   9.291  70.695  1.00  0.00    -0.278 C  
ENDROOT
BRANCH   2   4
HETATM    4  C   UNL     1     -12.454  11.094  71.020  1.00  0.00    -0.403 C  
BRANCH   4   5
HETATM    5  C   UNL     1     -11.880  11.541  69.662  1.00  0.00    -0.354 C  
BRANCH   5   6
HETATM    6  O   UNL     1     -11.300  12.851  69.691  1.00  0.00    -0.201 OA 
BRANCH   6   7
HETATM    7  C   UNL     1     -12.194  13.943  69.397  1.00  0.00    -0.292 C  
BRANCH   7   8
HETATM    8  C   UNL     1     -12.560  14.704  70.668  1.00  0.00    -0.419 A  
HETATM    9  C   UNL     1     -13.914  14.884  71.004  1.00  0.00    -0.297 A  
HETATM   10  C   UNL     1     -11.584  15.101  71.595  1.00  0.00    -0.463 A  
HETATM   11  C   UNL     1     -14.279  15.396  72.250  1.00  0.00    -0.639 A  
HETATM   12  C   UNL     1     -11.952  15.626  72.835  1.00  0.00    -0.588 A  
HETATM   13  C   UNL     1     -13.298  15.758  73.169  1.00  0.00    -0.685 A  
ENDBRANCH   7   8
BRANCH   7  14
HETATM   14  C   UNL     1     -11.579  14.809  68.294  1.00  0.00    -0.348 A  
HETATM   15  C   UNL     1     -10.492  16.899  67.636  1.00  0.00    -0.332 A  
HETATM   16  C   UNL     1     -11.027  16.065  68.618  1.00  0.00    -0.323 A  
HETATM   17  C   UNL     1     -11.019  15.249  65.965  1.00  0.00    -0.317 A  
HETATM   18  C   UNL     1     -11.544  14.389  66.942  1.00  0.00    -0.404 A  
HETATM   19  C   UNL     1     -10.502  16.497  66.308  1.00  0.00    -0.285 A  
HETATM   20  C   UNL     1     -12.030  13.029  66.512  1.00  0.00    -0.457 C  
ENDBRANCH   7  14
ENDBRANCH   6   7
ENDBRANCH   5   6
ENDBRANCH   4   5
ENDBRANCH   2   4
TORSDOF 6
ENDMDL
MODEL       18
REMARK 921   NORMALIZED FREE ENERGY PREDICTED BY IDOCK:   -5.37 KCAL/MOL
REMARK 922        TOTAL FREE ENERGY PREDICTED BY IDOCK:   -8.31 KCAL/MOL
REMARK 923 INTER-LIGAND FREE ENERGY PREDICTED BY IDOCK:   -7.41 KCAL/MOL
REMARK 924 INTRA-LIGAND FREE ENERGY PREDICTED BY IDOCK:   -0.90 KCAL/MOL
REMARK 927      BINDING AFFINITY PREDICTED BY RF-SCORE:    0.00 PKD
ROOT
HETATM    1  C   UNL     1     -11.426   8.369  72.273  1.00  0.00    -0.384 C  
HETATM    2  N   UNL     1     -12.499   9.013  71.514  1.00  0.00    -0.317 NA 
HETATM    3  C   UNL     1     -13.701   9.116  72.338  1.00  0.00    -0.480 C  
ENDROOT
BRANCH   2   4
HETATM    4  C   UNL     1     -12.041  10.329  71.033  1.00  0.00    -0.386 C  
BRANCH   4   5
HETATM    5  C   UNL     1     -11.586  10.366  69.562  1.00  0.00    -0.219 C  
BRANCH   5   6
HETATM    6  O   UNL     1     -12.219  11.397  68.795  1.00  0.00    -0.502 OA 
BRANCH   6   7
HETATM    7  C   UNL     1     -11.337  12.363  68.188  1.00  0.00    -0.291 C  
BRANCH   7   8
HETATM    8  C   UNL     1     -11.698  12.585  66.722  1.00  0.00    -0.453 A  
HETATM    9  C   UNL     1     -12.395  13.749  66.347  1.00  0.00    -0.460 A  
HETATM   10  C   UNL     1     -11.224  11.736  65.710  1.00  0.00    -0.337 A  
HETATM   11  C   UNL     1     -12.565  14.078  65.001  1.00  0.00    -0.416 A  
HETATM   12  C   UNL     1     -11.408  12.060  64.365  1.00  0.00    -0.411 A  
HETATM   13  C   UNL     1     -12.063  13.238  64.011  1.00  0.00    -0.508 A  
ENDBRANCH   7   8
BRANCH   7  14
HETATM   14  C   UNL     1     -11.329  13.636  69.040  1.00  0.00    -0.333 A  
HETATM   15  C   UNL     1     -12.456  15.068  70.673  1.00  0.00    -0.422 A  
HETATM   16  C   UNL     1     -12.408  13.901  69.910  1.00  0.00    -0.358 A  
HETATM   17  C   UNL     1     -10.340  15.746  69.747  1.00  0.00    -0.307 A  
HETATM   18  C   UNL     1     -10.265  14.569  68.986  1.00  0.00    -0.210 A  
HETATM   19  C   UNL     1     -11.429  15.997  70.580  1.00  0.00    -0.427 A  
HETATM   20  C   UNL     1      -9.033  14.330  68.154  1.00  0.00    -0.189 C  
ENDBRANCH   7  14
ENDBRANCH   6   7
ENDBRANCH   5   6
ENDBRANCH   4   5
ENDBRANCH   2   4
TORSDOF 6
ENDMDL
MODEL       19
REMARK 921   NORMALIZED FREE ENERGY PREDICTED BY IDOCK:   -5.36 KCAL/MOL
REMARK 922        TOTAL FREE ENERGY PREDICTED BY IDOCK:   -8.29 KCAL/MOL
REMARK 923 INTER-LIGAND FREE ENERGY PREDICTED BY IDOCK:   -7.28 KCAL/MOL
REMARK 924 INTRA-LIGAND FREE ENERGY PREDICTED BY IDOCK:   -1.00 KCAL/MOL
REMARK 927      BINDING AFFINITY PREDICTED BY RF-SCORE:    0.00 PKD
ROOT
HETATM    1  C   UNL     1     -10.838  12.371  65.447  1.00  0.00    -0.285 C  
HETATM    2  N   UNL     1     -11.100  13.325  64.368  1.00  0.00    -0.367 NA 
HETATM    3  C   UNL     1     -11.965  12.714  63.361  1.00  0.00    -0.528 C  
ENDROOT
BRANCH   2   4
HETATM    4  C   UNL     1     -11.684  14.556  64.929  1.00  0.00    -0.402 C  
BRANCH   4   5
HETATM    5  C   UNL     1     -10.664  15.623  65.368  1.00  0.00    -0.408 C  
BRANCH   5   6
HETATM    6  O   UNL     1     -10.189  15.442  66.708  1.00  0.00    -0.260 OA 
BRANCH   6   7
HETATM    7  C   UNL     1     -10.656  16.401  67.678  1.00  0.00    -0.313 C  
BRANCH   7   8
HETATM    8  C   UNL     1     -11.270  15.699  68.886  1.00  0.00    -0.311 A  
HETATM    9  C   UNL     1     -11.731  14.375  68.760  1.00  0.00    -0.372 A  
HETATM   10  C   UNL     1     -11.252  16.281  70.163  1.00  0.00    -0.340 A  
HETATM   11  C   UNL     1     -12.111  13.641  69.885  1.00  0.00    -0.406 A  
HETATM   12  C   UNL     1     -11.647  15.549  71.284  1.00  0.00    -0.462 A  
HETATM   13  C   UNL     1     -12.060  14.226  71.148  1.00  0.00    -0.409 A  
ENDBRANCH   7   8
BRANCH   7  14
HETATM   14  C   UNL     1      -9.516  17.365  68.016  1.00  0.00    -0.281 A  
HETATM   15  C   UNL     1      -7.231  17.702  68.823  1.00  0.00    -0.268 A  
HETATM   16  C   UNL     1      -8.281  16.856  68.469  1.00  0.00    -0.249 A  
HETATM   17  C   UNL     1      -8.596  19.606  68.267  1.00  0.00    -0.358 A  
HETATM   18  C   UNL     1      -9.656  18.768  67.888  1.00  0.00    -0.345 A  
HETATM   19  C   UNL     1      -7.394  19.078  68.736  1.00  0.00    -0.366 A  
HETATM   20  C   UNL     1     -10.905  19.401  67.332  1.00  0.00    -0.555 C  
ENDBRANCH   7  14
ENDBRANCH   6   7
ENDBRANCH   5   6
ENDBRANCH   4   5
ENDBRANCH   2   4
TORSDOF 6
ENDMDL
MODEL       20
REMARK 921   NORMALIZED FREE ENERGY PREDICTED BY IDOCK:   -5.32 KCAL/MOL
REMARK 922        TOTAL FREE ENERGY PREDICTED BY IDOCK:   -8.24 KCAL/MOL
REMARK 923 INTER-LIGAND FREE ENERGY PREDICTED BY IDOCK:   -7.09 KCAL/MOL
REMARK 924 INTRA-LIGAND FREE ENERGY PREDICTED BY IDOCK:   -1.15 KCAL/MOL
REMARK 927      BINDING AFFINITY PREDICTED BY RF-SCORE:    0.00 PKD
ROOT
HETATM    1  C   UNL     1      -6.177  16.252  67.330  1.00  0.00    -0.172 C  
HETATM    2  N   UNL     1      -7.391  15.446  67.198  1.00  0.00    -0.197 NA 
HETATM    3  C   UNL     1      -7.231  14.180  67.911  1.00  0.00    -0.158 C  
ENDROOT
BRANCH   2   4
HETATM    4  C   UNL     1      -8.550  16.215  67.686  1.00  0.00    -0.173 C  
BRANCH   4   5
HETATM    5  C   UNL     1      -9.121  15.750  69.039  1.00  0.00    -0.245 C  
BRANCH   5   6
HETATM    6  O   UNL     1     -10.544  15.585  69.031  1.00  0.00    -0.226 OA 
BRANCH   6   7
HETATM    7  C   UNL     1     -11.023  14.235  69.194  1.00  0.00    -0.261 C  
BRANCH   7   8
HETATM    8  C   UNL     1     -12.166  14.181  70.204  1.00  0.00    -0.415 A  
HETATM    9  C   UNL     1     -12.450  12.974  70.869  1.00  0.00    -0.396 A  
HETATM   10  C   UNL     1     -12.850  15.340  70.603  1.00  0.00    -0.462 A  
HETATM   11  C   UNL     1     -13.350  12.940  71.935  1.00  0.00    -0.530 A  
HETATM   12  C   UNL     1     -13.761  15.300  71.661  1.00  0.00    -0.600 A  
HETATM   13  C   UNL     1     -13.999  14.105  72.337  1.00  0.00    -0.613 A  
ENDBRANCH   7   8
BRANCH   7  14
HETATM   14  C   UNL     1     -11.364  13.655  67.818  1.00  0.00    -0.336 A  
HETATM   15  C   UNL     1     -12.521  13.894  65.676  1.00  0.00    -0.538 A  
HETATM   16  C   UNL     1     -12.157  14.402  66.923  1.00  0.00    -0.386 A  
HETATM   17  C   UNL     1     -11.297  11.877  66.156  1.00  0.00    -0.383 A  
HETATM   18  C   UNL     1     -10.906  12.381  67.406  1.00  0.00    -0.273 A  
HETATM   19  C   UNL     1     -12.103  12.625  65.299  1.00  0.00    -0.519 A  
HETATM   20  C   UNL     1      -9.984  11.547  68.258  1.00  0.00    -0.205 C  
ENDBRANCH   7  14
ENDBRANCH   6   7
ENDBRANCH   5   6
ENDBRANCH   4   5
ENDBRANCH   2   4
TORSDOF 6
ENDMDL
MODEL       21
REMARK 921   NORMALIZED FREE ENERGY PREDICTED BY IDOCK:   -5.30 KCAL/MOL
REMARK 922        TOTAL FREE ENERGY PREDICTED BY IDOCK:   -8.22 KCAL/MOL
REMARK 923 INTER-LIGAND FREE ENERGY PREDICTED BY IDOCK:   -7.40 KCAL/MOL
REMARK 924 INTRA-LIGAND FREE ENERGY PREDICTED BY IDOCK:   -0.82 KCAL/MOL
REMARK 927      BINDING AFFINITY PREDICTED BY RF-SCORE:    0.00 PKD
ROOT
HETATM    1  C   UNL     1     -12.404  15.479  74.080  1.00  0.00    -0.660 C  
HETATM    2  N   UNL     1     -12.577  14.953  72.724  1.00  0.00    -0.370 NA 
HETATM    3  C   UNL     1     -13.980  15.044  72.328  1.00  0.00    -0.509 C  
ENDROOT
BRANCH   2   4
HETATM    4  C   UNL     1     -11.691  15.679  71.798  1.00  0.00    -0.454 C  
BRANCH   4   5
HETATM    5  C   UNL     1     -12.232  15.840  70.364  1.00  0.00    -0.356 C  
BRANCH   5   6
HETATM    6  O   UNL     1     -12.509  14.592  69.716  1.00  0.00    -0.303 OA 
BRANCH   6   7
HETATM    7  C   UNL     1     -11.383  13.941  69.095  1.00  0.00    -0.286 C  
BRANCH   7   8
HETATM    8  C   UNL     1     -11.370  12.449  69.418  1.00  0.00    -0.286 A  
HETATM    9  C   UNL     1     -10.415  11.614  68.809  1.00  0.00    -0.226 A  
HETATM   10  C   UNL     1     -12.187  11.907  70.423  1.00  0.00    -0.399 A  
HETATM   11  C   UNL     1     -10.248  10.294  69.230  1.00  0.00    -0.244 A  
HETATM   12  C   UNL     1     -12.027  10.581  70.832  1.00  0.00    -0.481 A  
HETATM   13  C   UNL     1     -11.048   9.781  70.247  1.00  0.00    -0.349 A  
ENDBRANCH   7   8
BRANCH   7  14
HETATM   14  C   UNL     1     -11.381  14.266  67.599  1.00  0.00    -0.344 A  
HETATM   15  C   UNL     1     -12.352  13.917  65.381  1.00  0.00    -0.494 A  
HETATM   16  C   UNL     1     -12.345  13.676  66.755  1.00  0.00    -0.354 A  
HETATM   17  C   UNL     1     -10.445  15.363  65.636  1.00  0.00    -0.391 A  
HETATM   18  C   UNL     1     -10.434  15.148  67.023  1.00  0.00    -0.282 A  
HETATM   19  C   UNL     1     -11.393  14.749  64.820  1.00  0.00    -0.399 A  
HETATM   20  C   UNL     1      -9.422  15.890  67.856  1.00  0.00    -0.213 C  
ENDBRANCH   7  14
ENDBRANCH   6   7
ENDBRANCH   5   6
ENDBRANCH   4   5
ENDBRANCH   2   4
TORSDOF 6
ENDMDL
MODEL       22
REMARK 921   NORMALIZED FREE ENERGY PREDICTED BY IDOCK:   -5.25 KCAL/MOL
REMARK 922        TOTAL FREE ENERGY PREDICTED BY IDOCK:   -8.14 KCAL/MOL
REMARK 923 INTER-LIGAND FREE ENERGY PREDICTED BY IDOCK:   -7.68 KCAL/MOL
REMARK 924 INTRA-LIGAND FREE ENERGY PREDICTED BY IDOCK:   -0.46 KCAL/MOL
REMARK 927      BINDING AFFINITY PREDICTED BY RF-SCORE:    0.00 PKD
ROOT
HETATM    1  C   UNL     1     -12.094  12.844  63.915  1.00  0.00    -0.480 C  
HETATM    2  N   UNL     1     -12.315  12.548  65.332  1.00  0.00    -0.635 NA 
HETATM    3  C   UNL     1     -11.208  11.749  65.853  1.00  0.00    -0.290 C  
ENDROOT
BRANCH   2   4
HETATM    4  C   UNL     1     -12.491  13.806  66.077  1.00  0.00    -0.445 C  
BRANCH   4   5
HETATM    5  C   UNL     1     -11.207  14.635  66.275  1.00  0.00    -0.340 C  
BRANCH   5   6
HETATM    6  O   UNL     1     -10.773  14.698  67.639  1.00  0.00    -0.263 OA 
BRANCH   6   7
HETATM    7  C   UNL     1     -11.265  15.815  68.406  1.00  0.00    -0.362 C  
BRANCH   7   8
HETATM    8  C   UNL     1     -11.637  15.383  69.821  1.00  0.00    -0.339 A  
HETATM    9  C   UNL     1     -11.484  16.287  70.888  1.00  0.00    -0.336 A  
HETATM   10  C   UNL     1     -12.273  14.157  70.072  1.00  0.00    -0.418 A  
HETATM   11  C   UNL     1     -11.997  15.996  72.152  1.00  0.00    -0.629 A  
HETATM   12  C   UNL     1     -12.773  13.861  71.342  1.00  0.00    -0.445 A  
HETATM   13  C   UNL     1     -12.650  14.786  72.376  1.00  0.00    -0.421 A  
ENDBRANCH   7   8
BRANCH   7  14
HETATM   14  C   UNL     1     -10.244  16.955  68.339  1.00  0.00    -0.322 A  
HETATM   15  C   UNL     1      -9.741  19.283  67.778  1.00  0.00    -0.409 A  
HETATM   16  C   UNL     1     -10.649  18.229  67.889  1.00  0.00    -0.392 A  
HETATM   17  C   UNL     1      -7.989  17.841  68.580  1.00  0.00    -0.294 A  
HETATM   18  C   UNL     1      -8.892  16.775  68.716  1.00  0.00    -0.258 A  
HETATM   19  C   UNL     1      -8.408  19.084  68.109  1.00  0.00    -0.347 A  
HETATM   20  C   UNL     1      -8.386  15.477  69.289  1.00  0.00    -0.257 C  
ENDBRANCH   7  14
ENDBRANCH   6   7
ENDBRANCH   5   6
ENDBRANCH   4   5
ENDBRANCH   2   4
TORSDOF 6
ENDMDL
MODEL       23
REMARK 921   NORMALIZED FREE ENERGY PREDICTED BY IDOCK:   -5.24 KCAL/MOL
REMARK 922        TOTAL FREE ENERGY PREDICTED BY IDOCK:   -8.13 KCAL/MOL
REMARK 923 INTER-LIGAND FREE ENERGY PREDICTED BY IDOCK:   -7.03 KCAL/MOL
REMARK 924 INTRA-LIGAND FREE ENERGY PREDICTED BY IDOCK:   -1.10 KCAL/MOL
REMARK 927      BINDING AFFINITY PREDICTED BY RF-SCORE:    0.00 PKD
ROOT
HETATM    1  C   UNL     1      -9.928  17.088  68.057  1.00  0.00    -0.283 C  
HETATM    2  N   UNL     1      -8.595  16.491  68.148  1.00  0.00    -0.188 NA 
HETATM    3  C   UNL     1      -7.641  17.475  68.656  1.00  0.00    -0.273 C  
ENDROOT
BRANCH   2   4
HETATM    4  C   UNL     1      -8.651  15.285  68.993  1.00  0.00    -0.226 C  
BRANCH   4   5
HETATM    5  C   UNL     1      -8.544  13.949  68.233  1.00  0.00    -0.177 C  
BRANCH   5   6
HETATM    6  O   UNL     1      -9.550  12.999  68.607  1.00  0.00    -0.149 OA 
BRANCH   6   7
HETATM    7  C   UNL     1     -10.914  13.454  68.512  1.00  0.00    -0.268 C  
BRANCH   7   8
HETATM    8  C   UNL     1     -11.516  13.093  67.158  1.00  0.00    -0.378 A  
HETATM    9  C   UNL     1     -12.404  13.987  66.531  1.00  0.00    -0.442 A  
HETATM   10  C   UNL     1     -11.094  11.961  66.443  1.00  0.00    -0.359 A  
HETATM   11  C   UNL     1     -12.813  13.781  65.212  1.00  0.00    -0.430 A  
HETATM   12  C   UNL     1     -11.517  11.750  65.129  1.00  0.00    -0.248 A  
HETATM   13  C   UNL     1     -12.362  12.668  64.509  1.00  0.00    -0.537 A  
ENDBRANCH   7   8
BRANCH   7  14
HETATM   14  C   UNL     1     -11.701  12.929  69.717  1.00  0.00    -0.351 A  
HETATM   15  C   UNL     1     -12.527  11.021  71.005  1.00  0.00    -0.512 A  
HETATM   16  C   UNL     1     -11.789  11.540  69.942  1.00  0.00    -0.430 A  
HETATM   17  C   UNL     1     -13.106  13.258  71.679  1.00  0.00    -0.453 A  
HETATM   18  C   UNL     1     -12.352  13.799  70.625  1.00  0.00    -0.445 A  
HETATM   19  C   UNL     1     -13.197  11.880  71.865  1.00  0.00    -0.467 A  
HETATM   20  C   UNL     1     -12.243  15.297  70.517  1.00  0.00    -0.415 C  
ENDBRANCH   7  14
ENDBRANCH   6   7
ENDBRANCH   5   6
ENDBRANCH   4   5
ENDBRANCH   2   4
TORSDOF 6
ENDMDL
MODEL       24
REMARK 921   NORMALIZED FREE ENERGY PREDICTED BY IDOCK:   -5.23 KCAL/MOL
REMARK 922        TOTAL FREE ENERGY PREDICTED BY IDOCK:   -8.12 KCAL/MOL
REMARK 923 INTER-LIGAND FREE ENERGY PREDICTED BY IDOCK:   -6.76 KCAL/MOL
REMARK 924 INTRA-LIGAND FREE ENERGY PREDICTED BY IDOCK:   -1.36 KCAL/MOL
REMARK 927      BINDING AFFINITY PREDICTED BY RF-SCORE:    0.00 PKD
ROOT
HETATM    1  C   UNL     1     -10.196  19.742  68.413  1.00  0.00    -0.449 C  
HETATM    2  N   UNL     1      -9.005  20.085  67.634  1.00  0.00    -0.330 NA 
HETATM    3  C   UNL     1      -7.812  19.539  68.279  1.00  0.00    -0.327 C  
ENDROOT
BRANCH   2   4
HETATM    4  C   UNL     1      -9.162  19.597  66.252  1.00  0.00    -0.375 C  
BRANCH   4   5
HETATM    5  C   UNL     1     -10.462  18.819  65.976  1.00  0.00    -0.432 C  
BRANCH   5   6
HETATM    6  O   UNL     1     -10.239  17.474  65.536  1.00  0.00    -0.608 OA 
BRANCH   6   7
HETATM    7  C   UNL     1     -10.476  16.442  66.515  1.00  0.00    -0.282 C  
BRANCH   7   8
HETATM    8  C   UNL     1     -11.016  15.178  65.854  1.00  0.00    -0.339 A  
HETATM    9  C   UNL     1     -11.060  13.976  66.584  1.00  0.00    -0.312 A  
HETATM   10  C   UNL     1     -11.613  15.209  64.584  1.00  0.00    -0.357 A  
HETATM   11  C   UNL     1     -11.727  12.857  66.081  1.00  0.00    -0.451 A  
HETATM   12  C   UNL     1     -12.267  14.084  64.077  1.00  0.00    -0.395 A  
HETATM   13  C   UNL     1     -12.338  12.915  64.831  1.00  0.00    -0.532 A  
ENDBRANCH   7   8
BRANCH   7  14
HETATM   14  C   UNL     1      -9.202  16.233  67.338  1.00  0.00    -0.217 A  
HETATM   15  C   UNL     1      -6.776  15.919  67.396  1.00  0.00    -0.229 A  
HETATM   16  C   UNL     1      -7.955  16.147  66.686  1.00  0.00    -0.305 A  
HETATM   17  C   UNL     1      -8.037  15.874  69.447  1.00  0.00    -0.178 A  
HETATM   18  C   UNL     1      -9.230  16.122  68.750  1.00  0.00    -0.224 A  
HETATM   19  C   UNL     1      -6.820  15.768  68.775  1.00  0.00    -0.122 A  
HETATM   20  C   UNL     1     -10.501  16.287  69.541  1.00  0.00    -0.299 C  
ENDBRANCH   7  14
ENDBRANCH   6   7
ENDBRANCH   5   6
ENDBRANCH   4   5
ENDBRANCH   2   4
TORSDOF 6
ENDMDL
MODEL       25
REMARK 921   NORMALIZED FREE ENERGY PREDICTED BY IDOCK:   -5.20 KCAL/MOL
REMARK 922        TOTAL FREE ENERGY PREDICTED BY IDOCK:   -8.08 KCAL/MOL
REMARK 923 INTER-LIGAND FREE ENERGY PREDICTED BY IDOCK:   -7.31 KCAL/MOL
REMARK 924 INTRA-LIGAND FREE ENERGY PREDICTED BY IDOCK:   -0.77 KCAL/MOL
REMARK 927      BINDING AFFINITY PREDICTED BY RF-SCORE:    0.00 PKD
ROOT
HETATM    1  C   UNL     1     -12.704  15.659  71.190  1.00  0.00    -0.465 C  
HETATM    2  N   UNL     1     -12.779  14.750  72.335  1.00  0.00    -0.333 NA 
HETATM    3  C   UNL     1     -12.772  15.515  73.581  1.00  0.00    -0.579 C  
ENDROOT
BRANCH   2   4
HETATM    4  C   UNL     1     -13.976  13.900  72.212  1.00  0.00    -0.565 C  
BRANCH   4   5
HETATM    5  C   UNL     1     -13.699  12.388  72.120  1.00  0.00    -0.175 C  
BRANCH   5   6
HETATM    6  O   UNL     1     -12.418  12.076  71.559  1.00  0.00    -0.209 OA 
BRANCH   6   7
HETATM    7  C   UNL     1     -12.399  11.017  70.580  1.00  0.00    -0.386 C  
BRANCH   7   8
HETATM    8  C   UNL     1     -11.779  11.498  69.271  1.00  0.00    -0.397 A  
HETATM    9  C   UNL     1     -11.326  10.555  68.329  1.00  0.00    -0.332 A  
HETATM   10  C   UNL     1     -11.784  12.854  68.908  1.00  0.00    -0.370 A  
HETATM   11  C   UNL     1     -10.941  10.952  67.048  1.00  0.00    -0.310 A  
HETATM   12  C   UNL     1     -11.385  13.250  67.630  1.00  0.00    -0.328 A  
HETATM   13  C   UNL     1     -10.979  12.299  66.696  1.00  0.00    -0.321 A  
ENDBRANCH   7   8
BRANCH   7  14
HETATM   14  C   UNL     1     -11.721   9.787  71.189  1.00  0.00    -0.465 A  
HETATM   15  C   UNL     1      -9.661   8.570  71.699  1.00  0.00    -0.319 A  
HETATM   16  C   UNL     1     -10.314   9.692  71.189  1.00  0.00    -0.236 A  
HETATM   17  C   UNL     1     -11.791   7.596  72.252  1.00  0.00    -0.354 A  
HETATM   18  C   UNL     1     -12.465   8.726  71.760  1.00  0.00    -0.407 A  
HETATM   19  C   UNL     1     -10.400   7.516  72.217  1.00  0.00    -0.263 A  
HETATM   20  C   UNL     1     -13.965   8.775  71.884  1.00  0.00    -0.493 C  
ENDBRANCH   7  14
ENDBRANCH   6   7
ENDBRANCH   5   6
ENDBRANCH   4   5
ENDBRANCH   2   4
TORSDOF 6
ENDMDL
MODEL       26
REMARK 921   NORMALIZED FREE ENERGY PREDICTED BY IDOCK:   -5.18 KCAL/MOL
REMARK 922        TOTAL FREE ENERGY PREDICTED BY IDOCK:   -8.05 KCAL/MOL
REMARK 923 INTER-LIGAND FREE ENERGY PREDICTED BY IDOCK:   -7.11 KCAL/MOL
REMARK 924 INTRA-LIGAND FREE ENERGY PREDICTED BY IDOCK:   -0.94 KCAL/MOL
REMARK 927      BINDING AFFINITY PREDICTED BY RF-SCORE:    0.00 PKD
ROOT
HETATM    1  C   UNL     1     -10.883   8.971  71.734  1.00  0.00    -0.367 C  
HETATM    2  N   UNL     1     -12.179   9.314  71.148  1.00  0.00    -0.304 NA 
HETATM    3  C   UNL     1     -13.209   9.329  72.185  1.00  0.00    -0.461 C  
ENDROOT
BRANCH   2   4
HETATM    4  C   UNL     1     -12.077  10.606  70.448  1.00  0.00    -0.341 C  
BRANCH   4   5
HETATM    5  C   UNL     1     -11.690  10.516  68.959  1.00  0.00    -0.170 C  
BRANCH   5   6
HETATM    6  O   UNL     1     -12.128  11.641  68.187  1.00  0.00    -0.577 OA 
BRANCH   6   7
HETATM    7  C   UNL     1     -11.087  12.442  67.592  1.00  0.00    -0.259 C  
BRANCH   7   8
HETATM    8  C   UNL     1     -11.313  12.603  66.092  1.00  0.00    -0.375 A  
HETATM    9  C   UNL     1     -10.782  11.650  65.203  1.00  0.00    -0.351 A  
HETATM   10  C   UNL     1     -12.166  13.592  65.578  1.00  0.00    -0.490 A  
HETATM   11  C   UNL     1     -11.135  11.657  63.853  1.00  0.00    -0.477 A  
HETATM   12  C   UNL     1     -12.507  13.605  64.224  1.00  0.00    -0.304 A  
HETATM   13  C   UNL     1     -12.005  12.629  63.366  1.00  0.00    -0.613 A  
ENDBRANCH   7   8
BRANCH   7  14
HETATM   14  C   UNL     1     -10.970  13.760  68.362  1.00  0.00    -0.275 A  
HETATM   15  C   UNL     1     -11.994  15.413  69.847  1.00  0.00    -0.384 A  
HETATM   16  C   UNL     1     -12.046  14.200  69.162  1.00  0.00    -0.362 A  
HETATM   17  C   UNL     1      -9.780  15.793  68.981  1.00  0.00    -0.242 A  
HETATM   18  C   UNL     1      -9.808  14.566  68.300  1.00  0.00    -0.229 A  
HETATM   19  C   UNL     1     -10.866  16.216  69.745  1.00  0.00    -0.333 A  
HETATM   20  C   UNL     1      -8.577  14.139  67.542  1.00  0.00    -0.196 C  
ENDBRANCH   7  14
ENDBRANCH   6   7
ENDBRANCH   5   6
ENDBRANCH   4   5
ENDBRANCH   2   4
TORSDOF 6
ENDMDL
MODEL       27
REMARK 921   NORMALIZED FREE ENERGY PREDICTED BY IDOCK:   -5.13 KCAL/MOL
REMARK 922        TOTAL FREE ENERGY PREDICTED BY IDOCK:   -7.99 KCAL/MOL
REMARK 923 INTER-LIGAND FREE ENERGY PREDICTED BY IDOCK:   -6.96 KCAL/MOL
REMARK 924 INTRA-LIGAND FREE ENERGY PREDICTED BY IDOCK:   -1.03 KCAL/MOL
REMARK 927      BINDING AFFINITY PREDICTED BY RF-SCORE:    0.00 PKD
ROOT
HETATM    1  C   UNL     1     -12.614  12.077  63.457  1.00  0.00    -0.507 C  
HETATM    2  N   UNL     1     -11.385  12.108  64.251  1.00  0.00    -0.338 NA 
HETATM    3  C   UNL     1     -10.230  11.849  63.394  1.00  0.00    -0.449 C  
ENDROOT
BRANCH   2   4
HETATM    4  C   UNL     1     -11.280  13.403  64.946  1.00  0.00    -0.331 C  
BRANCH   4   5
HETATM    5  C   UNL     1     -12.255  13.595  66.123  1.00  0.00    -0.444 C  
BRANCH   5   6
HETATM    6  O   UNL     1     -11.834  12.941  67.326  1.00  0.00    -0.362 OA 
BRANCH   6   7
HETATM    7  C   UNL     1     -11.608  13.797  68.464  1.00  0.00    -0.338 C  
BRANCH   7   8
HETATM    8  C   UNL     1     -12.028  13.105  69.758  1.00  0.00    -0.382 A  
HETATM    9  C   UNL     1     -12.622  13.858  70.787  1.00  0.00    -0.424 A  
HETATM   10  C   UNL     1     -11.979  11.709  69.896  1.00  0.00    -0.414 A  
HETATM   11  C   UNL     1     -13.195  13.229  71.894  1.00  0.00    -0.523 A  
HETATM   12  C   UNL     1     -12.540  11.083  71.010  1.00  0.00    -0.512 A  
HETATM   13  C   UNL     1     -13.162  11.841  72.000  1.00  0.00    -0.460 A  
ENDBRANCH   7   8
BRANCH   7  14
HETATM   14  C   UNL     1     -10.154  14.279  68.445  1.00  0.00    -0.243 A  
HETATM   15  C   UNL     1      -7.788  13.777  68.078  1.00  0.00    -0.152 A  
HETATM   16  C   UNL     1      -9.128  13.387  68.071  1.00  0.00    -0.205 A  
HETATM   17  C   UNL     1      -8.444  15.973  68.813  1.00  0.00    -0.228 A  
HETATM   18  C   UNL     1      -9.799  15.604  68.794  1.00  0.00    -0.213 A  
HETATM   19  C   UNL     1      -7.446  15.066  68.463  1.00  0.00    -0.119 A  
HETATM   20  C   UNL     1     -10.831  16.650  69.123  1.00  0.00    -0.315 C  
ENDBRANCH   7  14
ENDBRANCH   6   7
ENDBRANCH   5   6
ENDBRANCH   4   5
ENDBRANCH   2   4
TORSDOF 6
ENDMDL
MODEL       28
REMARK 921   NORMALIZED FREE ENERGY PREDICTED BY IDOCK:   -5.13 KCAL/MOL
REMARK 922        TOTAL FREE ENERGY PREDICTED BY IDOCK:   -7.98 KCAL/MOL
REMARK 923 INTER-LIGAND FREE ENERGY PREDICTED BY IDOCK:   -7.40 KCAL/MOL
REMARK 924 INTRA-LIGAND FREE ENERGY PREDICTED BY IDOCK:   -0.57 KCAL/MOL
REMARK 927      BINDING AFFINITY PREDICTED BY RF-SCORE:    0.00 PKD
ROOT
HETATM    1  C   UNL     1     -13.620  13.655  72.212  1.00  0.00    -0.571 C  
HETATM    2  N   UNL     1     -13.739  15.089  71.943  1.00  0.00    -0.401 NA 
HETATM    3  C   UNL     1     -13.351  15.854  73.126  1.00  0.00    -0.587 C  
ENDROOT
BRANCH   2   4
HETATM    4  C   UNL     1     -12.924  15.439  70.765  1.00  0.00    -0.453 C  
BRANCH   4   5
HETATM    5  C   UNL     1     -12.272  14.244  70.043  1.00  0.00    -0.359 C  
BRANCH   5   6
HETATM    6  O   UNL     1     -11.197  14.621  69.174  1.00  0.00    -0.245 OA 
BRANCH   6   7
HETATM    7  C   UNL     1     -11.577  15.267  67.942  1.00  0.00    -0.289 C  
BRANCH   7   8
HETATM    8  C   UNL     1     -10.842  16.593  67.773  1.00  0.00    -0.292 A  
HETATM    9  C   UNL     1     -10.765  17.188  66.500  1.00  0.00    -0.074 A  
HETATM   10  C   UNL     1     -10.367  17.318  68.878  1.00  0.00    -0.352 A  
HETATM   11  C   UNL     1     -10.277  18.486  66.346  1.00  0.00    -0.449 A  
HETATM   12  C   UNL     1      -9.866  18.611  68.718  1.00  0.00    -0.422 A  
HETATM   13  C   UNL     1      -9.837  19.201  67.457  1.00  0.00    -0.406 A  
ENDBRANCH   7   8
BRANCH   7  14
HETATM   14  C   UNL     1     -11.388  14.284  66.784  1.00  0.00    -0.357 A  
HETATM   15  C   UNL     1     -12.350  13.079  64.884  1.00  0.00    -0.512 A  
HETATM   16  C   UNL     1     -12.471  13.997  65.927  1.00  0.00    -0.513 A  
HETATM   17  C   UNL     1     -10.051  12.708  65.495  1.00  0.00    -0.279 A  
HETATM   18  C   UNL     1     -10.150  13.643  66.537  1.00  0.00    -0.286 A  
HETATM   19  C   UNL     1     -11.144  12.424  64.677  1.00  0.00    -0.348 A  
HETATM   20  C   UNL     1      -8.915  13.950  67.344  1.00  0.00    -0.211 C  
ENDBRANCH   7  14
ENDBRANCH   6   7
ENDBRANCH   5   6
ENDBRANCH   4   5
ENDBRANCH   2   4
TORSDOF 6
ENDMDL
MODEL       29
REMARK 921   NORMALIZED FREE ENERGY PREDICTED BY IDOCK:   -5.11 KCAL/MOL
REMARK 922        TOTAL FREE ENERGY PREDICTED BY IDOCK:   -7.95 KCAL/MOL
REMARK 923 INTER-LIGAND FREE ENERGY PREDICTED BY IDOCK:   -7.28 KCAL/MOL
REMARK 924 INTRA-LIGAND FREE ENERGY PREDICTED BY IDOCK:   -0.68 KCAL/MOL
REMARK 927      BINDING AFFINITY PREDICTED BY RF-SCORE:    0.00 PKD
ROOT
HETATM    1  C   UNL     1     -12.196  12.089  63.471  1.00  0.00    -0.547 C  
HETATM    2  N   UNL     1     -11.829  12.390  64.855  1.00  0.00    -0.378 NA 
HETATM    3  C   UNL     1     -10.374  12.438  64.987  1.00  0.00    -0.293 C  
ENDROOT
BRANCH   2   4
HETATM    4  C   UNL     1     -12.466  13.652  65.271  1.00  0.00    -0.479 C  
BRANCH   4   5
HETATM    5  C   UNL     1     -11.761  14.393  66.423  1.00  0.00    -0.386 C  
BRANCH   5   6
HETATM    6  O   UNL     1     -12.364  14.163  67.703  1.00  0.00    -0.273 OA 
BRANCH   6   7
HETATM    7  C   UNL     1     -11.455  13.880  68.786  1.00  0.00    -0.292 C  
BRANCH   7   8
HETATM    8  C   UNL     1     -12.164  13.991  70.133  1.00  0.00    -0.425 A  
HETATM    9  C   UNL     1     -12.599  15.250  70.588  1.00  0.00    -0.471 A  
HETATM   10  C   UNL     1     -12.531  12.853  70.867  1.00  0.00    -0.383 A  
HETATM   11  C   UNL     1     -13.419  15.359  71.712  1.00  0.00    -0.581 A  
HETATM   12  C   UNL     1     -13.341  12.967  72.000  1.00  0.00    -0.579 A  
HETATM   13  C   UNL     1     -13.797  14.217  72.411  1.00  0.00    -0.638 A  
ENDBRANCH   7   8
BRANCH   7  14
HETATM   14  C   UNL     1     -10.781  12.529  68.533  1.00  0.00    -0.263 A  
HETATM   15  C   UNL     1     -10.987  10.105  68.266  1.00  0.00    -0.299 A  
HETATM   16  C   UNL     1     -11.567  11.359  68.457  1.00  0.00    -0.384 A  
HETATM   17  C   UNL     1      -8.812  11.135  68.197  1.00  0.00    -0.148 A  
HETATM   18  C   UNL     1      -9.380  12.407  68.369  1.00  0.00    -0.158 A  
HETATM   19  C   UNL     1      -9.608   9.992  68.150  1.00  0.00    -0.152 A  
HETATM   20  C   UNL     1      -8.470  13.607  68.348  1.00  0.00    -0.147 C  
ENDBRANCH   7  14
ENDBRANCH   6   7
ENDBRANCH   5   6
ENDBRANCH   4   5
ENDBRANCH   2   4
TORSDOF 6
ENDMDL
MODEL       30
REMARK 921   NORMALIZED FREE ENERGY PREDICTED BY IDOCK:   -5.10 KCAL/MOL
REMARK 922        TOTAL FREE ENERGY PREDICTED BY IDOCK:   -7.94 KCAL/MOL
REMARK 923 INTER-LIGAND FREE ENERGY PREDICTED BY IDOCK:   -7.18 KCAL/MOL
REMARK 924 INTRA-LIGAND FREE ENERGY PREDICTED BY IDOCK:   -0.76 KCAL/MOL
REMARK 927      BINDING AFFINITY PREDICTED BY RF-SCORE:    0.00 PKD
ROOT
HETATM    1  C   UNL     1     -13.769  12.971  72.328  1.00  0.00    -0.512 C  
HETATM    2  N   UNL     1     -13.928  14.394  72.634  1.00  0.00    -0.575 NA 
HETATM    3  C   UNL     1     -12.792  14.865  73.423  1.00  0.00    -0.515 C  
ENDROOT
BRANCH   2   4
HETATM    4  C   UNL     1     -14.087  15.153  71.381  1.00  0.00    -0.504 C  
BRANCH   4   5
HETATM    5  C   UNL     1     -12.787  15.380  70.585  1.00  0.00    -0.430 C  
BRANCH   5   6
HETATM    6  O   UNL     1     -12.451  14.288  69.720  1.00  0.00    -0.323 OA 
BRANCH   6   7
HETATM    7  C   UNL     1     -11.893  14.647  68.439  1.00  0.00    -0.295 C  
BRANCH   7   8
HETATM    8  C   UNL     1     -10.731  15.621  68.605  1.00  0.00    -0.256 A  
HETATM    9  C   UNL     1      -9.497  15.154  69.096  1.00  0.00    -0.221 A  
HETATM   10  C   UNL     1     -10.806  16.943  68.140  1.00  0.00    -0.351 A  
HETATM   11  C   UNL     1      -8.364  15.968  69.072  1.00  0.00    -0.243 A  
HETATM   12  C   UNL     1      -9.673  17.760  68.131  1.00  0.00    -0.313 A  
HETATM   13  C   UNL     1      -8.450  17.268  68.581  1.00  0.00    -0.260 A  
ENDBRANCH   7   8
BRANCH   7  14
HETATM   14  C   UNL     1     -11.546  13.369  67.670  1.00  0.00    -0.377 A  
HETATM   15  C   UNL     1     -11.126  10.959  67.699  1.00  0.00    -0.376 A  
HETATM   16  C   UNL     1     -11.477  12.138  68.356  1.00  0.00    -0.356 A  
HETATM   17  C   UNL     1     -10.919  12.184  65.637  1.00  0.00    -0.337 A  
HETATM   18  C   UNL     1     -11.288  13.377  66.278  1.00  0.00    -0.329 A  
HETATM   19  C   UNL     1     -10.833  10.985  66.342  1.00  0.00    -0.253 A  
HETATM   20  C   UNL     1     -11.422  14.626  65.446  1.00  0.00    -0.352 C  
ENDBRANCH   7  14
ENDBRANCH   6   7
ENDBRANCH   5   6
ENDBRANCH   4   5
ENDBRANCH   2   4
TORSDOF 6
ENDMDL
MODEL       31
REMARK 921   NORMALIZED FREE ENERGY PREDICTED BY IDOCK:   -5.09 KCAL/MOL
REMARK 922        TOTAL FREE ENERGY PREDICTED BY IDOCK:   -7.93 KCAL/MOL
REMARK 923 INTER-LIGAND FREE ENERGY PREDICTED BY IDOCK:   -6.92 KCAL/MOL
REMARK 924 INTRA-LIGAND FREE ENERGY PREDICTED BY IDOCK:   -1.01 KCAL/MOL
REMARK 927      BINDING AFFINITY PREDICTED BY RF-SCORE:    0.00 PKD
ROOT
HETATM    1  C   UNL     1     -12.637  11.919  63.378  1.00  0.00    -0.431 C  
HETATM    2  N   UNL     1     -11.419  12.226  64.129  1.00  0.00    -0.355 NA 
HETATM    3  C   UNL     1     -10.242  11.939  63.312  1.00  0.00    -0.395 C  
ENDROOT
BRANCH   2   4
HETATM    4  C   UNL     1     -11.456  13.631  64.574  1.00  0.00    -0.379 C  
BRANCH   4   5
HETATM    5  C   UNL     1     -12.411  13.921  65.747  1.00  0.00    -0.495 C  
BRANCH   5   6
HETATM    6  O   UNL     1     -11.828  13.676  67.033  1.00  0.00    -0.365 OA 
BRANCH   6   7
HETATM    7  C   UNL     1     -11.536  14.844  67.826  1.00  0.00    -0.339 C  
BRANCH   7   8
HETATM    8  C   UNL     1     -11.908  14.615  69.288  1.00  0.00    -0.357 A  
HETATM    9  C   UNL     1     -12.286  15.710  70.088  1.00  0.00    -0.387 A  
HETATM   10  C   UNL     1     -12.033  13.324  69.823  1.00  0.00    -0.391 A  
HETATM   11  C   UNL     1     -12.820  15.513  71.363  1.00  0.00    -0.531 A  
HETATM   12  C   UNL     1     -12.555  13.131  71.104  1.00  0.00    -0.403 A  
HETATM   13  C   UNL     1     -12.963  14.223  71.866  1.00  0.00    -0.429 A  
ENDBRANCH   7   8
BRANCH   7  14
HETATM   14  C   UNL     1     -10.077  15.250  67.598  1.00  0.00    -0.235 A  
HETATM   15  C   UNL     1      -7.738  14.587  67.333  1.00  0.00    -0.215 A  
HETATM   16  C   UNL     1      -9.082  14.256  67.502  1.00  0.00    -0.193 A  
HETATM   17  C   UNL     1      -8.326  16.921  67.329  1.00  0.00    -0.204 A  
HETATM   18  C   UNL     1      -9.686  16.606  67.480  1.00  0.00    -0.247 A  
HETATM   19  C   UNL     1      -7.358  15.921  67.262  1.00  0.00    -0.251 A  
HETATM   20  C   UNL     1     -10.686  17.732  67.483  1.00  0.00    -0.315 C  
ENDBRANCH   7  14
ENDBRANCH   6   7
ENDBRANCH   5   6
ENDBRANCH   4   5
ENDBRANCH   2   4
TORSDOF 6
ENDMDL
MODEL       32
REMARK 921   NORMALIZED FREE ENERGY PREDICTED BY IDOCK:   -5.06 KCAL/MOL
REMARK 922        TOTAL FREE ENERGY PREDICTED BY IDOCK:   -7.89 KCAL/MOL
REMARK 923 INTER-LIGAND FREE ENERGY PREDICTED BY IDOCK:   -6.92 KCAL/MOL
REMARK 924 INTRA-LIGAND FREE ENERGY PREDICTED BY IDOCK:   -0.98 KCAL/MOL
REMARK 927      BINDING AFFINITY PREDICTED BY RF-SCORE:    0.00 PKD
ROOT
HETATM    1  C   UNL     1     -14.339  14.386  72.035  1.00  0.00    -0.553 C  
HETATM    2  N   UNL     1     -13.442  15.516  71.790  1.00  0.00    -0.474 NA 
HETATM    3  C   UNL     1     -12.664  15.806  72.993  1.00  0.00    -0.491 C  
ENDROOT
BRANCH   2   4
HETATM    4  C   UNL     1     -12.581  15.219  70.631  1.00  0.00    -0.417 C  
BRANCH   4   5
HETATM    5  C   UNL     1     -11.295  16.063  70.538  1.00  0.00    -0.401 C  
BRANCH   5   6
HETATM    6  O   UNL     1     -11.190  16.810  69.319  1.00  0.00    -0.205 OA 
BRANCH   6   7
HETATM    7  C   UNL     1      -9.919  16.738  68.643  1.00  0.00    -0.276 C  
BRANCH   7   8
HETATM    8  C   UNL     1      -9.848  15.504  67.747  1.00  0.00    -0.213 A  
HETATM    9  C   UNL     1      -8.773  14.606  67.884  1.00  0.00    -0.169 A  
HETATM   10  C   UNL     1     -10.904  15.155  66.890  1.00  0.00    -0.317 A  
HETATM   11  C   UNL     1      -8.781  13.376  67.226  1.00  0.00    -0.219 A  
HETATM   12  C   UNL     1     -10.903  13.929  66.222  1.00  0.00    -0.290 A  
HETATM   13  C   UNL     1      -9.851  13.034  66.402  1.00  0.00    -0.270 A  
ENDBRANCH   7   8
BRANCH   7  14
HETATM   14  C   UNL     1      -9.662  18.063  67.920  1.00  0.00    -0.297 A  
HETATM   15  C   UNL     1     -10.525  19.912  66.571  1.00  0.00    -0.589 A  
HETATM   16  C   UNL     1     -10.726  18.723  67.272  1.00  0.00    -0.490 A  
HETATM   17  C   UNL     1      -8.190  19.844  67.151  1.00  0.00    -0.351 A  
HETATM   18  C   UNL     1      -8.378  18.658  67.877  1.00  0.00    -0.293 A  
HETATM   19  C   UNL     1      -9.254  20.464  66.498  1.00  0.00    -0.325 A  
HETATM   20  C   UNL     1      -7.199  18.073  68.611  1.00  0.00    -0.276 C  
ENDBRANCH   7  14
ENDBRANCH   6   7
ENDBRANCH   5   6
ENDBRANCH   4   5
ENDBRANCH   2   4
TORSDOF 6
ENDMDL
MODEL       33
REMARK 921   NORMALIZED FREE ENERGY PREDICTED BY IDOCK:   -5.04 KCAL/MOL
REMARK 922        TOTAL FREE ENERGY PREDICTED BY IDOCK:   -7.86 KCAL/MOL
REMARK 923 INTER-LIGAND FREE ENERGY PREDICTED BY IDOCK:   -6.98 KCAL/MOL
REMARK 924 INTRA-LIGAND FREE ENERGY PREDICTED BY IDOCK:   -0.87 KCAL/MOL
REMARK 927      BINDING AFFINITY PREDICTED BY RF-SCORE:    0.00 PKD
ROOT
HETATM    1  C   UNL     1     -11.579   8.320  72.219  1.00  0.00    -0.383 C  
HETATM    2  N   UNL     1     -12.313   9.095  71.217  1.00  0.00    -0.315 NA 
HETATM    3  C   UNL     1     -13.181  10.068  71.876  1.00  0.00    -0.452 C  
ENDROOT
BRANCH   2   4
HETATM    4  C   UNL     1     -11.359   9.737  70.295  1.00  0.00    -0.272 C  
BRANCH   4   5
HETATM    5  C   UNL     1     -11.895  10.980  69.560  1.00  0.00    -0.333 C  
BRANCH   5   6
HETATM    6  O   UNL     1     -11.069  11.397  68.466  1.00  0.00    -0.199 OA 
BRANCH   6   7
HETATM    7  C   UNL     1     -11.605  12.445  67.634  1.00  0.00    -0.357 C  
BRANCH   7   8
HETATM    8  C   UNL     1     -11.091  13.811  68.080  1.00  0.00    -0.282 A  
HETATM    9  C   UNL     1      -9.839  14.265  67.624  1.00  0.00    -0.224 A  
HETATM   10  C   UNL     1     -11.896  14.697  68.813  1.00  0.00    -0.348 A  
HETATM   11  C   UNL     1      -9.431  15.580  67.849  1.00  0.00    -0.201 A  
HETATM   12  C   UNL     1     -11.478  16.009  69.048  1.00  0.00    -0.360 A  
HETATM   13  C   UNL     1     -10.255  16.454  68.553  1.00  0.00    -0.257 A  
ENDBRANCH   7   8
BRANCH   7  14
HETATM   14  C   UNL     1     -11.326  12.110  66.166  1.00  0.00    -0.414 A  
HETATM   15  C   UNL     1     -10.127  10.752  64.522  1.00  0.00    -0.415 A  
HETATM   16  C   UNL     1     -10.437  11.063  65.846  1.00  0.00    -0.300 A  
HETATM   17  C   UNL     1     -11.597  12.507  63.779  1.00  0.00    -0.552 A  
HETATM   18  C   UNL     1     -11.935  12.821  65.105  1.00  0.00    -0.466 A  
HETATM   19  C   UNL     1     -10.696  11.484  63.489  1.00  0.00    -0.483 A  
HETATM   20  C   UNL     1     -12.962  13.897  65.347  1.00  0.00    -0.368 C  
ENDBRANCH   7  14
ENDBRANCH   6   7
ENDBRANCH   5   6
ENDBRANCH   4   5
ENDBRANCH   2   4
TORSDOF 6
ENDMDL
MODEL       34
REMARK 921   NORMALIZED FREE ENERGY PREDICTED BY IDOCK:   -5.02 KCAL/MOL
REMARK 922        TOTAL FREE ENERGY PREDICTED BY IDOCK:   -7.84 KCAL/MOL
REMARK 923 INTER-LIGAND FREE ENERGY PREDICTED BY IDOCK:   -7.00 KCAL/MOL
REMARK 924 INTRA-LIGAND FREE ENERGY PREDICTED BY IDOCK:   -0.83 KCAL/MOL
REMARK 927      BINDING AFFINITY PREDICTED BY RF-SCORE:    0.00 PKD
ROOT
HETATM    1  C   UNL     1     -12.425  16.087  73.166  1.00  0.00    -0.526 C  
HETATM    2  N   UNL     1     -12.226  14.818  72.464  1.00  0.00    -0.297 NA 
HETATM    3  C   UNL     1     -13.466  14.044  72.471  1.00  0.00    -0.558 C  
ENDROOT
BRANCH   2   4
HETATM    4  C   UNL     1     -11.744  15.082  71.097  1.00  0.00    -0.337 C  
BRANCH   4   5
HETATM    5  C   UNL     1     -12.435  14.262  69.990  1.00  0.00    -0.300 C  
BRANCH   5   6
HETATM    6  O   UNL     1     -11.658  14.156  68.790  1.00  0.00    -0.285 OA 
BRANCH   6   7
HETATM    7  C   UNL     1     -11.769  12.909  68.076  1.00  0.00    -0.356 C  
BRANCH   7   8
HETATM    8  C   UNL     1     -11.748  13.142  66.568  1.00  0.00    -0.433 A  
HETATM    9  C   UNL     1     -11.617  12.044  65.697  1.00  0.00    -0.356 A  
HETATM   10  C   UNL     1     -12.007  14.406  66.014  1.00  0.00    -0.377 A  
HETATM   11  C   UNL     1     -11.793  12.199  64.321  1.00  0.00    -0.460 A  
HETATM   12  C   UNL     1     -12.168  14.559  64.636  1.00  0.00    -0.474 A  
HETATM   13  C   UNL     1     -12.078  13.455  63.792  1.00  0.00    -0.516 A  
ENDBRANCH   7   8
BRANCH   7  14
HETATM   14  C   UNL     1     -10.693  11.945  68.584  1.00  0.00    -0.266 A  
HETATM   15  C   UNL     1      -8.350  11.242  68.595  1.00  0.00    -0.146 A  
HETATM   16  C   UNL     1      -9.352  12.121  68.185  1.00  0.00    -0.204 A  
HETATM   17  C   UNL     1      -9.982   9.983  69.840  1.00  0.00    -0.280 A  
HETATM   18  C   UNL     1     -10.999  10.869  69.452  1.00  0.00    -0.304 A  
HETATM   19  C   UNL     1      -8.668  10.165  69.411  1.00  0.00    -0.186 A  
HETATM   20  C   UNL     1     -12.386  10.652  70.001  1.00  0.00    -0.341 C  
ENDBRANCH   7  14
ENDBRANCH   6   7
ENDBRANCH   5   6
ENDBRANCH   4   5
ENDBRANCH   2   4
TORSDOF 6
ENDMDL
MODEL       35
REMARK 921   NORMALIZED FREE ENERGY PREDICTED BY IDOCK:   -4.95 KCAL/MOL
REMARK 922        TOTAL FREE ENERGY PREDICTED BY IDOCK:   -7.75 KCAL/MOL
REMARK 923 INTER-LIGAND FREE ENERGY PREDICTED BY IDOCK:   -6.84 KCAL/MOL
REMARK 924 INTRA-LIGAND FREE ENERGY PREDICTED BY IDOCK:   -0.90 KCAL/MOL
REMARK 927      BINDING AFFINITY PREDICTED BY RF-SCORE:    0.00 PKD
ROOT
HETATM    1  C   UNL     1     -12.845  15.609  71.391  1.00  0.00    -0.482 C  
HETATM    2  N   UNL     1     -12.706  14.199  71.758  1.00  0.00    -0.336 NA 
HETATM    3  C   UNL     1     -13.980  13.684  72.256  1.00  0.00    -0.563 C  
ENDROOT
BRANCH   2   4
HETATM    4  C   UNL     1     -12.213  13.434  70.599  1.00  0.00    -0.350 C  
BRANCH   4   5
HETATM    5  C   UNL     1     -12.362  14.140  69.238  1.00  0.00    -0.169 C  
BRANCH   5   6
HETATM    6  O   UNL     1     -11.184  14.067  68.425  1.00  0.00    -0.244 OA 
BRANCH   6   7
HETATM    7  C   UNL     1     -11.306  14.593  67.089  1.00  0.00    -0.356 C  
BRANCH   7   8
HETATM    8  C   UNL     1     -10.340  15.754  66.870  1.00  0.00    -0.295 A  
HETATM    9  C   UNL     1     -10.619  17.008  67.444  1.00  0.00    -0.289 A  
HETATM   10  C   UNL     1      -9.099  15.571  66.238  1.00  0.00    -0.369 A  
HETATM   11  C   UNL     1      -9.667  18.028  67.431  1.00  0.00    -0.296 A  
HETATM   12  C   UNL     1      -8.154  16.598  66.215  1.00  0.00    -0.361 A  
HETATM   13  C   UNL     1      -8.431  17.819  66.825  1.00  0.00    -0.269 A  
ENDBRANCH   7   8
BRANCH   7  14
HETATM   14  C   UNL     1     -11.156  13.446  66.085  1.00  0.00    -0.299 A  
HETATM   15  C   UNL     1     -10.302  11.211  65.574  1.00  0.00    -0.326 A  
HETATM   16  C   UNL     1     -10.492  12.263  66.470  1.00  0.00    -0.254 A  
HETATM   17  C   UNL     1     -11.451  12.469  63.874  1.00  0.00    -0.507 A  
HETATM   18  C   UNL     1     -11.668  13.530  64.768  1.00  0.00    -0.397 A  
HETATM   19  C   UNL     1     -10.769  11.320  64.272  1.00  0.00    -0.416 A  
HETATM   20  C   UNL     1     -12.466  14.715  64.292  1.00  0.00    -0.267 C  
ENDBRANCH   7  14
ENDBRANCH   6   7
ENDBRANCH   5   6
ENDBRANCH   4   5
ENDBRANCH   2   4
TORSDOF 6
ENDMDL
MODEL       36
REMARK 921   NORMALIZED FREE ENERGY PREDICTED BY IDOCK:   -4.94 KCAL/MOL
REMARK 922        TOTAL FREE ENERGY PREDICTED BY IDOCK:   -7.73 KCAL/MOL
REMARK 923 INTER-LIGAND FREE ENERGY PREDICTED BY IDOCK:   -6.85 KCAL/MOL
REMARK 924 INTRA-LIGAND FREE ENERGY PREDICTED BY IDOCK:   -0.87 KCAL/MOL
REMARK 927      BINDING AFFINITY PREDICTED BY RF-SCORE:    0.00 PKD
ROOT
HETATM    1  C   UNL     1     -10.834   7.302  69.784  1.00  0.00    -0.235 C  
HETATM    2  N   UNL     1     -10.804   8.756  69.952  1.00  0.00    -0.226 NA 
HETATM    3  C   UNL     1      -9.917   9.114  71.056  1.00  0.00    -0.297 C  
ENDROOT
BRANCH   2   4
HETATM    4  C   UNL     1     -10.396   9.390  68.685  1.00  0.00    -0.203 C  
BRANCH   4   5
HETATM    5  C   UNL     1     -11.204  10.641  68.290  1.00  0.00    -0.301 C  
BRANCH   5   6
HETATM    6  O   UNL     1     -10.906  11.790  69.092  1.00  0.00    -0.224 OA 
BRANCH   6   7
HETATM    7  C   UNL     1     -11.681  12.973  68.813  1.00  0.00    -0.324 C  
BRANCH   7   8
HETATM    8  C   UNL     1     -12.277  13.548  70.094  1.00  0.00    -0.400 A  
HETATM    9  C   UNL     1     -12.515  14.932  70.190  1.00  0.00    -0.353 A  
HETATM   10  C   UNL     1     -12.740  12.718  71.128  1.00  0.00    -0.355 A  
HETATM   11  C   UNL     1     -13.238  15.460  71.261  1.00  0.00    -0.585 A  
HETATM   12  C   UNL     1     -13.450  13.252  72.205  1.00  0.00    -0.679 A  
HETATM   13  C   UNL     1     -13.713  14.618  72.263  1.00  0.00    -0.565 A  
ENDBRANCH   7   8
BRANCH   7  14
HETATM   14  C   UNL     1     -10.820  13.957  68.016  1.00  0.00    -0.259 A  
HETATM   15  C   UNL     1      -8.819  15.359  67.888  1.00  0.00    -0.168 A  
HETATM   16  C   UNL     1      -9.612  14.433  68.566  1.00  0.00    -0.217 A  
HETATM   17  C   UNL     1     -10.398  15.361  66.071  1.00  0.00    -0.339 A  
HETATM   18  C   UNL     1     -11.198  14.415  66.730  1.00  0.00    -0.340 A  
HETATM   19  C   UNL     1      -9.220  15.834  66.647  1.00  0.00    -0.283 A  
HETATM   20  C   UNL     1     -12.426  13.899  66.025  1.00  0.00    -0.501 C  
ENDBRANCH   7  14
ENDBRANCH   6   7
ENDBRANCH   5   6
ENDBRANCH   4   5
ENDBRANCH   2   4
TORSDOF 6
ENDMDL
MODEL       37
REMARK 921   NORMALIZED FREE ENERGY PREDICTED BY IDOCK:   -4.93 KCAL/MOL
REMARK 922        TOTAL FREE ENERGY PREDICTED BY IDOCK:   -7.71 KCAL/MOL
REMARK 923 INTER-LIGAND FREE ENERGY PREDICTED BY IDOCK:   -7.22 KCAL/MOL
REMARK 924 INTRA-LIGAND FREE ENERGY PREDICTED BY IDOCK:   -0.50 KCAL/MOL
REMARK 927      BINDING AFFINITY PREDICTED BY RF-SCORE:    0.00 PKD
ROOT
HETATM    1  C   UNL     1     -12.497  12.214  63.778  1.00  0.00    -0.514 C  
HETATM    2  N   UNL     1     -11.673  12.507  64.951  1.00  0.00    -0.343 NA 
HETATM    3  C   UNL     1     -10.281  12.699  64.549  1.00  0.00    -0.305 C  
ENDROOT
BRANCH   2   4
HETATM    4  C   UNL     1     -12.215  13.685  65.652  1.00  0.00    -0.454 C  
BRANCH   4   5
HETATM    5  C   UNL     1     -11.167  14.727  66.088  1.00  0.00    -0.337 C  
BRANCH   5   6
HETATM    6  O   UNL     1     -10.904  14.717  67.496  1.00  0.00    -0.274 OA 
BRANCH   6   7
HETATM    7  C   UNL     1     -11.405  15.846  68.240  1.00  0.00    -0.342 C  
BRANCH   7   8
HETATM    8  C   UNL     1     -11.848  15.424  69.638  1.00  0.00    -0.368 A  
HETATM    9  C   UNL     1     -12.402  14.146  69.835  1.00  0.00    -0.382 A  
HETATM   10  C   UNL     1     -11.580  16.217  70.765  1.00  0.00    -0.382 A  
HETATM   11  C   UNL     1     -12.631  13.657  71.122  1.00  0.00    -0.452 A  
HETATM   12  C   UNL     1     -11.824  15.730  72.051  1.00  0.00    -0.582 A  
HETATM   13  C   UNL     1     -12.333  14.446  72.230  1.00  0.00    -0.273 A  
ENDBRANCH   7   8
BRANCH   7  14
HETATM   14  C   UNL     1     -10.358  16.963  68.216  1.00  0.00    -0.335 A  
HETATM   15  C   UNL     1      -9.816  19.314  67.807  1.00  0.00    -0.431 A  
HETATM   16  C   UNL     1     -10.746  18.276  67.877  1.00  0.00    -0.335 A  
HETATM   17  C   UNL     1      -8.072  17.776  68.431  1.00  0.00    -0.297 A  
HETATM   18  C   UNL     1      -8.997  16.724  68.525  1.00  0.00    -0.244 A  
HETATM   19  C   UNL     1      -8.477  19.060  68.070  1.00  0.00    -0.336 A  
HETATM   20  C   UNL     1      -8.505  15.376  68.981  1.00  0.00    -0.229 C  
ENDBRANCH   7  14
ENDBRANCH   6   7
ENDBRANCH   5   6
ENDBRANCH   4   5
ENDBRANCH   2   4
TORSDOF 6
ENDMDL
MODEL       38
REMARK 921   NORMALIZED FREE ENERGY PREDICTED BY IDOCK:   -4.93 KCAL/MOL
REMARK 922        TOTAL FREE ENERGY PREDICTED BY IDOCK:   -7.71 KCAL/MOL
REMARK 923 INTER-LIGAND FREE ENERGY PREDICTED BY IDOCK:   -6.87 KCAL/MOL
REMARK 924 INTRA-LIGAND FREE ENERGY PREDICTED BY IDOCK:   -0.83 KCAL/MOL
REMARK 927      BINDING AFFINITY PREDICTED BY RF-SCORE:    0.00 PKD
ROOT
HETATM    1  C   UNL     1     -13.097   9.237  72.165  1.00  0.00    -0.443 C  
HETATM    2  N   UNL     1     -13.185  10.333  71.200  1.00  0.00    -0.374 NA 
HETATM    3  C   UNL     1     -13.248  11.613  71.902  1.00  0.00    -0.369 C  
ENDROOT
BRANCH   2   4
HETATM    4  C   UNL     1     -12.043  10.265  70.271  1.00  0.00    -0.249 C  
BRANCH   4   5
HETATM    5  C   UNL     1     -11.878  11.487  69.347  1.00  0.00    -0.350 C  
BRANCH   5   6
HETATM    6  O   UNL     1     -11.947  11.162  67.953  1.00  0.00    -0.624 OA 
BRANCH   6   7
HETATM    7  C   UNL     1     -10.829  11.590  67.149  1.00  0.00    -0.268 C  
BRANCH   7   8
HETATM    8  C   UNL     1      -9.858  10.438  66.911  1.00  0.00    -0.236 A  
HETATM    9  C   UNL     1     -10.331   9.112  66.937  1.00  0.00    -0.321 A  
HETATM   10  C   UNL     1      -8.530  10.664  66.515  1.00  0.00    -0.144 A  
HETATM   11  C   UNL     1      -9.517   8.055  66.529  1.00  0.00    -0.278 A  
HETATM   12  C   UNL     1      -7.714   9.602  66.121  1.00  0.00    -0.102 A  
HETATM   13  C   UNL     1      -8.211   8.301  66.112  1.00  0.00    -0.119 A  
ENDBRANCH   7   8
BRANCH   7  14
HETATM   14  C   UNL     1     -11.357  12.250  65.872  1.00  0.00    -0.406 A  
HETATM   15  C   UNL     1     -11.842  12.087  63.480  1.00  0.00    -0.587 A  
HETATM   16  C   UNL     1     -11.404  11.510  64.672  1.00  0.00    -0.226 A  
HETATM   17  C   UNL     1     -12.223  14.162  64.638  1.00  0.00    -0.465 A  
HETATM   18  C   UNL     1     -11.804  13.593  65.851  1.00  0.00    -0.406 A  
HETATM   19  C   UNL     1     -12.237  13.417  63.460  1.00  0.00    -0.468 A  
HETATM   20  C   UNL     1     -11.872  14.434  67.099  1.00  0.00    -0.437 C  
ENDBRANCH   7  14
ENDBRANCH   6   7
ENDBRANCH   5   6
ENDBRANCH   4   5
ENDBRANCH   2   4
TORSDOF 6
ENDMDL
MODEL       39
REMARK 921   NORMALIZED FREE ENERGY PREDICTED BY IDOCK:   -4.92 KCAL/MOL
REMARK 922        TOTAL FREE ENERGY PREDICTED BY IDOCK:   -7.71 KCAL/MOL
REMARK 923 INTER-LIGAND FREE ENERGY PREDICTED BY IDOCK:   -6.83 KCAL/MOL
REMARK 924 INTRA-LIGAND FREE ENERGY PREDICTED BY IDOCK:   -0.87 KCAL/MOL
REMARK 927      BINDING AFFINITY PREDICTED BY RF-SCORE:    0.00 PKD
ROOT
HETATM    1  C   UNL     1     -11.454   8.586  72.308  1.00  0.00    -0.375 C  
HETATM    2  N   UNL     1     -12.240   9.363  71.348  1.00  0.00    -0.334 NA 
HETATM    3  C   UNL     1     -13.307  10.082  72.041  1.00  0.00    -0.409 C  
ENDROOT
BRANCH   2   4
HETATM    4  C   UNL     1     -11.350  10.274  70.605  1.00  0.00    -0.347 C  
BRANCH   4   5
HETATM    5  C   UNL     1     -12.058  11.215  69.612  1.00  0.00    -0.336 C  
BRANCH   5   6
HETATM    6  O   UNL     1     -11.406  11.295  68.338  1.00  0.00    -0.231 OA 
BRANCH   6   7
HETATM    7  C   UNL     1     -11.750  12.433  67.524  1.00  0.00    -0.357 C  
BRANCH   7   8
HETATM    8  C   UNL     1     -11.177  13.718  68.115  1.00  0.00    -0.298 A  
HETATM    9  C   UNL     1     -12.049  14.704  68.612  1.00  0.00    -0.237 A  
HETATM   10  C   UNL     1      -9.797  13.884  68.317  1.00  0.00    -0.231 A  
HETATM   11  C   UNL     1     -11.559  15.793  69.335  1.00  0.00    -0.371 A  
HETATM   12  C   UNL     1      -9.309  14.982  69.028  1.00  0.00    -0.206 A  
HETATM   13  C   UNL     1     -10.190  15.927  69.550  1.00  0.00    -0.279 A  
ENDBRANCH   7   8
BRANCH   7  14
HETATM   14  C   UNL     1     -11.331  12.158  66.077  1.00  0.00    -0.410 A  
HETATM   15  C   UNL     1      -9.910  10.932  64.508  1.00  0.00    -0.356 A  
HETATM   16  C   UNL     1     -10.346  11.185  65.808  1.00  0.00    -0.316 A  
HETATM   17  C   UNL     1     -11.439  12.599  63.684  1.00  0.00    -0.563 A  
HETATM   18  C   UNL     1     -11.904  12.853  64.984  1.00  0.00    -0.411 A  
HETATM   19  C   UNL     1     -10.447  11.649  63.448  1.00  0.00    -0.482 A  
HETATM   20  C   UNL     1     -13.021  13.847  65.165  1.00  0.00    -0.282 C  
ENDBRANCH   7  14
ENDBRANCH   6   7
ENDBRANCH   5   6
ENDBRANCH   4   5
ENDBRANCH   2   4
TORSDOF 6
ENDMDL
MODEL       40
REMARK 921   NORMALIZED FREE ENERGY PREDICTED BY IDOCK:   -4.90 KCAL/MOL
REMARK 922        TOTAL FREE ENERGY PREDICTED BY IDOCK:   -7.68 KCAL/MOL
REMARK 923 INTER-LIGAND FREE ENERGY PREDICTED BY IDOCK:   -6.58 KCAL/MOL
REMARK 924 INTRA-LIGAND FREE ENERGY PREDICTED BY IDOCK:   -1.10 KCAL/MOL
REMARK 927      BINDING AFFINITY PREDICTED BY RF-SCORE:    0.00 PKD
ROOT
HETATM    1  C   UNL     1     -12.603  12.017  63.376  1.00  0.00    -0.469 C  
HETATM    2  N   UNL     1     -11.560  12.312  64.359  1.00  0.00    -0.342 NA 
HETATM    3  C   UNL     1     -10.245  12.003  63.801  1.00  0.00    -0.422 C  
ENDROOT
BRANCH   2   4
HETATM    4  C   UNL     1     -11.666  13.719  64.783  1.00  0.00    -0.381 C  
BRANCH   4   5
HETATM    5  C   UNL     1     -12.604  13.975  65.978  1.00  0.00    -0.414 C  
BRANCH   5   6
HETATM    6  O   UNL     1     -11.913  14.359  67.173  1.00  0.00    -0.405 OA 
BRANCH   6   7
HETATM    7  C   UNL     1     -11.661  13.304  68.123  1.00  0.00    -0.362 C  
BRANCH   7   8
HETATM    8  C   UNL     1     -10.214  12.827  68.035  1.00  0.00    -0.228 A  
HETATM    9  C   UNL     1      -9.935  11.543  67.531  1.00  0.00    -0.207 A  
HETATM   10  C   UNL     1      -9.138  13.688  68.300  1.00  0.00    -0.193 A  
HETATM   11  C   UNL     1      -8.624  11.154  67.252  1.00  0.00    -0.140 A  
HETATM   12  C   UNL     1      -7.826  13.290  68.033  1.00  0.00    -0.148 A  
HETATM   13  C   UNL     1      -7.571  12.031  67.495  1.00  0.00    -0.147 A  
ENDBRANCH   7   8
BRANCH   7  14
HETATM   14  C   UNL     1     -12.091  13.772  69.516  1.00  0.00    -0.386 A  
HETATM   15  C   UNL     1     -12.546  15.619  71.054  1.00  0.00    -0.515 A  
HETATM   16  C   UNL     1     -12.194  15.152  69.788  1.00  0.00    -0.325 A  
HETATM   17  C   UNL     1     -12.727  13.347  71.828  1.00  0.00    -0.321 A  
HETATM   18  C   UNL     1     -12.393  12.859  70.555  1.00  0.00    -0.362 A  
HETATM   19  C   UNL     1     -12.798  14.716  72.078  1.00  0.00    -0.403 A  
HETATM   20  C   UNL     1     -12.395  11.369  70.335  1.00  0.00    -0.404 C  
ENDBRANCH   7  14
ENDBRANCH   6   7
ENDBRANCH   5   6
ENDBRANCH   4   5
ENDBRANCH   2   4
TORSDOF 6
ENDMDL
MODEL       41
REMARK 921   NORMALIZED FREE ENERGY PREDICTED BY IDOCK:   -4.90 KCAL/MOL
REMARK 922        TOTAL FREE ENERGY PREDICTED BY IDOCK:   -7.68 KCAL/MOL
REMARK 923 INTER-LIGAND FREE ENERGY PREDICTED BY IDOCK:   -6.75 KCAL/MOL
REMARK 924 INTRA-LIGAND FREE ENERGY PREDICTED BY IDOCK:   -0.93 KCAL/MOL
REMARK 927      BINDING AFFINITY PREDICTED BY RF-SCORE:    0.00 PKD
ROOT
HETATM    1  C   UNL     1     -12.882  15.644  71.221  1.00  0.00    -0.487 C  
HETATM    2  N   UNL     1     -12.483  14.342  71.757  1.00  0.00    -0.337 NA 
HETATM    3  C   UNL     1     -13.578  13.765  72.534  1.00  0.00    -0.575 C  
ENDROOT
BRANCH   2   4
HETATM    4  C   UNL     1     -12.064  13.462  70.651  1.00  0.00    -0.295 C  
BRANCH   4   5
HETATM    5  C   UNL     1     -11.330  14.168  69.495  1.00  0.00    -0.259 C  
BRANCH   5   6
HETATM    6  O   UNL     1     -11.684  13.663  68.202  1.00  0.00    -0.317 OA 
BRANCH   6   7
HETATM    7  C   UNL     1     -10.587  13.243  67.367  1.00  0.00    -0.246 C  
BRANCH   7   8
HETATM    8  C   UNL     1     -11.097  12.645  66.058  1.00  0.00    -0.321 A  
HETATM    9  C   UNL     1     -12.404  12.935  65.624  1.00  0.00    -0.482 A  
HETATM   10  C   UNL     1     -10.249  11.935  65.193  1.00  0.00    -0.314 A  
HETATM   11  C   UNL     1     -12.830  12.571  64.346  1.00  0.00    -0.366 A  
HETATM   12  C   UNL     1     -10.683  11.560  63.920  1.00  0.00    -0.458 A  
HETATM   13  C   UNL     1     -11.966  11.892  63.491  1.00  0.00    -0.567 A  
ENDBRANCH   7   8
BRANCH   7  14
HETATM   14  C   UNL     1      -9.614  14.412  67.194  1.00  0.00    -0.251 A  
HETATM   15  C   UNL     1      -9.197  16.687  66.395  1.00  0.00    -0.318 A  
HETATM   16  C   UNL     1     -10.062  15.613  66.605  1.00  0.00    -0.280 A  
HETATM   17  C   UNL     1      -7.402  15.415  67.372  1.00  0.00    -0.244 A  
HETATM   18  C   UNL     1      -8.262  14.332  67.608  1.00  0.00    -0.193 A  
HETATM   19  C   UNL     1      -7.864  16.582  66.766  1.00  0.00    -0.296 A  
HETATM   20  C   UNL     1      -7.714  13.124  68.323  1.00  0.00    -0.141 C  
ENDBRANCH   7  14
ENDBRANCH   6   7
ENDBRANCH   5   6
ENDBRANCH   4   5
ENDBRANCH   2   4
TORSDOF 6
ENDMDL
MODEL       42
REMARK 921   NORMALIZED FREE ENERGY PREDICTED BY IDOCK:   -4.86 KCAL/MOL
REMARK 922        TOTAL FREE ENERGY PREDICTED BY IDOCK:   -7.62 KCAL/MOL
REMARK 923 INTER-LIGAND FREE ENERGY PREDICTED BY IDOCK:   -6.45 KCAL/MOL
REMARK 924 INTRA-LIGAND FREE ENERGY PREDICTED BY IDOCK:   -1.17 KCAL/MOL
REMARK 927      BINDING AFFINITY PREDICTED BY RF-SCORE:    0.00 PKD
ROOT
HETATM    1  C   UNL     1     -11.481  14.820  64.684  1.00  0.00    -0.381 C  
HETATM    2  N   UNL     1     -10.921  13.638  65.342  1.00  0.00    -0.291 NA 
HETATM    3  C   UNL     1      -9.836  14.033  66.237  1.00  0.00    -0.305 C  
ENDROOT
BRANCH   2   4
HETATM    4  C   UNL     1     -11.991  12.915  66.052  1.00  0.00    -0.446 C  
BRANCH   4   5
HETATM    5  C   UNL     1     -11.893  12.945  67.589  1.00  0.00    -0.346 C  
BRANCH   5   6
HETATM    6  O   UNL     1     -12.071  11.660  68.197  1.00  0.00    -0.577 OA 
BRANCH   6   7
HETATM    7  C   UNL     1     -10.951  11.160  68.954  1.00  0.00    -0.225 C  
BRANCH   7   8
HETATM    8  C   UNL     1     -11.419  10.508  70.252  1.00  0.00    -0.416 A  
HETATM    9  C   UNL     1     -12.729  10.735  70.711  1.00  0.00    -0.451 A  
HETATM   10  C   UNL     1     -10.630   9.563  70.927  1.00  0.00    -0.395 A  
HETATM   11  C   UNL     1     -13.250  10.002  71.778  1.00  0.00    -0.540 A  
HETATM   12  C   UNL     1     -11.149   8.841  72.003  1.00  0.00    -0.441 A  
HETATM   13  C   UNL     1     -12.463   9.049  72.418  1.00  0.00    -0.375 A  
ENDBRANCH   7   8
BRANCH   7  14
HETATM   14  C   UNL     1     -10.107  10.252  68.056  1.00  0.00    -0.189 A  
HETATM   15  C   UNL     1      -9.983   8.323  66.556  1.00  0.00    -0.320 A  
HETATM   16  C   UNL     1     -10.723   9.195  67.354  1.00  0.00    -0.247 A  
HETATM   17  C   UNL     1      -7.980   9.537  67.109  1.00  0.00    -0.102 A  
HETATM   18  C   UNL     1      -8.711  10.436  67.901  1.00  0.00    -0.118 A  
HETATM   19  C   UNL     1      -8.609   8.485  66.445  1.00  0.00    -0.136 A  
HETATM   20  C   UNL     1      -7.980  11.587  68.541  1.00  0.00    -0.143 C  
ENDBRANCH   7  14
ENDBRANCH   6   7
ENDBRANCH   5   6
ENDBRANCH   4   5
ENDBRANCH   2   4
TORSDOF 6
ENDMDL
MODEL       43
REMARK 921   NORMALIZED FREE ENERGY PREDICTED BY IDOCK:   -4.86 KCAL/MOL
REMARK 922        TOTAL FREE ENERGY PREDICTED BY IDOCK:   -7.61 KCAL/MOL
REMARK 923 INTER-LIGAND FREE ENERGY PREDICTED BY IDOCK:   -6.86 KCAL/MOL
REMARK 924 INTRA-LIGAND FREE ENERGY PREDICTED BY IDOCK:   -0.75 KCAL/MOL
REMARK 927      BINDING AFFINITY PREDICTED BY RF-SCORE:    0.00 PKD
ROOT
HETATM    1  C   UNL     1      -8.973  17.605  66.720  1.00  0.00    -0.257 C  
HETATM    2  N   UNL     1      -8.697  17.469  68.151  1.00  0.00    -0.254 NA 
HETATM    3  C   UNL     1      -8.150  18.719  68.675  1.00  0.00    -0.333 C  
ENDROOT
BRANCH   2   4
HETATM    4  C   UNL     1      -9.928  17.064  68.854  1.00  0.00    -0.285 C  
BRANCH   4   5
HETATM    5  C   UNL     1     -11.116  16.708  67.940  1.00  0.00    -0.212 C  
BRANCH   5   6
HETATM    6  O   UNL     1     -11.719  15.446  68.253  1.00  0.00    -0.360 OA 
BRANCH   6   7
HETATM    7  C   UNL     1     -11.148  14.735  69.370  1.00  0.00    -0.281 C  
BRANCH   7   8
HETATM    8  C   UNL     1     -11.957  14.977  70.641  1.00  0.00    -0.370 A  
HETATM    9  C   UNL     1     -11.291  15.291  71.840  1.00  0.00    -0.447 A  
HETATM   10  C   UNL     1     -13.359  15.047  70.619  1.00  0.00    -0.279 A  
HETATM   11  C   UNL     1     -12.002  15.711  72.965  1.00  0.00    -0.590 A  
HETATM   12  C   UNL     1     -14.069  15.454  71.750  1.00  0.00    -0.630 A  
HETATM   13  C   UNL     1     -13.391  15.801  72.916  1.00  0.00    -0.661 A  
ENDBRANCH   7   8
BRANCH   7  14
HETATM   14  C   UNL     1     -10.986  13.260  68.992  1.00  0.00    -0.249 A  
HETATM   15  C   UNL     1     -11.760  10.949  69.205  1.00  0.00    -0.395 A  
HETATM   16  C   UNL     1     -11.896  12.306  69.495  1.00  0.00    -0.380 A  
HETATM   17  C   UNL     1      -9.810  11.440  67.881  1.00  0.00    -0.188 A  
HETATM   18  C   UNL     1      -9.943  12.812  68.146  1.00  0.00    -0.229 A  
HETATM   19  C   UNL     1     -10.708  10.514  68.410  1.00  0.00    -0.262 A  
HETATM   20  C   UNL     1      -8.976  13.764  67.493  1.00  0.00    -0.201 C  
ENDBRANCH   7  14
ENDBRANCH   6   7
ENDBRANCH   5   6
ENDBRANCH   4   5
ENDBRANCH   2   4
TORSDOF 6
ENDMDL
MODEL       44
REMARK 921   NORMALIZED FREE ENERGY PREDICTED BY IDOCK:   -4.86 KCAL/MOL
REMARK 922        TOTAL FREE ENERGY PREDICTED BY IDOCK:   -7.61 KCAL/MOL
REMARK 923 INTER-LIGAND FREE ENERGY PREDICTED BY IDOCK:   -6.57 KCAL/MOL
REMARK 924 INTRA-LIGAND FREE ENERGY PREDICTED BY IDOCK:   -1.04 KCAL/MOL
REMARK 927      BINDING AFFINITY PREDICTED BY RF-SCORE:    0.00 PKD
ROOT
HETATM    1  C   UNL     1     -12.617   8.872  71.950  1.00  0.00    -0.377 C  
HETATM    2  N   UNL     1     -11.884  10.041  71.463  1.00  0.00    -0.364 NA 
HETATM    3  C   UNL     1     -10.588   9.631  70.928  1.00  0.00    -0.316 C  
ENDROOT
BRANCH   2   4
HETATM    4  C   UNL     1     -12.699  10.751  70.461  1.00  0.00    -0.305 C  
BRANCH   4   5
HETATM    5  C   UNL     1     -11.935  11.779  69.605  1.00  0.00    -0.312 C  
BRANCH   5   6
HETATM    6  O   UNL     1     -12.012  11.520  68.198  1.00  0.00    -0.571 OA 
BRANCH   6   7
HETATM    7  C   UNL     1     -10.816  11.788  67.440  1.00  0.00    -0.251 C  
BRANCH   7   8
HETATM    8  C   UNL     1     -10.336  10.533  66.717  1.00  0.00    -0.301 A  
HETATM    9  C   UNL     1      -9.529  10.657  65.571  1.00  0.00    -0.261 A  
HETATM   10  C   UNL     1     -10.551   9.251  67.246  1.00  0.00    -0.303 A  
HETATM   11  C   UNL     1      -8.913   9.538  65.006  1.00  0.00    -0.258 A  
HETATM   12  C   UNL     1      -9.945   8.132  66.671  1.00  0.00    -0.339 A  
HETATM   13  C   UNL     1      -9.114   8.278  65.562  1.00  0.00    -0.065 A  
ENDBRANCH   7   8
BRANCH   7  14
HETATM   14  C   UNL     1     -11.062  12.992  66.526  1.00  0.00    -0.315 A  
HETATM   15  C   UNL     1     -12.516  14.146  64.933  1.00  0.00    -0.419 A  
HETATM   16  C   UNL     1     -12.270  13.085  65.804  1.00  0.00    -0.511 A  
HETATM   17  C   UNL     1     -10.366  15.079  65.482  1.00  0.00    -0.397 A  
HETATM   18  C   UNL     1     -10.110  14.029  66.378  1.00  0.00    -0.299 A  
HETATM   19  C   UNL     1     -11.558  15.135  64.761  1.00  0.00    -0.364 A  
HETATM   20  C   UNL     1      -8.830  14.061  67.172  1.00  0.00    -0.239 C  
ENDBRANCH   7  14
ENDBRANCH   6   7
ENDBRANCH   5   6
ENDBRANCH   4   5
ENDBRANCH   2   4
TORSDOF 6
ENDMDL
MODEL       45
REMARK 921   NORMALIZED FREE ENERGY PREDICTED BY IDOCK:   -4.85 KCAL/MOL
REMARK 922        TOTAL FREE ENERGY PREDICTED BY IDOCK:   -7.61 KCAL/MOL
REMARK 923 INTER-LIGAND FREE ENERGY PREDICTED BY IDOCK:   -6.74 KCAL/MOL
REMARK 924 INTRA-LIGAND FREE ENERGY PREDICTED BY IDOCK:   -0.87 KCAL/MOL
REMARK 927      BINDING AFFINITY PREDICTED BY RF-SCORE:    0.00 PKD
ROOT
HETATM    1  C   UNL     1     -10.280  10.631  64.944  1.00  0.00    -0.324 C  
HETATM    2  N   UNL     1      -9.927   9.454  65.739  1.00  0.00    -0.286 NA 
HETATM    3  C   UNL     1      -8.633   8.930  65.307  1.00  0.00    -0.184 C  
ENDROOT
BRANCH   2   4
HETATM    4  C   UNL     1      -9.933   9.806  67.170  1.00  0.00    -0.198 C  
BRANCH   4   5
HETATM    5  C   UNL     1      -9.525  11.258  67.489  1.00  0.00    -0.169 C  
BRANCH   5   6
HETATM    6  O   UNL     1     -10.324  11.862  68.514  1.00  0.00    -0.210 OA 
BRANCH   6   7
HETATM    7  C   UNL     1     -10.560  13.278  68.377  1.00  0.00    -0.252 C  
BRANCH   7   8
HETATM    8  C   UNL     1     -11.041  13.615  66.969  1.00  0.00    -0.313 A  
HETATM    9  C   UNL     1     -12.374  13.346  66.606  1.00  0.00    -0.324 A  
HETATM   10  C   UNL     1     -10.236  14.328  66.067  1.00  0.00    -0.327 A  
HETATM   11  C   UNL     1     -12.898  13.820  65.403  1.00  0.00    -0.455 A  
HETATM   12  C   UNL     1     -10.759  14.789  64.857  1.00  0.00    -0.438 A  
HETATM   13  C   UNL     1     -12.092  14.550  64.533  1.00  0.00    -0.501 A  
ENDBRANCH   7   8
BRANCH   7  14
HETATM   14  C   UNL     1     -11.499  13.738  69.496  1.00  0.00    -0.327 A  
HETATM   15  C   UNL     1     -12.986  13.159  71.350  1.00  0.00    -0.386 A  
HETATM   16  C   UNL     1     -12.096  12.783  70.344  1.00  0.00    -0.382 A  
HETATM   17  C   UNL     1     -12.705  15.465  70.718  1.00  0.00    -0.516 A  
HETATM   18  C   UNL     1     -11.792  15.106  69.714  1.00  0.00    -0.364 A  
HETATM   19  C   UNL     1     -13.301  14.499  71.527  1.00  0.00    -0.435 A  
HETATM   20  C   UNL     1     -11.136  16.203  68.916  1.00  0.00    -0.347 C  
ENDBRANCH   7  14
ENDBRANCH   6   7
ENDBRANCH   5   6
ENDBRANCH   4   5
ENDBRANCH   2   4
TORSDOF 6
ENDMDL
MODEL       46
REMARK 921   NORMALIZED FREE ENERGY PREDICTED BY IDOCK:   -4.85 KCAL/MOL
REMARK 922        TOTAL FREE ENERGY PREDICTED BY IDOCK:   -7.61 KCAL/MOL
REMARK 923 INTER-LIGAND FREE ENERGY PREDICTED BY IDOCK:   -6.56 KCAL/MOL
REMARK 924 INTRA-LIGAND FREE ENERGY PREDICTED BY IDOCK:   -1.04 KCAL/MOL
REMARK 927      BINDING AFFINITY PREDICTED BY RF-SCORE:    0.00 PKD
ROOT
HETATM    1  C   UNL     1     -11.524  15.359  64.437  1.00  0.00    -0.255 C  
HETATM    2  N   UNL     1     -12.527  14.293  64.439  1.00  0.00    -0.674 NA 
HETATM    3  C   UNL     1     -12.216  13.313  63.400  1.00  0.00    -0.403 C  
ENDROOT
BRANCH   2   4
HETATM    4  C   UNL     1     -12.593  13.681  65.778  1.00  0.00    -0.461 C  
BRANCH   4   5
HETATM    5  C   UNL     1     -12.001  12.262  65.879  1.00  0.00    -0.287 C  
BRANCH   5   6
HETATM    6  O   UNL     1     -11.810  11.818  67.228  1.00  0.00    -0.596 OA 
BRANCH   6   7
HETATM    7  C   UNL     1     -11.338  12.813  68.158  1.00  0.00    -0.288 C  
BRANCH   7   8
HETATM    8  C   UNL     1     -12.105  12.735  69.474  1.00  0.00    -0.265 A  
HETATM    9  C   UNL     1     -12.282  11.489  70.103  1.00  0.00    -0.387 A  
HETATM   10  C   UNL     1     -12.512  13.891  70.159  1.00  0.00    -0.355 A  
HETATM   11  C   UNL     1     -12.801  11.408  71.396  1.00  0.00    -0.502 A  
HETATM   12  C   UNL     1     -13.044  13.806  71.447  1.00  0.00    -0.413 A  
HETATM   13  C   UNL     1     -13.173  12.567  72.071  1.00  0.00    -0.524 A  
ENDBRANCH   7   8
BRANCH   7  14
HETATM   14  C   UNL     1      -9.818  12.683  68.300  1.00  0.00    -0.227 A  
HETATM   15  C   UNL     1      -7.858  11.244  68.569  1.00  0.00    -0.138 A  
HETATM   16  C   UNL     1      -9.233  11.404  68.400  1.00  0.00    -0.183 A  
HETATM   17  C   UNL     1      -7.589  13.636  68.525  1.00  0.00    -0.130 A  
HETATM   18  C   UNL     1      -8.968  13.814  68.335  1.00  0.00    -0.166 A  
HETATM   19  C   UNL     1      -7.038  12.361  68.646  1.00  0.00    -0.103 A  
HETATM   20  C   UNL     1      -9.490  15.215  68.149  1.00  0.00    -0.201 C  
ENDBRANCH   7  14
ENDBRANCH   6   7
ENDBRANCH   5   6
ENDBRANCH   4   5
ENDBRANCH   2   4
TORSDOF 6
ENDMDL
MODEL       47
REMARK 921   NORMALIZED FREE ENERGY PREDICTED BY IDOCK:   -4.84 KCAL/MOL
REMARK 922        TOTAL FREE ENERGY PREDICTED BY IDOCK:   -7.60 KCAL/MOL
REMARK 923 INTER-LIGAND FREE ENERGY PREDICTED BY IDOCK:   -6.50 KCAL/MOL
REMARK 924 INTRA-LIGAND FREE ENERGY PREDICTED BY IDOCK:   -1.10 KCAL/MOL
REMARK 927      BINDING AFFINITY PREDICTED BY RF-SCORE:    0.00 PKD
ROOT
HETATM    1  C   UNL     1      -8.576   8.370  68.770  1.00  0.00    -0.135 C  
HETATM    2  N   UNL     1      -9.488   9.258  68.048  1.00  0.00    -0.137 NA 
HETATM    3  C   UNL     1     -10.484   8.470  67.325  1.00  0.00    -0.296 C  
ENDROOT
BRANCH   2   4
HETATM    4  C   UNL     1     -10.109  10.203  68.993  1.00  0.00    -0.205 C  
BRANCH   4   5
HETATM    5  C   UNL     1     -11.648  10.250  68.957  1.00  0.00    -0.081 C  
BRANCH   5   6
HETATM    6  O   UNL     1     -12.168  11.444  68.358  1.00  0.00    -0.571 OA 
BRANCH   6   7
HETATM    7  C   UNL     1     -11.189  12.381  67.866  1.00  0.00    -0.266 C  
BRANCH   7   8
HETATM    8  C   UNL     1     -11.419  12.682  66.388  1.00  0.00    -0.409 A  
HETATM    9  C   UNL     1     -10.894  11.815  65.412  1.00  0.00    -0.347 A  
HETATM   10  C   UNL     1     -12.269  13.719  65.971  1.00  0.00    -0.495 A  
HETATM   11  C   UNL     1     -11.251  11.950  64.070  1.00  0.00    -0.470 A  
HETATM   12  C   UNL     1     -12.613  13.860  64.626  1.00  0.00    -0.287 A  
HETATM   13  C   UNL     1     -12.118  12.966  63.678  1.00  0.00    -0.611 A  
ENDBRANCH   7   8
BRANCH   7  14
HETATM   14  C   UNL     1     -11.180  13.616  68.772  1.00  0.00    -0.314 A  
HETATM   15  C   UNL     1     -12.327  15.003  70.428  1.00  0.00    -0.401 A  
HETATM   16  C   UNL     1     -12.280  13.870  69.617  1.00  0.00    -0.374 A  
HETATM   17  C   UNL     1     -10.166  15.669  69.601  1.00  0.00    -0.291 A  
HETATM   18  C   UNL     1     -10.094  14.524  68.793  1.00  0.00    -0.239 A  
HETATM   19  C   UNL     1     -11.276  15.910  70.409  1.00  0.00    -0.392 A  
HETATM   20  C   UNL     1      -8.840  14.291  67.991  1.00  0.00    -0.178 C  
ENDBRANCH   7  14
ENDBRANCH   6   7
ENDBRANCH   5   6
ENDBRANCH   4   5
ENDBRANCH   2   4
TORSDOF 6
ENDMDL
MODEL       48
REMARK 921   NORMALIZED FREE ENERGY PREDICTED BY IDOCK:   -4.82 KCAL/MOL
REMARK 922        TOTAL FREE ENERGY PREDICTED BY IDOCK:   -7.56 KCAL/MOL
REMARK 923 INTER-LIGAND FREE ENERGY PREDICTED BY IDOCK:   -6.46 KCAL/MOL
REMARK 924 INTRA-LIGAND FREE ENERGY PREDICTED BY IDOCK:   -1.09 KCAL/MOL
REMARK 927      BINDING AFFINITY PREDICTED BY RF-SCORE:    0.00 PKD
ROOT
HETATM    1  C   UNL     1      -6.068  15.987  69.875  1.00  0.00    -0.166 C  
HETATM    2  N   UNL     1      -7.416  15.993  69.304  1.00  0.00    -0.225 NA 
HETATM    3  C   UNL     1      -7.530  17.052  68.304  1.00  0.00    -0.207 C  
ENDROOT
BRANCH   2   4
HETATM    4  C   UNL     1      -7.719  14.665  68.743  1.00  0.00    -0.137 C  
BRANCH   4   5
HETATM    5  C   UNL     1      -8.402  14.678  67.362  1.00  0.00    -0.206 C  
BRANCH   5   6
HETATM    6  O   UNL     1      -9.134  13.480  67.076  1.00  0.00    -0.228 OA 
BRANCH   6   7
HETATM    7  C   UNL     1     -10.570  13.610  67.048  1.00  0.00    -0.274 C  
BRANCH   7   8
HETATM    8  C   UNL     1     -11.135  13.118  65.718  1.00  0.00    -0.293 A  
HETATM    9  C   UNL     1     -10.289  12.462  64.804  1.00  0.00    -0.324 A  
HETATM   10  C   UNL     1     -12.510  13.163  65.440  1.00  0.00    -0.535 A  
HETATM   11  C   UNL     1     -10.811  11.827  63.676  1.00  0.00    -0.508 A  
HETATM   12  C   UNL     1     -13.028  12.540  64.303  1.00  0.00    -0.253 A  
HETATM   13  C   UNL     1     -12.181  11.859  63.431  1.00  0.00    -0.561 A  
ENDBRANCH   7   8
BRANCH   7  14
HETATM   14  C   UNL     1     -11.159  12.921  68.282  1.00  0.00    -0.294 A  
HETATM   15  C   UNL     1     -11.759  10.847  69.433  1.00  0.00    -0.397 A  
HETATM   16  C   UNL     1     -11.196  11.512  68.344  1.00  0.00    -0.314 A  
HETATM   17  C   UNL     1     -12.253  12.969  70.457  1.00  0.00    -0.392 A  
HETATM   18  C   UNL     1     -11.674  13.655  69.378  1.00  0.00    -0.379 A  
HETATM   19  C   UNL     1     -12.301  11.576  70.483  1.00  0.00    -0.432 A  
HETATM   20  C   UNL     1     -11.599  15.158  69.441  1.00  0.00    -0.343 C  
ENDBRANCH   7  14
ENDBRANCH   6   7
ENDBRANCH   5   6
ENDBRANCH   4   5
ENDBRANCH   2   4
TORSDOF 6
ENDMDL
MODEL       49
REMARK 921   NORMALIZED FREE ENERGY PREDICTED BY IDOCK:   -4.81 KCAL/MOL
REMARK 922        TOTAL FREE ENERGY PREDICTED BY IDOCK:   -7.55 KCAL/MOL
REMARK 923 INTER-LIGAND FREE ENERGY PREDICTED BY IDOCK:   -7.21 KCAL/MOL
REMARK 924 INTRA-LIGAND FREE ENERGY PREDICTED BY IDOCK:   -0.34 KCAL/MOL
REMARK 927      BINDING AFFINITY PREDICTED BY RF-SCORE:    0.00 PKD
ROOT
HETATM    1  C   UNL     1     -10.219  19.489  68.270  1.00  0.00    -0.443 C  
HETATM    2  N   UNL     1     -10.618  18.662  67.131  1.00  0.00    -0.421 NA 
HETATM    3  C   UNL     1     -10.530  19.438  65.895  1.00  0.00    -0.472 C  
ENDROOT
BRANCH   2   4
HETATM    4  C   UNL     1      -9.782  17.449  67.085  1.00  0.00    -0.267 C  
BRANCH   4   5
HETATM    5  C   UNL     1      -9.880  16.540  68.325  1.00  0.00    -0.243 C  
BRANCH   5   6
HETATM    6  O   UNL     1     -11.010  15.660  68.300  1.00  0.00    -0.286 OA 
BRANCH   6   7
HETATM    7  C   UNL     1     -10.872  14.434  69.046  1.00  0.00    -0.252 C  
BRANCH   7   8
HETATM    8  C   UNL     1     -12.001  14.284  70.062  1.00  0.00    -0.396 A  
HETATM    9  C   UNL     1     -12.209  13.043  70.691  1.00  0.00    -0.390 A  
HETATM   10  C   UNL     1     -12.746  15.389  70.503  1.00  0.00    -0.455 A  
HETATM   11  C   UNL     1     -13.096  12.925  71.762  1.00  0.00    -0.458 A  
HETATM   12  C   UNL     1     -13.643  15.265  71.565  1.00  0.00    -0.593 A  
HETATM   13  C   UNL     1     -13.806  14.038  72.205  1.00  0.00    -0.627 A  
ENDBRANCH   7   8
BRANCH   7  14
HETATM   14  C   UNL     1     -10.741  13.265  68.065  1.00  0.00    -0.254 A  
HETATM   15  C   UNL     1      -9.634  11.176  67.436  1.00  0.00    -0.183 A  
HETATM   16  C   UNL     1      -9.810  12.238  68.324  1.00  0.00    -0.217 A  
HETATM   17  C   UNL     1     -11.327  12.111  66.003  1.00  0.00    -0.410 A  
HETATM   18  C   UNL     1     -11.531  13.176  66.894  1.00  0.00    -0.384 A  
HETATM   19  C   UNL     1     -10.383  11.121  66.268  1.00  0.00    -0.299 A  
HETATM   20  C   UNL     1     -12.611  14.178  66.578  1.00  0.00    -0.164 C  
ENDBRANCH   7  14
ENDBRANCH   6   7
ENDBRANCH   5   6
ENDBRANCH   4   5
ENDBRANCH   2   4
TORSDOF 6
ENDMDL
MODEL       50
REMARK 921   NORMALIZED FREE ENERGY PREDICTED BY IDOCK:   -4.81 KCAL/MOL
REMARK 922        TOTAL FREE ENERGY PREDICTED BY IDOCK:   -7.55 KCAL/MOL
REMARK 923 INTER-LIGAND FREE ENERGY PREDICTED BY IDOCK:   -6.52 KCAL/MOL
REMARK 924 INTRA-LIGAND FREE ENERGY PREDICTED BY IDOCK:   -1.03 KCAL/MOL
REMARK 927      BINDING AFFINITY PREDICTED BY RF-SCORE:    0.00 PKD
ROOT
HETATM    1  C   UNL     1     -10.484   8.427  67.212  1.00  0.00    -0.303 C  
HETATM    2  N   UNL     1     -10.209   9.321  68.337  1.00  0.00    -0.195 NA 
HETATM    3  C   UNL     1     -10.224   8.567  69.589  1.00  0.00    -0.209 C  
ENDROOT
BRANCH   2   4
HETATM    4  C   UNL     1      -8.923  10.008  68.119  1.00  0.00    -0.122 C  
BRANCH   4   5
HETATM    5  C   UNL     1      -8.982  11.545  68.190  1.00  0.00    -0.172 C  
BRANCH   5   6
HETATM    6  O   UNL     1     -10.294  12.054  68.464  1.00  0.00    -0.212 OA 
BRANCH   6   7
HETATM    7  C   UNL     1     -10.498  13.454  68.187  1.00  0.00    -0.245 C  
BRANCH   7   8
HETATM    8  C   UNL     1     -11.220  13.645  66.856  1.00  0.00    -0.326 A  
HETATM    9  C   UNL     1     -10.961  14.792  66.083  1.00  0.00    -0.332 A  
HETATM   10  C   UNL     1     -12.023  12.635  66.302  1.00  0.00    -0.439 A  
HETATM   11  C   UNL     1     -11.448  14.901  64.780  1.00  0.00    -0.410 A  
HETATM   12  C   UNL     1     -12.520  12.754  65.003  1.00  0.00    -0.572 A  
HETATM   13  C   UNL     1     -12.220  13.878  64.237  1.00  0.00    -0.447 A  
ENDBRANCH   7   8
BRANCH   7  14
HETATM   14  C   UNL     1     -11.195  14.104  69.385  1.00  0.00    -0.298 A  
HETATM   15  C   UNL     1     -12.900  13.978  71.135  1.00  0.00    -0.427 A  
HETATM   16  C   UNL     1     -12.215  13.405  70.064  1.00  0.00    -0.367 A  
HETATM   17  C   UNL     1     -11.561  15.966  70.911  1.00  0.00    -0.456 A  
HETATM   18  C   UNL     1     -10.848  15.398  69.844  1.00  0.00    -0.305 A  
HETATM   19  C   UNL     1     -12.582  15.265  71.550  1.00  0.00    -0.442 A  
HETATM   20  C   UNL     1      -9.715  16.185  69.238  1.00  0.00    -0.242 C  
ENDBRANCH   7  14
ENDBRANCH   6   7
ENDBRANCH   5   6
ENDBRANCH   4   5
ENDBRANCH   2   4
TORSDOF 6
ENDMDL
MODEL       51
REMARK 921   NORMALIZED FREE ENERGY PREDICTED BY IDOCK:   -4.80 KCAL/MOL
REMARK 922        TOTAL FREE ENERGY PREDICTED BY IDOCK:   -7.54 KCAL/MOL
REMARK 923 INTER-LIGAND FREE ENERGY PREDICTED BY IDOCK:   -6.82 KCAL/MOL
REMARK 924 INTRA-LIGAND FREE ENERGY PREDICTED BY IDOCK:   -0.72 KCAL/MOL
REMARK 927      BINDING AFFINITY PREDICTED BY RF-SCORE:    0.00 PKD
ROOT
HETATM    1  C   UNL     1      -7.524  12.060  67.260  1.00  0.00    -0.158 C  
HETATM    2  N   UNL     1      -7.527  13.055  68.332  1.00  0.00    -0.121 NA 
HETATM    3  C   UNL     1      -6.233  13.060  69.013  1.00  0.00    -0.094 C  
ENDROOT
BRANCH   2   4
HETATM    4  C   UNL     1      -7.866  14.377  67.777  1.00  0.00    -0.160 C  
BRANCH   4   5
HETATM    5  C   UNL     1      -9.200  14.971  68.269  1.00  0.00    -0.184 C  
BRANCH   5   6
HETATM    6  O   UNL     1      -9.951  14.077  69.100  1.00  0.00    -0.086 OA 
BRANCH   6   7
HETATM    7  C   UNL     1     -11.375  14.057  68.880  1.00  0.00    -0.280 C  
BRANCH   7   8
HETATM    8  C   UNL     1     -11.704  13.519  67.490  1.00  0.00    -0.403 A  
HETATM    9  C   UNL     1     -12.401  14.332  66.577  1.00  0.00    -0.345 A  
HETATM   10  C   UNL     1     -11.199  12.290  67.038  1.00  0.00    -0.367 A  
HETATM   11  C   UNL     1     -12.542  13.949  65.242  1.00  0.00    -0.508 A  
HETATM   12  C   UNL     1     -11.353  11.903  65.705  1.00  0.00    -0.354 A  
HETATM   13  C   UNL     1     -12.009  12.739  64.805  1.00  0.00    -0.455 A  
ENDBRANCH   7   8
BRANCH   7  14
HETATM   14  C   UNL     1     -12.048  13.301  70.029  1.00  0.00    -0.385 A  
HETATM   15  C   UNL     1     -12.583  11.167  71.099  1.00  0.00    -0.513 A  
HETATM   16  C   UNL     1     -11.952  11.895  70.090  1.00  0.00    -0.413 A  
HETATM   17  C   UNL     1     -13.416  13.219  72.042  1.00  0.00    -0.596 A  
HETATM   18  C   UNL     1     -12.772  13.969  71.045  1.00  0.00    -0.431 A  
HETATM   19  C   UNL     1     -13.327  11.828  72.066  1.00  0.00    -0.417 A  
HETATM   20  C   UNL     1     -12.857  15.472  71.112  1.00  0.00    -0.551 C  
ENDBRANCH   7  14
ENDBRANCH   6   7
ENDBRANCH   5   6
ENDBRANCH   4   5
ENDBRANCH   2   4
TORSDOF 6
ENDMDL
MODEL       52
REMARK 921   NORMALIZED FREE ENERGY PREDICTED BY IDOCK:   -4.80 KCAL/MOL
REMARK 922        TOTAL FREE ENERGY PREDICTED BY IDOCK:   -7.54 KCAL/MOL
REMARK 923 INTER-LIGAND FREE ENERGY PREDICTED BY IDOCK:   -6.53 KCAL/MOL
REMARK 924 INTRA-LIGAND FREE ENERGY PREDICTED BY IDOCK:   -1.01 KCAL/MOL
REMARK 927      BINDING AFFINITY PREDICTED BY RF-SCORE:    0.00 PKD
ROOT
HETATM    1  C   UNL     1     -10.700  15.864  64.998  1.00  0.00    -0.404 C  
HETATM    2  N   UNL     1     -10.793  15.018  66.189  1.00  0.00    -0.324 NA 
HETATM    3  C   UNL     1     -10.619  15.829  67.392  1.00  0.00    -0.313 C  
ENDROOT
BRANCH   2   4
HETATM    4  C   UNL     1     -12.081  14.301  66.185  1.00  0.00    -0.406 C  
BRANCH   4   5
HETATM    5  C   UNL     1     -12.012  12.835  65.718  1.00  0.00    -0.449 C  
BRANCH   5   6
HETATM    6  O   UNL     1     -12.069  11.891  66.795  1.00  0.00    -0.593 OA 
BRANCH   6   7
HETATM    7  C   UNL     1     -11.006  11.975  67.765  1.00  0.00    -0.232 C  
BRANCH   7   8
HETATM    8  C   UNL     1     -11.567  12.033  69.183  1.00  0.00    -0.370 A  
HETATM    9  C   UNL     1     -11.806  13.282  69.785  1.00  0.00    -0.394 A  
HETATM   10  C   UNL     1     -11.995  10.877  69.853  1.00  0.00    -0.430 A  
HETATM   11  C   UNL     1     -12.499  13.373  70.993  1.00  0.00    -0.437 A  
HETATM   12  C   UNL     1     -12.675  10.969  71.069  1.00  0.00    -0.485 A  
HETATM   13  C   UNL     1     -12.941  12.216  71.630  1.00  0.00    -0.427 A  
ENDBRANCH   7   8
BRANCH   7  14
HETATM   14  C   UNL     1     -10.015  10.833  67.520  1.00  0.00    -0.203 A  
HETATM   15  C   UNL     1      -9.615   8.526  66.811  1.00  0.00    -0.273 A  
HETATM   16  C   UNL     1     -10.480   9.603  67.011  1.00  0.00    -0.302 A  
HETATM   17  C   UNL     1      -7.780   9.869  67.601  1.00  0.00    -0.091 A  
HETATM   18  C   UNL     1      -8.632  10.969  67.790  1.00  0.00    -0.130 A  
HETATM   19  C   UNL     1      -8.268   8.656  67.119  1.00  0.00    -0.107 A  
HETATM   20  C   UNL     1      -8.031  12.270  68.254  1.00  0.00    -0.163 C  
ENDBRANCH   7  14
ENDBRANCH   6   7
ENDBRANCH   5   6
ENDBRANCH   4   5
ENDBRANCH   2   4
TORSDOF 6
ENDMDL
MODEL       53
REMARK 921   NORMALIZED FREE ENERGY PREDICTED BY IDOCK:   -4.77 KCAL/MOL
REMARK 922        TOTAL FREE ENERGY PREDICTED BY IDOCK:   -7.50 KCAL/MOL
REMARK 923 INTER-LIGAND FREE ENERGY PREDICTED BY IDOCK:   -6.45 KCAL/MOL
REMARK 924 INTRA-LIGAND FREE ENERGY PREDICTED BY IDOCK:   -1.05 KCAL/MOL
REMARK 927      BINDING AFFINITY PREDICTED BY RF-SCORE:    0.00 PKD
ROOT
HETATM    1  C   UNL     1     -10.152  18.159  67.680  1.00  0.00    -0.359 C  
HETATM    2  N   UNL     1     -10.692  16.803  67.564  1.00  0.00    -0.310 NA 
HETATM    3  C   UNL     1     -10.089  16.121  66.421  1.00  0.00    -0.308 C  
ENDROOT
BRANCH   2   4
HETATM    4  C   UNL     1     -10.469  16.075  68.826  1.00  0.00    -0.248 C  
BRANCH   4   5
HETATM    5  C   UNL     1      -9.949  14.634  68.666  1.00  0.00    -0.234 C  
BRANCH   5   6
HETATM    6  O   UNL     1     -10.984  13.644  68.723  1.00  0.00    -0.251 OA 
BRANCH   6   7
HETATM    7  C   UNL     1     -10.620  12.324  68.272  1.00  0.00    -0.227 C  
BRANCH   7   8
HETATM    8  C   UNL     1     -11.274  11.253  69.140  1.00  0.00    -0.337 A  
HETATM    9  C   UNL     1     -10.674   9.984  69.248  1.00  0.00    -0.249 A  
HETATM   10  C   UNL     1     -12.378  11.540  69.958  1.00  0.00    -0.287 A  
HETATM   11  C   UNL     1     -11.133   9.054  70.182  1.00  0.00    -0.228 A  
HETATM   12  C   UNL     1     -12.843  10.602  70.881  1.00  0.00    -0.473 A  
HETATM   13  C   UNL     1     -12.211   9.367  71.005  1.00  0.00    -0.354 A  
ENDBRANCH   7   8
BRANCH   7  14
HETATM   14  C   UNL     1     -10.928  12.205  66.777  1.00  0.00    -0.325 A  
HETATM   15  C   UNL     1     -12.463  12.618  64.917  1.00  0.00    -0.564 A  
HETATM   16  C   UNL     1     -12.128  12.740  66.266  1.00  0.00    -0.400 A  
HETATM   17  C   UNL     1     -10.401  11.439  64.526  1.00  0.00    -0.369 A  
HETATM   18  C   UNL     1     -10.039  11.569  65.876  1.00  0.00    -0.271 A  
HETATM   19  C   UNL     1     -11.605  11.955  64.050  1.00  0.00    -0.476 A  
HETATM   20  C   UNL     1      -8.696  11.044  66.312  1.00  0.00    -0.178 C  
ENDBRANCH   7  14
ENDBRANCH   6   7
ENDBRANCH   5   6
ENDBRANCH   4   5
ENDBRANCH   2   4
TORSDOF 6
ENDMDL
MODEL       54
REMARK 921   NORMALIZED FREE ENERGY PREDICTED BY IDOCK:   -4.75 KCAL/MOL
REMARK 922        TOTAL FREE ENERGY PREDICTED BY IDOCK:   -7.47 KCAL/MOL
REMARK 923 INTER-LIGAND FREE ENERGY PREDICTED BY IDOCK:   -6.87 KCAL/MOL
REMARK 924 INTRA-LIGAND FREE ENERGY PREDICTED BY IDOCK:   -0.60 KCAL/MOL
REMARK 927      BINDING AFFINITY PREDICTED BY RF-SCORE:    0.00 PKD
ROOT
HETATM    1  C   UNL     1     -12.595  11.939  63.379  1.00  0.00    -0.431 C  
HETATM    2  N   UNL     1     -11.383  12.197  64.158  1.00  0.00    -0.353 NA 
HETATM    3  C   UNL     1     -10.200  11.938  63.339  1.00  0.00    -0.449 C  
ENDROOT
BRANCH   2   4
HETATM    4  C   UNL     1     -11.411  13.577  64.672  1.00  0.00    -0.356 C  
BRANCH   4   5
HETATM    5  C   UNL     1     -12.615  13.916  65.571  1.00  0.00    -0.526 C  
BRANCH   5   6
HETATM    6  O   UNL     1     -12.241  14.430  66.856  1.00  0.00    -0.415 OA 
BRANCH   6   7
HETATM    7  C   UNL     1     -11.078  13.829  67.461  1.00  0.00    -0.278 C  
BRANCH   7   8
HETATM    8  C   UNL     1     -10.005  14.878  67.739  1.00  0.00    -0.222 A  
HETATM    9  C   UNL     1     -10.245  16.223  67.401  1.00  0.00    -0.275 A  
HETATM   10  C   UNL     1      -8.842  14.568  68.461  1.00  0.00    -0.182 A  
HETATM   11  C   UNL     1      -9.374  17.231  67.820  1.00  0.00    -0.250 A  
HETATM   12  C   UNL     1      -7.966  15.577  68.866  1.00  0.00    -0.187 A  
HETATM   13  C   UNL     1      -8.240  16.908  68.560  1.00  0.00    -0.249 A  
ENDBRANCH   7   8
BRANCH   7  14
HETATM   14  C   UNL     1     -11.514  13.026  68.690  1.00  0.00    -0.344 A  
HETATM   15  C   UNL     1     -11.747  10.856  69.796  1.00  0.00    -0.413 A  
HETATM   16  C   UNL     1     -11.328  11.628  68.712  1.00  0.00    -0.324 A  
HETATM   17  C   UNL     1     -12.535  12.849  70.893  1.00  0.00    -0.383 A  
HETATM   18  C   UNL     1     -12.104  13.643  69.819  1.00  0.00    -0.396 A  
HETATM   19  C   UNL     1     -12.363  11.466  70.881  1.00  0.00    -0.483 A  
HETATM   20  C   UNL     1     -12.263  15.137  69.924  1.00  0.00    -0.353 C  
ENDBRANCH   7  14
ENDBRANCH   6   7
ENDBRANCH   5   6
ENDBRANCH   4   5
ENDBRANCH   2   4
TORSDOF 6
ENDMDL
MODEL       55
REMARK 921   NORMALIZED FREE ENERGY PREDICTED BY IDOCK:   -4.74 KCAL/MOL
REMARK 922        TOTAL FREE ENERGY PREDICTED BY IDOCK:   -7.46 KCAL/MOL
REMARK 923 INTER-LIGAND FREE ENERGY PREDICTED BY IDOCK:   -7.10 KCAL/MOL
REMARK 924 INTRA-LIGAND FREE ENERGY PREDICTED BY IDOCK:   -0.36 KCAL/MOL
REMARK 927      BINDING AFFINITY PREDICTED BY RF-SCORE:    0.00 PKD
ROOT
HETATM    1  C   UNL     1     -10.546   8.275  69.521  1.00  0.00    -0.213 C  
HETATM    2  N   UNL     1      -9.962   9.567  69.884  1.00  0.00    -0.214 NA 
HETATM    3  C   UNL     1      -8.599   9.378  70.377  1.00  0.00    -0.230 C  
ENDROOT
BRANCH   2   4
HETATM    4  C   UNL     1     -10.011  10.474  68.724  1.00  0.00    -0.192 C  
BRANCH   4   5
HETATM    5  C   UNL     1     -11.400  10.635  68.077  1.00  0.00    -0.278 C  
BRANCH   5   6
HETATM    6  O   UNL     1     -12.181  11.687  68.658  1.00  0.00    -0.455 OA 
BRANCH   6   7
HETATM    7  C   UNL     1     -11.438  12.769  69.252  1.00  0.00    -0.289 C  
BRANCH   7   8
HETATM    8  C   UNL     1     -10.911  13.720  68.182  1.00  0.00    -0.261 A  
HETATM    9  C   UNL     1     -11.713  14.024  67.066  1.00  0.00    -0.425 A  
HETATM   10  C   UNL     1      -9.707  14.422  68.349  1.00  0.00    -0.226 A  
HETATM   11  C   UNL     1     -11.347  15.036  66.177  1.00  0.00    -0.270 A  
HETATM   12  C   UNL     1      -9.336  15.424  67.449  1.00  0.00    -0.205 A  
HETATM   13  C   UNL     1     -10.163  15.741  66.374  1.00  0.00    -0.304 A  
ENDBRANCH   7   8
BRANCH   7  14
HETATM   14  C   UNL     1     -12.301  13.438  70.326  1.00  0.00    -0.354 A  
HETATM   15  C   UNL     1     -13.265  15.483  71.261  1.00  0.00    -0.588 A  
HETATM   16  C   UNL     1     -12.517  14.831  70.281  1.00  0.00    -0.393 A  
HETATM   17  C   UNL     1     -13.634  13.375  72.363  1.00  0.00    -0.708 A  
HETATM   18  C   UNL     1     -12.900  12.700  71.375  1.00  0.00    -0.358 A  
HETATM   19  C   UNL     1     -13.812  14.757  72.310  1.00  0.00    -0.590 A  
HETATM   20  C   UNL     1     -12.799  11.199  71.458  1.00  0.00    -0.542 C  
ENDBRANCH   7  14
ENDBRANCH   6   7
ENDBRANCH   5   6
ENDBRANCH   4   5
ENDBRANCH   2   4
TORSDOF 6
ENDMDL
MODEL       56
REMARK 921   NORMALIZED FREE ENERGY PREDICTED BY IDOCK:   -4.73 KCAL/MOL
REMARK 922        TOTAL FREE ENERGY PREDICTED BY IDOCK:   -7.44 KCAL/MOL
REMARK 923 INTER-LIGAND FREE ENERGY PREDICTED BY IDOCK:   -6.52 KCAL/MOL
REMARK 924 INTRA-LIGAND FREE ENERGY PREDICTED BY IDOCK:   -0.92 KCAL/MOL
REMARK 927      BINDING AFFINITY PREDICTED BY RF-SCORE:    0.00 PKD
ROOT
HETATM    1  C   UNL     1     -12.083  15.441  72.171  1.00  0.00    -0.407 C  
HETATM    2  N   UNL     1     -13.085  14.380  72.277  1.00  0.00    -0.361 NA 
HETATM    3  C   UNL     1     -14.407  14.906  71.943  1.00  0.00    -0.576 C  
ENDROOT
BRANCH   2   4
HETATM    4  C   UNL     1     -12.702  13.251  71.410  1.00  0.00    -0.309 C  
BRANCH   4   5
HETATM    5  C   UNL     1     -11.859  13.629  70.178  1.00  0.00    -0.281 C  
BRANCH   5   6
HETATM    6  O   UNL     1     -12.022  12.727  69.076  1.00  0.00    -0.292 OA 
BRANCH   6   7
HETATM    7  C   UNL     1     -10.877  12.569  68.216  1.00  0.00    -0.234 C  
BRANCH   7   8
HETATM    8  C   UNL     1     -10.549  11.093  68.011  1.00  0.00    -0.233 A  
HETATM    9  C   UNL     1     -10.515  10.228  69.120  1.00  0.00    -0.246 A  
HETATM   10  C   UNL     1     -10.429  10.537  66.727  1.00  0.00    -0.302 A  
HETATM   11  C   UNL     1     -10.417   8.847  68.947  1.00  0.00    -0.225 A  
HETATM   12  C   UNL     1     -10.317   9.155  66.558  1.00  0.00    -0.269 A  
HETATM   13  C   UNL     1     -10.327   8.310  67.665  1.00  0.00    -0.313 A  
ENDBRANCH   7   8
BRANCH   7  14
HETATM   14  C   UNL     1     -11.113  13.353  66.921  1.00  0.00    -0.309 A  
HETATM   15  C   UNL     1     -12.630  13.999  65.114  1.00  0.00    -0.453 A  
HETATM   16  C   UNL     1     -12.385  13.330  66.313  1.00  0.00    -0.382 A  
HETATM   17  C   UNL     1     -10.346  14.761  65.088  1.00  0.00    -0.439 A  
HETATM   18  C   UNL     1     -10.087  14.109  66.304  1.00  0.00    -0.308 A  
HETATM   19  C   UNL     1     -11.606  14.702  64.494  1.00  0.00    -0.377 A  
HETATM   20  C   UNL     1      -8.723  14.264  66.923  1.00  0.00    -0.202 C  
ENDBRANCH   7  14
ENDBRANCH   6   7
ENDBRANCH   5   6
ENDBRANCH   4   5
ENDBRANCH   2   4
TORSDOF 6
ENDMDL
MODEL       57
REMARK 921   NORMALIZED FREE ENERGY PREDICTED BY IDOCK:   -4.69 KCAL/MOL
REMARK 922        TOTAL FREE ENERGY PREDICTED BY IDOCK:   -7.39 KCAL/MOL
REMARK 923 INTER-LIGAND FREE ENERGY PREDICTED BY IDOCK:   -6.33 KCAL/MOL
REMARK 924 INTRA-LIGAND FREE ENERGY PREDICTED BY IDOCK:   -1.06 KCAL/MOL
REMARK 927      BINDING AFFINITY PREDICTED BY RF-SCORE:    0.00 PKD
ROOT
HETATM    1  C   UNL     1      -6.591  11.265  67.502  1.00  0.00    -0.073 C  
HETATM    2  N   UNL     1      -7.787  12.090  67.679  1.00  0.00    -0.138 NA 
HETATM    3  C   UNL     1      -8.863  11.292  68.262  1.00  0.00    -0.158 C  
ENDROOT
BRANCH   2   4
HETATM    4  C   UNL     1      -7.457  13.265  68.505  1.00  0.00    -0.115 C  
BRANCH   4   5
HETATM    5  C   UNL     1      -7.335  14.594  67.735  1.00  0.00    -0.173 C  
BRANCH   5   6
HETATM    6  O   UNL     1      -8.508  15.412  67.820  1.00  0.00    -0.144 OA 
BRANCH   6   7
HETATM    7  C   UNL     1      -9.022  15.910  66.569  1.00  0.00    -0.296 C  
BRANCH   7   8
HETATM    8  C   UNL     1     -10.233  15.100  66.116  1.00  0.00    -0.310 A  
HETATM    9  C   UNL     1     -10.911  14.287  67.042  1.00  0.00    -0.305 A  
HETATM   10  C   UNL     1     -10.787  15.257  64.835  1.00  0.00    -0.444 A  
HETATM   11  C   UNL     1     -12.131  13.693  66.714  1.00  0.00    -0.445 A  
HETATM   12  C   UNL     1     -12.000  14.651  64.505  1.00  0.00    -0.473 A  
HETATM   13  C   UNL     1     -12.679  13.883  65.449  1.00  0.00    -0.525 A  
ENDBRANCH   7   8
BRANCH   7  14
HETATM   14  C   UNL     1      -9.276  17.415  66.697  1.00  0.00    -0.278 A  
HETATM   15  C   UNL     1     -10.785  19.235  67.326  1.00  0.00    -0.594 A  
HETATM   16  C   UNL     1     -10.500  17.873  67.228  1.00  0.00    -0.373 A  
HETATM   17  C   UNL     1      -8.628  19.742  66.385  1.00  0.00    -0.398 A  
HETATM   18  C   UNL     1      -8.316  18.376  66.297  1.00  0.00    -0.231 A  
HETATM   19  C   UNL     1      -9.854  20.169  66.891  1.00  0.00    -0.593 A  
HETATM   20  C   UNL     1      -6.950  17.983  65.799  1.00  0.00    -0.266 C  
ENDBRANCH   7  14
ENDBRANCH   6   7
ENDBRANCH   5   6
ENDBRANCH   4   5
ENDBRANCH   2   4
TORSDOF 6
ENDMDL
MODEL       58
REMARK 921   NORMALIZED FREE ENERGY PREDICTED BY IDOCK:   -4.69 KCAL/MOL
REMARK 922        TOTAL FREE ENERGY PREDICTED BY IDOCK:   -7.39 KCAL/MOL
REMARK 923 INTER-LIGAND FREE ENERGY PREDICTED BY IDOCK:   -6.43 KCAL/MOL
REMARK 924 INTRA-LIGAND FREE ENERGY PREDICTED BY IDOCK:   -0.97 KCAL/MOL
REMARK 927      BINDING AFFINITY PREDICTED BY RF-SCORE:    0.00 PKD
ROOT
HETATM    1  C   UNL     1      -9.898   4.924  65.897  1.00  0.00    -0.191 C  
HETATM    2  N   UNL     1      -9.622   5.692  67.112  1.00  0.00    -0.125 NA 
HETATM    3  C   UNL     1      -8.534   6.637  66.869  1.00  0.00    -0.115 C  
ENDROOT
BRANCH   2   4
HETATM    4  C   UNL     1     -10.853   6.367  67.558  1.00  0.00    -0.354 C  
BRANCH   4   5
HETATM    5  C   UNL     1     -11.043   6.440  69.086  1.00  0.00    -0.365 C  
BRANCH   5   6
HETATM    6  O   UNL     1     -10.801   7.744  69.629  1.00  0.00    -0.244 OA 
BRANCH   6   7
HETATM    7  C   UNL     1     -11.457   8.038  70.878  1.00  0.00    -0.276 C  
BRANCH   7   8
HETATM    8  C   UNL     1     -10.584   7.628  72.061  1.00  0.00    -0.264 A  
HETATM    9  C   UNL     1      -9.411   8.351  72.343  1.00  0.00    -0.356 A  
HETATM   10  C   UNL     1     -10.995   6.642  72.972  1.00  0.00    -0.279 A  
HETATM   11  C   UNL     1      -8.701   8.130  73.524  1.00  0.00    -0.317 A  
HETATM   12  C   UNL     1     -10.276   6.413  74.146  1.00  0.00    -0.361 A  
HETATM   13  C   UNL     1      -9.140   7.168  74.430  1.00  0.00    -0.226 A  
ENDBRANCH   7   8
BRANCH   7  14
HETATM   14  C   UNL     1     -11.883   9.509  70.884  1.00  0.00    -0.385 A  
HETATM   15  C   UNL     1     -11.555  11.786  70.051  1.00  0.00    -0.318 A  
HETATM   16  C   UNL     1     -11.222  10.431  70.047  1.00  0.00    -0.385 A  
HETATM   17  C   UNL     1     -13.240  11.353  71.715  1.00  0.00    -0.472 A  
HETATM   18  C   UNL     1     -12.931   9.984  71.710  1.00  0.00    -0.560 A  
HETATM   19  C   UNL     1     -12.554  12.248  70.896  1.00  0.00    -0.334 A  
HETATM   20  C   UNL     1     -13.751   9.061  72.573  1.00  0.00    -0.499 C  
ENDBRANCH   7  14
ENDBRANCH   6   7
ENDBRANCH   5   6
ENDBRANCH   4   5
ENDBRANCH   2   4
TORSDOF 6
ENDMDL
MODEL       59
REMARK 921   NORMALIZED FREE ENERGY PREDICTED BY IDOCK:   -4.68 KCAL/MOL
REMARK 922        TOTAL FREE ENERGY PREDICTED BY IDOCK:   -7.37 KCAL/MOL
REMARK 923 INTER-LIGAND FREE ENERGY PREDICTED BY IDOCK:   -7.07 KCAL/MOL
REMARK 924 INTRA-LIGAND FREE ENERGY PREDICTED BY IDOCK:   -0.30 KCAL/MOL
REMARK 927      BINDING AFFINITY PREDICTED BY RF-SCORE:    0.00 PKD
ROOT
HETATM    1  C   UNL     1     -11.268   9.050  71.796  1.00  0.00    -0.378 C  
HETATM    2  N   UNL     1     -12.084   9.792  70.833  1.00  0.00    -0.310 NA 
HETATM    3  C   UNL     1     -12.929  10.757  71.533  1.00  0.00    -0.456 C  
ENDROOT
BRANCH   2   4
HETATM    4  C   UNL     1     -11.208  10.439  69.840  1.00  0.00    -0.306 C  
BRANCH   4   5
HETATM    5  C   UNL     1     -11.926  11.356  68.833  1.00  0.00    -0.304 C  
BRANCH   5   6
HETATM    6  O   UNL     1     -11.193  12.547  68.522  1.00  0.00    -0.244 OA 
BRANCH   6   7
HETATM    7  C   UNL     1     -11.821  13.450  67.590  1.00  0.00    -0.354 C  
BRANCH   7   8
HETATM    8  C   UNL     1     -11.411  14.893  67.868  1.00  0.00    -0.340 A  
HETATM    9  C   UNL     1     -11.454  15.386  69.185  1.00  0.00    -0.344 A  
HETATM   10  C   UNL     1     -10.845  15.702  66.871  1.00  0.00    -0.282 A  
HETATM   11  C   UNL     1     -10.900  16.627  69.502  1.00  0.00    -0.285 A  
HETATM   12  C   UNL     1     -10.304  16.950  67.188  1.00  0.00    -0.304 A  
HETATM   13  C   UNL     1     -10.317  17.405  68.505  1.00  0.00    -0.378 A  
ENDBRANCH   7   8
BRANCH   7  14
HETATM   14  C   UNL     1     -11.536  12.972  66.163  1.00  0.00    -0.381 A  
HETATM   15  C   UNL     1     -12.373  12.457  63.922  1.00  0.00    -0.602 A  
HETATM   16  C   UNL     1     -12.584  12.922  65.220  1.00  0.00    -0.502 A  
HETATM   17  C   UNL     1     -10.052  12.091  64.445  1.00  0.00    -0.298 A  
HETATM   18  C   UNL     1     -10.242  12.574  65.750  1.00  0.00    -0.289 A  
HETATM   19  C   UNL     1     -11.109  12.028  63.540  1.00  0.00    -0.519 A  
HETATM   20  C   UNL     1      -9.044  12.674  66.658  1.00  0.00    -0.193 C  
ENDBRANCH   7  14
ENDBRANCH   6   7
ENDBRANCH   5   6
ENDBRANCH   4   5
ENDBRANCH   2   4
TORSDOF 6
ENDMDL
MODEL       60
REMARK 921   NORMALIZED FREE ENERGY PREDICTED BY IDOCK:   -4.68 KCAL/MOL
REMARK 922        TOTAL FREE ENERGY PREDICTED BY IDOCK:   -7.37 KCAL/MOL
REMARK 923 INTER-LIGAND FREE ENERGY PREDICTED BY IDOCK:   -7.10 KCAL/MOL
REMARK 924 INTRA-LIGAND FREE ENERGY PREDICTED BY IDOCK:   -0.27 KCAL/MOL
REMARK 927      BINDING AFFINITY PREDICTED BY RF-SCORE:    0.00 PKD
ROOT
HETATM    1  C   UNL     1     -10.414   7.636  66.980  1.00  0.00    -0.349 C  
HETATM    2  N   UNL     1      -9.809   8.703  67.779  1.00  0.00    -0.166 NA 
HETATM    3  C   UNL     1      -8.973   9.550  66.931  1.00  0.00    -0.131 C  
ENDROOT
BRANCH   2   4
HETATM    4  C   UNL     1     -10.867   9.470  68.459  1.00  0.00    -0.132 C  
BRANCH   4   5
HETATM    5  C   UNL     1     -11.334  10.739  67.720  1.00  0.00    -0.279 C  
BRANCH   5   6
HETATM    6  O   UNL     1     -12.099  11.629  68.542  1.00  0.00    -0.491 OA 
BRANCH   6   7
HETATM    7  C   UNL     1     -11.360  12.685  69.186  1.00  0.00    -0.282 C  
BRANCH   7   8
HETATM    8  C   UNL     1     -10.806  13.668  68.159  1.00  0.00    -0.262 A  
HETATM    9  C   UNL     1      -9.443  14.017  68.195  1.00  0.00    -0.215 A  
HETATM   10  C   UNL     1     -11.582  14.121  67.080  1.00  0.00    -0.400 A  
HETATM   11  C   UNL     1      -8.865  14.751  67.158  1.00  0.00    -0.234 A  
HETATM   12  C   UNL     1     -11.004  14.867  66.051  1.00  0.00    -0.334 A  
HETATM   13  C   UNL     1      -9.644  15.168  66.082  1.00  0.00    -0.344 A  
ENDBRANCH   7   8
BRANCH   7  14
HETATM   14  C   UNL     1     -12.239  13.324  70.266  1.00  0.00    -0.391 A  
HETATM   15  C   UNL     1     -13.199  15.343  71.257  1.00  0.00    -0.585 A  
HETATM   16  C   UNL     1     -12.437  14.720  70.269  1.00  0.00    -0.393 A  
HETATM   17  C   UNL     1     -13.616  13.200  72.270  1.00  0.00    -0.677 A  
HETATM   18  C   UNL     1     -12.868  12.554  71.273  1.00  0.00    -0.337 A  
HETATM   19  C   UNL     1     -13.776  14.585  72.266  1.00  0.00    -0.559 A  
HETATM   20  C   UNL     1     -12.786  11.050  71.301  1.00  0.00    -0.537 C  
ENDBRANCH   7  14
ENDBRANCH   6   7
ENDBRANCH   5   6
ENDBRANCH   4   5
ENDBRANCH   2   4
TORSDOF 6
ENDMDL
MODEL       61
REMARK 921   NORMALIZED FREE ENERGY PREDICTED BY IDOCK:   -4.66 KCAL/MOL
REMARK 922        TOTAL FREE ENERGY PREDICTED BY IDOCK:   -7.35 KCAL/MOL
REMARK 923 INTER-LIGAND FREE ENERGY PREDICTED BY IDOCK:   -6.36 KCAL/MOL
REMARK 924 INTRA-LIGAND FREE ENERGY PREDICTED BY IDOCK:   -0.99 KCAL/MOL
REMARK 927      BINDING AFFINITY PREDICTED BY RF-SCORE:    0.00 PKD
ROOT
HETATM    1  C   UNL     1     -11.125  14.728  64.643  1.00  0.00    -0.325 C  
HETATM    2  N   UNL     1     -12.366  14.067  64.235  1.00  0.00    -0.653 NA 
HETATM    3  C   UNL     1     -12.066  12.946  63.346  1.00  0.00    -0.530 C  
ENDROOT
BRANCH   2   4
HETATM    4  C   UNL     1     -13.115  13.642  65.430  1.00  0.00    -0.121 C  
BRANCH   4   5
HETATM    5  C   UNL     1     -12.281  13.536  66.722  1.00  0.00    -0.340 C  
BRANCH   5   6
HETATM    6  O   UNL     1     -12.259  12.215  67.279  1.00  0.00    -0.496 OA 
BRANCH   6   7
HETATM    7  C   UNL     1     -11.076  11.865  68.024  1.00  0.00    -0.240 C  
BRANCH   7   8
HETATM    8  C   UNL     1     -11.429  11.005  69.234  1.00  0.00    -0.370 A  
HETATM    9  C   UNL     1     -10.577   9.950  69.609  1.00  0.00    -0.273 A  
HETATM   10  C   UNL     1     -12.503  11.328  70.079  1.00  0.00    -0.251 A  
HETATM   11  C   UNL     1     -10.764   9.276  70.817  1.00  0.00    -0.350 A  
HETATM   12  C   UNL     1     -12.695  10.643  71.280  1.00  0.00    -0.537 A  
HETATM   13  C   UNL     1     -11.817   9.629  71.656  1.00  0.00    -0.457 A  
ENDBRANCH   7   8
BRANCH   7  14
HETATM   14  C   UNL     1     -10.056  11.233  67.073  1.00  0.00    -0.238 A  
HETATM   15  C   UNL     1      -9.595   9.742  65.189  1.00  0.00    -0.356 A  
HETATM   16  C   UNL     1     -10.496  10.367  66.051  1.00  0.00    -0.211 A  
HETATM   17  C   UNL     1      -7.774  10.838  66.318  1.00  0.00    -0.146 A  
HETATM   18  C   UNL     1      -8.668  11.491  67.182  1.00  0.00    -0.160 A  
HETATM   19  C   UNL     1      -8.233   9.967  65.332  1.00  0.00    -0.139 A  
HETATM   20  C   UNL     1      -8.111  12.467  68.185  1.00  0.00    -0.167 C  
ENDBRANCH   7  14
ENDBRANCH   6   7
ENDBRANCH   5   6
ENDBRANCH   4   5
ENDBRANCH   2   4
TORSDOF 6
ENDMDL
MODEL       62
REMARK 921   NORMALIZED FREE ENERGY PREDICTED BY IDOCK:   -4.64 KCAL/MOL
REMARK 922        TOTAL FREE ENERGY PREDICTED BY IDOCK:   -7.33 KCAL/MOL
REMARK 923 INTER-LIGAND FREE ENERGY PREDICTED BY IDOCK:   -6.16 KCAL/MOL
REMARK 924 INTRA-LIGAND FREE ENERGY PREDICTED BY IDOCK:   -1.17 KCAL/MOL
REMARK 927      BINDING AFFINITY PREDICTED BY RF-SCORE:    0.00 PKD
ROOT
HETATM    1  C   UNL     1      -6.021  12.155  67.007  1.00  0.00    -0.095 C  
HETATM    2  N   UNL     1      -7.326  12.787  67.206  1.00  0.00    -0.129 NA 
HETATM    3  C   UNL     1      -8.297  11.797  67.667  1.00  0.00    -0.145 C  
ENDROOT
BRANCH   2   4
HETATM    4  C   UNL     1      -7.191  13.912  68.148  1.00  0.00    -0.120 C  
BRANCH   4   5
HETATM    5  C   UNL     1      -7.050  15.300  67.495  1.00  0.00    -0.196 C  
BRANCH   5   6
HETATM    6  O   UNL     1      -8.099  15.603  66.567  1.00  0.00    -0.249 OA 
BRANCH   6   7
HETATM    7  C   UNL     1      -9.364  15.979  67.146  1.00  0.00    -0.211 C  
BRANCH   7   8
HETATM    8  C   UNL     1      -9.527  17.497  67.159  1.00  0.00    -0.259 A  
HETATM    9  C   UNL     1      -8.610  18.300  66.456  1.00  0.00    -0.283 A  
HETATM   10  C   UNL     1     -10.655  18.111  67.726  1.00  0.00    -0.407 A  
HETATM   11  C   UNL     1      -8.843  19.665  66.282  1.00  0.00    -0.410 A  
HETATM   12  C   UNL     1     -10.877  19.480  67.563  1.00  0.00    -0.494 A  
HETATM   13  C   UNL     1      -9.981  20.253  66.828  1.00  0.00    -0.587 A  
ENDBRANCH   7   8
BRANCH   7  14
HETATM   14  C   UNL     1     -10.487  15.226  66.427  1.00  0.00    -0.307 A  
HETATM   15  C   UNL     1     -11.685  14.743  64.350  1.00  0.00    -0.347 A  
HETATM   16  C   UNL     1     -10.652  15.382  65.035  1.00  0.00    -0.445 A  
HETATM   17  C   UNL     1     -12.422  13.748  66.414  1.00  0.00    -0.404 A  
HETATM   18  C   UNL     1     -11.376  14.367  67.117  1.00  0.00    -0.356 A  
HETATM   19  C   UNL     1     -12.579  13.938  65.042  1.00  0.00    -0.422 A  
HETATM   20  C   UNL     1     -11.226  14.071  68.586  1.00  0.00    -0.294 C  
ENDBRANCH   7  14
ENDBRANCH   6   7
ENDBRANCH   5   6
ENDBRANCH   4   5
ENDBRANCH   2   4
TORSDOF 6
ENDMDL
MODEL       63
REMARK 921   NORMALIZED FREE ENERGY PREDICTED BY IDOCK:   -4.63 KCAL/MOL
REMARK 922        TOTAL FREE ENERGY PREDICTED BY IDOCK:   -7.31 KCAL/MOL
REMARK 923 INTER-LIGAND FREE ENERGY PREDICTED BY IDOCK:   -7.13 KCAL/MOL
REMARK 924 INTRA-LIGAND FREE ENERGY PREDICTED BY IDOCK:   -0.18 KCAL/MOL
REMARK 927      BINDING AFFINITY PREDICTED BY RF-SCORE:    0.00 PKD
ROOT
HETATM    1  C   UNL     1     -12.197  12.812  65.447  1.00  0.00    -0.478 C  
HETATM    2  N   UNL     1     -11.002  12.506  66.235  1.00  0.00    -0.268 NA 
HETATM    3  C   UNL     1     -10.422  11.240  65.791  1.00  0.00    -0.254 C  
ENDROOT
BRANCH   2   4
HETATM    4  C   UNL     1     -10.045  13.621  66.132  1.00  0.00    -0.306 C  
BRANCH   4   5
HETATM    5  C   UNL     1      -9.131  13.814  67.357  1.00  0.00    -0.221 C  
BRANCH   5   6
HETATM    6  O   UNL     1      -9.222  15.122  67.937  1.00  0.00    -0.182 OA 
BRANCH   6   7
HETATM    7  C   UNL     1     -10.533  15.720  67.940  1.00  0.00    -0.270 C  
BRANCH   7   8
HETATM    8  C   UNL     1     -11.260  15.431  69.250  1.00  0.00    -0.300 A  
HETATM    9  C   UNL     1     -12.041  14.265  69.369  1.00  0.00    -0.361 A  
HETATM   10  C   UNL     1     -11.053  16.215  70.396  1.00  0.00    -0.362 A  
HETATM   11  C   UNL     1     -12.552  13.871  70.607  1.00  0.00    -0.405 A  
HETATM   12  C   UNL     1     -11.579  15.826  71.630  1.00  0.00    -0.537 A  
HETATM   13  C   UNL     1     -12.313  14.647  71.738  1.00  0.00    -0.415 A  
ENDBRANCH   7   8
BRANCH   7  14
HETATM   14  C   UNL     1     -10.404  17.208  67.601  1.00  0.00    -0.344 A  
HETATM   15  C   UNL     1      -9.986  19.497  68.356  1.00  0.00    -0.540 A  
HETATM   16  C   UNL     1     -10.076  18.130  68.617  1.00  0.00    -0.406 A  
HETATM   17  C   UNL     1     -10.530  19.080  66.048  1.00  0.00    -0.530 A  
HETATM   18  C   UNL     1     -10.606  17.699  66.288  1.00  0.00    -0.215 A  
HETATM   19  C   UNL     1     -10.228  19.973  67.075  1.00  0.00    -0.587 A  
HETATM   20  C   UNL     1     -10.875  16.783  65.123  1.00  0.00    -0.150 C  
ENDBRANCH   7  14
ENDBRANCH   6   7
ENDBRANCH   5   6
ENDBRANCH   4   5
ENDBRANCH   2   4
TORSDOF 6
ENDMDL
MODEL       64
REMARK 921   NORMALIZED FREE ENERGY PREDICTED BY IDOCK:   -4.60 KCAL/MOL
REMARK 922        TOTAL FREE ENERGY PREDICTED BY IDOCK:   -7.27 KCAL/MOL
REMARK 923 INTER-LIGAND FREE ENERGY PREDICTED BY IDOCK:   -6.90 KCAL/MOL
REMARK 924 INTRA-LIGAND FREE ENERGY PREDICTED BY IDOCK:   -0.37 KCAL/MOL
REMARK 927      BINDING AFFINITY PREDICTED BY RF-SCORE:    0.00 PKD
ROOT
HETATM    1  C   UNL     1     -10.182  11.211  65.722  1.00  0.00    -0.257 C  
HETATM    2  N   UNL     1     -10.206  12.219  66.783  1.00  0.00    -0.210 NA 
HETATM    3  C   UNL     1      -8.869  12.780  66.969  1.00  0.00    -0.213 C  
ENDROOT
BRANCH   2   4
HETATM    4  C   UNL     1     -11.202  13.255  66.457  1.00  0.00    -0.304 C  
BRANCH   4   5
HETATM    5  C   UNL     1     -10.984  14.613  67.150  1.00  0.00    -0.316 C  
BRANCH   5   6
HETATM    6  O   UNL     1     -12.032  14.964  68.063  1.00  0.00    -0.306 OA 
BRANCH   6   7
HETATM    7  C   UNL     1     -11.675  15.892  69.106  1.00  0.00    -0.363 C  
BRANCH   7   8
HETATM    8  C   UNL     1     -12.082  15.355  70.475  1.00  0.00    -0.411 A  
HETATM    9  C   UNL     1     -11.978  16.186  71.606  1.00  0.00    -0.528 A  
HETATM   10  C   UNL     1     -12.701  14.104  70.621  1.00  0.00    -0.389 A  
HETATM   11  C   UNL     1     -12.524  15.798  72.831  1.00  0.00    -0.566 A  
HETATM   12  C   UNL     1     -13.234  13.712  71.851  1.00  0.00    -0.497 A  
HETATM   13  C   UNL     1     -13.160  14.565  72.950  1.00  0.00    -0.614 A  
ENDBRANCH   7   8
BRANCH   7  14
HETATM   14  C   UNL     1     -10.189  16.242  68.977  1.00  0.00    -0.261 A  
HETATM   15  C   UNL     1      -7.857  15.663  69.433  1.00  0.00    -0.222 A  
HETATM   16  C   UNL     1      -9.217  15.362  69.496  1.00  0.00    -0.240 A  
HETATM   17  C   UNL     1      -8.378  17.727  68.309  1.00  0.00    -0.276 A  
HETATM   18  C   UNL     1      -9.750  17.431  68.347  1.00  0.00    -0.304 A  
HETATM   19  C   UNL     1      -7.439  16.852  68.852  1.00  0.00    -0.238 A  
HETATM   20  C   UNL     1     -10.708  18.389  67.688  1.00  0.00    -0.390 C  
ENDBRANCH   7  14
ENDBRANCH   6   7
ENDBRANCH   5   6
ENDBRANCH   4   5
ENDBRANCH   2   4
TORSDOF 6
ENDMDL
MODEL       65
REMARK 921   NORMALIZED FREE ENERGY PREDICTED BY IDOCK:   -4.59 KCAL/MOL
REMARK 922        TOTAL FREE ENERGY PREDICTED BY IDOCK:   -7.26 KCAL/MOL
REMARK 923 INTER-LIGAND FREE ENERGY PREDICTED BY IDOCK:   -6.27 KCAL/MOL
REMARK 924 INTRA-LIGAND FREE ENERGY PREDICTED BY IDOCK:   -0.99 KCAL/MOL
REMARK 927      BINDING AFFINITY PREDICTED BY RF-SCORE:    0.00 PKD
ROOT
HETATM    1  C   UNL     1     -12.344  15.682  70.499  1.00  0.00    -0.403 C  
HETATM    2  N   UNL     1     -12.901  14.737  71.468  1.00  0.00    -0.311 NA 
HETATM    3  C   UNL     1     -14.341  14.945  71.597  1.00  0.00    -0.570 C  
ENDROOT
BRANCH   2   4
HETATM    4  C   UNL     1     -12.574  13.360  71.057  1.00  0.00    -0.343 C  
BRANCH   4   5
HETATM    5  C   UNL     1     -12.137  13.201  69.588  1.00  0.00    -0.255 C  
BRANCH   5   6
HETATM    6  O   UNL     1     -12.019  11.835  69.172  1.00  0.00    -0.314 OA 
BRANCH   6   7
HETATM    7  C   UNL     1     -10.744  11.209  69.418  1.00  0.00    -0.175 C  
BRANCH   7   8
HETATM    8  C   UNL     1     -10.885  10.054  70.405  1.00  0.00    -0.380 A  
HETATM    9  C   UNL     1      -9.740   9.348  70.818  1.00  0.00    -0.332 A  
HETATM   10  C   UNL     1     -12.107   9.768  71.034  1.00  0.00    -0.434 A  
HETATM   11  C   UNL     1      -9.807   8.425  71.862  1.00  0.00    -0.328 A  
HETATM   12  C   UNL     1     -12.174   8.834  72.069  1.00  0.00    -0.447 A  
HETATM   13  C   UNL     1     -11.022   8.175  72.493  1.00  0.00    -0.439 A  
ENDBRANCH   7   8
BRANCH   7  14
HETATM   14  C   UNL     1     -10.110  10.824  68.078  1.00  0.00    -0.198 A  
HETATM   15  C   UNL     1     -10.073   9.346  66.129  1.00  0.00    -0.324 A  
HETATM   16  C   UNL     1     -10.644   9.751  67.335  1.00  0.00    -0.330 A  
HETATM   17  C   UNL     1      -8.419  11.082  66.344  1.00  0.00    -0.164 A  
HETATM   18  C   UNL     1      -8.993  11.516  67.550  1.00  0.00    -0.159 A  
HETATM   19  C   UNL     1      -8.951  10.002  65.641  1.00  0.00    -0.203 A  
HETATM   20  C   UNL     1      -8.407  12.727  68.227  1.00  0.00    -0.161 C  
ENDBRANCH   7  14
ENDBRANCH   6   7
ENDBRANCH   5   6
ENDBRANCH   4   5
ENDBRANCH   2   4
TORSDOF 6
ENDMDL
MODEL       66
REMARK 921   NORMALIZED FREE ENERGY PREDICTED BY IDOCK:   -4.58 KCAL/MOL
REMARK 922        TOTAL FREE ENERGY PREDICTED BY IDOCK:   -7.24 KCAL/MOL
REMARK 923 INTER-LIGAND FREE ENERGY PREDICTED BY IDOCK:   -7.11 KCAL/MOL
REMARK 924 INTRA-LIGAND FREE ENERGY PREDICTED BY IDOCK:   -0.13 KCAL/MOL
REMARK 927      BINDING AFFINITY PREDICTED BY RF-SCORE:    0.00 PKD
ROOT
HETATM    1  C   UNL     1     -12.206  14.566  64.325  1.00  0.00    -0.415 C  
HETATM    2  N   UNL     1     -12.226  13.139  64.650  1.00  0.00    -0.404 NA 
HETATM    3  C   UNL     1     -11.053  12.480  64.078  1.00  0.00    -0.397 C  
ENDROOT
BRANCH   2   4
HETATM    4  C   UNL     1     -12.300  12.967  66.112  1.00  0.00    -0.265 C  
BRANCH   4   5
HETATM    5  C   UNL     1     -12.231  14.272  66.929  1.00  0.00    -0.331 C  
BRANCH   5   6
HETATM    6  O   UNL     1     -11.483  14.144  68.145  1.00  0.00    -0.276 OA 
BRANCH   6   7
HETATM    7  C   UNL     1     -12.103  13.364  69.187  1.00  0.00    -0.261 C  
BRANCH   7   8
HETATM    8  C   UNL     1     -11.304  12.094  69.464  1.00  0.00    -0.277 A  
HETATM    9  C   UNL     1     -11.805  11.143  70.372  1.00  0.00    -0.462 A  
HETATM   10  C   UNL     1     -10.155  11.771  68.726  1.00  0.00    -0.153 A  
HETATM   11  C   UNL     1     -11.204   9.889  70.498  1.00  0.00    -0.399 A  
HETATM   12  C   UNL     1      -9.548  10.521  68.864  1.00  0.00    -0.199 A  
HETATM   13  C   UNL     1     -10.081   9.576  69.737  1.00  0.00    -0.238 A  
ENDBRANCH   7   8
BRANCH   7  14
HETATM   14  C   UNL     1     -12.325  14.255  70.412  1.00  0.00    -0.419 A  
HETATM   15  C   UNL     1     -13.708  14.858  72.338  1.00  0.00    -0.576 A  
HETATM   16  C   UNL     1     -13.451  14.044  71.235  1.00  0.00    -0.308 A  
HETATM   17  C   UNL     1     -11.713  16.117  71.859  1.00  0.00    -0.575 A  
HETATM   18  C   UNL     1     -11.428  15.296  70.756  1.00  0.00    -0.361 A  
HETATM   19  C   UNL     1     -12.847  15.903  72.641  1.00  0.00    -0.548 A  
HETATM   20  C   UNL     1     -10.155  15.541  69.990  1.00  0.00    -0.241 C  
ENDBRANCH   7  14
ENDBRANCH   6   7
ENDBRANCH   5   6
ENDBRANCH   4   5
ENDBRANCH   2   4
TORSDOF 6
ENDMDL
MODEL       67
REMARK 921   NORMALIZED FREE ENERGY PREDICTED BY IDOCK:   -4.56 KCAL/MOL
REMARK 922        TOTAL FREE ENERGY PREDICTED BY IDOCK:   -7.21 KCAL/MOL
REMARK 923 INTER-LIGAND FREE ENERGY PREDICTED BY IDOCK:   -6.12 KCAL/MOL
REMARK 924 INTRA-LIGAND FREE ENERGY PREDICTED BY IDOCK:   -1.09 KCAL/MOL
REMARK 927      BINDING AFFINITY PREDICTED BY RF-SCORE:    0.00 PKD
ROOT
HETATM    1  C   UNL     1      -5.855  12.188  67.357  1.00  0.00    -0.137 C  
HETATM    2  N   UNL     1      -7.267  11.949  67.057  1.00  0.00    -0.139 NA 
HETATM    3  C   UNL     1      -7.413  10.710  66.296  1.00  0.00    -0.137 C  
ENDROOT
BRANCH   2   4
HETATM    4  C   UNL     1      -8.040  11.924  68.312  1.00  0.00    -0.154 C  
BRANCH   4   5
HETATM    5  C   UNL     1      -9.335  11.090  68.266  1.00  0.00    -0.172 C  
BRANCH   5   6
HETATM    6  O   UNL     1     -10.508  11.839  68.605  1.00  0.00    -0.215 OA 
BRANCH   6   7
HETATM    7  C   UNL     1     -10.463  13.249  68.309  1.00  0.00    -0.250 C  
BRANCH   7   8
HETATM    8  C   UNL     1     -11.041  13.533  66.925  1.00  0.00    -0.309 A  
HETATM    9  C   UNL     1     -10.399  14.457  66.080  1.00  0.00    -0.319 A  
HETATM   10  C   UNL     1     -12.112  12.788  66.407  1.00  0.00    -0.370 A  
HETATM   11  C   UNL     1     -10.782  14.591  64.745  1.00  0.00    -0.414 A  
HETATM   12  C   UNL     1     -12.503  12.934  65.075  1.00  0.00    -0.553 A  
HETATM   13  C   UNL     1     -11.828  13.823  64.240  1.00  0.00    -0.451 A  
ENDBRANCH   7   8
BRANCH   7  14
HETATM   14  C   UNL     1     -11.136  14.021  69.448  1.00  0.00    -0.246 A  
HETATM   15  C   UNL     1     -12.924  14.159  71.111  1.00  0.00    -0.419 A  
HETATM   16  C   UNL     1     -12.261  13.470  70.096  1.00  0.00    -0.400 A  
HETATM   17  C   UNL     1     -11.355  15.970  70.891  1.00  0.00    -0.421 A  
HETATM   18  C   UNL     1     -10.663  15.284  69.881  1.00  0.00    -0.300 A  
HETATM   19  C   UNL     1     -12.479  15.415  71.499  1.00  0.00    -0.450 A  
HETATM   20  C   UNL     1      -9.420  15.912  69.309  1.00  0.00    -0.260 C  
ENDBRANCH   7  14
ENDBRANCH   6   7
ENDBRANCH   5   6
ENDBRANCH   4   5
ENDBRANCH   2   4
TORSDOF 6
ENDMDL
MODEL       68
REMARK 921   NORMALIZED FREE ENERGY PREDICTED BY IDOCK:   -4.55 KCAL/MOL
REMARK 922        TOTAL FREE ENERGY PREDICTED BY IDOCK:   -7.20 KCAL/MOL
REMARK 923 INTER-LIGAND FREE ENERGY PREDICTED BY IDOCK:   -6.24 KCAL/MOL
REMARK 924 INTRA-LIGAND FREE ENERGY PREDICTED BY IDOCK:   -0.96 KCAL/MOL
REMARK 927      BINDING AFFINITY PREDICTED BY RF-SCORE:    0.00 PKD
ROOT
HETATM    1  C   UNL     1     -10.589  11.085  64.416  1.00  0.00    -0.325 C  
HETATM    2  N   UNL     1     -11.230  12.392  64.573  1.00  0.00    -0.308 NA 
HETATM    3  C   UNL     1     -12.174  12.619  63.481  1.00  0.00    -0.547 C  
ENDROOT
BRANCH   2   4
HETATM    4  C   UNL     1     -11.879  12.467  65.893  1.00  0.00    -0.430 C  
BRANCH   4   5
HETATM    5  C   UNL     1     -11.020  11.979  67.075  1.00  0.00    -0.274 C  
BRANCH   5   6
HETATM    6  O   UNL     1     -11.678  11.007  67.896  1.00  0.00    -0.551 OA 
BRANCH   6   7
HETATM    7  C   UNL     1     -10.857  10.359  68.888  1.00  0.00    -0.236 C  
BRANCH   7   8
HETATM    8  C   UNL     1     -11.704   9.866  70.058  1.00  0.00    -0.186 A  
HETATM    9  C   UNL     1     -11.349   8.677  70.721  1.00  0.00    -0.299 A  
HETATM   10  C   UNL     1     -12.743  10.644  70.594  1.00  0.00    -0.445 A  
HETATM   11  C   UNL     1     -11.979   8.306  71.910  1.00  0.00    -0.383 A  
HETATM   12  C   UNL     1     -13.381  10.263  71.776  1.00  0.00    -0.476 A  
HETATM   13  C   UNL     1     -12.988   9.104  72.442  1.00  0.00    -0.468 A  
ENDBRANCH   7   8
BRANCH   7  14
HETATM   14  C   UNL     1     -10.018   9.272  68.211  1.00  0.00    -0.196 A  
HETATM   15  C   UNL     1      -9.917   7.316  66.745  1.00  0.00    -0.287 A  
HETATM   16  C   UNL     1     -10.640   8.344  67.350  1.00  0.00    -0.313 A  
HETATM   17  C   UNL     1      -7.914   8.112  67.815  1.00  0.00    -0.127 A  
HETATM   18  C   UNL     1      -8.622   9.164  68.418  1.00  0.00    -0.129 A  
HETATM   19  C   UNL     1      -8.557   7.192  66.989  1.00  0.00    -0.122 A  
HETATM   20  C   UNL     1      -7.856  10.159  69.249  1.00  0.00    -0.134 C  
ENDBRANCH   7  14
ENDBRANCH   6   7
ENDBRANCH   5   6
ENDBRANCH   4   5
ENDBRANCH   2   4
TORSDOF 6
ENDMDL
MODEL       69
REMARK 921   NORMALIZED FREE ENERGY PREDICTED BY IDOCK:   -4.54 KCAL/MOL
REMARK 922        TOTAL FREE ENERGY PREDICTED BY IDOCK:   -7.19 KCAL/MOL
REMARK 923 INTER-LIGAND FREE ENERGY PREDICTED BY IDOCK:   -6.61 KCAL/MOL
REMARK 924 INTRA-LIGAND FREE ENERGY PREDICTED BY IDOCK:   -0.58 KCAL/MOL
REMARK 927      BINDING AFFINITY PREDICTED BY RF-SCORE:    0.00 PKD
ROOT
HETATM    1  C   UNL     1     -10.406  12.228  63.447  1.00  0.00    -0.357 C  
HETATM    2  N   UNL     1     -11.697  12.917  63.428  1.00  0.00    -0.515 NA 
HETATM    3  C   UNL     1     -12.784  11.941  63.474  1.00  0.00    -0.405 C  
ENDROOT
BRANCH   2   4
HETATM    4  C   UNL     1     -11.762  13.873  64.547  1.00  0.00    -0.410 C  
BRANCH   4   5
HETATM    5  C   UNL     1     -12.436  13.340  65.826  1.00  0.00    -0.417 C  
BRANCH   5   6
HETATM    6  O   UNL     1     -11.565  12.546  66.642  1.00  0.00    -0.340 OA 
BRANCH   6   7
HETATM    7  C   UNL     1     -11.920  12.451  68.035  1.00  0.00    -0.203 C  
BRANCH   7   8
HETATM    8  C   UNL     1     -11.403  11.149  68.641  1.00  0.00    -0.342 A  
HETATM    9  C   UNL     1     -10.754  10.209  67.818  1.00  0.00    -0.328 A  
HETATM   10  C   UNL     1     -11.420  10.923  70.026  1.00  0.00    -0.411 A  
HETATM   11  C   UNL     1     -10.098   9.108  68.370  1.00  0.00    -0.220 A  
HETATM   12  C   UNL     1     -10.774   9.813  70.574  1.00  0.00    -0.381 A  
HETATM   13  C   UNL     1     -10.101   8.916  69.749  1.00  0.00    -0.205 A  
ENDBRANCH   7   8
BRANCH   7  14
HETATM   14  C   UNL     1     -11.451  13.717  68.758  1.00  0.00    -0.346 A  
HETATM   15  C   UNL     1     -11.951  15.557  70.290  1.00  0.00    -0.401 A  
HETATM   16  C   UNL     1     -12.327  14.381  69.643  1.00  0.00    -0.300 A  
HETATM   17  C   UNL     1      -9.800  15.448  69.215  1.00  0.00    -0.262 A  
HETATM   18  C   UNL     1     -10.154  14.252  68.569  1.00  0.00    -0.246 A  
HETATM   19  C   UNL     1     -10.693  16.098  70.065  1.00  0.00    -0.318 A  
HETATM   20  C   UNL     1      -9.122  13.567  67.713  1.00  0.00    -0.207 C  
ENDBRANCH   7  14
ENDBRANCH   6   7
ENDBRANCH   5   6
ENDBRANCH   4   5
ENDBRANCH   2   4
TORSDOF 6
ENDMDL
MODEL       70
REMARK 921   NORMALIZED FREE ENERGY PREDICTED BY IDOCK:   -4.53 KCAL/MOL
REMARK 922        TOTAL FREE ENERGY PREDICTED BY IDOCK:   -7.18 KCAL/MOL
REMARK 923 INTER-LIGAND FREE ENERGY PREDICTED BY IDOCK:   -6.64 KCAL/MOL
REMARK 924 INTRA-LIGAND FREE ENERGY PREDICTED BY IDOCK:   -0.54 KCAL/MOL
REMARK 927      BINDING AFFINITY PREDICTED BY RF-SCORE:    0.00 PKD
ROOT
HETATM    1  C   UNL     1      -8.444   8.835  68.076  1.00  0.00    -0.126 C  
HETATM    2  N   UNL     1      -9.760   9.252  67.588  1.00  0.00    -0.152 NA 
HETATM    3  C   UNL     1     -10.438   8.122  66.957  1.00  0.00    -0.326 C  
ENDROOT
BRANCH   2   4
HETATM    4  C   UNL     1     -10.542   9.817  68.701  1.00  0.00    -0.221 C  
BRANCH   4   5
HETATM    5  C   UNL     1     -11.378  11.062  68.347  1.00  0.00    -0.295 C  
BRANCH   5   6
HETATM    6  O   UNL     1     -11.181  12.157  69.250  1.00  0.00    -0.250 OA 
BRANCH   6   7
HETATM    7  C   UNL     1     -11.928  13.355  68.960  1.00  0.00    -0.315 C  
BRANCH   7   8
HETATM    8  C   UNL     1     -12.437  14.004  70.244  1.00  0.00    -0.403 A  
HETATM    9  C   UNL     1     -13.091  13.216  71.209  1.00  0.00    -0.275 A  
HETATM   10  C   UNL     1     -12.139  15.338  70.563  1.00  0.00    -0.395 A  
HETATM   11  C   UNL     1     -13.388  13.732  72.471  1.00  0.00    -0.656 A  
HETATM   12  C   UNL     1     -12.450  15.856  71.822  1.00  0.00    -0.512 A  
HETATM   13  C   UNL     1     -13.059  15.049  72.780  1.00  0.00    -0.549 A  
ENDBRANCH   7   8
BRANCH   7  14
HETATM   14  C   UNL     1     -11.077  14.274  68.079  1.00  0.00    -0.286 A  
HETATM   15  C   UNL     1      -9.110  15.708  67.839  1.00  0.00    -0.185 A  
HETATM   16  C   UNL     1      -9.892  14.837  68.597  1.00  0.00    -0.225 A  
HETATM   17  C   UNL     1     -10.651  15.478  66.005  1.00  0.00    -0.333 A  
HETATM   18  C   UNL     1     -11.440  14.584  66.746  1.00  0.00    -0.376 A  
HETATM   19  C   UNL     1      -9.497  16.040  66.548  1.00  0.00    -0.297 A  
HETATM   20  C   UNL     1     -12.640  13.964  66.078  1.00  0.00    -0.467 C  
ENDBRANCH   7  14
ENDBRANCH   6   7
ENDBRANCH   5   6
ENDBRANCH   4   5
ENDBRANCH   2   4
TORSDOF 6
ENDMDL
MODEL       71
REMARK 921   NORMALIZED FREE ENERGY PREDICTED BY IDOCK:   -4.52 KCAL/MOL
REMARK 922        TOTAL FREE ENERGY PREDICTED BY IDOCK:   -7.15 KCAL/MOL
REMARK 923 INTER-LIGAND FREE ENERGY PREDICTED BY IDOCK:   -6.53 KCAL/MOL
REMARK 924 INTRA-LIGAND FREE ENERGY PREDICTED BY IDOCK:   -0.62 KCAL/MOL
REMARK 927      BINDING AFFINITY PREDICTED BY RF-SCORE:    0.00 PKD
ROOT
HETATM    1  C   UNL     1      -7.508   8.590  68.553  1.00  0.00    -0.094 C  
HETATM    2  N   UNL     1      -8.325   9.588  69.245  1.00  0.00    -0.121 NA 
HETATM    3  C   UNL     1      -8.599   9.148  70.612  1.00  0.00    -0.226 C  
ENDROOT
BRANCH   2   4
HETATM    4  C   UNL     1      -7.643  10.894  69.209  1.00  0.00    -0.113 C  
BRANCH   4   5
HETATM    5  C   UNL     1      -8.138  11.861  68.117  1.00  0.00    -0.155 C  
BRANCH   5   6
HETATM    6  O   UNL     1      -9.355  12.535  68.461  1.00  0.00    -0.177 OA 
BRANCH   6   7
HETATM    7  C   UNL     1     -10.573  11.817  68.180  1.00  0.00    -0.203 C  
BRANCH   7   8
HETATM    8  C   UNL     1     -11.550  11.926  69.348  1.00  0.00    -0.388 A  
HETATM    9  C   UNL     1     -12.031  10.755  69.963  1.00  0.00    -0.427 A  
HETATM   10  C   UNL     1     -11.869  13.164  69.928  1.00  0.00    -0.378 A  
HETATM   11  C   UNL     1     -12.762  10.820  71.150  1.00  0.00    -0.532 A  
HETATM   12  C   UNL     1     -12.613  13.226  71.108  1.00  0.00    -0.412 A  
HETATM   13  C   UNL     1     -13.045  12.056  71.727  1.00  0.00    -0.460 A  
ENDBRANCH   7   8
BRANCH   7  14
HETATM   14  C   UNL     1     -11.135  12.292  66.837  1.00  0.00    -0.341 A  
HETATM   15  C   UNL     1     -12.443  13.932  65.578  1.00  0.00    -0.541 A  
HETATM   16  C   UNL     1     -11.883  13.486  66.775  1.00  0.00    -0.450 A  
HETATM   17  C   UNL     1     -11.514  12.021  64.447  1.00  0.00    -0.413 A  
HETATM   18  C   UNL     1     -10.927  11.567  65.638  1.00  0.00    -0.296 A  
HETATM   19  C   UNL     1     -12.270  13.191  64.417  1.00  0.00    -0.462 A  
HETATM   20  C   UNL     1     -10.071  10.329  65.589  1.00  0.00    -0.341 C  
ENDBRANCH   7  14
ENDBRANCH   6   7
ENDBRANCH   5   6
ENDBRANCH   4   5
ENDBRANCH   2   4
TORSDOF 6
ENDMDL
MODEL       72
REMARK 921   NORMALIZED FREE ENERGY PREDICTED BY IDOCK:   -4.50 KCAL/MOL
REMARK 922        TOTAL FREE ENERGY PREDICTED BY IDOCK:   -7.13 KCAL/MOL
REMARK 923 INTER-LIGAND FREE ENERGY PREDICTED BY IDOCK:   -6.23 KCAL/MOL
REMARK 924 INTRA-LIGAND FREE ENERGY PREDICTED BY IDOCK:   -0.90 KCAL/MOL
REMARK 927      BINDING AFFINITY PREDICTED BY RF-SCORE:    0.00 PKD
ROOT
HETATM    1  C   UNL     1      -8.384   7.064  67.806  1.00  0.00    -0.117 C  
HETATM    2  N   UNL     1      -9.406   7.033  66.759  1.00  0.00    -0.151 NA 
HETATM    3  C   UNL     1      -9.936   5.678  66.619  1.00  0.00    -0.181 C  
ENDROOT
BRANCH   2   4
HETATM    4  C   UNL     1     -10.461   8.013  67.071  1.00  0.00    -0.340 C  
BRANCH   4   5
HETATM    5  C   UNL     1     -10.006   9.219  67.914  1.00  0.00    -0.187 C  
BRANCH   5   6
HETATM    6  O   UNL     1     -10.962  10.286  67.946  1.00  0.00    -0.267 OA 
BRANCH   6   7
HETATM    7  C   UNL     1     -10.517  11.548  67.411  1.00  0.00    -0.209 C  
BRANCH   7   8
HETATM    8  C   UNL     1     -11.050  11.759  65.997  1.00  0.00    -0.363 A  
HETATM    9  C   UNL     1     -12.140  12.624  65.788  1.00  0.00    -0.484 A  
HETATM   10  C   UNL     1     -10.390  11.233  64.875  1.00  0.00    -0.362 A  
HETATM   11  C   UNL     1     -12.523  12.991  64.497  1.00  0.00    -0.427 A  
HETATM   12  C   UNL     1     -10.785  11.591  63.585  1.00  0.00    -0.491 A  
HETATM   13  C   UNL     1     -11.839  12.482  63.396  1.00  0.00    -0.587 A  
ENDBRANCH   7   8
BRANCH   7  14
HETATM   14  C   UNL     1     -10.875  12.663  68.398  1.00  0.00    -0.268 A  
HETATM   15  C   UNL     1     -12.252  13.442  70.264  1.00  0.00    -0.405 A  
HETATM   16  C   UNL     1     -11.870  12.440  69.373  1.00  0.00    -0.365 A  
HETATM   17  C   UNL     1     -10.648  14.929  69.260  1.00  0.00    -0.248 A  
HETATM   18  C   UNL     1     -10.237  13.926  68.368  1.00  0.00    -0.243 A  
HETATM   19  C   UNL     1     -11.651  14.692  70.198  1.00  0.00    -0.336 A  
HETATM   20  C   UNL     1      -9.105  14.229  67.421  1.00  0.00    -0.199 C  
ENDBRANCH   7  14
ENDBRANCH   6   7
ENDBRANCH   5   6
ENDBRANCH   4   5
ENDBRANCH   2   4
TORSDOF 6
ENDMDL
MODEL       73
REMARK 921   NORMALIZED FREE ENERGY PREDICTED BY IDOCK:   -4.48 KCAL/MOL
REMARK 922        TOTAL FREE ENERGY PREDICTED BY IDOCK:   -7.11 KCAL/MOL
REMARK 923 INTER-LIGAND FREE ENERGY PREDICTED BY IDOCK:   -6.04 KCAL/MOL
REMARK 924 INTRA-LIGAND FREE ENERGY PREDICTED BY IDOCK:   -1.08 KCAL/MOL
REMARK 927      BINDING AFFINITY PREDICTED BY RF-SCORE:    0.00 PKD
ROOT
HETATM    1  C   UNL     1     -10.350   9.671  70.106  1.00  0.00    -0.266 C  
HETATM    2  N   UNL     1     -10.034  10.726  69.141  1.00  0.00    -0.207 NA 
HETATM    3  C   UNL     1      -9.185  10.192  68.078  1.00  0.00    -0.138 C  
ENDROOT
BRANCH   2   4
HETATM    4  C   UNL     1     -11.284  11.303  68.615  1.00  0.00    -0.250 C  
BRANCH   4   5
HETATM    5  C   UNL     1     -11.574  12.750  69.058  1.00  0.00    -0.316 C  
BRANCH   5   6
HETATM    6  O   UNL     1     -11.594  13.685  67.973  1.00  0.00    -0.293 OA 
BRANCH   6   7
HETATM    7  C   UNL     1     -10.546  13.540  66.995  1.00  0.00    -0.269 C  
BRANCH   7   8
HETATM    8  C   UNL     1     -11.111  13.075  65.655  1.00  0.00    -0.301 A  
HETATM    9  C   UNL     1     -10.280  12.389  64.750  1.00  0.00    -0.303 A  
HETATM   10  C   UNL     1     -12.480  13.177  65.359  1.00  0.00    -0.535 A  
HETATM   11  C   UNL     1     -10.812  11.781  63.612  1.00  0.00    -0.508 A  
HETATM   12  C   UNL     1     -13.006  12.579  64.213  1.00  0.00    -0.253 A  
HETATM   13  C   UNL     1     -12.176  11.868  63.349  1.00  0.00    -0.561 A  
ENDBRANCH   7   8
BRANCH   7  14
HETATM   14  C   UNL     1      -9.741  14.841  66.927  1.00  0.00    -0.247 A  
HETATM   15  C   UNL     1      -9.689  17.248  66.493  1.00  0.00    -0.298 A  
HETATM   16  C   UNL     1     -10.393  16.049  66.602  1.00  0.00    -0.299 A  
HETATM   17  C   UNL     1      -7.654  16.089  67.048  1.00  0.00    -0.265 A  
HETATM   18  C   UNL     1      -8.349  14.877  67.181  1.00  0.00    -0.247 A  
HETATM   19  C   UNL     1      -8.317  17.265  66.702  1.00  0.00    -0.291 A  
HETATM   20  C   UNL     1      -7.583  13.656  67.618  1.00  0.00    -0.186 C  
ENDBRANCH   7  14
ENDBRANCH   6   7
ENDBRANCH   5   6
ENDBRANCH   4   5
ENDBRANCH   2   4
TORSDOF 6
ENDMDL
MODEL       74
REMARK 921   NORMALIZED FREE ENERGY PREDICTED BY IDOCK:   -4.46 KCAL/MOL
REMARK 922        TOTAL FREE ENERGY PREDICTED BY IDOCK:   -7.08 KCAL/MOL
REMARK 923 INTER-LIGAND FREE ENERGY PREDICTED BY IDOCK:   -6.11 KCAL/MOL
REMARK 924 INTRA-LIGAND FREE ENERGY PREDICTED BY IDOCK:   -0.97 KCAL/MOL
REMARK 927      BINDING AFFINITY PREDICTED BY RF-SCORE:    0.00 PKD
ROOT
HETATM    1  C   UNL     1     -10.381  18.167  66.254  1.00  0.00    -0.397 C  
HETATM    2  N   UNL     1      -9.789  18.344  67.581  1.00  0.00    -0.303 NA 
HETATM    3  C   UNL     1     -10.410  19.481  68.258  1.00  0.00    -0.411 C  
ENDROOT
BRANCH   2   4
HETATM    4  C   UNL     1      -9.927  17.096  68.353  1.00  0.00    -0.310 C  
BRANCH   4   5
HETATM    5  C   UNL     1     -10.635  15.945  67.614  1.00  0.00    -0.307 C  
BRANCH   5   6
HETATM    6  O   UNL     1      -9.801  14.795  67.419  1.00  0.00    -0.220 OA 
BRANCH   6   7
HETATM    7  C   UNL     1     -10.478  13.522  67.396  1.00  0.00    -0.247 C  
BRANCH   7   8
HETATM    8  C   UNL     1     -10.907  13.160  65.977  1.00  0.00    -0.287 A  
HETATM    9  C   UNL     1      -9.954  12.666  65.067  1.00  0.00    -0.179 A  
HETATM   10  C   UNL     1     -12.258  13.161  65.594  1.00  0.00    -0.521 A  
HETATM   11  C   UNL     1     -10.347  12.141  63.835  1.00  0.00    -0.441 A  
HETATM   12  C   UNL     1     -12.647  12.648  64.355  1.00  0.00    -0.470 A  
HETATM   13  C   UNL     1     -11.694  12.124  63.483  1.00  0.00    -0.579 A  
ENDBRANCH   7   8
BRANCH   7  14
HETATM   14  C   UNL     1      -9.594  12.475  68.078  1.00  0.00    -0.212 A  
HETATM   15  C   UNL     1      -7.354  11.705  68.690  1.00  0.00    -0.111 A  
HETATM   16  C   UNL     1      -8.196  12.655  68.112  1.00  0.00    -0.170 A  
HETATM   17  C   UNL     1      -9.273  10.362  69.246  1.00  0.00    -0.198 A  
HETATM   18  C   UNL     1     -10.136  11.316  68.686  1.00  0.00    -0.216 A  
HETATM   19  C   UNL     1      -7.892  10.552  69.244  1.00  0.00    -0.144 A  
HETATM   20  C   UNL     1     -11.621  11.080  68.776  1.00  0.00    -0.386 C  
ENDBRANCH   7  14
ENDBRANCH   6   7
ENDBRANCH   5   6
ENDBRANCH   4   5
ENDBRANCH   2   4
TORSDOF 6
ENDMDL
MODEL       75
REMARK 921   NORMALIZED FREE ENERGY PREDICTED BY IDOCK:   -4.45 KCAL/MOL
REMARK 922        TOTAL FREE ENERGY PREDICTED BY IDOCK:   -7.06 KCAL/MOL
REMARK 923 INTER-LIGAND FREE ENERGY PREDICTED BY IDOCK:   -6.06 KCAL/MOL
REMARK 924 INTRA-LIGAND FREE ENERGY PREDICTED BY IDOCK:   -1.00 KCAL/MOL
REMARK 927      BINDING AFFINITY PREDICTED BY RF-SCORE:    0.00 PKD
ROOT
HETATM    1  C   UNL     1     -14.185   8.191  71.862  1.00  0.00    -0.445 C  
HETATM    2  N   UNL     1     -13.060   8.997  72.340  1.00  0.00    -0.428 NA 
HETATM    3  C   UNL     1     -11.882   8.151  72.521  1.00  0.00    -0.376 C  
ENDROOT
BRANCH   2   4
HETATM    4  C   UNL     1     -12.810  10.102  71.398  1.00  0.00    -0.428 C  
BRANCH   4   5
HETATM    5  C   UNL     1     -11.461  10.038  70.656  1.00  0.00    -0.345 C  
BRANCH   5   6
HETATM    6  O   UNL     1     -11.253  11.132  69.755  1.00  0.00    -0.259 OA 
BRANCH   6   7
HETATM    7  C   UNL     1     -11.061  10.781  68.370  1.00  0.00    -0.266 C  
BRANCH   7   8
HETATM    8  C   UNL     1     -11.372  11.966  67.460  1.00  0.00    -0.381 A  
HETATM    9  C   UNL     1     -11.535  11.756  66.078  1.00  0.00    -0.281 A  
HETATM   10  C   UNL     1     -11.651  13.240  67.979  1.00  0.00    -0.371 A  
HETATM   11  C   UNL     1     -12.014  12.775  65.252  1.00  0.00    -0.473 A  
HETATM   12  C   UNL     1     -12.116  14.261  67.148  1.00  0.00    -0.412 A  
HETATM   13  C   UNL     1     -12.313  14.024  65.789  1.00  0.00    -0.506 A  
ENDBRANCH   7   8
BRANCH   7  14
HETATM   14  C   UNL     1      -9.656  10.197  68.194  1.00  0.00    -0.151 A  
HETATM   15  C   UNL     1      -7.236  10.459  68.437  1.00  0.00    -0.080 A  
HETATM   16  C   UNL     1      -8.533  10.939  68.615  1.00  0.00    -0.152 A  
HETATM   17  C   UNL     1      -8.127   8.464  67.427  1.00  0.00    -0.106 A  
HETATM   18  C   UNL     1      -9.440   8.923  67.616  1.00  0.00    -0.164 A  
HETATM   19  C   UNL     1      -7.033   9.227  67.830  1.00  0.00    -0.081 A  
HETATM   20  C   UNL     1     -10.579   8.022  67.216  1.00  0.00    -0.360 C  
ENDBRANCH   7  14
ENDBRANCH   6   7
ENDBRANCH   5   6
ENDBRANCH   4   5
ENDBRANCH   2   4
TORSDOF 6
ENDMDL
MODEL       76
REMARK 921   NORMALIZED FREE ENERGY PREDICTED BY IDOCK:   -4.44 KCAL/MOL
REMARK 922        TOTAL FREE ENERGY PREDICTED BY IDOCK:   -7.06 KCAL/MOL
REMARK 923 INTER-LIGAND FREE ENERGY PREDICTED BY IDOCK:   -6.56 KCAL/MOL
REMARK 924 INTRA-LIGAND FREE ENERGY PREDICTED BY IDOCK:   -0.50 KCAL/MOL
REMARK 927      BINDING AFFINITY PREDICTED BY RF-SCORE:    0.00 PKD
ROOT
HETATM    1  C   UNL     1      -8.957  10.392  67.890  1.00  0.00    -0.128 C  
HETATM    2  N   UNL     1      -9.571  10.354  66.562  1.00  0.00    -0.174 NA 
HETATM    3  C   UNL     1     -10.223   9.064  66.350  1.00  0.00    -0.227 C  
ENDROOT
BRANCH   2   4
HETATM    4  C   UNL     1     -10.511  11.481  66.421  1.00  0.00    -0.250 C  
BRANCH   4   5
HETATM    5  C   UNL     1     -11.557  11.605  67.546  1.00  0.00    -0.272 C  
BRANCH   5   6
HETATM    6  O   UNL     1     -11.955  12.956  67.808  1.00  0.00    -0.347 OA 
BRANCH   6   7
HETATM    7  C   UNL     1     -11.229  13.636  68.852  1.00  0.00    -0.270 C  
BRANCH   7   8
HETATM    8  C   UNL     1     -10.608  14.928  68.331  1.00  0.00    -0.244 A  
HETATM    9  C   UNL     1      -9.521  15.503  69.016  1.00  0.00    -0.242 A  
HETATM   10  C   UNL     1     -10.990  15.484  67.099  1.00  0.00    -0.295 A  
HETATM   11  C   UNL     1      -8.808  16.566  68.460  1.00  0.00    -0.228 A  
HETATM   12  C   UNL     1     -10.282  16.557  66.553  1.00  0.00    -0.305 A  
HETATM   13  C   UNL     1      -9.183  17.086  67.225  1.00  0.00    -0.225 A  
ENDBRANCH   7   8
BRANCH   7  14
HETATM   14  C   UNL     1     -12.149  13.817  70.063  1.00  0.00    -0.416 A  
HETATM   15  C   UNL     1     -13.520  15.298  71.446  1.00  0.00    -0.588 A  
HETATM   16  C   UNL     1     -12.708  15.083  70.332  1.00  0.00    -0.371 A  
HETATM   17  C   UNL     1     -13.266  12.985  72.061  1.00  0.00    -0.543 A  
HETATM   18  C   UNL     1     -12.463  12.746  70.934  1.00  0.00    -0.373 A  
HETATM   19  C   UNL     1     -13.786  14.252  72.318  1.00  0.00    -0.622 A  
HETATM   20  C   UNL     1     -11.984  11.340  70.680  1.00  0.00    -0.435 C  
ENDBRANCH   7  14
ENDBRANCH   6   7
ENDBRANCH   5   6
ENDBRANCH   4   5
ENDBRANCH   2   4
TORSDOF 6
ENDMDL
MODEL       77
REMARK 921   NORMALIZED FREE ENERGY PREDICTED BY IDOCK:   -4.42 KCAL/MOL
REMARK 922        TOTAL FREE ENERGY PREDICTED BY IDOCK:   -7.02 KCAL/MOL
REMARK 923 INTER-LIGAND FREE ENERGY PREDICTED BY IDOCK:   -6.06 KCAL/MOL
REMARK 924 INTRA-LIGAND FREE ENERGY PREDICTED BY IDOCK:   -0.96 KCAL/MOL
REMARK 927      BINDING AFFINITY PREDICTED BY RF-SCORE:    0.00 PKD
ROOT
HETATM    1  C   UNL     1     -12.935   9.740  71.441  1.00  0.00    -0.395 C  
HETATM    2  N   UNL     1     -11.474   9.778  71.354  1.00  0.00    -0.380 NA 
HETATM    3  C   UNL     1     -10.932   8.426  71.468  1.00  0.00    -0.262 C  
ENDROOT
BRANCH   2   4
HETATM    4  C   UNL     1     -11.072  10.432  70.096  1.00  0.00    -0.314 C  
BRANCH   4   5
HETATM    5  C   UNL     1     -12.231  10.991  69.249  1.00  0.00    -0.210 C  
BRANCH   5   6
HETATM    6  O   UNL     1     -11.940  12.260  68.651  1.00  0.00    -0.309 OA 
BRANCH   6   7
HETATM    7  C   UNL     1     -10.823  12.286  67.740  1.00  0.00    -0.221 C  
BRANCH   7   8
HETATM    8  C   UNL     1     -11.297  12.487  66.303  1.00  0.00    -0.386 A  
HETATM    9  C   UNL     1     -12.280  13.454  66.024  1.00  0.00    -0.491 A  
HETATM   10  C   UNL     1     -10.672  11.841  65.225  1.00  0.00    -0.338 A  
HETATM   11  C   UNL     1     -12.590  13.799  64.708  1.00  0.00    -0.330 A  
HETATM   12  C   UNL     1     -10.994  12.178  63.909  1.00  0.00    -0.463 A  
HETATM   13  C   UNL     1     -11.940  13.168  63.651  1.00  0.00    -0.580 A  
ENDBRANCH   7   8
BRANCH   7  14
HETATM   14  C   UNL     1      -9.807  13.325  68.224  1.00  0.00    -0.231 A  
HETATM   15  C   UNL     1      -9.360  15.431  69.385  1.00  0.00    -0.266 A  
HETATM   16  C   UNL     1     -10.249  14.444  68.960  1.00  0.00    -0.185 A  
HETATM   17  C   UNL     1      -7.545  14.214  68.376  1.00  0.00    -0.130 A  
HETATM   18  C   UNL     1      -8.422  13.202  67.956  1.00  0.00    -0.181 A  
HETATM   19  C   UNL     1      -8.011  15.323  69.081  1.00  0.00    -0.214 A  
HETATM   20  C   UNL     1      -7.846  12.000  67.254  1.00  0.00    -0.170 C  
ENDBRANCH   7  14
ENDBRANCH   6   7
ENDBRANCH   5   6
ENDBRANCH   4   5
ENDBRANCH   2   4
TORSDOF 6
ENDMDL
MODEL       78
REMARK 921   NORMALIZED FREE ENERGY PREDICTED BY IDOCK:   -4.39 KCAL/MOL
REMARK 922        TOTAL FREE ENERGY PREDICTED BY IDOCK:   -6.99 KCAL/MOL
REMARK 923 INTER-LIGAND FREE ENERGY PREDICTED BY IDOCK:   -6.00 KCAL/MOL
REMARK 924 INTRA-LIGAND FREE ENERGY PREDICTED BY IDOCK:   -0.98 KCAL/MOL
REMARK 927      BINDING AFFINITY PREDICTED BY RF-SCORE:    0.00 PKD
ROOT
HETATM    1  C   UNL     1      -8.472   8.599  62.738  1.00  0.00    -0.143 C  
HETATM    2  N   UNL     1      -8.538   9.867  63.466  1.00  0.00    -0.180 NA 
HETATM    3  C   UNL     1      -9.665  10.662  62.982  1.00  0.00    -0.323 C  
ENDROOT
BRANCH   2   4
HETATM    4  C   UNL     1      -8.628   9.601  64.913  1.00  0.00    -0.170 C  
BRANCH   4   5
HETATM    5  C   UNL     1      -9.972   9.976  65.565  1.00  0.00    -0.296 C  
BRANCH   5   6
HETATM    6  O   UNL     1      -9.828  10.667  66.813  1.00  0.00    -0.186 OA 
BRANCH   6   7
HETATM    7  C   UNL     1     -11.037  11.213  67.375  1.00  0.00    -0.307 C  
BRANCH   7   8
HETATM    8  C   UNL     1     -11.309  10.625  68.757  1.00  0.00    -0.339 A  
HETATM    9  C   UNL     1     -10.375   9.743  69.333  1.00  0.00    -0.232 A  
HETATM   10  C   UNL     1     -12.392  11.054  69.540  1.00  0.00    -0.266 A  
HETATM   11  C   UNL     1     -10.493   9.347  70.666  1.00  0.00    -0.354 A  
HETATM   12  C   UNL     1     -12.515  10.645  70.869  1.00  0.00    -0.495 A  
HETATM   13  C   UNL     1     -11.559   9.806  71.436  1.00  0.00    -0.452 A  
ENDBRANCH   7   8
BRANCH   7  14
HETATM   14  C   UNL     1     -10.959  12.742  67.340  1.00  0.00    -0.285 A  
HETATM   15  C   UNL     1     -10.093  14.815  68.309  1.00  0.00    -0.221 A  
HETATM   16  C   UNL     1     -10.160  13.422  68.283  1.00  0.00    -0.247 A  
HETATM   17  C   UNL     1     -11.603  14.910  66.437  1.00  0.00    -0.238 A  
HETATM   18  C   UNL     1     -11.668  13.508  66.384  1.00  0.00    -0.405 A  
HETATM   19  C   UNL     1     -10.826  15.559  67.394  1.00  0.00    -0.312 A  
HETATM   20  C   UNL     1     -12.477  12.869  65.286  1.00  0.00    -0.552 C  
ENDBRANCH   7  14
ENDBRANCH   6   7
ENDBRANCH   5   6
ENDBRANCH   4   5
ENDBRANCH   2   4
TORSDOF 6
ENDMDL
MODEL       79
REMARK 921   NORMALIZED FREE ENERGY PREDICTED BY IDOCK:   -4.34 KCAL/MOL
REMARK 922        TOTAL FREE ENERGY PREDICTED BY IDOCK:   -6.92 KCAL/MOL
REMARK 923 INTER-LIGAND FREE ENERGY PREDICTED BY IDOCK:   -5.88 KCAL/MOL
REMARK 924 INTRA-LIGAND FREE ENERGY PREDICTED BY IDOCK:   -1.04 KCAL/MOL
REMARK 927      BINDING AFFINITY PREDICTED BY RF-SCORE:    0.00 PKD
ROOT
HETATM    1  C   UNL     1      -6.372  12.014  69.712  1.00  0.00    -0.110 C  
HETATM    2  N   UNL     1      -6.129  11.652  68.315  1.00  0.00    -0.049 NA 
HETATM    3  C   UNL     1      -6.208  10.201  68.154  1.00  0.00    -0.049 C  
ENDROOT
BRANCH   2   4
HETATM    4  C   UNL     1      -7.087  12.359  67.448  1.00  0.00    -0.152 C  
BRANCH   4   5
HETATM    5  C   UNL     1      -7.975  13.396  68.163  1.00  0.00    -0.150 C  
BRANCH   5   6
HETATM    6  O   UNL     1      -9.371  13.246  67.876  1.00  0.00    -0.198 OA 
BRANCH   6   7
HETATM    7  C   UNL     1      -9.786  11.940  67.426  1.00  0.00    -0.184 C  
BRANCH   7   8
HETATM    8  C   UNL     1     -10.463  11.166  68.553  1.00  0.00    -0.212 A  
HETATM    9  C   UNL     1      -9.762  10.136  69.208  1.00  0.00    -0.238 A  
HETATM   10  C   UNL     1     -11.713  11.550  69.062  1.00  0.00    -0.400 A  
HETATM   11  C   UNL     1     -10.274   9.546  70.365  1.00  0.00    -0.337 A  
HETATM   12  C   UNL     1     -12.229  10.949  70.212  1.00  0.00    -0.432 A  
HETATM   13  C   UNL     1     -11.503   9.960  70.872  1.00  0.00    -0.456 A  
ENDBRANCH   7   8
BRANCH   7  14
HETATM   14  C   UNL     1     -10.636  12.094  66.162  1.00  0.00    -0.290 A  
HETATM   15  C   UNL     1     -12.515  13.169  65.022  1.00  0.00    -0.516 A  
HETATM   16  C   UNL     1     -11.694  13.026  66.141  1.00  0.00    -0.445 A  
HETATM   17  C   UNL     1     -11.244  11.469  63.888  1.00  0.00    -0.439 A  
HETATM   18  C   UNL     1     -10.396  11.325  64.997  1.00  0.00    -0.359 A  
HETATM   19  C   UNL     1     -12.298  12.380  63.901  1.00  0.00    -0.602 A  
HETATM   20  C   UNL     1      -9.237  10.368  64.895  1.00  0.00    -0.263 C  
ENDBRANCH   7  14
ENDBRANCH   6   7
ENDBRANCH   5   6
ENDBRANCH   4   5
ENDBRANCH   2   4
TORSDOF 6
ENDMDL
MODEL       80
REMARK 921   NORMALIZED FREE ENERGY PREDICTED BY IDOCK:   -4.33 KCAL/MOL
REMARK 922        TOTAL FREE ENERGY PREDICTED BY IDOCK:   -6.91 KCAL/MOL
REMARK 923 INTER-LIGAND FREE ENERGY PREDICTED BY IDOCK:   -6.78 KCAL/MOL
REMARK 924 INTRA-LIGAND FREE ENERGY PREDICTED BY IDOCK:   -0.13 KCAL/MOL
REMARK 927      BINDING AFFINITY PREDICTED BY RF-SCORE:    0.00 PKD
ROOT
HETATM    1  C   UNL     1     -10.117  11.919  63.693  1.00  0.00    -0.426 C  
HETATM    2  N   UNL     1     -11.295  12.786  63.646  1.00  0.00    -0.457 NA 
HETATM    3  C   UNL     1     -12.497  11.983  63.430  1.00  0.00    -0.509 C  
ENDROOT
BRANCH   2   4
HETATM    4  C   UNL     1     -11.373  13.579  64.886  1.00  0.00    -0.334 C  
BRANCH   4   5
HETATM    5  C   UNL     1     -12.465  13.136  65.879  1.00  0.00    -0.319 C  
BRANCH   5   6
HETATM    6  O   UNL     1     -11.973  12.301  66.934  1.00  0.00    -0.578 OA 
BRANCH   6   7
HETATM    7  C   UNL     1     -11.271  12.976  67.997  1.00  0.00    -0.278 C  
BRANCH   7   8
HETATM    8  C   UNL     1     -11.783  12.524  69.361  1.00  0.00    -0.383 A  
HETATM    9  C   UNL     1     -12.222  13.484  70.292  1.00  0.00    -0.417 A  
HETATM   10  C   UNL     1     -11.975  11.166  69.662  1.00  0.00    -0.429 A  
HETATM   11  C   UNL     1     -12.877  13.097  71.462  1.00  0.00    -0.401 A  
HETATM   12  C   UNL     1     -12.618  10.782  70.841  1.00  0.00    -0.498 A  
HETATM   13  C   UNL     1     -13.083  11.747  71.731  1.00  0.00    -0.480 A  
ENDBRANCH   7   8
BRANCH   7  14
HETATM   14  C   UNL     1      -9.764  12.796  67.794  1.00  0.00    -0.207 A  
HETATM   15  C   UNL     1      -7.502  13.708  67.994  1.00  0.00    -0.133 A  
HETATM   16  C   UNL     1      -8.878  13.817  68.196  1.00  0.00    -0.185 A  
HETATM   17  C   UNL     1      -7.834  11.543  66.995  1.00  0.00    -0.161 A  
HETATM   18  C   UNL     1      -9.219  11.628  67.209  1.00  0.00    -0.170 A  
HETATM   19  C   UNL     1      -6.982  12.577  67.380  1.00  0.00    -0.147 A  
HETATM   20  C   UNL     1     -10.077  10.449  66.826  1.00  0.00    -0.267 C  
ENDBRANCH   7  14
ENDBRANCH   6   7
ENDBRANCH   5   6
ENDBRANCH   4   5
ENDBRANCH   2   4
TORSDOF 6
ENDMDL
MODEL       81
REMARK 921   NORMALIZED FREE ENERGY PREDICTED BY IDOCK:   -4.33 KCAL/MOL
REMARK 922        TOTAL FREE ENERGY PREDICTED BY IDOCK:   -6.90 KCAL/MOL
REMARK 923 INTER-LIGAND FREE ENERGY PREDICTED BY IDOCK:   -5.90 KCAL/MOL
REMARK 924 INTRA-LIGAND FREE ENERGY PREDICTED BY IDOCK:   -1.00 KCAL/MOL
REMARK 927      BINDING AFFINITY PREDICTED BY RF-SCORE:    0.00 PKD
ROOT
HETATM    1  C   UNL     1     -11.528  12.848  64.206  1.00  0.00    -0.377 C  
HETATM    2  N   UNL     1     -11.034  13.978  64.994  1.00  0.00    -0.353 NA 
HETATM    3  C   UNL     1     -11.613  15.225  64.497  1.00  0.00    -0.312 C  
ENDROOT
BRANCH   2   4
HETATM    4  C   UNL     1     -11.337  13.756  66.419  1.00  0.00    -0.317 C  
BRANCH   4   5
HETATM    5  C   UNL     1     -11.331  15.023  67.295  1.00  0.00    -0.332 C  
BRANCH   5   6
HETATM    6  O   UNL     1     -10.098  15.226  67.996  1.00  0.00    -0.226 OA 
BRANCH   6   7
HETATM    7  C   UNL     1      -9.183  16.169  67.403  1.00  0.00    -0.208 C  
BRANCH   7   8
HETATM    8  C   UNL     1      -9.762  17.581  67.433  1.00  0.00    -0.274 A  
HETATM    9  C   UNL     1      -9.812  18.286  68.650  1.00  0.00    -0.400 A  
HETATM   10  C   UNL     1     -10.108  18.259  66.254  1.00  0.00    -0.389 A  
HETATM   11  C   UNL     1     -10.148  19.640  68.678  1.00  0.00    -0.547 A  
HETATM   12  C   UNL     1     -10.457  19.611  66.287  1.00  0.00    -0.621 A  
HETATM   13  C   UNL     1     -10.461  20.304  67.495  1.00  0.00    -0.324 A  
ENDBRANCH   7   8
BRANCH   7  14
HETATM   14  C   UNL     1      -7.815  16.030  68.078  1.00  0.00    -0.142 A  
HETATM   15  C   UNL     1      -6.470  15.138  69.916  1.00  0.00    -0.171 A  
HETATM   16  C   UNL     1      -7.690  15.258  69.252  1.00  0.00    -0.214 A  
HETATM   17  C   UNL     1      -5.440  16.539  68.252  1.00  0.00    -0.108 A  
HETATM   18  C   UNL     1      -6.655  16.655  67.559  1.00  0.00    -0.180 A  
HETATM   19  C   UNL     1      -5.348  15.790  69.424  1.00  0.00    -0.108 A  
HETATM   20  C   UNL     1      -6.672  17.427  66.266  1.00  0.00    -0.295 C  
ENDBRANCH   7  14
ENDBRANCH   6   7
ENDBRANCH   5   6
ENDBRANCH   4   5
ENDBRANCH   2   4
TORSDOF 6
ENDMDL
MODEL       82
REMARK 921   NORMALIZED FREE ENERGY PREDICTED BY IDOCK:   -4.32 KCAL/MOL
REMARK 922        TOTAL FREE ENERGY PREDICTED BY IDOCK:   -6.89 KCAL/MOL
REMARK 923 INTER-LIGAND FREE ENERGY PREDICTED BY IDOCK:   -6.16 KCAL/MOL
REMARK 924 INTRA-LIGAND FREE ENERGY PREDICTED BY IDOCK:   -0.73 KCAL/MOL
REMARK 927      BINDING AFFINITY PREDICTED BY RF-SCORE:    0.00 PKD
ROOT
HETATM    1  C   UNL     1      -8.685   7.360  68.503  1.00  0.00    -0.127 C  
HETATM    2  N   UNL     1      -9.811   8.193  68.078  1.00  0.00    -0.162 NA 
HETATM    3  C   UNL     1     -10.684   7.434  67.185  1.00  0.00    -0.330 C  
ENDROOT
BRANCH   2   4
HETATM    4  C   UNL     1     -10.529   8.694  69.263  1.00  0.00    -0.217 C  
BRANCH   4   5
HETATM    5  C   UNL     1     -11.353   9.976  69.036  1.00  0.00    -0.084 C  
BRANCH   5   6
HETATM    6  O   UNL     1     -10.609  11.028  68.409  1.00  0.00    -0.174 OA 
BRANCH   6   7
HETATM    7  C   UNL     1     -11.389  12.049  67.756  1.00  0.00    -0.303 C  
BRANCH   7   8
HETATM    8  C   UNL     1     -11.090  13.424  68.348  1.00  0.00    -0.301 A  
HETATM    9  C   UNL     1     -11.919  13.939  69.363  1.00  0.00    -0.402 A  
HETATM   10  C   UNL     1      -9.923  14.130  68.017  1.00  0.00    -0.226 A  
HETATM   11  C   UNL     1     -11.561  15.094  70.059  1.00  0.00    -0.326 A  
HETATM   12  C   UNL     1      -9.575  15.293  68.707  1.00  0.00    -0.214 A  
HETATM   13  C   UNL     1     -10.385  15.766  69.737  1.00  0.00    -0.307 A  
ENDBRANCH   7   8
BRANCH   7  14
HETATM   14  C   UNL     1     -11.176  11.950  66.243  1.00  0.00    -0.392 A  
HETATM   15  C   UNL     1     -10.047  10.880  64.355  1.00  0.00    -0.402 A  
HETATM   16  C   UNL     1     -10.296  10.978  65.724  1.00  0.00    -0.316 A  
HETATM   17  C   UNL     1     -11.561  12.709  63.961  1.00  0.00    -0.486 A  
HETATM   18  C   UNL     1     -11.839  12.809  65.334  1.00  0.00    -0.456 A  
HETATM   19  C   UNL     1     -10.668  11.756  63.475  1.00  0.00    -0.501 A  
HETATM   20  C   UNL     1     -12.861  13.820  65.786  1.00  0.00    -0.430 C  
ENDBRANCH   7  14
ENDBRANCH   6   7
ENDBRANCH   5   6
ENDBRANCH   4   5
ENDBRANCH   2   4
TORSDOF 6
ENDMDL
MODEL       83
REMARK 921   NORMALIZED FREE ENERGY PREDICTED BY IDOCK:   -4.30 KCAL/MOL
REMARK 922        TOTAL FREE ENERGY PREDICTED BY IDOCK:   -6.86 KCAL/MOL
REMARK 923 INTER-LIGAND FREE ENERGY PREDICTED BY IDOCK:   -5.81 KCAL/MOL
REMARK 924 INTRA-LIGAND FREE ENERGY PREDICTED BY IDOCK:   -1.04 KCAL/MOL
REMARK 927      BINDING AFFINITY PREDICTED BY RF-SCORE:    0.00 PKD
ROOT
HETATM    1  C   UNL     1      -9.269   4.825  70.493  1.00  0.00    -0.137 C  
HETATM    2  N   UNL     1      -9.240   4.753  69.032  1.00  0.00    -0.115 NA 
HETATM    3  C   UNL     1      -9.409   3.368  68.597  1.00  0.00    -0.167 C  
ENDROOT
BRANCH   2   4
HETATM    4  C   UNL     1     -10.276   5.640  68.474  1.00  0.00    -0.193 C  
BRANCH   4   5
HETATM    5  C   UNL     1     -11.128   6.388  69.516  1.00  0.00    -0.396 C  
BRANCH   5   6
HETATM    6  O   UNL     1     -10.942   7.809  69.492  1.00  0.00    -0.198 OA 
BRANCH   6   7
HETATM    7  C   UNL     1     -11.404   8.526  70.653  1.00  0.00    -0.241 C  
BRANCH   7   8
HETATM    8  C   UNL     1     -10.497   8.263  71.852  1.00  0.00    -0.342 A  
HETATM    9  C   UNL     1     -10.982   7.511  72.938  1.00  0.00    -0.434 A  
HETATM   10  C   UNL     1      -9.140   8.620  71.841  1.00  0.00    -0.326 A  
HETATM   11  C   UNL     1     -10.123   7.085  73.953  1.00  0.00    -0.386 A  
HETATM   12  C   UNL     1      -8.286   8.205  72.865  1.00  0.00    -0.248 A  
HETATM   13  C   UNL     1      -8.774   7.425  73.911  1.00  0.00    -0.258 A  
ENDBRANCH   7   8
BRANCH   7  14
HETATM   14  C   UNL     1     -11.569  10.006  70.295  1.00  0.00    -0.354 A  
HETATM   15  C   UNL     1     -10.856  11.926  68.957  1.00  0.00    -0.235 A  
HETATM   16  C   UNL     1     -10.764  10.573  69.286  1.00  0.00    -0.269 A  
HETATM   17  C   UNL     1     -12.579  12.198  70.616  1.00  0.00    -0.255 A  
HETATM   18  C   UNL     1     -12.512  10.836  70.947  1.00  0.00    -0.500 A  
HETATM   19  C   UNL     1     -11.754  12.741  69.632  1.00  0.00    -0.372 A  
HETATM   20  C   UNL     1     -13.474  10.301  71.976  1.00  0.00    -0.385 C  
ENDBRANCH   7  14
ENDBRANCH   6   7
ENDBRANCH   5   6
ENDBRANCH   4   5
ENDBRANCH   2   4
TORSDOF 6
ENDMDL
MODEL       84
REMARK 921   NORMALIZED FREE ENERGY PREDICTED BY IDOCK:   -4.28 KCAL/MOL
REMARK 922        TOTAL FREE ENERGY PREDICTED BY IDOCK:   -6.84 KCAL/MOL
REMARK 923 INTER-LIGAND FREE ENERGY PREDICTED BY IDOCK:   -6.30 KCAL/MOL
REMARK 924 INTRA-LIGAND FREE ENERGY PREDICTED BY IDOCK:   -0.54 KCAL/MOL
REMARK 927      BINDING AFFINITY PREDICTED BY RF-SCORE:    0.00 PKD
ROOT
HETATM    1  C   UNL     1     -11.926  14.471  64.738  1.00  0.00    -0.442 C  
HETATM    2  N   UNL     1     -10.895  15.203  65.476  1.00  0.00    -0.343 NA 
HETATM    3  C   UNL     1     -10.820  16.581  64.996  1.00  0.00    -0.229 C  
ENDROOT
BRANCH   2   4
HETATM    4  C   UNL     1     -11.181  15.133  66.920  1.00  0.00    -0.292 C  
BRANCH   4   5
HETATM    5  C   UNL     1      -9.953  14.889  67.819  1.00  0.00    -0.222 C  
BRANCH   5   6
HETATM    6  O   UNL     1     -10.167  13.882  68.816  1.00  0.00    -0.233 OA 
BRANCH   6   7
HETATM    7  C   UNL     1     -11.033  12.793  68.436  1.00  0.00    -0.254 C  
BRANCH   7   8
HETATM    8  C   UNL     1     -10.269  11.742  67.637  1.00  0.00    -0.216 A  
HETATM    9  C   UNL     1     -10.833  11.221  66.457  1.00  0.00    -0.319 A  
HETATM   10  C   UNL     1      -8.949  11.388  67.958  1.00  0.00    -0.163 A  
HETATM   11  C   UNL     1     -10.081  10.413  65.602  1.00  0.00    -0.337 A  
HETATM   12  C   UNL     1      -8.204  10.569  67.108  1.00  0.00    -0.123 A  
HETATM   13  C   UNL     1      -8.764  10.095  65.923  1.00  0.00    -0.159 A  
ENDBRANCH   7   8
BRANCH   7  14
HETATM   14  C   UNL     1     -11.734  12.254  69.687  1.00  0.00    -0.386 A  
HETATM   15  C   UNL     1     -12.309  10.343  71.102  1.00  0.00    -0.505 A  
HETATM   16  C   UNL     1     -11.653  10.880  69.994  1.00  0.00    -0.424 A  
HETATM   17  C   UNL     1     -13.138  12.534  71.656  1.00  0.00    -0.414 A  
HETATM   18  C   UNL     1     -12.469  13.094  70.557  1.00  0.00    -0.322 A  
HETATM   19  C   UNL     1     -13.063  11.168  71.925  1.00  0.00    -0.513 A  
HETATM   20  C   UNL     1     -12.541  14.586  70.359  1.00  0.00    -0.405 C  
ENDBRANCH   7  14
ENDBRANCH   6   7
ENDBRANCH   5   6
ENDBRANCH   4   5
ENDBRANCH   2   4
TORSDOF 6
ENDMDL
MODEL       85
REMARK 921   NORMALIZED FREE ENERGY PREDICTED BY IDOCK:   -4.28 KCAL/MOL
REMARK 922        TOTAL FREE ENERGY PREDICTED BY IDOCK:   -6.83 KCAL/MOL
REMARK 923 INTER-LIGAND FREE ENERGY PREDICTED BY IDOCK:   -6.40 KCAL/MOL
REMARK 924 INTRA-LIGAND FREE ENERGY PREDICTED BY IDOCK:   -0.43 KCAL/MOL
REMARK 927      BINDING AFFINITY PREDICTED BY RF-SCORE:    0.00 PKD
ROOT
HETATM    1  C   UNL     1     -10.771  16.680  68.291  1.00  0.00    -0.351 C  
HETATM    2  N   UNL     1     -11.656  15.516  68.220  1.00  0.00    -0.359 NA 
HETATM    3  C   UNL     1     -11.384  14.756  67.002  1.00  0.00    -0.353 C  
ENDROOT
BRANCH   2   4
HETATM    4  C   UNL     1     -11.492  14.697  69.434  1.00  0.00    -0.296 C  
BRANCH   4   5
HETATM    5  C   UNL     1     -11.941  13.230  69.299  1.00  0.00    -0.303 C  
BRANCH   5   6
HETATM    6  O   UNL     1     -10.866  12.290  69.417  1.00  0.00    -0.109 OA 
BRANCH   6   7
HETATM    7  C   UNL     1     -11.180  10.926  69.074  1.00  0.00    -0.266 C  
BRANCH   7   8
HETATM    8  C   UNL     1     -10.448  10.502  67.804  1.00  0.00    -0.263 A  
HETATM    9  C   UNL     1     -10.171   9.140  67.583  1.00  0.00    -0.293 A  
HETATM   10  C   UNL     1     -10.175  11.414  66.773  1.00  0.00    -0.258 A  
HETATM   11  C   UNL     1      -9.686   8.700  66.351  1.00  0.00    -0.333 A  
HETATM   12  C   UNL     1      -9.676  10.972  65.545  1.00  0.00    -0.274 A  
HETATM   13  C   UNL     1      -9.448   9.615  65.329  1.00  0.00    -0.342 A  
ENDBRANCH   7   8
BRANCH   7  14
HETATM   14  C   UNL     1     -10.913  10.032  70.289  1.00  0.00    -0.377 A  
HETATM   15  C   UNL     1      -9.345   8.666  71.577  1.00  0.00    -0.319 A  
HETATM   16  C   UNL     1      -9.619   9.514  70.505  1.00  0.00    -0.312 A  
HETATM   17  C   UNL     1     -11.642   8.830  72.278  1.00  0.00    -0.391 A  
HETATM   18  C   UNL     1     -11.932   9.701  71.215  1.00  0.00    -0.462 A  
HETATM   19  C   UNL     1     -10.361   8.312  72.455  1.00  0.00    -0.401 A  
HETATM   20  C   UNL     1     -13.321  10.274  71.116  1.00  0.00    -0.339 C  
ENDBRANCH   7  14
ENDBRANCH   6   7
ENDBRANCH   5   6
ENDBRANCH   4   5
ENDBRANCH   2   4
TORSDOF 6
ENDMDL
MODEL       86
REMARK 921   NORMALIZED FREE ENERGY PREDICTED BY IDOCK:   -4.27 KCAL/MOL
REMARK 922        TOTAL FREE ENERGY PREDICTED BY IDOCK:   -6.83 KCAL/MOL
REMARK 923 INTER-LIGAND FREE ENERGY PREDICTED BY IDOCK:   -6.19 KCAL/MOL
REMARK 924 INTRA-LIGAND FREE ENERGY PREDICTED BY IDOCK:   -0.64 KCAL/MOL
REMARK 927      BINDING AFFINITY PREDICTED BY RF-SCORE:    0.00 PKD
ROOT
HETATM    1  C   UNL     1      -9.524  10.091  62.413  1.00  0.00    -0.188 C  
HETATM    2  N   UNL     1      -9.876  10.622  63.731  1.00  0.00    -0.320 NA 
HETATM    3  C   UNL     1      -8.910  10.165  64.728  1.00  0.00    -0.195 C  
ENDROOT
BRANCH   2   4
HETATM    4  C   UNL     1      -9.953  12.092  63.666  1.00  0.00    -0.363 C  
BRANCH   4   5
HETATM    5  C   UNL     1     -11.168  12.716  64.379  1.00  0.00    -0.346 C  
BRANCH   5   6
HETATM    6  O   UNL     1     -11.204  12.446  65.786  1.00  0.00    -0.305 OA 
BRANCH   6   7
HETATM    7  C   UNL     1     -11.507  13.571  66.636  1.00  0.00    -0.339 C  
BRANCH   7   8
HETATM    8  C   UNL     1     -11.888  13.106  68.039  1.00  0.00    -0.398 A  
HETATM    9  C   UNL     1     -11.824  11.737  68.359  1.00  0.00    -0.347 A  
HETATM   10  C   UNL     1     -12.157  14.020  69.069  1.00  0.00    -0.358 A  
HETATM   11  C   UNL     1     -11.972  11.304  69.677  1.00  0.00    -0.423 A  
HETATM   12  C   UNL     1     -12.319  13.582  70.385  1.00  0.00    -0.397 A  
HETATM   13  C   UNL     1     -12.210  12.227  70.691  1.00  0.00    -0.378 A  
ENDBRANCH   7   8
BRANCH   7  14
HETATM   14  C   UNL     1     -10.338  14.560  66.591  1.00  0.00    -0.274 A  
HETATM   15  C   UNL     1      -9.521  16.811  66.092  1.00  0.00    -0.295 A  
HETATM   16  C   UNL     1     -10.565  15.890  66.183  1.00  0.00    -0.310 A  
HETATM   17  C   UNL     1      -7.980  15.117  66.833  1.00  0.00    -0.155 A  
HETATM   18  C   UNL     1      -9.021  14.183  66.949  1.00  0.00    -0.247 A  
HETATM   19  C   UNL     1      -8.226  16.419  66.403  1.00  0.00    -0.366 A  
HETATM   20  C   UNL     1      -8.697  12.810  67.479  1.00  0.00    -0.185 C  
ENDBRANCH   7  14
ENDBRANCH   6   7
ENDBRANCH   5   6
ENDBRANCH   4   5
ENDBRANCH   2   4
TORSDOF 6
ENDMDL
MODEL       87
REMARK 921   NORMALIZED FREE ENERGY PREDICTED BY IDOCK:   -4.26 KCAL/MOL
REMARK 922        TOTAL FREE ENERGY PREDICTED BY IDOCK:   -6.81 KCAL/MOL
REMARK 923 INTER-LIGAND FREE ENERGY PREDICTED BY IDOCK:   -6.49 KCAL/MOL
REMARK 924 INTRA-LIGAND FREE ENERGY PREDICTED BY IDOCK:   -0.32 KCAL/MOL
REMARK 927      BINDING AFFINITY PREDICTED BY RF-SCORE:    0.00 PKD
ROOT
HETATM    1  C   UNL     1      -9.683  18.921  68.362  1.00  0.00    -0.379 C  
HETATM    2  N   UNL     1      -9.171  17.642  67.867  1.00  0.00    -0.262 NA 
HETATM    3  C   UNL     1      -7.906  17.322  68.526  1.00  0.00    -0.266 C  
ENDROOT
BRANCH   2   4
HETATM    4  C   UNL     1     -10.185  16.593  68.072  1.00  0.00    -0.280 C  
BRANCH   4   5
HETATM    5  C   UNL     1     -10.784  16.000  66.782  1.00  0.00    -0.259 C  
BRANCH   5   6
HETATM    6  O   UNL     1     -11.558  14.815  67.005  1.00  0.00    -0.362 OA 
BRANCH   6   7
HETATM    7  C   UNL     1     -10.821  13.649  67.425  1.00  0.00    -0.273 C  
BRANCH   7   8
HETATM    8  C   UNL     1     -11.527  12.945  68.580  1.00  0.00    -0.345 A  
HETATM    9  C   UNL     1     -11.581  11.539  68.608  1.00  0.00    -0.375 A  
HETATM   10  C   UNL     1     -11.996  13.653  69.698  1.00  0.00    -0.402 A  
HETATM   11  C   UNL     1     -12.040  10.864  69.740  1.00  0.00    -0.409 A  
HETATM   12  C   UNL     1     -12.468  12.975  70.823  1.00  0.00    -0.384 A  
HETATM   13  C   UNL     1     -12.474  11.582  70.851  1.00  0.00    -0.464 A  
ENDBRANCH   7   8
BRANCH   7  14
HETATM   14  C   UNL     1     -10.556  12.760  66.206  1.00  0.00    -0.275 A  
HETATM   15  C   UNL     1      -9.026  11.304  64.972  1.00  0.00    -0.015 A  
HETATM   16  C   UNL     1      -9.320  12.092  66.085  1.00  0.00    -0.198 A  
HETATM   17  C   UNL     1     -11.199  11.801  64.062  1.00  0.00    -0.461 A  
HETATM   18  C   UNL     1     -11.519  12.582  65.184  1.00  0.00    -0.369 A  
HETATM   19  C   UNL     1      -9.960  11.171  63.954  1.00  0.00    -0.381 A  
HETATM   20  C   UNL     1     -12.897  13.184  65.267  1.00  0.00    -0.332 C  
ENDBRANCH   7  14
ENDBRANCH   6   7
ENDBRANCH   5   6
ENDBRANCH   4   5
ENDBRANCH   2   4
TORSDOF 6
ENDMDL
MODEL       88
REMARK 921   NORMALIZED FREE ENERGY PREDICTED BY IDOCK:   -4.23 KCAL/MOL
REMARK 922        TOTAL FREE ENERGY PREDICTED BY IDOCK:   -6.77 KCAL/MOL
REMARK 923 INTER-LIGAND FREE ENERGY PREDICTED BY IDOCK:   -5.65 KCAL/MOL
REMARK 924 INTRA-LIGAND FREE ENERGY PREDICTED BY IDOCK:   -1.12 KCAL/MOL
REMARK 927      BINDING AFFINITY PREDICTED BY RF-SCORE:    0.00 PKD
ROOT
HETATM    1  C   UNL     1     -10.440   5.808  74.075  1.00  0.00    -0.266 C  
HETATM    2  N   UNL     1      -9.196   6.326  73.503  1.00  0.00    -0.131 NA 
HETATM    3  C   UNL     1      -8.918   5.664  72.231  1.00  0.00    -0.139 C  
ENDROOT
BRANCH   2   4
HETATM    4  C   UNL     1      -9.292   7.789  73.358  1.00  0.00    -0.285 C  
BRANCH   4   5
HETATM    5  C   UNL     1      -8.580   8.372  72.122  1.00  0.00    -0.192 C  
BRANCH   5   6
HETATM    6  O   UNL     1      -9.398   9.274  71.367  1.00  0.00    -0.263 OA 
BRANCH   6   7
HETATM    7  C   UNL     1     -10.282   8.668  70.403  1.00  0.00    -0.193 C  
BRANCH   7   8
HETATM    8  C   UNL     1     -11.711   8.610  70.936  1.00  0.00    -0.287 A  
HETATM    9  C   UNL     1     -12.369   7.369  71.027  1.00  0.00    -0.303 A  
HETATM   10  C   UNL     1     -12.339   9.740  71.482  1.00  0.00    -0.495 A  
HETATM   11  C   UNL     1     -13.592   7.256  71.690  1.00  0.00    -0.435 A  
HETATM   12  C   UNL     1     -13.569   9.626  72.132  1.00  0.00    -0.471 A  
HETATM   13  C   UNL     1     -14.187   8.383  72.250  1.00  0.00    -0.436 A  
ENDBRANCH   7   8
BRANCH   7  14
HETATM   14  C   UNL     1     -10.133   9.393  69.062  1.00  0.00    -0.202 A  
HETATM   15  C   UNL     1      -9.718  11.473  67.844  1.00  0.00    -0.187 A  
HETATM   16  C   UNL     1      -9.824  10.769  69.043  1.00  0.00    -0.208 A  
HETATM   17  C   UNL     1     -10.205   9.453  66.629  1.00  0.00    -0.319 A  
HETATM   18  C   UNL     1     -10.297   8.724  67.825  1.00  0.00    -0.297 A  
HETATM   19  C   UNL     1      -9.923  10.818  66.638  1.00  0.00    -0.251 A  
HETATM   20  C   UNL     1     -10.543   7.241  67.743  1.00  0.00    -0.289 C  
ENDBRANCH   7  14
ENDBRANCH   6   7
ENDBRANCH   5   6
ENDBRANCH   4   5
ENDBRANCH   2   4
TORSDOF 6
ENDMDL
MODEL       89
REMARK 921   NORMALIZED FREE ENERGY PREDICTED BY IDOCK:   -4.23 KCAL/MOL
REMARK 922        TOTAL FREE ENERGY PREDICTED BY IDOCK:   -6.77 KCAL/MOL
REMARK 923 INTER-LIGAND FREE ENERGY PREDICTED BY IDOCK:   -6.41 KCAL/MOL
REMARK 924 INTRA-LIGAND FREE ENERGY PREDICTED BY IDOCK:   -0.36 KCAL/MOL
REMARK 927      BINDING AFFINITY PREDICTED BY RF-SCORE:    0.00 PKD
ROOT
HETATM    1  C   UNL     1      -8.075   8.648  64.038  1.00  0.00    -0.163 C  
HETATM    2  N   UNL     1      -8.473   9.910  64.664  1.00  0.00    -0.159 NA 
HETATM    3  C   UNL     1      -9.642  10.460  63.981  1.00  0.00    -0.317 C  
ENDROOT
BRANCH   2   4
HETATM    4  C   UNL     1      -8.721   9.691  66.100  1.00  0.00    -0.136 C  
BRANCH   4   5
HETATM    5  C   UNL     1     -10.137  10.057  66.583  1.00  0.00    -0.227 C  
BRANCH   5   6
HETATM    6  O   UNL     1     -10.167  11.201  67.446  1.00  0.00    -0.181 OA 
BRANCH   6   7
HETATM    7  C   UNL     1     -11.399  11.950  67.457  1.00  0.00    -0.314 C  
BRANCH   7   8
HETATM    8  C   UNL     1     -11.781  12.349  68.879  1.00  0.00    -0.372 A  
HETATM    9  C   UNL     1     -12.042  13.700  69.177  1.00  0.00    -0.361 A  
HETATM   10  C   UNL     1     -12.029  11.388  69.872  1.00  0.00    -0.434 A  
HETATM   11  C   UNL     1     -12.583  14.069  70.409  1.00  0.00    -0.374 A  
HETATM   12  C   UNL     1     -12.557  11.762  71.109  1.00  0.00    -0.412 A  
HETATM   13  C   UNL     1     -12.849  13.098  71.371  1.00  0.00    -0.401 A  
ENDBRANCH   7   8
BRANCH   7  14
HETATM   14  C   UNL     1     -11.279  13.123  66.480  1.00  0.00    -0.339 A  
HETATM   15  C   UNL     1     -12.273  14.471  64.697  1.00  0.00    -0.474 A  
HETATM   16  C   UNL     1     -12.358  13.435  65.627  1.00  0.00    -0.521 A  
HETATM   17  C   UNL     1     -10.035  14.944  65.445  1.00  0.00    -0.367 A  
HETATM   18  C   UNL     1     -10.109  13.917  66.400  1.00  0.00    -0.298 A  
HETATM   19  C   UNL     1     -11.106  15.216  64.596  1.00  0.00    -0.338 A  
HETATM   20  C   UNL     1      -8.939  13.716  67.328  1.00  0.00    -0.226 C  
ENDBRANCH   7  14
ENDBRANCH   6   7
ENDBRANCH   5   6
ENDBRANCH   4   5
ENDBRANCH   2   4
TORSDOF 6
ENDMDL
MODEL       90
REMARK 921   NORMALIZED FREE ENERGY PREDICTED BY IDOCK:   -4.23 KCAL/MOL
REMARK 922        TOTAL FREE ENERGY PREDICTED BY IDOCK:   -6.77 KCAL/MOL
REMARK 923 INTER-LIGAND FREE ENERGY PREDICTED BY IDOCK:   -6.13 KCAL/MOL
REMARK 924 INTRA-LIGAND FREE ENERGY PREDICTED BY IDOCK:   -0.64 KCAL/MOL
REMARK 927      BINDING AFFINITY PREDICTED BY RF-SCORE:    0.00 PKD
ROOT
HETATM    1  C   UNL     1     -13.137   9.850  71.425  1.00  0.00    -0.407 C  
HETATM    2  N   UNL     1     -11.677   9.932  71.473  1.00  0.00    -0.372 NA 
HETATM    3  C   UNL     1     -11.124   8.689  72.007  1.00  0.00    -0.367 C  
ENDROOT
BRANCH   2   4
HETATM    4  C   UNL     1     -11.156  10.239  70.129  1.00  0.00    -0.319 C  
BRANCH   4   5
HETATM    5  C   UNL     1     -11.958  11.293  69.342  1.00  0.00    -0.341 C  
BRANCH   5   6
HETATM    6  O   UNL     1     -11.216  11.891  68.271  1.00  0.00    -0.222 OA 
BRANCH   6   7
HETATM    7  C   UNL     1     -11.355  11.264  66.981  1.00  0.00    -0.187 C  
BRANCH   7   8
HETATM    8  C   UNL     1     -11.791  12.278  65.927  1.00  0.00    -0.420 A  
HETATM    9  C   UNL     1     -12.127  13.587  66.319  1.00  0.00    -0.476 A  
HETATM   10  C   UNL     1     -11.724  11.989  64.555  1.00  0.00    -0.380 A  
HETATM   11  C   UNL     1     -12.336  14.587  65.368  1.00  0.00    -0.286 A  
HETATM   12  C   UNL     1     -11.947  12.988  63.605  1.00  0.00    -0.608 A  
HETATM   13  C   UNL     1     -12.236  14.289  64.012  1.00  0.00    -0.336 A  
ENDBRANCH   7   8
BRANCH   7  14
HETATM   14  C   UNL     1     -10.060  10.518  66.646  1.00  0.00    -0.275 A  
HETATM   15  C   UNL     1      -8.944   8.419  66.071  1.00  0.00    -0.228 A  
HETATM   16  C   UNL     1     -10.105   9.141  66.343  1.00  0.00    -0.345 A  
HETATM   17  C   UNL     1      -7.642  10.421  66.370  1.00  0.00    -0.123 A  
HETATM   18  C   UNL     1      -8.802  11.168  66.628  1.00  0.00    -0.168 A  
HETATM   19  C   UNL     1      -7.711   9.056  66.098  1.00  0.00    -0.099 A  
HETATM   20  C   UNL     1      -8.664  12.651  66.853  1.00  0.00    -0.175 C  
ENDBRANCH   7  14
ENDBRANCH   6   7
ENDBRANCH   5   6
ENDBRANCH   4   5
ENDBRANCH   2   4
TORSDOF 6
ENDMDL
MODEL       91
REMARK 921   NORMALIZED FREE ENERGY PREDICTED BY IDOCK:   -4.23 KCAL/MOL
REMARK 922        TOTAL FREE ENERGY PREDICTED BY IDOCK:   -6.76 KCAL/MOL
REMARK 923 INTER-LIGAND FREE ENERGY PREDICTED BY IDOCK:   -5.84 KCAL/MOL
REMARK 924 INTRA-LIGAND FREE ENERGY PREDICTED BY IDOCK:   -0.92 KCAL/MOL
REMARK 927      BINDING AFFINITY PREDICTED BY RF-SCORE:    0.00 PKD
ROOT
HETATM    1  C   UNL     1      -5.135  15.232  71.321  1.00  0.00    -0.147 C  
HETATM    2  N   UNL     1      -6.177  15.618  70.368  1.00  0.00    -0.024 NA 
HETATM    3  C   UNL     1      -5.643  16.579  69.405  1.00  0.00    -0.148 C  
ENDROOT
BRANCH   2   4
HETATM    4  C   UNL     1      -6.713  14.413  69.710  1.00  0.00    -0.124 C  
BRANCH   4   5
HETATM    5  C   UNL     1      -7.165  14.611  68.250  1.00  0.00    -0.117 C  
BRANCH   5   6
HETATM    6  O   UNL     1      -8.410  15.311  68.129  1.00  0.00    -0.144 OA 
BRANCH   6   7
HETATM    7  C   UNL     1      -8.777  15.717  66.796  1.00  0.00    -0.271 C  
BRANCH   7   8
HETATM    8  C   UNL     1      -9.895  14.835  66.247  1.00  0.00    -0.316 A  
HETATM    9  C   UNL     1     -10.489  13.867  67.078  1.00  0.00    -0.278 A  
HETATM   10  C   UNL     1     -10.456  15.060  64.980  1.00  0.00    -0.415 A  
HETATM   11  C   UNL     1     -11.638  13.185  66.674  1.00  0.00    -0.403 A  
HETATM   12  C   UNL     1     -11.597  14.366  64.573  1.00  0.00    -0.393 A  
HETATM   13  C   UNL     1     -12.197  13.442  65.426  1.00  0.00    -0.492 A  
ENDBRANCH   7   8
BRANCH   7  14
HETATM   14  C   UNL     1      -9.095  17.215  66.800  1.00  0.00    -0.266 A  
HETATM   15  C   UNL     1     -10.654  19.021  67.342  1.00  0.00    -0.559 A  
HETATM   16  C   UNL     1     -10.310  17.669  67.354  1.00  0.00    -0.360 A  
HETATM   17  C   UNL     1      -8.574  19.527  66.240  1.00  0.00    -0.382 A  
HETATM   18  C   UNL     1      -8.203  18.173  66.261  1.00  0.00    -0.243 A  
HETATM   19  C   UNL     1      -9.792  19.948  66.772  1.00  0.00    -0.550 A  
HETATM   20  C   UNL     1      -6.847  17.793  65.726  1.00  0.00    -0.211 C  
ENDBRANCH   7  14
ENDBRANCH   6   7
ENDBRANCH   5   6
ENDBRANCH   4   5
ENDBRANCH   2   4
TORSDOF 6
ENDMDL
MODEL       92
REMARK 921   NORMALIZED FREE ENERGY PREDICTED BY IDOCK:   -4.22 KCAL/MOL
REMARK 922        TOTAL FREE ENERGY PREDICTED BY IDOCK:   -6.75 KCAL/MOL
REMARK 923 INTER-LIGAND FREE ENERGY PREDICTED BY IDOCK:   -5.77 KCAL/MOL
REMARK 924 INTRA-LIGAND FREE ENERGY PREDICTED BY IDOCK:   -0.98 KCAL/MOL
REMARK 927      BINDING AFFINITY PREDICTED BY RF-SCORE:    0.00 PKD
ROOT
HETATM    1  C   UNL     1     -10.262   7.567  69.892  1.00  0.00    -0.210 C  
HETATM    2  N   UNL     1     -11.011   8.809  69.692  1.00  0.00    -0.164 NA 
HETATM    3  C   UNL     1     -10.755   9.730  70.798  1.00  0.00    -0.323 C  
ENDROOT
BRANCH   2   4
HETATM    4  C   UNL     1     -10.654   9.396  68.388  1.00  0.00    -0.204 C  
BRANCH   4   5
HETATM    5  C   UNL     1     -11.328  10.744  68.070  1.00  0.00    -0.307 C  
BRANCH   5   6
HETATM    6  O   UNL     1     -10.412  11.745  67.610  1.00  0.00    -0.191 OA 
BRANCH   6   7
HETATM    7  C   UNL     1     -10.713  12.334  66.329  1.00  0.00    -0.259 C  
BRANCH   7   8
HETATM    8  C   UNL     1     -10.377  13.822  66.321  1.00  0.00    -0.294 A  
HETATM    9  C   UNL     1      -9.203  14.273  66.953  1.00  0.00    -0.268 A  
HETATM   10  C   UNL     1     -11.126  14.743  65.571  1.00  0.00    -0.346 A  
HETATM   11  C   UNL     1      -8.766  15.589  66.794  1.00  0.00    -0.302 A  
HETATM   12  C   UNL     1     -10.693  16.062  65.426  1.00  0.00    -0.399 A  
HETATM   13  C   UNL     1      -9.507  16.480  66.023  1.00  0.00    -0.317 A  
ENDBRANCH   7   8
BRANCH   7  14
HETATM   14  C   UNL     1     -10.022  11.521  65.230  1.00  0.00    -0.302 A  
HETATM   15  C   UNL     1      -8.105  10.181  64.512  1.00  0.00    -0.160 A  
HETATM   16  C   UNL     1      -8.785  10.897  65.497  1.00  0.00    -0.178 A  
HETATM   17  C   UNL     1      -9.878  10.662  62.956  1.00  0.00    -0.318 A  
HETATM   18  C   UNL     1     -10.585  11.371  63.940  1.00  0.00    -0.452 A  
HETATM   19  C   UNL     1      -8.645  10.075  63.238  1.00  0.00    -0.202 A  
HETATM   20  C   UNL     1     -11.940  11.927  63.588  1.00  0.00    -0.578 C  
ENDBRANCH   7  14
ENDBRANCH   6   7
ENDBRANCH   5   6
ENDBRANCH   4   5
ENDBRANCH   2   4
TORSDOF 6
ENDMDL
MODEL       93
REMARK 921   NORMALIZED FREE ENERGY PREDICTED BY IDOCK:   -4.20 KCAL/MOL
REMARK 922        TOTAL FREE ENERGY PREDICTED BY IDOCK:   -6.73 KCAL/MOL
REMARK 923 INTER-LIGAND FREE ENERGY PREDICTED BY IDOCK:   -5.78 KCAL/MOL
REMARK 924 INTRA-LIGAND FREE ENERGY PREDICTED BY IDOCK:   -0.95 KCAL/MOL
REMARK 927      BINDING AFFINITY PREDICTED BY RF-SCORE:    0.00 PKD
ROOT
HETATM    1  C   UNL     1     -11.696  14.969  68.441  1.00  0.00    -0.317 C  
HETATM    2  N   UNL     1     -11.974  13.552  68.198  1.00  0.00    -0.361 NA 
HETATM    3  C   UNL     1     -11.845  13.254  66.773  1.00  0.00    -0.394 C  
ENDROOT
BRANCH   2   4
HETATM    4  C   UNL     1     -11.075  12.725  69.022  1.00  0.00    -0.233 C  
BRANCH   4   5
HETATM    5  C   UNL     1     -11.569  11.291  69.291  1.00  0.00    -0.322 C  
BRANCH   5   6
HETATM    6  O   UNL     1     -10.510  10.364  69.562  1.00  0.00    -0.223 OA 
BRANCH   6   7
HETATM    7  C   UNL     1     -10.908   8.994  69.768  1.00  0.00    -0.205 C  
BRANCH   7   8
HETATM    8  C   UNL     1     -10.423   8.108  68.623  1.00  0.00    -0.195 A  
HETATM    9  C   UNL     1     -10.869   6.776  68.538  1.00  0.00    -0.280 A  
HETATM   10  C   UNL     1      -9.662   8.626  67.563  1.00  0.00    -0.212 A  
HETATM   11  C   UNL     1     -10.606   6.006  67.405  1.00  0.00    -0.355 A  
HETATM   12  C   UNL     1      -9.388   7.848  66.437  1.00  0.00    -0.247 A  
HETATM   13  C   UNL     1      -9.874   6.545  66.350  1.00  0.00    -0.112 A  
ENDBRANCH   7   8
BRANCH   7  14
HETATM   14  C   UNL     1     -10.448   8.544  71.157  1.00  0.00    -0.278 A  
HETATM   15  C   UNL     1      -8.634   8.282  72.778  1.00  0.00    -0.270 A  
HETATM   16  C   UNL     1      -9.100   8.714  71.536  1.00  0.00    -0.308 A  
HETATM   17  C   UNL     1     -10.847   7.510  73.326  1.00  0.00    -0.409 A  
HETATM   18  C   UNL     1     -11.337   7.955  72.088  1.00  0.00    -0.367 A  
HETATM   19  C   UNL     1      -9.504   7.667  73.666  1.00  0.00    -0.340 A  
HETATM   20  C   UNL     1     -12.810   7.811  71.807  1.00  0.00    -0.352 C  
ENDBRANCH   7  14
ENDBRANCH   6   7
ENDBRANCH   5   6
ENDBRANCH   4   5
ENDBRANCH   2   4
TORSDOF 6
ENDMDL
MODEL       94
REMARK 921   NORMALIZED FREE ENERGY PREDICTED BY IDOCK:   -4.19 KCAL/MOL
REMARK 922        TOTAL FREE ENERGY PREDICTED BY IDOCK:   -6.72 KCAL/MOL
REMARK 923 INTER-LIGAND FREE ENERGY PREDICTED BY IDOCK:   -6.55 KCAL/MOL
REMARK 924 INTRA-LIGAND FREE ENERGY PREDICTED BY IDOCK:   -0.17 KCAL/MOL
REMARK 927      BINDING AFFINITY PREDICTED BY RF-SCORE:    0.00 PKD
ROOT
HETATM    1  C   UNL     1      -9.830   8.097  71.096  1.00  0.00    -0.169 C  
HETATM    2  N   UNL     1     -11.143   8.633  70.735  1.00  0.00    -0.250 NA 
HETATM    3  C   UNL     1     -12.130   8.259  71.747  1.00  0.00    -0.319 C  
ENDROOT
BRANCH   2   4
HETATM    4  C   UNL     1     -11.051  10.093  70.564  1.00  0.00    -0.327 C  
BRANCH   4   5
HETATM    5  C   UNL     1     -10.950  10.577  69.105  1.00  0.00    -0.240 C  
BRANCH   5   6
HETATM    6  O   UNL     1     -10.675  11.978  68.986  1.00  0.00    -0.206 OA 
BRANCH   6   7
HETATM    7  C   UNL     1     -11.800  12.816  68.658  1.00  0.00    -0.304 C  
BRANCH   7   8
HETATM    8  C   UNL     1     -12.085  13.809  69.782  1.00  0.00    -0.400 A  
HETATM    9  C   UNL     1     -12.508  13.334  71.038  1.00  0.00    -0.422 A  
HETATM   10  C   UNL     1     -11.791  15.175  69.650  1.00  0.00    -0.362 A  
HETATM   11  C   UNL     1     -12.584  14.191  72.137  1.00  0.00    -0.328 A  
HETATM   12  C   UNL     1     -11.882  16.032  70.748  1.00  0.00    -0.372 A  
HETATM   13  C   UNL     1     -12.262  15.538  71.994  1.00  0.00    -0.484 A  
ENDBRANCH   7   8
BRANCH   7  14
HETATM   14  C   UNL     1     -11.563  13.459  67.289  1.00  0.00    -0.400 A  
HETATM   15  C   UNL     1     -12.467  14.192  65.137  1.00  0.00    -0.453 A  
HETATM   16  C   UNL     1     -12.648  13.645  66.407  1.00  0.00    -0.289 A  
HETATM   17  C   UNL     1     -10.111  14.411  65.581  1.00  0.00    -0.377 A  
HETATM   18  C   UNL     1     -10.278  13.880  66.870  1.00  0.00    -0.257 A  
HETATM   19  C   UNL     1     -11.196  14.561  64.719  1.00  0.00    -0.395 A  
HETATM   20  C   UNL     1      -9.075  13.802  67.774  1.00  0.00    -0.193 C  
ENDBRANCH   7  14
ENDBRANCH   6   7
ENDBRANCH   5   6
ENDBRANCH   4   5
ENDBRANCH   2   4
TORSDOF 6
ENDMDL
MODEL       95
REMARK 921   NORMALIZED FREE ENERGY PREDICTED BY IDOCK:   -4.19 KCAL/MOL
REMARK 922        TOTAL FREE ENERGY PREDICTED BY IDOCK:   -6.71 KCAL/MOL
REMARK 923 INTER-LIGAND FREE ENERGY PREDICTED BY IDOCK:   -6.39 KCAL/MOL
REMARK 924 INTRA-LIGAND FREE ENERGY PREDICTED BY IDOCK:   -0.32 KCAL/MOL
REMARK 927      BINDING AFFINITY PREDICTED BY RF-SCORE:    0.00 PKD
ROOT
HETATM    1  C   UNL     1     -14.085  15.463  71.386  1.00  0.00    -0.435 C  
HETATM    2  N   UNL     1     -12.626  15.374  71.314  1.00  0.00    -0.376 NA 
HETATM    3  C   UNL     1     -12.055  15.451  72.657  1.00  0.00    -0.431 C  
ENDROOT
BRANCH   2   4
HETATM    4  C   UNL     1     -12.242  14.134  70.617  1.00  0.00    -0.362 C  
BRANCH   4   5
HETATM    5  C   UNL     1     -11.763  14.322  69.165  1.00  0.00    -0.320 C  
BRANCH   5   6
HETATM    6  O   UNL     1     -11.597  13.088  68.455  1.00  0.00    -0.283 OA 
BRANCH   6   7
HETATM    7  C   UNL     1     -10.498  13.038  67.524  1.00  0.00    -0.227 C  
BRANCH   7   8
HETATM    8  C   UNL     1     -10.321  11.629  66.965  1.00  0.00    -0.248 A  
HETATM    9  C   UNL     1      -9.375  11.398  65.949  1.00  0.00    -0.247 A  
HETATM   10  C   UNL     1     -10.967  10.523  67.539  1.00  0.00    -0.365 A  
HETATM   11  C   UNL     1      -9.049  10.099  65.557  1.00  0.00    -0.216 A  
HETATM   12  C   UNL     1     -10.649   9.225  67.135  1.00  0.00    -0.286 A  
HETATM   13  C   UNL     1      -9.680   9.012  66.158  1.00  0.00    -0.354 A  
ENDBRANCH   7   8
BRANCH   7  14
HETATM   14  C   UNL     1     -10.694  14.123  66.461  1.00  0.00    -0.289 A  
HETATM   15  C   UNL     1      -9.998  16.263  65.502  1.00  0.00    -0.217 A  
HETATM   16  C   UNL     1      -9.828  15.235  66.430  1.00  0.00    -0.295 A  
HETATM   17  C   UNL     1     -11.894  15.101  64.581  1.00  0.00    -0.333 A  
HETATM   18  C   UNL     1     -11.727  14.049  65.495  1.00  0.00    -0.353 A  
HETATM   19  C   UNL     1     -11.040  16.202  64.587  1.00  0.00    -0.310 A  
HETATM   20  C   UNL     1     -12.646  12.859  65.394  1.00  0.00    -0.440 C  
ENDBRANCH   7  14
ENDBRANCH   6   7
ENDBRANCH   5   6
ENDBRANCH   4   5
ENDBRANCH   2   4
TORSDOF 6
ENDMDL
MODEL       96
REMARK 921   NORMALIZED FREE ENERGY PREDICTED BY IDOCK:   -4.18 KCAL/MOL
REMARK 922        TOTAL FREE ENERGY PREDICTED BY IDOCK:   -6.70 KCAL/MOL
REMARK 923 INTER-LIGAND FREE ENERGY PREDICTED BY IDOCK:   -6.52 KCAL/MOL
REMARK 924 INTRA-LIGAND FREE ENERGY PREDICTED BY IDOCK:   -0.19 KCAL/MOL
REMARK 927      BINDING AFFINITY PREDICTED BY RF-SCORE:    0.00 PKD
ROOT
HETATM    1  C   UNL     1     -10.735   7.542  67.381  1.00  0.00    -0.261 C  
HETATM    2  N   UNL     1      -9.750   8.619  67.262  1.00  0.00    -0.172 NA 
HETATM    3  C   UNL     1      -9.872   9.264  65.956  1.00  0.00    -0.293 C  
ENDROOT
BRANCH   2   4
HETATM    4  C   UNL     1      -9.926   9.573  68.371  1.00  0.00    -0.164 C  
BRANCH   4   5
HETATM    5  C   UNL     1     -11.132  10.521  68.234  1.00  0.00    -0.284 C  
BRANCH   5   6
HETATM    6  O   UNL     1     -10.878  11.842  68.728  1.00  0.00    -0.216 OA 
BRANCH   6   7
HETATM    7  C   UNL     1     -11.883  12.832  68.427  1.00  0.00    -0.310 C  
BRANCH   7   8
HETATM    8  C   UNL     1     -12.008  13.842  69.564  1.00  0.00    -0.396 A  
HETATM    9  C   UNL     1     -12.480  13.420  70.821  1.00  0.00    -0.418 A  
HETATM   10  C   UNL     1     -11.524  15.154  69.440  1.00  0.00    -0.322 A  
HETATM   11  C   UNL     1     -12.419  14.267  71.928  1.00  0.00    -0.364 A  
HETATM   12  C   UNL     1     -11.477  16.004  70.547  1.00  0.00    -0.409 A  
HETATM   13  C   UNL     1     -11.909  15.555  71.793  1.00  0.00    -0.504 A  
ENDBRANCH   7   8
BRANCH   7  14
HETATM   14  C   UNL     1     -11.581  13.449  67.059  1.00  0.00    -0.396 A  
HETATM   15  C   UNL     1     -12.407  14.280  64.911  1.00  0.00    -0.435 A  
HETATM   16  C   UNL     1     -12.642  13.752  66.180  1.00  0.00    -0.423 A  
HETATM   17  C   UNL     1     -10.040  14.246  65.350  1.00  0.00    -0.379 A  
HETATM   18  C   UNL     1     -10.259  13.732  66.638  1.00  0.00    -0.276 A  
HETATM   19  C   UNL     1     -11.105  14.513  64.490  1.00  0.00    -0.280 A  
HETATM   20  C   UNL     1      -9.070  13.525  67.539  1.00  0.00    -0.214 C  
ENDBRANCH   7  14
ENDBRANCH   6   7
ENDBRANCH   5   6
ENDBRANCH   4   5
ENDBRANCH   2   4
TORSDOF 6
ENDMDL
MODEL       97
REMARK 921   NORMALIZED FREE ENERGY PREDICTED BY IDOCK:   -4.17 KCAL/MOL
REMARK 922        TOTAL FREE ENERGY PREDICTED BY IDOCK:   -6.69 KCAL/MOL
REMARK 923 INTER-LIGAND FREE ENERGY PREDICTED BY IDOCK:   -6.81 KCAL/MOL
REMARK 924 INTRA-LIGAND FREE ENERGY PREDICTED BY IDOCK:    0.12 KCAL/MOL
REMARK 927      BINDING AFFINITY PREDICTED BY RF-SCORE:    0.00 PKD
ROOT
HETATM    1  C   UNL     1      -7.749   9.697  66.990  1.00  0.00    -0.095 C  
HETATM    2  N   UNL     1      -8.800  10.567  66.460  1.00  0.00    -0.142 NA 
HETATM    3  C   UNL     1      -9.988   9.778  66.142  1.00  0.00    -0.268 C  
ENDROOT
BRANCH   2   4
HETATM    4  C   UNL     1      -9.088  11.638  67.431  1.00  0.00    -0.169 C  
BRANCH   4   5
HETATM    5  C   UNL     1     -10.566  11.762  67.849  1.00  0.00    -0.201 C  
BRANCH   5   6
HETATM    6  O   UNL     1     -10.743  12.032  69.245  1.00  0.00    -0.146 OA 
BRANCH   6   7
HETATM    7  C   UNL     1     -12.068  11.810  69.767  1.00  0.00    -0.269 C  
BRANCH   7   8
HETATM    8  C   UNL     1     -12.138  10.491  70.532  1.00  0.00    -0.437 A  
HETATM    9  C   UNL     1     -10.948   9.820  70.871  1.00  0.00    -0.411 A  
HETATM   10  C   UNL     1     -13.350  10.000  71.043  1.00  0.00    -0.334 A  
HETATM   11  C   UNL     1     -10.967   8.725  71.736  1.00  0.00    -0.415 A  
HETATM   12  C   UNL     1     -13.366   8.895  71.897  1.00  0.00    -0.455 A  
HETATM   13  C   UNL     1     -12.175   8.269  72.256  1.00  0.00    -0.428 A  
ENDBRANCH   7   8
BRANCH   7  14
HETATM   14  C   UNL     1     -12.499  13.036  70.576  1.00  0.00    -0.306 A  
HETATM   15  C   UNL     1     -13.358  13.966  72.669  1.00  0.00    -0.640 A  
HETATM   16  C   UNL     1     -12.923  12.879  71.912  1.00  0.00    -0.405 A  
HETATM   17  C   UNL     1     -12.946  15.420  70.796  1.00  0.00    -0.510 A  
HETATM   18  C   UNL     1     -12.487  14.341  70.025  1.00  0.00    -0.355 A  
HETATM   19  C   UNL     1     -13.384  15.234  72.106  1.00  0.00    -0.519 A  
HETATM   20  C   UNL     1     -11.970  14.620  68.638  1.00  0.00    -0.305 C  
ENDBRANCH   7  14
ENDBRANCH   6   7
ENDBRANCH   5   6
ENDBRANCH   4   5
ENDBRANCH   2   4
TORSDOF 6
ENDMDL
MODEL       98
REMARK 921   NORMALIZED FREE ENERGY PREDICTED BY IDOCK:   -4.16 KCAL/MOL
REMARK 922        TOTAL FREE ENERGY PREDICTED BY IDOCK:   -6.67 KCAL/MOL
REMARK 923 INTER-LIGAND FREE ENERGY PREDICTED BY IDOCK:   -5.70 KCAL/MOL
REMARK 924 INTRA-LIGAND FREE ENERGY PREDICTED BY IDOCK:   -0.97 KCAL/MOL
REMARK 927      BINDING AFFINITY PREDICTED BY RF-SCORE:    0.00 PKD
ROOT
HETATM    1  C   UNL     1     -12.743   7.080  71.551  1.00  0.00    -0.381 C  
HETATM    2  N   UNL     1     -12.901   8.501  71.236  1.00  0.00    -0.238 NA 
HETATM    3  C   UNL     1     -13.721   9.151  72.256  1.00  0.00    -0.487 C  
ENDROOT
BRANCH   2   4
HETATM    4  C   UNL     1     -11.573   9.127  71.108  1.00  0.00    -0.317 C  
BRANCH   4   5
HETATM    5  C   UNL     1     -11.564  10.509  70.426  1.00  0.00    -0.342 C  
BRANCH   5   6
HETATM    6  O   UNL     1     -11.468  10.439  68.998  1.00  0.00    -0.244 OA 
BRANCH   6   7
HETATM    7  C   UNL     1     -10.504  11.321  68.387  1.00  0.00    -0.197 C  
BRANCH   7   8
HETATM    8  C   UNL     1      -9.333  10.531  67.810  1.00  0.00    -0.158 A  
HETATM    9  C   UNL     1      -8.174  11.212  67.394  1.00  0.00    -0.132 A  
HETATM   10  C   UNL     1      -9.315   9.127  67.821  1.00  0.00    -0.152 A  
HETATM   11  C   UNL     1      -7.017  10.510  67.050  1.00  0.00    -0.089 A  
HETATM   12  C   UNL     1      -8.161   8.428  67.463  1.00  0.00    -0.110 A  
HETATM   13  C   UNL     1      -7.009   9.118  67.094  1.00  0.00    -0.081 A  
ENDBRANCH   7   8
BRANCH   7  14
HETATM   14  C   UNL     1     -11.221  12.222  67.377  1.00  0.00    -0.358 A  
HETATM   15  C   UNL     1     -12.102  12.544  65.118  1.00  0.00    -0.503 A  
HETATM   16  C   UNL     1     -11.486  11.742  66.078  1.00  0.00    -0.281 A  
HETATM   17  C   UNL     1     -12.235  14.336  66.720  1.00  0.00    -0.384 A  
HETATM   18  C   UNL     1     -11.634  13.536  67.705  1.00  0.00    -0.374 A  
HETATM   19  C   UNL     1     -12.464  13.847  65.436  1.00  0.00    -0.528 A  
HETATM   20  C   UNL     1     -11.472  14.105  69.090  1.00  0.00    -0.338 C  
ENDBRANCH   7  14
ENDBRANCH   6   7
ENDBRANCH   5   6
ENDBRANCH   4   5
ENDBRANCH   2   4
TORSDOF 6
ENDMDL
MODEL       99
REMARK 921   NORMALIZED FREE ENERGY PREDICTED BY IDOCK:   -4.15 KCAL/MOL
REMARK 922        TOTAL FREE ENERGY PREDICTED BY IDOCK:   -6.66 KCAL/MOL
REMARK 923 INTER-LIGAND FREE ENERGY PREDICTED BY IDOCK:   -5.71 KCAL/MOL
REMARK 924 INTRA-LIGAND FREE ENERGY PREDICTED BY IDOCK:   -0.95 KCAL/MOL
REMARK 927      BINDING AFFINITY PREDICTED BY RF-SCORE:    0.00 PKD
ROOT
HETATM    1  C   UNL     1      -8.649   9.077  63.514  1.00  0.00    -0.133 C  
HETATM    2  N   UNL     1      -8.543   9.386  64.941  1.00  0.00    -0.165 NA 
HETATM    3  C   UNL     1      -7.451  10.330  65.168  1.00  0.00    -0.130 C  
ENDROOT
BRANCH   2   4
HETATM    4  C   UNL     1      -9.833   9.902  65.430  1.00  0.00    -0.313 C  
BRANCH   4   5
HETATM    5  C   UNL     1     -10.307   9.313  66.772  1.00  0.00    -0.226 C  
BRANCH   5   6
HETATM    6  O   UNL     1     -11.339  10.084  67.401  1.00  0.00    -0.187 OA 
BRANCH   6   7
HETATM    7  C   UNL     1     -10.939  10.850  68.555  1.00  0.00    -0.230 C  
BRANCH   7   8
HETATM    8  C   UNL     1     -11.325  12.318  68.395  1.00  0.00    -0.340 A  
HETATM    9  C   UNL     1     -11.094  13.217  69.453  1.00  0.00    -0.140 A  
HETATM   10  C   UNL     1     -11.765  12.833  67.166  1.00  0.00    -0.443 A  
HETATM   11  C   UNL     1     -11.249  14.591  69.270  1.00  0.00    -0.309 A  
HETATM   12  C   UNL     1     -11.933  14.208  66.990  1.00  0.00    -0.471 A  
HETATM   13  C   UNL     1     -11.660  15.087  68.035  1.00  0.00    -0.356 A  
ENDBRANCH   7   8
BRANCH   7  14
HETATM   14  C   UNL     1     -11.495  10.182  69.816  1.00  0.00    -0.288 A  
HETATM   15  C   UNL     1     -13.403   9.740  71.282  1.00  0.00    -0.413 A  
HETATM   16  C   UNL     1     -12.866  10.302  70.123  1.00  0.00    -0.033 A  
HETATM   17  C   UNL     1     -11.226   8.895  71.866  1.00  0.00    -0.447 A  
HETATM   18  C   UNL     1     -10.672   9.437  70.696  1.00  0.00    -0.353 A  
HETATM   19  C   UNL     1     -12.580   9.049  72.160  1.00  0.00    -0.461 A  
HETATM   20  C   UNL     1      -9.216   9.181  70.407  1.00  0.00    -0.271 C  
ENDBRANCH   7  14
ENDBRANCH   6   7
ENDBRANCH   5   6
ENDBRANCH   4   5
ENDBRANCH   2   4
TORSDOF 6
ENDMDL
MODEL      100
REMARK 921   NORMALIZED FREE ENERGY PREDICTED BY IDOCK:   -4.13 KCAL/MOL
REMARK 922        TOTAL FREE ENERGY PREDICTED BY IDOCK:   -6.63 KCAL/MOL
REMARK 923 INTER-LIGAND FREE ENERGY PREDICTED BY IDOCK:   -6.16 KCAL/MOL
REMARK 924 INTRA-LIGAND FREE ENERGY PREDICTED BY IDOCK:   -0.47 KCAL/MOL
REMARK 927      BINDING AFFINITY PREDICTED BY RF-SCORE:    0.00 PKD
ROOT
HETATM    1  C   UNL     1     -12.421  14.240  64.095  1.00  0.00    -0.218 C  
HETATM    2  N   UNL     1     -11.163  13.538  64.354  1.00  0.00    -0.377 NA 
HETATM    3  C   UNL     1     -10.219  14.433  65.021  1.00  0.00    -0.374 C  
ENDROOT
BRANCH   2   4
HETATM    4  C   UNL     1     -11.430  12.324  65.146  1.00  0.00    -0.341 C  
BRANCH   4   5
HETATM    5  C   UNL     1     -12.034  12.572  66.541  1.00  0.00    -0.296 C  
BRANCH   5   6
HETATM    6  O   UNL     1     -11.933  11.441  67.415  1.00  0.00    -0.606 OA 
BRANCH   6   7
HETATM    7  C   UNL     1     -10.765  11.398  68.258  1.00  0.00    -0.204 C  
BRANCH   7   8
HETATM    8  C   UNL     1     -10.207  12.800  68.487  1.00  0.00    -0.206 A  
HETATM    9  C   UNL     1     -11.034  13.795  69.041  1.00  0.00    -0.277 A  
HETATM   10  C   UNL     1      -8.846  13.090  68.303  1.00  0.00    -0.172 A  
HETATM   11  C   UNL     1     -10.504  15.021  69.445  1.00  0.00    -0.254 A  
HETATM   12  C   UNL     1      -8.321  14.323  68.695  1.00  0.00    -0.135 A  
HETATM   13  C   UNL     1      -9.146  15.281  69.281  1.00  0.00    -0.240 A  
ENDBRANCH   7   8
BRANCH   7  14
HETATM   14  C   UNL     1     -11.101  10.632  69.541  1.00  0.00    -0.328 A  
HETATM   15  C   UNL     1     -12.764   9.979  71.212  1.00  0.00    -0.500 A  
HETATM   16  C   UNL     1     -12.425  10.633  70.027  1.00  0.00    -0.294 A  
HETATM   17  C   UNL     1     -10.476   9.277  71.465  1.00  0.00    -0.385 A  
HETATM   18  C   UNL     1     -10.120   9.913  70.265  1.00  0.00    -0.295 A  
HETATM   19  C   UNL     1     -11.787   9.314  71.938  1.00  0.00    -0.426 A  
HETATM   20  C   UNL     1      -8.701   9.783  69.779  1.00  0.00    -0.228 C  
ENDBRANCH   7  14
ENDBRANCH   6   7
ENDBRANCH   5   6
ENDBRANCH   4   5
ENDBRANCH   2   4
TORSDOF 6
ENDMDL
MODEL      101
REMARK 921   NORMALIZED FREE ENERGY PREDICTED BY IDOCK:   -4.10 KCAL/MOL
REMARK 922        TOTAL FREE ENERGY PREDICTED BY IDOCK:   -6.59 KCAL/MOL
REMARK 923 INTER-LIGAND FREE ENERGY PREDICTED BY IDOCK:   -5.48 KCAL/MOL
REMARK 924 INTRA-LIGAND FREE ENERGY PREDICTED BY IDOCK:   -1.12 KCAL/MOL
REMARK 927      BINDING AFFINITY PREDICTED BY RF-SCORE:    0.00 PKD
ROOT
HETATM    1  C   UNL     1      -9.169  11.635  66.490  1.00  0.00    -0.198 C  
HETATM    2  N   UNL     1      -9.131  10.280  67.043  1.00  0.00    -0.139 NA 
HETATM    3  C   UNL     1      -8.746   9.327  66.003  1.00  0.00    -0.153 C  
ENDROOT
BRANCH   2   4
HETATM    4  C   UNL     1      -8.214  10.244  68.196  1.00  0.00    -0.114 C  
BRANCH   4   5
HETATM    5  C   UNL     1      -8.883   9.963  69.555  1.00  0.00    -0.197 C  
BRANCH   5   6
HETATM    6  O   UNL     1     -10.186   9.378  69.440  1.00  0.00    -0.190 OA 
BRANCH   6   7
HETATM    7  C   UNL     1     -10.405   8.171  70.197  1.00  0.00    -0.215 C  
BRANCH   7   8
HETATM    8  C   UNL     1     -11.716   8.246  70.975  1.00  0.00    -0.293 A  
HETATM    9  C   UNL     1     -12.162   9.487  71.466  1.00  0.00    -0.468 A  
HETATM   10  C   UNL     1     -12.570   7.138  71.086  1.00  0.00    -0.384 A  
HETATM   11  C   UNL     1     -13.443   9.624  72.003  1.00  0.00    -0.514 A  
HETATM   12  C   UNL     1     -13.846   7.275  71.637  1.00  0.00    -0.461 A  
HETATM   13  C   UNL     1     -14.288   8.520  72.080  1.00  0.00    -0.537 A  
ENDBRANCH   7   8
BRANCH   7  14
HETATM   14  C   UNL     1     -10.291   6.966  69.260  1.00  0.00    -0.212 A  
HETATM   15  C   UNL     1     -10.693   5.984  67.055  1.00  0.00    -0.412 A  
HETATM   16  C   UNL     1     -10.744   7.071  67.928  1.00  0.00    -0.274 A  
HETATM   17  C   UNL     1      -9.714   4.645  68.799  1.00  0.00    -0.230 A  
HETATM   18  C   UNL     1      -9.740   5.733  69.686  1.00  0.00    -0.208 A  
HETATM   19  C   UNL     1     -10.191   4.767  67.495  1.00  0.00    -0.115 A  
HETATM   20  C   UNL     1      -9.152   5.551  71.061  1.00  0.00    -0.163 C  
ENDBRANCH   7  14
ENDBRANCH   6   7
ENDBRANCH   5   6
ENDBRANCH   4   5
ENDBRANCH   2   4
TORSDOF 6
ENDMDL
MODEL      102
REMARK 921   NORMALIZED FREE ENERGY PREDICTED BY IDOCK:   -4.10 KCAL/MOL
REMARK 922        TOTAL FREE ENERGY PREDICTED BY IDOCK:   -6.59 KCAL/MOL
REMARK 923 INTER-LIGAND FREE ENERGY PREDICTED BY IDOCK:   -6.10 KCAL/MOL
REMARK 924 INTRA-LIGAND FREE ENERGY PREDICTED BY IDOCK:   -0.49 KCAL/MOL
REMARK 927      BINDING AFFINITY PREDICTED BY RF-SCORE:    0.00 PKD
ROOT
HETATM    1  C   UNL     1     -10.640  19.413  65.739  1.00  0.00    -0.400 C  
HETATM    2  N   UNL     1      -9.311  19.396  66.351  1.00  0.00    -0.355 NA 
HETATM    3  C   UNL     1      -9.281  20.291  67.506  1.00  0.00    -0.367 C  
ENDROOT
BRANCH   2   4
HETATM    4  C   UNL     1      -8.952  18.013  66.712  1.00  0.00    -0.269 C  
BRANCH   4   5
HETATM    5  C   UNL     1     -10.030  16.956  66.407  1.00  0.00    -0.309 C  
BRANCH   5   6
HETATM    6  O   UNL     1      -9.514  15.783  65.766  1.00  0.00    -0.335 OA 
BRANCH   6   7
HETATM    7  C   UNL     1      -9.550  14.571  66.546  1.00  0.00    -0.293 C  
BRANCH   7   8
HETATM    8  C   UNL     1     -10.394  14.758  67.804  1.00  0.00    -0.244 A  
HETATM    9  C   UNL     1     -11.733  14.324  67.814  1.00  0.00    -0.408 A  
HETATM   10  C   UNL     1      -9.832  15.214  69.007  1.00  0.00    -0.238 A  
HETATM   11  C   UNL     1     -12.467  14.298  69.000  1.00  0.00     0.025 A  
HETATM   12  C   UNL     1     -10.574  15.200  70.190  1.00  0.00    -0.227 A  
HETATM   13  C   UNL     1     -11.884  14.727  70.189  1.00  0.00    -0.360 A  
ENDBRANCH   7   8
BRANCH   7  14
HETATM   14  C   UNL     1      -9.996  13.413  65.649  1.00  0.00    -0.249 A  
HETATM   15  C   UNL     1     -11.153  12.655  63.631  1.00  0.00    -0.496 A  
HETATM   16  C   UNL     1     -10.697  13.684  64.456  1.00  0.00    -0.420 A  
HETATM   17  C   UNL     1     -10.211  11.039  65.147  1.00  0.00    -0.352 A  
HETATM   18  C   UNL     1      -9.727  12.062  65.978  1.00  0.00    -0.256 A  
HETATM   19  C   UNL     1     -10.923  11.333  63.985  1.00  0.00    -0.377 A  
HETATM   20  C   UNL     1      -8.912  11.679  67.185  1.00  0.00    -0.173 C  
ENDBRANCH   7  14
ENDBRANCH   6   7
ENDBRANCH   5   6
ENDBRANCH   4   5
ENDBRANCH   2   4
TORSDOF 6
ENDMDL
MODEL      103
REMARK 921   NORMALIZED FREE ENERGY PREDICTED BY IDOCK:   -4.09 KCAL/MOL
REMARK 922        TOTAL FREE ENERGY PREDICTED BY IDOCK:   -6.58 KCAL/MOL
REMARK 923 INTER-LIGAND FREE ENERGY PREDICTED BY IDOCK:   -5.51 KCAL/MOL
REMARK 924 INTRA-LIGAND FREE ENERGY PREDICTED BY IDOCK:   -1.08 KCAL/MOL
REMARK 927      BINDING AFFINITY PREDICTED BY RF-SCORE:    0.00 PKD
ROOT
HETATM    1  C   UNL     1      -5.942  19.764  63.737  1.00  0.00    -0.175 C  
HETATM    2  N   UNL     1      -6.498  19.010  64.862  1.00  0.00    -0.491 NA 
HETATM    3  C   UNL     1      -5.422  18.365  65.611  1.00  0.00    -0.180 C  
ENDROOT
BRANCH   2   4
HETATM    4  C   UNL     1      -7.303  19.908  65.708  1.00  0.00    -0.321 C  
BRANCH   4   5
HETATM    5  C   UNL     1      -8.681  19.358  66.122  1.00  0.00    -0.279 C  
BRANCH   5   6
HETATM    6  O   UNL     1      -8.774  19.042  67.516  1.00  0.00    -0.284 OA 
BRANCH   6   7
HETATM    7  C   UNL     1      -8.045  17.876  67.948  1.00  0.00    -0.244 C  
BRANCH   7   8
HETATM    8  C   UNL     1      -6.935  18.258  68.924  1.00  0.00    -0.289 A  
HETATM    9  C   UNL     1      -6.788  19.600  69.318  1.00  0.00    -0.390 A  
HETATM   10  C   UNL     1      -6.148  17.285  69.561  1.00  0.00    -0.247 A  
HETATM   11  C   UNL     1      -5.919  19.951  70.353  1.00  0.00    -0.358 A  
HETATM   12  C   UNL     1      -5.269  17.641  70.586  1.00  0.00    -0.273 A  
HETATM   13  C   UNL     1      -5.167  18.969  70.992  1.00  0.00    -0.273 A  
ENDBRANCH   7   8
BRANCH   7  14
HETATM   14  C   UNL     1      -9.035  16.839  68.488  1.00  0.00    -0.244 A  
HETATM   15  C   UNL     1     -11.003  16.338  69.851  1.00  0.00    -0.365 A  
HETATM   16  C   UNL     1     -10.103  17.255  69.310  1.00  0.00    -0.179 A  
HETATM   17  C   UNL     1      -9.820  14.550  68.757  1.00  0.00    -0.220 A  
HETATM   18  C   UNL     1      -8.917  15.461  68.188  1.00  0.00    -0.176 A  
HETATM   19  C   UNL     1     -10.853  14.984  69.587  1.00  0.00    -0.283 A  
HETATM   20  C   UNL     1      -7.862  14.933  67.251  1.00  0.00    -0.235 C  
ENDBRANCH   7  14
ENDBRANCH   6   7
ENDBRANCH   5   6
ENDBRANCH   4   5
ENDBRANCH   2   4
TORSDOF 6
ENDMDL
MODEL      104
REMARK 921   NORMALIZED FREE ENERGY PREDICTED BY IDOCK:   -4.06 KCAL/MOL
REMARK 922        TOTAL FREE ENERGY PREDICTED BY IDOCK:   -6.54 KCAL/MOL
REMARK 923 INTER-LIGAND FREE ENERGY PREDICTED BY IDOCK:   -5.71 KCAL/MOL
REMARK 924 INTRA-LIGAND FREE ENERGY PREDICTED BY IDOCK:   -0.83 KCAL/MOL
REMARK 927      BINDING AFFINITY PREDICTED BY RF-SCORE:    0.00 PKD
ROOT
HETATM    1  C   UNL     1      -6.342  10.308  64.640  1.00  0.00    -0.108 C  
HETATM    2  N   UNL     1      -7.378   9.314  64.352  1.00  0.00    -0.103 NA 
HETATM    3  C   UNL     1      -7.391   8.291  65.395  1.00  0.00    -0.083 C  
ENDROOT
BRANCH   2   4
HETATM    4  C   UNL     1      -8.682   9.987  64.218  1.00  0.00    -0.206 C  
BRANCH   4   5
HETATM    5  C   UNL     1      -9.624   9.835  65.428  1.00  0.00    -0.292 C  
BRANCH   5   6
HETATM    6  O   UNL     1      -9.717  11.020  66.230  1.00  0.00    -0.195 OA 
BRANCH   6   7
HETATM    7  C   UNL     1     -11.037  11.583  66.371  1.00  0.00    -0.269 C  
BRANCH   7   8
HETATM    8  C   UNL     1     -11.479  11.572  67.832  1.00  0.00    -0.372 A  
HETATM    9  C   UNL     1     -11.409  10.377  68.571  1.00  0.00    -0.283 A  
HETATM   10  C   UNL     1     -11.813  12.756  68.509  1.00  0.00    -0.345 A  
HETATM   11  C   UNL     1     -11.615  10.376  69.951  1.00  0.00    -0.358 A  
HETATM   12  C   UNL     1     -12.032  12.750  69.887  1.00  0.00    -0.368 A  
HETATM   13  C   UNL     1     -11.917  11.565  70.610  1.00  0.00    -0.391 A  
ENDBRANCH   7   8
BRANCH   7  14
HETATM   14  C   UNL     1     -11.064  12.963  65.710  1.00  0.00    -0.312 A  
HETATM   15  C   UNL     1     -10.064  15.181  65.454  1.00  0.00    -0.384 A  
HETATM   16  C   UNL     1     -10.053  13.900  66.006  1.00  0.00    -0.324 A  
HETATM   17  C   UNL     1     -12.087  14.639  64.268  1.00  0.00    -0.437 A  
HETATM   18  C   UNL     1     -12.082  13.340  64.799  1.00  0.00    -0.456 A  
HETATM   19  C   UNL     1     -11.089  15.555  64.596  1.00  0.00    -0.373 A  
HETATM   20  C   UNL     1     -13.154  12.379  64.356  1.00  0.00    -0.050 C  
ENDBRANCH   7  14
ENDBRANCH   6   7
ENDBRANCH   5   6
ENDBRANCH   4   5
ENDBRANCH   2   4
TORSDOF 6
ENDMDL
MODEL      105
REMARK 921   NORMALIZED FREE ENERGY PREDICTED BY IDOCK:   -4.06 KCAL/MOL
REMARK 922        TOTAL FREE ENERGY PREDICTED BY IDOCK:   -6.54 KCAL/MOL
REMARK 923 INTER-LIGAND FREE ENERGY PREDICTED BY IDOCK:   -6.02 KCAL/MOL
REMARK 924 INTRA-LIGAND FREE ENERGY PREDICTED BY IDOCK:   -0.52 KCAL/MOL
REMARK 927      BINDING AFFINITY PREDICTED BY RF-SCORE:    0.00 PKD
ROOT
HETATM    1  C   UNL     1      -6.220  13.792  69.953  1.00  0.00    -0.129 C  
HETATM    2  N   UNL     1      -6.743  15.033  69.378  1.00  0.00    -0.144 NA 
HETATM    3  C   UNL     1      -5.867  16.151  69.723  1.00  0.00    -0.174 C  
ENDROOT
BRANCH   2   4
HETATM    4  C   UNL     1      -6.893  14.876  67.920  1.00  0.00    -0.157 C  
BRANCH   4   5
HETATM    5  C   UNL     1      -8.337  14.988  67.396  1.00  0.00    -0.190 C  
BRANCH   5   6
HETATM    6  O   UNL     1      -9.028  13.733  67.353  1.00  0.00    -0.202 OA 
BRANCH   6   7
HETATM    7  C   UNL     1     -10.467  13.807  67.322  1.00  0.00    -0.264 C  
BRANCH   7   8
HETATM    8  C   UNL     1     -11.004  13.413  65.949  1.00  0.00    -0.284 A  
HETATM    9  C   UNL     1     -10.103  13.063  64.925  1.00  0.00    -0.233 A  
HETATM   10  C   UNL     1     -12.377  13.242  65.716  1.00  0.00    -0.505 A  
HETATM   11  C   UNL     1     -10.561  12.511  63.728  1.00  0.00    -0.471 A  
HETATM   12  C   UNL     1     -12.833  12.703  64.512  1.00  0.00    -0.356 A  
HETATM   13  C   UNL     1     -11.926  12.322  63.526  1.00  0.00    -0.625 A  
ENDBRANCH   7   8
BRANCH   7  14
HETATM   14  C   UNL     1     -11.034  12.985  68.484  1.00  0.00    -0.290 A  
HETATM   15  C   UNL     1     -12.409  12.892  70.505  1.00  0.00    -0.362 A  
HETATM   16  C   UNL     1     -11.903  13.596  69.412  1.00  0.00    -0.392 A  
HETATM   17  C   UNL     1     -11.218  10.931  69.778  1.00  0.00    -0.351 A  
HETATM   18  C   UNL     1     -10.714  11.618  68.662  1.00  0.00    -0.246 A  
HETATM   19  C   UNL     1     -12.055  11.563  70.695  1.00  0.00    -0.450 A  
HETATM   20  C   UNL     1      -9.866  10.858  67.676  1.00  0.00    -0.192 C  
ENDBRANCH   7  14
ENDBRANCH   6   7
ENDBRANCH   5   6
ENDBRANCH   4   5
ENDBRANCH   2   4
TORSDOF 6
ENDMDL
MODEL      106
REMARK 921   NORMALIZED FREE ENERGY PREDICTED BY IDOCK:   -4.05 KCAL/MOL
REMARK 922        TOTAL FREE ENERGY PREDICTED BY IDOCK:   -6.53 KCAL/MOL
REMARK 923 INTER-LIGAND FREE ENERGY PREDICTED BY IDOCK:   -5.64 KCAL/MOL
REMARK 924 INTRA-LIGAND FREE ENERGY PREDICTED BY IDOCK:   -0.89 KCAL/MOL
REMARK 927      BINDING AFFINITY PREDICTED BY RF-SCORE:    0.00 PKD
ROOT
HETATM    1  C   UNL     1     -11.486   9.230  71.609  1.00  0.00    -0.398 C  
HETATM    2  N   UNL     1     -12.432  10.106  70.915  1.00  0.00    -0.338 NA 
HETATM    3  C   UNL     1     -13.360  10.699  71.875  1.00  0.00    -0.349 C  
ENDROOT
BRANCH   2   4
HETATM    4  C   UNL     1     -11.690  11.128  70.156  1.00  0.00    -0.353 C  
BRANCH   4   5
HETATM    5  C   UNL     1     -11.227  10.693  68.752  1.00  0.00    -0.279 C  
BRANCH   5   6
HETATM    6  O   UNL     1     -10.426  11.677  68.085  1.00  0.00    -0.183 OA 
BRANCH   6   7
HETATM    7  C   UNL     1     -10.424  11.618  66.645  1.00  0.00    -0.233 C  
BRANCH   7   8
HETATM    8  C   UNL     1     -10.862  12.952  66.045  1.00  0.00    -0.300 A  
HETATM    9  C   UNL     1      -9.940  14.012  65.961  1.00  0.00    -0.331 A  
HETATM   10  C   UNL     1     -12.115  13.108  65.434  1.00  0.00    -0.478 A  
HETATM   11  C   UNL     1     -10.244  15.169  65.243  1.00  0.00    -0.400 A  
HETATM   12  C   UNL     1     -12.423  14.273  64.728  1.00  0.00    -0.390 A  
HETATM   13  C   UNL     1     -11.483  15.295  64.619  1.00  0.00    -0.356 A  
ENDBRANCH   7   8
BRANCH   7  14
HETATM   14  C   UNL     1      -9.056  11.126  66.167  1.00  0.00    -0.214 A  
HETATM   15  C   UNL     1      -6.688  10.737  66.645  1.00  0.00    -0.120 A  
HETATM   16  C   UNL     1      -7.959  11.141  67.053  1.00  0.00    -0.145 A  
HETATM   17  C   UNL     1      -7.558  10.264  64.451  1.00  0.00    -0.094 A  
HETATM   18  C   UNL     1      -8.848  10.649  64.850  1.00  0.00    -0.204 A  
HETATM   19  C   UNL     1      -6.485  10.312  65.339  1.00  0.00    -0.123 A  
HETATM   20  C   UNL     1      -9.975  10.514  63.860  1.00  0.00    -0.348 C  
ENDBRANCH   7  14
ENDBRANCH   6   7
ENDBRANCH   5   6
ENDBRANCH   4   5
ENDBRANCH   2   4
TORSDOF 6
ENDMDL
MODEL      107
REMARK 921   NORMALIZED FREE ENERGY PREDICTED BY IDOCK:   -4.03 KCAL/MOL
REMARK 922        TOTAL FREE ENERGY PREDICTED BY IDOCK:   -6.50 KCAL/MOL
REMARK 923 INTER-LIGAND FREE ENERGY PREDICTED BY IDOCK:   -5.59 KCAL/MOL
REMARK 924 INTRA-LIGAND FREE ENERGY PREDICTED BY IDOCK:   -0.91 KCAL/MOL
REMARK 927      BINDING AFFINITY PREDICTED BY RF-SCORE:    0.00 PKD
ROOT
HETATM    1  C   UNL     1      -7.144   8.050  67.207  1.00  0.00    -0.083 C  
HETATM    2  N   UNL     1      -7.987   8.974  67.967  1.00  0.00    -0.101 NA 
HETATM    3  C   UNL     1      -7.334   9.324  69.227  1.00  0.00    -0.070 C  
ENDROOT
BRANCH   2   4
HETATM    4  C   UNL     1      -8.281  10.162  67.146  1.00  0.00    -0.121 C  
BRANCH   4   5
HETATM    5  C   UNL     1      -9.731  10.675  67.234  1.00  0.00    -0.168 C  
BRANCH   5   6
HETATM    6  O   UNL     1      -9.968  11.524  68.363  1.00  0.00    -0.194 OA 
BRANCH   6   7
HETATM    7  C   UNL     1     -11.100  12.411  68.259  1.00  0.00    -0.243 C  
BRANCH   7   8
HETATM    8  C   UNL     1     -11.943  12.370  69.530  1.00  0.00    -0.324 A  
HETATM    9  C   UNL     1     -12.252  11.129  70.119  1.00  0.00    -0.417 A  
HETATM   10  C   UNL     1     -12.296  13.541  70.219  1.00  0.00    -0.370 A  
HETATM   11  C   UNL     1     -12.846  11.065  71.380  1.00  0.00    -0.548 A  
HETATM   12  C   UNL     1     -12.904  13.473  71.474  1.00  0.00    -0.440 A  
HETATM   13  C   UNL     1     -13.164  12.237  72.061  1.00  0.00    -0.508 A  
ENDBRANCH   7   8
BRANCH   7  14
HETATM   14  C   UNL     1     -10.606  13.808  67.871  1.00  0.00    -0.257 A  
HETATM   15  C   UNL     1      -9.020  15.638  68.219  1.00  0.00    -0.181 A  
HETATM   16  C   UNL     1      -9.478  14.354  68.517  1.00  0.00    -0.212 A  
HETATM   17  C   UNL     1     -10.785  15.878  66.600  1.00  0.00    -0.270 A  
HETATM   18  C   UNL     1     -11.248  14.581  66.873  1.00  0.00    -0.340 A  
HETATM   19  C   UNL     1      -9.683  16.405  67.271  1.00  0.00    -0.239 A  
HETATM   20  C   UNL     1     -12.405  14.049  66.069  1.00  0.00    -0.504 C  
ENDBRANCH   7  14
ENDBRANCH   6   7
ENDBRANCH   5   6
ENDBRANCH   4   5
ENDBRANCH   2   4
TORSDOF 6
ENDMDL
MODEL      108
REMARK 921   NORMALIZED FREE ENERGY PREDICTED BY IDOCK:   -4.03 KCAL/MOL
REMARK 922        TOTAL FREE ENERGY PREDICTED BY IDOCK:   -6.50 KCAL/MOL
REMARK 923 INTER-LIGAND FREE ENERGY PREDICTED BY IDOCK:   -6.07 KCAL/MOL
REMARK 924 INTRA-LIGAND FREE ENERGY PREDICTED BY IDOCK:   -0.43 KCAL/MOL
REMARK 927      BINDING AFFINITY PREDICTED BY RF-SCORE:    0.00 PKD
ROOT
HETATM    1  C   UNL     1     -12.799   9.908  71.590  1.00  0.00    -0.436 C  
HETATM    2  N   UNL     1     -11.356   9.708  71.445  1.00  0.00    -0.379 NA 
HETATM    3  C   UNL     1     -10.940   8.520  72.187  1.00  0.00    -0.357 C  
ENDROOT
BRANCH   2   4
HETATM    4  C   UNL     1     -11.013   9.617  70.015  1.00  0.00    -0.260 C  
BRANCH   4   5
HETATM    5  C   UNL     1     -11.587  10.741  69.131  1.00  0.00    -0.305 C  
BRANCH   5   6
HETATM    6  O   UNL     1     -10.898  10.894  67.884  1.00  0.00    -0.207 OA 
BRANCH   6   7
HETATM    7  C   UNL     1     -10.632  12.250  67.473  1.00  0.00    -0.218 C  
BRANCH   7   8
HETATM    8  C   UNL     1      -9.156  12.593  67.651  1.00  0.00    -0.192 A  
HETATM    9  C   UNL     1      -8.701  13.889  67.344  1.00  0.00    -0.208 A  
HETATM   10  C   UNL     1      -8.260  11.698  68.256  1.00  0.00    -0.156 A  
HETATM   11  C   UNL     1      -7.408  14.291  67.681  1.00  0.00    -0.192 A  
HETATM   12  C   UNL     1      -6.962  12.099  68.579  1.00  0.00    -0.091 A  
HETATM   13  C   UNL     1      -6.542  13.399  68.307  1.00  0.00    -0.105 A  
ENDBRANCH   7   8
BRANCH   7  14
HETATM   14  C   UNL     1     -11.164  12.455  66.052  1.00  0.00    -0.374 A  
HETATM   15  C   UNL     1     -12.527  13.762  64.496  1.00  0.00    -0.329 A  
HETATM   16  C   UNL     1     -11.991  13.562  65.768  1.00  0.00    -0.439 A  
HETATM   17  C   UNL     1     -11.416  11.769  63.729  1.00  0.00    -0.510 A  
HETATM   18  C   UNL     1     -10.853  11.562  64.998  1.00  0.00    -0.336 A  
HETATM   19  C   UNL     1     -12.251  12.857  63.480  1.00  0.00    -0.595 A  
HETATM   20  C   UNL     1      -9.910  10.402  65.183  1.00  0.00    -0.378 C  
ENDBRANCH   7  14
ENDBRANCH   6   7
ENDBRANCH   5   6
ENDBRANCH   4   5
ENDBRANCH   2   4
TORSDOF 6
ENDMDL
MODEL      109
REMARK 921   NORMALIZED FREE ENERGY PREDICTED BY IDOCK:   -4.03 KCAL/MOL
REMARK 922        TOTAL FREE ENERGY PREDICTED BY IDOCK:   -6.50 KCAL/MOL
REMARK 923 INTER-LIGAND FREE ENERGY PREDICTED BY IDOCK:   -5.66 KCAL/MOL
REMARK 924 INTRA-LIGAND FREE ENERGY PREDICTED BY IDOCK:   -0.83 KCAL/MOL
REMARK 927      BINDING AFFINITY PREDICTED BY RF-SCORE:    0.00 PKD
ROOT
HETATM    1  C   UNL     1      -6.688   8.280  73.153  1.00  0.00    -0.103 C  
HETATM    2  N   UNL     1      -7.448   7.062  72.867  1.00  0.00    -0.080 NA 
HETATM    3  C   UNL     1      -7.427   6.175  74.028  1.00  0.00    -0.087 C  
ENDROOT
BRANCH   2   4
HETATM    4  C   UNL     1      -8.821   7.420  72.468  1.00  0.00    -0.128 C  
BRANCH   4   5
HETATM    5  C   UNL     1      -8.971   8.804  71.809  1.00  0.00    -0.212 C  
BRANCH   5   6
HETATM    6  O   UNL     1      -9.635   8.763  70.540  1.00  0.00    -0.171 OA 
BRANCH   6   7
HETATM    7  C   UNL     1     -10.720   9.696  70.365  1.00  0.00    -0.298 C  
BRANCH   7   8
HETATM    8  C   UNL     1     -10.850  10.114  68.903  1.00  0.00    -0.256 A  
HETATM    9  C   UNL     1     -11.537  11.297  68.577  1.00  0.00    -0.384 A  
HETATM   10  C   UNL     1     -10.172   9.432  67.880  1.00  0.00    -0.259 A  
HETATM   11  C   UNL     1     -11.503  11.809  67.279  1.00  0.00    -0.373 A  
HETATM   12  C   UNL     1     -10.152   9.939  66.579  1.00  0.00    -0.298 A  
HETATM   13  C   UNL     1     -10.802  11.135  66.283  1.00  0.00    -0.266 A  
ENDBRANCH   7   8
BRANCH   7  14
HETATM   14  C   UNL     1     -11.994   9.098  70.970  1.00  0.00    -0.344 A  
HETATM   15  C   UNL     1     -13.377   7.128  71.409  1.00  0.00    -0.380 A  
HETATM   16  C   UNL     1     -12.212   7.706  70.905  1.00  0.00    -0.194 A  
HETATM   17  C   UNL     1     -14.149   9.306  72.085  1.00  0.00    -0.354 A  
HETATM   18  C   UNL     1     -12.975   9.902  71.600  1.00  0.00    -0.536 A  
HETATM   19  C   UNL     1     -14.352   7.930  71.986  1.00  0.00    -0.490 A  
HETATM   20  C   UNL     1     -12.791  11.385  71.794  1.00  0.00    -0.449 C  
ENDBRANCH   7  14
ENDBRANCH   6   7
ENDBRANCH   5   6
ENDBRANCH   4   5
ENDBRANCH   2   4
TORSDOF 6
ENDMDL
MODEL      110
REMARK 921   NORMALIZED FREE ENERGY PREDICTED BY IDOCK:   -4.02 KCAL/MOL
REMARK 922        TOTAL FREE ENERGY PREDICTED BY IDOCK:   -6.48 KCAL/MOL
REMARK 923 INTER-LIGAND FREE ENERGY PREDICTED BY IDOCK:   -5.71 KCAL/MOL
REMARK 924 INTRA-LIGAND FREE ENERGY PREDICTED BY IDOCK:   -0.77 KCAL/MOL
REMARK 927      BINDING AFFINITY PREDICTED BY RF-SCORE:    0.00 PKD
ROOT
HETATM    1  C   UNL     1     -11.007  11.833  64.295  1.00  0.00    -0.359 C  
HETATM    2  N   UNL     1     -11.788  12.673  65.204  1.00  0.00    -0.374 NA 
HETATM    3  C   UNL     1     -11.463  12.344  66.591  1.00  0.00    -0.370 C  
ENDROOT
BRANCH   2   4
HETATM    4  C   UNL     1     -11.540  14.093  64.898  1.00  0.00    -0.379 C  
BRANCH   4   5
HETATM    5  C   UNL     1     -11.106  14.955  66.099  1.00  0.00    -0.335 C  
BRANCH   5   6
HETATM    6  O   UNL     1      -9.931  15.735  65.846  1.00  0.00    -0.301 OA 
BRANCH   6   7
HETATM    7  C   UNL     1      -9.307  16.329  67.002  1.00  0.00    -0.221 C  
BRANCH   7   8
HETATM    8  C   UNL     1      -8.353  15.344  67.672  1.00  0.00    -0.174 A  
HETATM    9  C   UNL     1      -7.866  15.617  68.963  1.00  0.00    -0.204 A  
HETATM   10  C   UNL     1      -8.063  14.095  67.100  1.00  0.00    -0.139 A  
HETATM   11  C   UNL     1      -7.157  14.651  69.679  1.00  0.00    -0.125 A  
HETATM   12  C   UNL     1      -7.341  13.136  67.812  1.00  0.00    -0.143 A  
HETATM   13  C   UNL     1      -6.903  13.408  69.107  1.00  0.00    -0.076 A  
ENDBRANCH   7   8
BRANCH   7  14
HETATM   14  C   UNL     1      -8.665  17.658  66.595  1.00  0.00    -0.286 A  
HETATM   15  C   UNL     1      -6.717  18.864  65.737  1.00  0.00    -0.303 A  
HETATM   16  C   UNL     1      -7.351  17.671  66.082  1.00  0.00    -0.344 A  
HETATM   17  C   UNL     1      -8.689  20.084  66.383  1.00  0.00    -0.364 A  
HETATM   18  C   UNL     1      -9.350  18.891  66.717  1.00  0.00    -0.343 A  
HETATM   19  C   UNL     1      -7.382  20.072  65.901  1.00  0.00    -0.327 A  
HETATM   20  C   UNL     1     -10.783  18.969  67.173  1.00  0.00    -0.541 C  
ENDBRANCH   7  14
ENDBRANCH   6   7
ENDBRANCH   5   6
ENDBRANCH   4   5
ENDBRANCH   2   4
TORSDOF 6
ENDMDL
MODEL      111
REMARK 921   NORMALIZED FREE ENERGY PREDICTED BY IDOCK:   -4.00 KCAL/MOL
REMARK 922        TOTAL FREE ENERGY PREDICTED BY IDOCK:   -6.46 KCAL/MOL
REMARK 923 INTER-LIGAND FREE ENERGY PREDICTED BY IDOCK:   -5.36 KCAL/MOL
REMARK 924 INTRA-LIGAND FREE ENERGY PREDICTED BY IDOCK:   -1.09 KCAL/MOL
REMARK 927      BINDING AFFINITY PREDICTED BY RF-SCORE:    0.00 PKD
ROOT
HETATM    1  C   UNL     1     -12.029  14.600  69.014  1.00  0.00    -0.283 C  
HETATM    2  N   UNL     1     -11.914  13.147  68.884  1.00  0.00    -0.306 NA 
HETATM    3  C   UNL     1     -10.704  12.806  68.138  1.00  0.00    -0.226 C  
ENDROOT
BRANCH   2   4
HETATM    4  C   UNL     1     -11.933  12.529  70.222  1.00  0.00    -0.283 C  
BRANCH   4   5
HETATM    5  C   UNL     1     -12.478  11.089  70.270  1.00  0.00    -0.285 C  
BRANCH   5   6
HETATM    6  O   UNL     1     -11.631  10.182  70.988  1.00  0.00    -0.349 OA 
BRANCH   6   7
HETATM    7  C   UNL     1     -11.202   9.012  70.264  1.00  0.00    -0.205 C  
BRANCH   7   8
HETATM    8  C   UNL     1     -10.028   9.339  69.347  1.00  0.00    -0.184 A  
HETATM    9  C   UNL     1     -10.167   9.178  67.955  1.00  0.00    -0.258 A  
HETATM   10  C   UNL     1      -8.858   9.942  69.835  1.00  0.00    -0.222 A  
HETATM   11  C   UNL     1      -9.190   9.654  67.080  1.00  0.00    -0.167 A  
HETATM   12  C   UNL     1      -7.875  10.404  68.957  1.00  0.00    -0.120 A  
HETATM   13  C   UNL     1      -8.049  10.275  67.581  1.00  0.00    -0.106 A  
ENDBRANCH   7   8
BRANCH   7  14
HETATM   14  C   UNL     1     -10.934   7.879  71.259  1.00  0.00    -0.266 A  
HETATM   15  C   UNL     1     -10.402   7.184  73.543  1.00  0.00    -0.412 A  
HETATM   16  C   UNL     1     -10.688   8.184  72.614  1.00  0.00    -0.421 A  
HETATM   17  C   UNL     1     -10.614   5.528  71.809  1.00  0.00    -0.296 A  
HETATM   18  C   UNL     1     -10.923   6.520  70.864  1.00  0.00    -0.325 A  
HETATM   19  C   UNL     1     -10.351   5.857  73.137  1.00  0.00    -0.230 A  
HETATM   20  C   UNL     1     -11.259   6.091  69.459  1.00  0.00    -0.416 C  
ENDBRANCH   7  14
ENDBRANCH   6   7
ENDBRANCH   5   6
ENDBRANCH   4   5
ENDBRANCH   2   4
TORSDOF 6
ENDMDL
MODEL      112
REMARK 921   NORMALIZED FREE ENERGY PREDICTED BY IDOCK:   -4.00 KCAL/MOL
REMARK 922        TOTAL FREE ENERGY PREDICTED BY IDOCK:   -6.45 KCAL/MOL
REMARK 923 INTER-LIGAND FREE ENERGY PREDICTED BY IDOCK:   -6.10 KCAL/MOL
REMARK 924 INTRA-LIGAND FREE ENERGY PREDICTED BY IDOCK:   -0.35 KCAL/MOL
REMARK 927      BINDING AFFINITY PREDICTED BY RF-SCORE:    0.00 PKD
ROOT
HETATM    1  C   UNL     1      -6.227  15.803  68.221  1.00  0.00    -0.114 C  
HETATM    2  N   UNL     1      -6.279  14.341  68.256  1.00  0.00    -0.105 NA 
HETATM    3  C   UNL     1      -6.045  13.865  69.618  1.00  0.00    -0.119 C  
ENDROOT
BRANCH   2   4
HETATM    4  C   UNL     1      -7.572  13.880  67.722  1.00  0.00    -0.169 C  
BRANCH   4   5
HETATM    5  C   UNL     1      -8.815  14.460  68.425  1.00  0.00    -0.182 C  
BRANCH   5   6
HETATM    6  O   UNL     1     -10.046  13.883  67.974  1.00  0.00    -0.231 OA 
BRANCH   6   7
HETATM    7  C   UNL     1     -10.023  12.464  67.722  1.00  0.00    -0.205 C  
BRANCH   7   8
HETATM    8  C   UNL     1     -10.794  11.707  68.799  1.00  0.00    -0.262 A  
HETATM    9  C   UNL     1     -10.425  10.387  69.121  1.00  0.00    -0.248 A  
HETATM   10  C   UNL     1     -11.768  12.338  69.588  1.00  0.00    -0.386 A  
HETATM   11  C   UNL     1     -10.975   9.742  70.230  1.00  0.00    -0.352 A  
HETATM   12  C   UNL     1     -12.327  11.684  70.688  1.00  0.00    -0.437 A  
HETATM   13  C   UNL     1     -11.919  10.394  71.018  1.00  0.00    -0.481 A  
ENDBRANCH   7   8
BRANCH   7  14
HETATM   14  C   UNL     1     -10.507  12.202  66.293  1.00  0.00    -0.270 A  
HETATM   15  C   UNL     1     -10.251  10.983  64.187  1.00  0.00    -0.419 A  
HETATM   16  C   UNL     1      -9.865  11.224  65.506  1.00  0.00    -0.274 A  
HETATM   17  C   UNL     1     -11.952  12.673  64.390  1.00  0.00    -0.469 A  
HETATM   18  C   UNL     1     -11.590  12.916  65.724  1.00  0.00    -0.411 A  
HETATM   19  C   UNL     1     -11.285  11.718  63.625  1.00  0.00    -0.519 A  
HETATM   20  C   UNL     1     -12.391  13.917  66.514  1.00  0.00    -0.447 C  
ENDBRANCH   7  14
ENDBRANCH   6   7
ENDBRANCH   5   6
ENDBRANCH   4   5
ENDBRANCH   2   4
TORSDOF 6
ENDMDL
MODEL      113
REMARK 921   NORMALIZED FREE ENERGY PREDICTED BY IDOCK:   -3.99 KCAL/MOL
REMARK 922        TOTAL FREE ENERGY PREDICTED BY IDOCK:   -6.45 KCAL/MOL
REMARK 923 INTER-LIGAND FREE ENERGY PREDICTED BY IDOCK:   -6.16 KCAL/MOL
REMARK 924 INTRA-LIGAND FREE ENERGY PREDICTED BY IDOCK:   -0.28 KCAL/MOL
REMARK 927      BINDING AFFINITY PREDICTED BY RF-SCORE:    0.00 PKD
ROOT
HETATM    1  C   UNL     1     -12.129  12.314  63.757  1.00  0.00    -0.532 C  
HETATM    2  N   UNL     1     -11.700  13.372  64.673  1.00  0.00    -0.355 NA 
HETATM    3  C   UNL     1     -12.245  14.658  64.242  1.00  0.00    -0.408 C  
ENDROOT
BRANCH   2   4
HETATM    4  C   UNL     1     -12.108  13.029  66.047  1.00  0.00    -0.432 C  
BRANCH   4   5
HETATM    5  C   UNL     1     -12.000  14.178  67.068  1.00  0.00    -0.439 C  
BRANCH   5   6
HETATM    6  O   UNL     1     -10.687  14.328  67.621  1.00  0.00    -0.254 OA 
BRANCH   6   7
HETATM    7  C   UNL     1      -9.781  15.167  66.876  1.00  0.00    -0.239 C  
BRANCH   7   8
HETATM    8  C   UNL     1     -10.165  16.638  67.012  1.00  0.00    -0.290 A  
HETATM    9  C   UNL     1     -10.244  17.220  68.291  1.00  0.00    -0.348 A  
HETATM   10  C   UNL     1     -10.295  17.472  65.891  1.00  0.00    -0.265 A  
HETATM   11  C   UNL     1     -10.395  18.599  68.440  1.00  0.00    -0.356 A  
HETATM   12  C   UNL     1     -10.460  18.850  66.043  1.00  0.00    -0.507 A  
HETATM   13  C   UNL     1     -10.494  19.415  67.316  1.00  0.00    -0.579 A  
ENDBRANCH   7   8
BRANCH   7  14
HETATM   14  C   UNL     1      -8.344  14.845  67.295  1.00  0.00    -0.233 A  
HETATM   15  C   UNL     1      -6.157  15.639  68.050  1.00  0.00    -0.150 A  
HETATM   16  C   UNL     1      -7.484  15.887  67.699  1.00  0.00    -0.174 A  
HETATM   17  C   UNL     1      -6.496  13.294  67.629  1.00  0.00    -0.167 A  
HETATM   18  C   UNL     1      -7.839  13.522  67.291  1.00  0.00    -0.106 A  
HETATM   19  C   UNL     1      -5.660  14.344  68.002  1.00  0.00    -0.128 A  
HETATM   20  C   UNL     1      -8.706  12.335  66.958  1.00  0.00    -0.199 C  
ENDBRANCH   7  14
ENDBRANCH   6   7
ENDBRANCH   5   6
ENDBRANCH   4   5
ENDBRANCH   2   4
TORSDOF 6
ENDMDL
MODEL      114
REMARK 921   NORMALIZED FREE ENERGY PREDICTED BY IDOCK:   -3.97 KCAL/MOL
REMARK 922        TOTAL FREE ENERGY PREDICTED BY IDOCK:   -6.42 KCAL/MOL
REMARK 923 INTER-LIGAND FREE ENERGY PREDICTED BY IDOCK:   -5.48 KCAL/MOL
REMARK 924 INTRA-LIGAND FREE ENERGY PREDICTED BY IDOCK:   -0.93 KCAL/MOL
REMARK 927      BINDING AFFINITY PREDICTED BY RF-SCORE:    0.00 PKD
ROOT
HETATM    1  C   UNL     1      -8.460   9.207  65.014  1.00  0.00    -0.171 C  
HETATM    2  N   UNL     1      -9.102   9.480  66.301  1.00  0.00    -0.155 NA 
HETATM    3  C   UNL     1      -9.887   8.322  66.723  1.00  0.00    -0.263 C  
ENDROOT
BRANCH   2   4
HETATM    4  C   UNL     1      -8.079   9.849  67.294  1.00  0.00    -0.113 C  
BRANCH   4   5
HETATM    5  C   UNL     1      -8.072  11.333  67.708  1.00  0.00    -0.119 C  
BRANCH   5   6
HETATM    6  O   UNL     1      -8.278  12.232  66.611  1.00  0.00    -0.105 OA 
BRANCH   6   7
HETATM    7  C   UNL     1      -9.395  13.134  66.736  1.00  0.00    -0.244 C  
BRANCH   7   8
HETATM    8  C   UNL     1      -8.926  14.586  66.737  1.00  0.00    -0.270 A  
HETATM    9  C   UNL     1      -9.672  15.558  66.045  1.00  0.00    -0.378 A  
HETATM   10  C   UNL     1      -7.852  15.012  67.535  1.00  0.00    -0.203 A  
HETATM   11  C   UNL     1      -9.384  16.916  66.190  1.00  0.00    -0.268 A  
HETATM   12  C   UNL     1      -7.558  16.370  67.666  1.00  0.00    -0.161 A  
HETATM   13  C   UNL     1      -8.333  17.322  67.008  1.00  0.00    -0.231 A  
ENDBRANCH   7   8
BRANCH   7  14
HETATM   14  C   UNL     1     -10.428  12.802  65.655  1.00  0.00    -0.297 A  
HETATM   15  C   UNL     1     -10.903  12.043  63.378  1.00  0.00    -0.471 A  
HETATM   16  C   UNL     1      -9.996  12.321  64.401  1.00  0.00    -0.231 A  
HETATM   17  C   UNL     1     -12.714  12.695  64.823  1.00  0.00    -0.460 A  
HETATM   18  C   UNL     1     -11.818  12.961  65.870  1.00  0.00    -0.476 A  
HETATM   19  C   UNL     1     -12.261  12.245  63.584  1.00  0.00    -0.665 A  
HETATM   20  C   UNL     1     -12.379  13.386  67.202  1.00  0.00    -0.198 C  
ENDBRANCH   7  14
ENDBRANCH   6   7
ENDBRANCH   5   6
ENDBRANCH   4   5
ENDBRANCH   2   4
TORSDOF 6
ENDMDL
MODEL      115
REMARK 921   NORMALIZED FREE ENERGY PREDICTED BY IDOCK:   -3.96 KCAL/MOL
REMARK 922        TOTAL FREE ENERGY PREDICTED BY IDOCK:   -6.41 KCAL/MOL
REMARK 923 INTER-LIGAND FREE ENERGY PREDICTED BY IDOCK:   -5.91 KCAL/MOL
REMARK 924 INTRA-LIGAND FREE ENERGY PREDICTED BY IDOCK:   -0.50 KCAL/MOL
REMARK 927      BINDING AFFINITY PREDICTED BY RF-SCORE:    0.00 PKD
ROOT
HETATM    1  C   UNL     1     -12.598  13.803  64.667  1.00  0.00    -0.246 C  
HETATM    2  N   UNL     1     -11.226  13.326  64.483  1.00  0.00    -0.346 NA 
HETATM    3  C   UNL     1     -10.291  14.223  65.158  1.00  0.00    -0.415 C  
ENDROOT
BRANCH   2   4
HETATM    4  C   UNL     1     -11.117  11.940  64.971  1.00  0.00    -0.305 C  
BRANCH   4   5
HETATM    5  C   UNL     1     -10.847  11.797  66.481  1.00  0.00    -0.282 C  
BRANCH   5   6
HETATM    6  O   UNL     1     -12.035  11.594  67.256  1.00  0.00    -0.627 OA 
BRANCH   6   7
HETATM    7  C   UNL     1     -11.867  10.866  68.489  1.00  0.00    -0.166 C  
BRANCH   7   8
HETATM    8  C   UNL     1     -10.485  10.222  68.557  1.00  0.00    -0.217 A  
HETATM    9  C   UNL     1      -9.447  10.877  69.246  1.00  0.00    -0.048 A  
HETATM   10  C   UNL     1     -10.254   8.922  68.082  1.00  0.00    -0.245 A  
HETATM   11  C   UNL     1      -8.236  10.230  69.496  1.00  0.00    -0.165 A  
HETATM   12  C   UNL     1      -9.036   8.282  68.322  1.00  0.00    -0.135 A  
HETATM   13  C   UNL     1      -8.035   8.929  69.042  1.00  0.00    -0.106 A  
ENDBRANCH   7   8
BRANCH   7  14
HETATM   14  C   UNL     1     -12.196  11.790  69.664  1.00  0.00    -0.248 A  
HETATM   15  C   UNL     1     -12.257  14.053  70.593  1.00  0.00    -0.442 A  
HETATM   16  C   UNL     1     -12.006  13.182  69.533  1.00  0.00    -0.354 A  
HETATM   17  C   UNL     1     -12.919  12.183  71.956  1.00  0.00    -0.377 A  
HETATM   18  C   UNL     1     -12.690  11.294  70.895  1.00  0.00    -0.412 A  
HETATM   19  C   UNL     1     -12.700  13.551  71.809  1.00  0.00    -0.340 A  
HETATM   20  C   UNL     1     -13.006   9.835  71.100  1.00  0.00    -0.431 C  
ENDBRANCH   7  14
ENDBRANCH   6   7
ENDBRANCH   5   6
ENDBRANCH   4   5
ENDBRANCH   2   4
TORSDOF 6
ENDMDL
MODEL      116
REMARK 921   NORMALIZED FREE ENERGY PREDICTED BY IDOCK:   -3.95 KCAL/MOL
REMARK 922        TOTAL FREE ENERGY PREDICTED BY IDOCK:   -6.38 KCAL/MOL
REMARK 923 INTER-LIGAND FREE ENERGY PREDICTED BY IDOCK:   -5.50 KCAL/MOL
REMARK 924 INTRA-LIGAND FREE ENERGY PREDICTED BY IDOCK:   -0.89 KCAL/MOL
REMARK 927      BINDING AFFINITY PREDICTED BY RF-SCORE:    0.00 PKD
ROOT
HETATM    1  C   UNL     1      -7.914   5.936  73.946  1.00  0.00    -0.102 C  
HETATM    2  N   UNL     1      -8.691   4.706  73.783  1.00  0.00    -0.106 NA 
HETATM    3  C   UNL     1      -8.090   3.628  74.566  1.00  0.00    -0.081 C  
ENDROOT
BRANCH   2   4
HETATM    4  C   UNL     1     -10.093   4.955  74.166  1.00  0.00    -0.212 C  
BRANCH   4   5
HETATM    5  C   UNL     1     -11.145   4.234  73.302  1.00  0.00    -0.249 C  
BRANCH   5   6
HETATM    6  O   UNL     1     -11.835   5.106  72.398  1.00  0.00    -0.000 OA 
BRANCH   6   7
HETATM    7  C   UNL     1     -11.038   6.143  71.791  1.00  0.00    -0.274 C  
BRANCH   7   8
HETATM    8  C   UNL     1     -10.516   5.701  70.427  1.00  0.00    -0.355 A  
HETATM    9  C   UNL     1      -9.516   4.714  70.353  1.00  0.00    -0.241 A  
HETATM   10  C   UNL     1     -11.110   6.140  69.233  1.00  0.00    -0.463 A  
HETATM   11  C   UNL     1      -9.161   4.147  69.128  1.00  0.00    -0.191 A  
HETATM   12  C   UNL     1     -10.742   5.581  68.008  1.00  0.00    -0.165 A  
HETATM   13  C   UNL     1      -9.781   4.575  67.957  1.00  0.00    -0.192 A  
ENDBRANCH   7   8
BRANCH   7  14
HETATM   14  C   UNL     1     -11.845   7.445  71.770  1.00  0.00    -0.327 A  
HETATM   15  C   UNL     1     -14.025   8.555  71.747  1.00  0.00    -0.491 A  
HETATM   16  C   UNL     1     -13.254   7.394  71.803  1.00  0.00    -0.371 A  
HETATM   17  C   UNL     1     -12.013   9.871  71.642  1.00  0.00    -0.427 A  
HETATM   18  C   UNL     1     -11.221   8.715  71.717  1.00  0.00    -0.396 A  
HETATM   19  C   UNL     1     -13.404   9.793  71.652  1.00  0.00    -0.487 A  
HETATM   20  C   UNL     1      -9.723   8.873  71.765  1.00  0.00    -0.365 C  
ENDBRANCH   7  14
ENDBRANCH   6   7
ENDBRANCH   5   6
ENDBRANCH   4   5
ENDBRANCH   2   4
TORSDOF 6
ENDMDL
MODEL      117
REMARK 921   NORMALIZED FREE ENERGY PREDICTED BY IDOCK:   -3.94 KCAL/MOL
REMARK 922        TOTAL FREE ENERGY PREDICTED BY IDOCK:   -6.38 KCAL/MOL
REMARK 923 INTER-LIGAND FREE ENERGY PREDICTED BY IDOCK:   -5.25 KCAL/MOL
REMARK 924 INTRA-LIGAND FREE ENERGY PREDICTED BY IDOCK:   -1.13 KCAL/MOL
REMARK 927      BINDING AFFINITY PREDICTED BY RF-SCORE:    0.00 PKD
ROOT
HETATM    1  C   UNL     1      -7.944   6.167  67.460  1.00  0.00    -0.106 C  
HETATM    2  N   UNL     1      -8.793   6.473  66.308  1.00  0.00    -0.143 NA 
HETATM    3  C   UNL     1      -8.672   5.418  65.303  1.00  0.00    -0.145 C  
ENDROOT
BRANCH   2   4
HETATM    4  C   UNL     1     -10.185   6.655  66.756  1.00  0.00    -0.195 C  
BRANCH   4   5
HETATM    5  C   UNL     1     -10.577   8.104  67.103  1.00  0.00    -0.285 C  
BRANCH   5   6
HETATM    6  O   UNL     1     -10.170   9.058  66.113  1.00  0.00    -0.267 OA 
BRANCH   6   7
HETATM    7  C   UNL     1      -9.939  10.399  66.587  1.00  0.00    -0.210 C  
BRANCH   7   8
HETATM    8  C   UNL     1      -8.444  10.695  66.675  1.00  0.00    -0.137 A  
HETATM    9  C   UNL     1      -7.526   9.827  66.055  1.00  0.00    -0.102 A  
HETATM   10  C   UNL     1      -7.962  11.891  67.228  1.00  0.00    -0.171 A  
HETATM   11  C   UNL     1      -6.178  10.171  65.946  1.00  0.00    -0.096 A  
HETATM   12  C   UNL     1      -6.610  12.227  67.130  1.00  0.00    -0.109 A  
HETATM   13  C   UNL     1      -5.722  11.376  66.476  1.00  0.00    -0.142 A  
ENDBRANCH   7   8
BRANCH   7  14
HETATM   14  C   UNL     1     -10.730  11.380  65.717  1.00  0.00    -0.309 A  
HETATM   15  C   UNL     1     -11.331  12.182  63.485  1.00  0.00    -0.535 A  
HETATM   16  C   UNL     1     -10.656  11.283  64.312  1.00  0.00    -0.422 A  
HETATM   17  C   UNL     1     -12.200  13.300  65.431  1.00  0.00    -0.501 A  
HETATM   18  C   UNL     1     -11.543  12.394  66.279  1.00  0.00    -0.449 A  
HETATM   19  C   UNL     1     -12.091  13.199  64.046  1.00  0.00    -0.511 A  
HETATM   20  C   UNL     1     -11.752  12.522  67.765  1.00  0.00    -0.419 C  
ENDBRANCH   7  14
ENDBRANCH   6   7
ENDBRANCH   5   6
ENDBRANCH   4   5
ENDBRANCH   2   4
TORSDOF 6
ENDMDL
MODEL      118
REMARK 921   NORMALIZED FREE ENERGY PREDICTED BY IDOCK:   -3.94 KCAL/MOL
REMARK 922        TOTAL FREE ENERGY PREDICTED BY IDOCK:   -6.37 KCAL/MOL
REMARK 923 INTER-LIGAND FREE ENERGY PREDICTED BY IDOCK:   -5.37 KCAL/MOL
REMARK 924 INTRA-LIGAND FREE ENERGY PREDICTED BY IDOCK:   -1.00 KCAL/MOL
REMARK 927      BINDING AFFINITY PREDICTED BY RF-SCORE:    0.00 PKD
ROOT
HETATM    1  C   UNL     1     -10.655   7.215  69.027  1.00  0.00    -0.210 C  
HETATM    2  N   UNL     1     -10.915   8.223  70.057  1.00  0.00    -0.232 NA 
HETATM    3  C   UNL     1     -10.377   7.776  71.340  1.00  0.00    -0.197 C  
ENDROOT
BRANCH   2   4
HETATM    4  C   UNL     1     -10.346   9.515  69.636  1.00  0.00    -0.221 C  
BRANCH   4   5
HETATM    5  C   UNL     1     -11.016  10.156  68.406  1.00  0.00    -0.244 C  
BRANCH   5   6
HETATM    6  O   UNL     1     -10.081  10.628  67.428  1.00  0.00    -0.182 OA 
BRANCH   6   7
HETATM    7  C   UNL     1     -10.130  12.039  67.136  1.00  0.00    -0.201 C  
BRANCH   7   8
HETATM    8  C   UNL     1      -8.745  12.668  67.253  1.00  0.00    -0.198 A  
HETATM    9  C   UNL     1      -8.620  14.069  67.299  1.00  0.00    -0.228 A  
HETATM   10  C   UNL     1      -7.598  11.888  67.470  1.00  0.00    -0.140 A  
HETATM   11  C   UNL     1      -7.396  14.667  67.604  1.00  0.00    -0.204 A  
HETATM   12  C   UNL     1      -6.372  12.490  67.760  1.00  0.00    -0.121 A  
HETATM   13  C   UNL     1      -6.275  13.877  67.844  1.00  0.00    -0.164 A  
ENDBRANCH   7   8
BRANCH   7  14
HETATM   14  C   UNL     1     -10.808  12.245  65.779  1.00  0.00    -0.313 A  
HETATM   15  C   UNL     1     -11.023  11.601  63.428  1.00  0.00    -0.442 A  
HETATM   16  C   UNL     1     -10.456  11.420  64.690  1.00  0.00    -0.373 A  
HETATM   17  C   UNL     1     -12.335  13.425  64.293  1.00  0.00    -0.396 A  
HETATM   18  C   UNL     1     -11.789  13.245  65.574  1.00  0.00    -0.405 A  
HETATM   19  C   UNL     1     -11.952  12.613  63.227  1.00  0.00    -0.526 A  
HETATM   20  C   UNL     1     -12.292  14.116  66.695  1.00  0.00    -0.375 C  
ENDBRANCH   7  14
ENDBRANCH   6   7
ENDBRANCH   5   6
ENDBRANCH   4   5
ENDBRANCH   2   4
TORSDOF 6
ENDMDL
MODEL      119
REMARK 921   NORMALIZED FREE ENERGY PREDICTED BY IDOCK:   -3.91 KCAL/MOL
REMARK 922        TOTAL FREE ENERGY PREDICTED BY IDOCK:   -6.34 KCAL/MOL
REMARK 923 INTER-LIGAND FREE ENERGY PREDICTED BY IDOCK:   -6.11 KCAL/MOL
REMARK 924 INTRA-LIGAND FREE ENERGY PREDICTED BY IDOCK:   -0.23 KCAL/MOL
REMARK 927      BINDING AFFINITY PREDICTED BY RF-SCORE:    0.00 PKD
ROOT
HETATM    1  C   UNL     1      -8.865   9.423  70.511  1.00  0.00    -0.239 C  
HETATM    2  N   UNL     1      -7.591  10.081  70.218  1.00  0.00    -0.219 NA 
HETATM    3  C   UNL     1      -6.585   9.083  69.859  1.00  0.00    -0.042 C  
ENDROOT
BRANCH   2   4
HETATM    4  C   UNL     1      -7.786  11.080  69.153  1.00  0.00    -0.102 C  
BRANCH   4   5
HETATM    5  C   UNL     1      -8.404  10.537  67.850  1.00  0.00    -0.115 C  
BRANCH   5   6
HETATM    6  O   UNL     1      -9.769  10.930  67.660  1.00  0.00    -0.168 OA 
BRANCH   6   7
HETATM    7  C   UNL     1      -9.980  12.295  67.247  1.00  0.00    -0.204 C  
BRANCH   7   8
HETATM    8  C   UNL     1     -10.708  12.352  65.907  1.00  0.00    -0.299 A  
HETATM    9  C   UNL     1     -10.141  11.727  64.781  1.00  0.00    -0.302 A  
HETATM   10  C   UNL     1     -12.004  12.881  65.795  1.00  0.00    -0.496 A  
HETATM   11  C   UNL     1     -10.868  11.590  63.598  1.00  0.00    -0.488 A  
HETATM   12  C   UNL     1     -12.723  12.754  64.605  1.00  0.00    -0.439 A  
HETATM   13  C   UNL     1     -12.163  12.095  63.513  1.00  0.00    -0.670 A  
ENDBRANCH   7   8
BRANCH   7  14
HETATM   14  C   UNL     1     -10.675  13.057  68.379  1.00  0.00    -0.273 A  
HETATM   15  C   UNL     1     -10.980  15.146  69.615  1.00  0.00    -0.291 A  
HETATM   16  C   UNL     1     -10.398  14.427  68.572  1.00  0.00    -0.248 A  
HETATM   17  C   UNL     1     -12.160  13.165  70.307  1.00  0.00    -0.399 A  
HETATM   18  C   UNL     1     -11.598  12.430  69.251  1.00  0.00    -0.379 A  
HETATM   19  C   UNL     1     -11.850  14.512  70.491  1.00  0.00    -0.372 A  
HETATM   20  C   UNL     1     -12.022  10.996  69.071  1.00  0.00    -0.364 C  
ENDBRANCH   7  14
ENDBRANCH   6   7
ENDBRANCH   5   6
ENDBRANCH   4   5
ENDBRANCH   2   4
TORSDOF 6
ENDMDL
MODEL      120
REMARK 921   NORMALIZED FREE ENERGY PREDICTED BY IDOCK:   -3.89 KCAL/MOL
REMARK 922        TOTAL FREE ENERGY PREDICTED BY IDOCK:   -6.31 KCAL/MOL
REMARK 923 INTER-LIGAND FREE ENERGY PREDICTED BY IDOCK:   -5.52 KCAL/MOL
REMARK 924 INTRA-LIGAND FREE ENERGY PREDICTED BY IDOCK:   -0.79 KCAL/MOL
REMARK 927      BINDING AFFINITY PREDICTED BY RF-SCORE:    0.00 PKD
ROOT
HETATM    1  C   UNL     1      -8.009   7.370  67.858  1.00  0.00    -0.119 C  
HETATM    2  N   UNL     1      -8.933   7.699  66.772  1.00  0.00    -0.137 NA 
HETATM    3  C   UNL     1      -9.717   6.521  66.409  1.00  0.00    -0.079 C  
ENDROOT
BRANCH   2   4
HETATM    4  C   UNL     1      -9.786   8.830  67.177  1.00  0.00    -0.207 C  
BRANCH   4   5
HETATM    5  C   UNL     1      -9.038  10.028  67.793  1.00  0.00    -0.131 C  
BRANCH   5   6
HETATM    6  O   UNL     1      -9.658  10.540  68.979  1.00  0.00    -0.187 OA 
BRANCH   6   7
HETATM    7  C   UNL     1     -11.086  10.723  68.915  1.00  0.00    -0.253 C  
BRANCH   7   8
HETATM    8  C   UNL     1     -11.774  10.053  70.101  1.00  0.00    -0.285 A  
HETATM    9  C   UNL     1     -11.036   9.201  70.943  1.00  0.00    -0.349 A  
HETATM   10  C   UNL     1     -13.089  10.380  70.470  1.00  0.00    -0.203 A  
HETATM   11  C   UNL     1     -11.578   8.734  72.141  1.00  0.00    -0.434 A  
HETATM   12  C   UNL     1     -13.633   9.900  71.663  1.00  0.00    -0.340 A  
HETATM   13  C   UNL     1     -12.873   9.092  72.505  1.00  0.00    -0.408 A  
ENDBRANCH   7   8
BRANCH   7  14
HETATM   14  C   UNL     1     -11.393  12.215  68.763  1.00  0.00    -0.339 A  
HETATM   15  C   UNL     1     -11.777  14.390  69.816  1.00  0.00    -0.361 A  
HETATM   16  C   UNL     1     -11.463  13.034  69.909  1.00  0.00    -0.151 A  
HETATM   17  C   UNL     1     -11.945  14.173  67.424  1.00  0.00    -0.439 A  
HETATM   18  C   UNL     1     -11.611  12.812  67.498  1.00  0.00    -0.412 A  
HETATM   19  C   UNL     1     -12.032  14.956  68.574  1.00  0.00    -0.275 A  
HETATM   20  C   UNL     1     -11.473  12.038  66.213  1.00  0.00    -0.408 C  
ENDBRANCH   7  14
ENDBRANCH   6   7
ENDBRANCH   5   6
ENDBRANCH   4   5
ENDBRANCH   2   4
TORSDOF 6
ENDMDL
MODEL      121
REMARK 921   NORMALIZED FREE ENERGY PREDICTED BY IDOCK:   -3.89 KCAL/MOL
REMARK 922        TOTAL FREE ENERGY PREDICTED BY IDOCK:   -6.31 KCAL/MOL
REMARK 923 INTER-LIGAND FREE ENERGY PREDICTED BY IDOCK:   -5.68 KCAL/MOL
REMARK 924 INTRA-LIGAND FREE ENERGY PREDICTED BY IDOCK:   -0.63 KCAL/MOL
REMARK 927      BINDING AFFINITY PREDICTED BY RF-SCORE:    0.00 PKD
ROOT
HETATM    1  C   UNL     1      -5.995  10.028  65.268  1.00  0.00    -0.097 C  
HETATM    2  N   UNL     1      -6.842   9.361  64.278  1.00  0.00    -0.092 NA 
HETATM    3  C   UNL     1      -7.127   7.993  64.706  1.00  0.00    -0.075 C  
ENDROOT
BRANCH   2   4
HETATM    4  C   UNL     1      -8.073  10.146  64.074  1.00  0.00    -0.158 C  
BRANCH   4   5
HETATM    5  C   UNL     1      -9.271   9.724  64.946  1.00  0.00    -0.257 C  
BRANCH   5   6
HETATM    6  O   UNL     1      -9.343  10.425  66.194  1.00  0.00    -0.162 OA 
BRANCH   6   7
HETATM    7  C   UNL     1     -10.654  10.878  66.588  1.00  0.00    -0.249 C  
BRANCH   7   8
HETATM    8  C   UNL     1     -10.833  10.777  68.100  1.00  0.00    -0.284 A  
HETATM    9  C   UNL     1     -11.883  11.477  68.723  1.00  0.00    -0.394 A  
HETATM   10  C   UNL     1     -10.075   9.884  68.873  1.00  0.00    -0.194 A  
HETATM   11  C   UNL     1     -12.196  11.250  70.064  1.00  0.00    -0.389 A  
HETATM   12  C   UNL     1     -10.381   9.670  70.218  1.00  0.00    -0.336 A  
HETATM   13  C   UNL     1     -11.450  10.340  70.809  1.00  0.00    -0.438 A  
ENDBRANCH   7   8
BRANCH   7  14
HETATM   14  C   UNL     1     -10.892  12.277  66.013  1.00  0.00    -0.310 A  
HETATM   15  C   UNL     1     -12.276  13.777  64.664  1.00  0.00    -0.440 A  
HETATM   16  C   UNL     1     -12.043  12.527  65.236  1.00  0.00    -0.500 A  
HETATM   17  C   UNL     1     -10.229  14.590  65.634  1.00  0.00    -0.379 A  
HETATM   18  C   UNL     1      -9.988  13.344  66.234  1.00  0.00    -0.298 A  
HETATM   19  C   UNL     1     -11.361  14.804  64.851  1.00  0.00    -0.411 A  
HETATM   20  C   UNL     1      -8.778  13.197  67.120  1.00  0.00    -0.214 C  
ENDBRANCH   7  14
ENDBRANCH   6   7
ENDBRANCH   5   6
ENDBRANCH   4   5
ENDBRANCH   2   4
TORSDOF 6
ENDMDL
MODEL      122
REMARK 921   NORMALIZED FREE ENERGY PREDICTED BY IDOCK:   -3.88 KCAL/MOL
REMARK 922        TOTAL FREE ENERGY PREDICTED BY IDOCK:   -6.29 KCAL/MOL
REMARK 923 INTER-LIGAND FREE ENERGY PREDICTED BY IDOCK:   -5.18 KCAL/MOL
REMARK 924 INTRA-LIGAND FREE ENERGY PREDICTED BY IDOCK:   -1.11 KCAL/MOL
REMARK 927      BINDING AFFINITY PREDICTED BY RF-SCORE:    0.00 PKD
ROOT
HETATM    1  C   UNL     1      -8.910   4.299  73.325  1.00  0.00    -0.098 C  
HETATM    2  N   UNL     1     -10.046   5.221  73.272  1.00  0.00    -0.168 NA 
HETATM    3  C   UNL     1     -11.292   4.491  73.490  1.00  0.00    -0.268 C  
ENDROOT
BRANCH   2   4
HETATM    4  C   UNL     1      -9.853   6.298  74.259  1.00  0.00    -0.284 C  
BRANCH   4   5
HETATM    5  C   UNL     1      -9.471   7.668  73.668  1.00  0.00    -0.282 C  
BRANCH   5   6
HETATM    6  O   UNL     1     -10.423   8.165  72.719  1.00  0.00    -0.322 OA 
BRANCH   6   7
HETATM    7  C   UNL     1      -9.906   8.475  71.410  1.00  0.00    -0.228 C  
BRANCH   7   8
HETATM    8  C   UNL     1      -9.906   7.238  70.518  1.00  0.00    -0.183 A  
HETATM    9  C   UNL     1     -11.083   6.869  69.840  1.00  0.00    -0.333 A  
HETATM   10  C   UNL     1      -8.724   6.537  70.230  1.00  0.00    -0.151 A  
HETATM   11  C   UNL     1     -11.065   5.868  68.869  1.00  0.00    -0.254 A  
HETATM   12  C   UNL     1      -8.712   5.526  69.267  1.00  0.00    -0.107 A  
HETATM   13  C   UNL     1      -9.878   5.203  68.576  1.00  0.00    -0.218 A  
ENDBRANCH   7   8
BRANCH   7  14
HETATM   14  C   UNL     1     -10.676   9.670  70.839  1.00  0.00    -0.402 A  
HETATM   15  C   UNL     1     -12.639  11.127  70.922  1.00  0.00    -0.483 A  
HETATM   16  C   UNL     1     -11.889  10.069  71.436  1.00  0.00    -0.447 A  
HETATM   17  C   UNL     1     -10.984  11.448  69.204  1.00  0.00    -0.289 A  
HETATM   18  C   UNL     1     -10.208  10.398  69.718  1.00  0.00    -0.228 A  
HETATM   19  C   UNL     1     -12.193  11.807  69.797  1.00  0.00    -0.270 A  
HETATM   20  C   UNL     1      -8.882  10.101  69.067  1.00  0.00    -0.166 C  
ENDBRANCH   7  14
ENDBRANCH   6   7
ENDBRANCH   5   6
ENDBRANCH   4   5
ENDBRANCH   2   4
TORSDOF 6
ENDMDL
MODEL      123
REMARK 921   NORMALIZED FREE ENERGY PREDICTED BY IDOCK:   -3.87 KCAL/MOL
REMARK 922        TOTAL FREE ENERGY PREDICTED BY IDOCK:   -6.28 KCAL/MOL
REMARK 923 INTER-LIGAND FREE ENERGY PREDICTED BY IDOCK:   -5.35 KCAL/MOL
REMARK 924 INTRA-LIGAND FREE ENERGY PREDICTED BY IDOCK:   -0.93 KCAL/MOL
REMARK 927      BINDING AFFINITY PREDICTED BY RF-SCORE:    0.00 PKD
ROOT
HETATM    1  C   UNL     1     -10.232  14.057  65.460  1.00  0.00    -0.343 C  
HETATM    2  N   UNL     1     -11.675  13.995  65.699  1.00  0.00    -0.342 NA 
HETATM    3  C   UNL     1     -12.397  14.156  64.439  1.00  0.00    -0.381 C  
ENDROOT
BRANCH   2   4
HETATM    4  C   UNL     1     -12.009  12.728  66.373  1.00  0.00    -0.375 C  
BRANCH   4   5
HETATM    5  C   UNL     1     -10.889  11.671  66.372  1.00  0.00    -0.287 C  
BRANCH   5   6
HETATM    6  O   UNL     1     -11.269  10.436  66.992  1.00  0.00    -0.207 OA 
BRANCH   6   7
HETATM    7  C   UNL     1     -10.223   9.733  67.691  1.00  0.00    -0.213 C  
BRANCH   7   8
HETATM    8  C   UNL     1     -10.488   9.718  69.194  1.00  0.00    -0.232 A  
HETATM    9  C   UNL     1     -11.638  10.350  69.703  1.00  0.00    -0.307 A  
HETATM   10  C   UNL     1      -9.698   8.962  70.074  1.00  0.00    -0.187 A  
HETATM   11  C   UNL     1     -12.013  10.185  71.038  1.00  0.00    -0.474 A  
HETATM   12  C   UNL     1     -10.067   8.811  71.412  1.00  0.00    -0.354 A  
HETATM   13  C   UNL     1     -11.232   9.408  71.889  1.00  0.00    -0.233 A  
ENDBRANCH   7   8
BRANCH   7  14
HETATM   14  C   UNL     1     -10.046   8.347  67.064  1.00  0.00    -0.354 A  
HETATM   15  C   UNL     1     -10.843   6.048  66.812  1.00  0.00    -0.356 A  
HETATM   16  C   UNL     1     -10.989   7.334  67.333  1.00  0.00    -0.257 A  
HETATM   17  C   UNL     1      -8.815   6.738  65.714  1.00  0.00    -0.088 A  
HETATM   18  C   UNL     1      -8.956   8.042  66.214  1.00  0.00    -0.208 A  
HETATM   19  C   UNL     1      -9.748   5.747  66.014  1.00  0.00    -0.051 A  
HETATM   20  C   UNL     1      -7.947   9.081  65.801  1.00  0.00    -0.103 C  
ENDBRANCH   7  14
ENDBRANCH   6   7
ENDBRANCH   5   6
ENDBRANCH   4   5
ENDBRANCH   2   4
TORSDOF 6
ENDMDL
MODEL      124
REMARK 921   NORMALIZED FREE ENERGY PREDICTED BY IDOCK:   -3.87 KCAL/MOL
REMARK 922        TOTAL FREE ENERGY PREDICTED BY IDOCK:   -6.28 KCAL/MOL
REMARK 923 INTER-LIGAND FREE ENERGY PREDICTED BY IDOCK:   -6.19 KCAL/MOL
REMARK 924 INTRA-LIGAND FREE ENERGY PREDICTED BY IDOCK:   -0.09 KCAL/MOL
REMARK 927      BINDING AFFINITY PREDICTED BY RF-SCORE:    0.00 PKD
ROOT
HETATM    1  C   UNL     1      -7.817  17.440  67.487  1.00  0.00    -0.197 C  
HETATM    2  N   UNL     1      -8.448  16.996  68.731  1.00  0.00    -0.255 NA 
HETATM    3  C   UNL     1      -9.754  17.634  68.884  1.00  0.00    -0.258 C  
ENDROOT
BRANCH   2   4
HETATM    4  C   UNL     1      -8.545  15.526  68.737  1.00  0.00    -0.188 C  
BRANCH   4   5
HETATM    5  C   UNL     1      -9.689  14.941  67.886  1.00  0.00    -0.206 C  
BRANCH   5   6
HETATM    6  O   UNL     1      -9.627  13.516  67.749  1.00  0.00    -0.206 OA 
BRANCH   6   7
HETATM    7  C   UNL     1     -10.895  12.837  67.648  1.00  0.00    -0.228 C  
BRANCH   7   8
HETATM    8  C   UNL     1     -11.150  12.371  66.217  1.00  0.00    -0.344 A  
HETATM    9  C   UNL     1     -12.329  12.767  65.557  1.00  0.00    -0.495 A  
HETATM   10  C   UNL     1     -10.173  11.682  65.482  1.00  0.00    -0.302 A  
HETATM   11  C   UNL     1     -12.499  12.527  64.193  1.00  0.00    -0.518 A  
HETATM   12  C   UNL     1     -10.353  11.430  64.120  1.00  0.00    -0.400 A  
HETATM   13  C   UNL     1     -11.507  11.867  63.473  1.00  0.00    -0.523 A  
ENDBRANCH   7   8
BRANCH   7  14
HETATM   14  C   UNL     1     -10.950  11.723  68.697  1.00  0.00    -0.269 A  
HETATM   15  C   UNL     1     -12.238  10.483  70.367  1.00  0.00    -0.415 A  
HETATM   16  C   UNL     1     -12.157  11.463  69.378  1.00  0.00    -0.358 A  
HETATM   17  C   UNL     1      -9.912   9.965  70.026  1.00  0.00    -0.302 A  
HETATM   18  C   UNL     1      -9.817  10.934  69.014  1.00  0.00    -0.196 A  
HETATM   19  C   UNL     1     -11.111   9.745  70.701  1.00  0.00    -0.398 A  
HETATM   20  C   UNL     1      -8.509  11.079  68.282  1.00  0.00    -0.138 C  
ENDBRANCH   7  14
ENDBRANCH   6   7
ENDBRANCH   5   6
ENDBRANCH   4   5
ENDBRANCH   2   4
TORSDOF 6
ENDMDL
MODEL      125
REMARK 921   NORMALIZED FREE ENERGY PREDICTED BY IDOCK:   -3.86 KCAL/MOL
REMARK 922        TOTAL FREE ENERGY PREDICTED BY IDOCK:   -6.27 KCAL/MOL
REMARK 923 INTER-LIGAND FREE ENERGY PREDICTED BY IDOCK:   -5.36 KCAL/MOL
REMARK 924 INTRA-LIGAND FREE ENERGY PREDICTED BY IDOCK:   -0.91 KCAL/MOL
REMARK 927      BINDING AFFINITY PREDICTED BY RF-SCORE:    0.00 PKD
ROOT
HETATM    1  C   UNL     1      -9.922  12.153  65.413  1.00  0.00    -0.246 C  
HETATM    2  N   UNL     1     -10.811  12.720  66.428  1.00  0.00    -0.267 NA 
HETATM    3  C   UNL     1     -12.053  13.176  65.806  1.00  0.00    -0.447 C  
ENDROOT
BRANCH   2   4
HETATM    4  C   UNL     1     -11.053  11.723  67.485  1.00  0.00    -0.272 C  
BRANCH   4   5
HETATM    5  C   UNL     1     -10.218  10.433  67.371  1.00  0.00    -0.214 C  
BRANCH   5   6
HETATM    6  O   UNL     1     -10.930   9.255  67.772  1.00  0.00    -0.186 OA 
BRANCH   6   7
HETATM    7  C   UNL     1     -10.221   8.358  68.650  1.00  0.00    -0.201 C  
BRANCH   7   8
HETATM    8  C   UNL     1     -10.909   8.268  70.009  1.00  0.00    -0.232 A  
HETATM    9  C   UNL     1     -11.215   9.448  70.712  1.00  0.00    -0.367 A  
HETATM   10  C   UNL     1     -11.386   7.048  70.513  1.00  0.00    -0.355 A  
HETATM   11  C   UNL     1     -12.017   9.411  71.854  1.00  0.00    -0.416 A  
HETATM   12  C   UNL     1     -12.176   7.013  71.664  1.00  0.00    -0.395 A  
HETATM   13  C   UNL     1     -12.504   8.194  72.324  1.00  0.00    -0.345 A  
ENDBRANCH   7   8
BRANCH   7  14
HETATM   14  C   UNL     1     -10.033   7.013  67.943  1.00  0.00    -0.183 A  
HETATM   15  C   UNL     1     -10.896   5.321  66.402  1.00  0.00    -0.198 A  
HETATM   16  C   UNL     1     -11.012   6.557  67.036  1.00  0.00    -0.466 A  
HETATM   17  C   UNL     1      -8.806   4.949  67.536  1.00  0.00    -0.105 A  
HETATM   18  C   UNL     1      -8.896   6.199  68.169  1.00  0.00    -0.112 A  
HETATM   19  C   UNL     1      -9.800   4.510  66.663  1.00  0.00    -0.244 A  
HETATM   20  C   UNL     1      -7.758   6.639  69.052  1.00  0.00    -0.109 C  
ENDBRANCH   7  14
ENDBRANCH   6   7
ENDBRANCH   5   6
ENDBRANCH   4   5
ENDBRANCH   2   4
TORSDOF 6
ENDMDL
MODEL      126
REMARK 921   NORMALIZED FREE ENERGY PREDICTED BY IDOCK:   -3.86 KCAL/MOL
REMARK 922        TOTAL FREE ENERGY PREDICTED BY IDOCK:   -6.27 KCAL/MOL
REMARK 923 INTER-LIGAND FREE ENERGY PREDICTED BY IDOCK:   -5.18 KCAL/MOL
REMARK 924 INTRA-LIGAND FREE ENERGY PREDICTED BY IDOCK:   -1.09 KCAL/MOL
REMARK 927      BINDING AFFINITY PREDICTED BY RF-SCORE:    0.00 PKD
ROOT
HETATM    1  C   UNL     1     -11.015   7.601  72.983  1.00  0.00    -0.400 C  
HETATM    2  N   UNL     1     -10.942   6.542  71.975  1.00  0.00    -0.237 NA 
HETATM    3  C   UNL     1     -11.267   5.252  72.581  1.00  0.00    -0.248 C  
ENDROOT
BRANCH   2   4
HETATM    4  C   UNL     1     -11.838   6.868  70.852  1.00  0.00    -0.376 C  
BRANCH   4   5
HETATM    5  C   UNL     1     -11.347   6.405  69.467  1.00  0.00    -0.393 C  
BRANCH   5   6
HETATM    6  O   UNL     1     -10.880   7.478  68.640  1.00  0.00    -0.133 OA 
BRANCH   6   7
HETATM    7  C   UNL     1     -10.439   8.663  69.332  1.00  0.00    -0.218 C  
BRANCH   7   8
HETATM    8  C   UNL     1      -8.948   8.587  69.648  1.00  0.00    -0.145 A  
HETATM    9  C   UNL     1      -8.089   7.888  68.779  1.00  0.00    -0.126 A  
HETATM   10  C   UNL     1      -8.380   9.322  70.700  1.00  0.00    -0.245 A  
HETATM   11  C   UNL     1      -6.704   7.967  68.929  1.00  0.00    -0.049 A  
HETATM   12  C   UNL     1      -6.994   9.387  70.856  1.00  0.00    -0.099 A  
HETATM   13  C   UNL     1      -6.157   8.724  69.961  1.00  0.00    -0.037 A  
ENDBRANCH   7   8
BRANCH   7  14
HETATM   14  C   UNL     1     -10.855   9.896  68.526  1.00  0.00    -0.257 A  
HETATM   15  C   UNL     1     -10.831  11.115  66.405  1.00  0.00    -0.284 A  
HETATM   16  C   UNL     1     -10.504   9.991  67.163  1.00  0.00    -0.305 A  
HETATM   17  C   UNL     1     -11.894  12.091  68.331  1.00  0.00    -0.360 A  
HETATM   18  C   UNL     1     -11.590  10.959  69.105  1.00  0.00    -0.389 A  
HETATM   19  C   UNL     1     -11.513  12.171  66.993  1.00  0.00    -0.415 A  
HETATM   20  C   UNL     1     -12.085  10.909  70.527  1.00  0.00    -0.464 C  
ENDBRANCH   7  14
ENDBRANCH   6   7
ENDBRANCH   5   6
ENDBRANCH   4   5
ENDBRANCH   2   4
TORSDOF 6
ENDMDL
MODEL      127
REMARK 921   NORMALIZED FREE ENERGY PREDICTED BY IDOCK:   -3.85 KCAL/MOL
REMARK 922        TOTAL FREE ENERGY PREDICTED BY IDOCK:   -6.26 KCAL/MOL
REMARK 923 INTER-LIGAND FREE ENERGY PREDICTED BY IDOCK:   -6.34 KCAL/MOL
REMARK 924 INTRA-LIGAND FREE ENERGY PREDICTED BY IDOCK:    0.08 KCAL/MOL
REMARK 927      BINDING AFFINITY PREDICTED BY RF-SCORE:    0.00 PKD
ROOT
HETATM    1  C   UNL     1     -12.156  14.943  68.322  1.00  0.00    -0.111 C  
HETATM    2  N   UNL     1     -11.567  14.649  69.629  1.00  0.00    -0.290 NA 
HETATM    3  C   UNL     1     -12.068  13.369  70.126  1.00  0.00    -0.344 C  
ENDROOT
BRANCH   2   4
HETATM    4  C   UNL     1     -10.097  14.665  69.522  1.00  0.00     0.022 C  
BRANCH   4   5
HETATM    5  C   UNL     1      -9.516  15.799  68.656  1.00  0.00    -0.208 C  
BRANCH   5   6
HETATM    6  O   UNL     1      -8.659  15.333  67.607  1.00  0.00    -0.159 OA 
BRANCH   6   7
HETATM    7  C   UNL     1      -8.889  15.904  66.304  1.00  0.00    -0.351 C  
BRANCH   7   8
HETATM    8  C   UNL     1      -9.972  15.132  65.555  1.00  0.00    -0.384 A  
HETATM    9  C   UNL     1     -10.065  13.737  65.712  1.00  0.00    -0.322 A  
HETATM   10  C   UNL     1     -10.977  15.790  64.828  1.00  0.00    -0.410 A  
HETATM   11  C   UNL     1     -11.157  13.032  65.204  1.00  0.00    -0.317 A  
HETATM   12  C   UNL     1     -12.060  15.080  64.308  1.00  0.00    -0.323 A  
HETATM   13  C   UNL     1     -12.159  13.705  64.510  1.00  0.00    -0.459 A  
ENDBRANCH   7   8
BRANCH   7  14
HETATM   14  C   UNL     1      -9.170  17.402  66.457  1.00  0.00    -0.286 A  
HETATM   15  C   UNL     1     -10.756  19.192  66.973  1.00  0.00    -0.542 A  
HETATM   16  C   UNL     1     -10.450  17.835  66.859  1.00  0.00    -0.308 A  
HETATM   17  C   UNL     1      -8.508  19.741  66.310  1.00  0.00    -0.390 A  
HETATM   18  C   UNL     1      -8.177  18.381  66.208  1.00  0.00    -0.245 A  
HETATM   19  C   UNL     1      -9.789  20.144  66.684  1.00  0.00    -0.588 A  
HETATM   20  C   UNL     1      -6.759  18.012  65.860  1.00  0.00    -0.323 C  
ENDBRANCH   7  14
ENDBRANCH   6   7
ENDBRANCH   5   6
ENDBRANCH   4   5
ENDBRANCH   2   4
TORSDOF 6
ENDMDL
MODEL      128
REMARK 921   NORMALIZED FREE ENERGY PREDICTED BY IDOCK:   -3.85 KCAL/MOL
REMARK 922        TOTAL FREE ENERGY PREDICTED BY IDOCK:   -6.26 KCAL/MOL
REMARK 923 INTER-LIGAND FREE ENERGY PREDICTED BY IDOCK:   -5.29 KCAL/MOL
REMARK 924 INTRA-LIGAND FREE ENERGY PREDICTED BY IDOCK:   -0.97 KCAL/MOL
REMARK 927      BINDING AFFINITY PREDICTED BY RF-SCORE:    0.00 PKD
ROOT
HETATM    1  C   UNL     1      -9.317  12.455  66.633  1.00  0.00    -0.227 C  
HETATM    2  N   UNL     1      -9.049  11.020  66.528  1.00  0.00    -0.168 NA 
HETATM    3  C   UNL     1      -7.635  10.756  66.785  1.00  0.00    -0.129 C  
ENDROOT
BRANCH   2   4
HETATM    4  C   UNL     1      -9.928  10.285  67.455  1.00  0.00    -0.189 C  
BRANCH   4   5
HETATM    5  C   UNL     1      -9.211   9.289  68.386  1.00  0.00    -0.131 C  
BRANCH   5   6
HETATM    6  O   UNL     1      -9.270   9.658  69.769  1.00  0.00    -0.188 OA 
BRANCH   6   7
HETATM    7  C   UNL     1      -9.670   8.617  70.683  1.00  0.00    -0.184 C  
BRANCH   7   8
HETATM    8  C   UNL     1      -8.686   8.504  71.844  1.00  0.00    -0.270 A  
HETATM    9  C   UNL     1      -9.147   8.089  73.107  1.00  0.00    -0.341 A  
HETATM   10  C   UNL     1      -7.304   8.655  71.655  1.00  0.00    -0.117 A  
HETATM   11  C   UNL     1      -8.249   7.785  74.131  1.00  0.00    -0.282 A  
HETATM   12  C   UNL     1      -6.408   8.363  72.686  1.00  0.00    -0.087 A  
HETATM   13  C   UNL     1      -6.879   7.914  73.917  1.00  0.00    -0.127 A  
ENDBRANCH   7   8
BRANCH   7  14
HETATM   14  C   UNL     1     -11.123   8.853  71.103  1.00  0.00    -0.354 A  
HETATM   15  C   UNL     1     -12.892  10.424  71.726  1.00  0.00    -0.561 A  
HETATM   16  C   UNL     1     -11.587  10.170  71.306  1.00  0.00    -0.387 A  
HETATM   17  C   UNL     1     -13.336   8.058  71.739  1.00  0.00    -0.370 A  
HETATM   18  C   UNL     1     -12.032   7.785  71.298  1.00  0.00    -0.324 A  
HETATM   19  C   UNL     1     -13.762   9.367  71.956  1.00  0.00    -0.466 A  
HETATM   20  C   UNL     1     -11.654   6.352  71.023  1.00  0.00    -0.386 C  
ENDBRANCH   7  14
ENDBRANCH   6   7
ENDBRANCH   5   6
ENDBRANCH   4   5
ENDBRANCH   2   4
TORSDOF 6
ENDMDL
MODEL      129
REMARK 921   NORMALIZED FREE ENERGY PREDICTED BY IDOCK:   -3.85 KCAL/MOL
REMARK 922        TOTAL FREE ENERGY PREDICTED BY IDOCK:   -6.25 KCAL/MOL
REMARK 923 INTER-LIGAND FREE ENERGY PREDICTED BY IDOCK:   -5.26 KCAL/MOL
REMARK 924 INTRA-LIGAND FREE ENERGY PREDICTED BY IDOCK:   -0.99 KCAL/MOL
REMARK 927      BINDING AFFINITY PREDICTED BY RF-SCORE:    0.00 PKD
ROOT
HETATM    1  C   UNL     1      -9.864   4.207  72.268  1.00  0.00    -0.165 C  
HETATM    2  N   UNL     1     -10.803   4.456  73.362  1.00  0.00    -0.240 NA 
HETATM    3  C   UNL     1     -10.099   5.035  74.504  1.00  0.00    -0.250 C  
ENDROOT
BRANCH   2   4
HETATM    4  C   UNL     1     -11.896   5.323  72.887  1.00  0.00    -0.081 C  
BRANCH   4   5
HETATM    5  C   UNL     1     -11.665   5.970  71.508  1.00  0.00    -0.105 C  
BRANCH   5   6
HETATM    6  O   UNL     1     -12.085   7.339  71.443  1.00  0.00    -0.300 OA 
BRANCH   6   7
HETATM    7  C   UNL     1     -11.188   8.241  70.765  1.00  0.00    -0.264 C  
BRANCH   7   8
HETATM    8  C   UNL     1     -11.769   9.651  70.717  1.00  0.00    -0.390 A  
HETATM    9  C   UNL     1     -12.704  10.052  71.690  1.00  0.00    -0.535 A  
HETATM   10  C   UNL     1     -11.287  10.616  69.818  1.00  0.00    -0.371 A  
HETATM   11  C   UNL     1     -13.101  11.386  71.793  1.00  0.00    -0.523 A  
HETATM   12  C   UNL     1     -11.697  11.947  69.915  1.00  0.00    -0.383 A  
HETATM   13  C   UNL     1     -12.591  12.335  70.911  1.00  0.00    -0.334 A  
ENDBRANCH   7   8
BRANCH   7  14
HETATM   14  C   UNL     1      -9.803   8.148  71.411  1.00  0.00    -0.223 A  
HETATM   15  C   UNL     1      -8.430   8.198  73.436  1.00  0.00    -0.303 A  
HETATM   16  C   UNL     1      -9.678   8.241  72.813  1.00  0.00    -0.336 A  
HETATM   17  C   UNL     1      -7.379   7.948  71.285  1.00  0.00    -0.068 A  
HETATM   18  C   UNL     1      -8.627   7.969  70.643  1.00  0.00    -0.130 A  
HETATM   19  C   UNL     1      -7.280   8.067  72.670  1.00  0.00    -0.116 A  
HETATM   20  C   UNL     1      -8.668   7.773  69.150  1.00  0.00    -0.139 C  
ENDBRANCH   7  14
ENDBRANCH   6   7
ENDBRANCH   5   6
ENDBRANCH   4   5
ENDBRANCH   2   4
TORSDOF 6
ENDMDL
MODEL      130
REMARK 921   NORMALIZED FREE ENERGY PREDICTED BY IDOCK:   -3.84 KCAL/MOL
REMARK 922        TOTAL FREE ENERGY PREDICTED BY IDOCK:   -6.24 KCAL/MOL
REMARK 923 INTER-LIGAND FREE ENERGY PREDICTED BY IDOCK:   -5.30 KCAL/MOL
REMARK 924 INTRA-LIGAND FREE ENERGY PREDICTED BY IDOCK:   -0.94 KCAL/MOL
REMARK 927      BINDING AFFINITY PREDICTED BY RF-SCORE:    0.00 PKD
ROOT
HETATM    1  C   UNL     1     -10.838  13.080  64.098  1.00  0.00    -0.405 C  
HETATM    2  N   UNL     1     -11.321  13.679  65.343  1.00  0.00    -0.298 NA 
HETATM    3  C   UNL     1     -12.764  13.483  65.465  1.00  0.00    -0.440 C  
ENDROOT
BRANCH   2   4
HETATM    4  C   UNL     1     -10.586  13.105  66.484  1.00  0.00    -0.284 C  
BRANCH   4   5
HETATM    5  C   UNL     1     -11.376  12.088  67.328  1.00  0.00    -0.330 C  
BRANCH   5   6
HETATM    6  O   UNL     1     -11.238  10.737  66.870  1.00  0.00    -0.256 OA 
BRANCH   6   7
HETATM    7  C   UNL     1     -10.029  10.058  67.264  1.00  0.00    -0.197 C  
BRANCH   7   8
HETATM    8  C   UNL     1     -10.349   8.742  67.968  1.00  0.00    -0.273 A  
HETATM    9  C   UNL     1     -10.521   8.726  69.365  1.00  0.00    -0.228 A  
HETATM   10  C   UNL     1     -10.628   7.570  67.248  1.00  0.00    -0.394 A  
HETATM   11  C   UNL     1     -11.006   7.588  70.012  1.00  0.00    -0.252 A  
HETATM   12  C   UNL     1     -11.100   6.429  67.900  1.00  0.00    -0.370 A  
HETATM   13  C   UNL     1     -11.305   6.444  69.278  1.00  0.00    -0.405 A  
ENDBRANCH   7   8
BRANCH   7  14
HETATM   14  C   UNL     1      -9.114   9.918  66.044  1.00  0.00    -0.195 A  
HETATM   15  C   UNL     1      -8.879   9.710  63.618  1.00  0.00    -0.256 A  
HETATM   16  C   UNL     1      -9.675   9.875  64.751  1.00  0.00    -0.305 A  
HETATM   17  C   UNL     1      -6.922   9.647  65.018  1.00  0.00    -0.111 A  
HETATM   18  C   UNL     1      -7.706   9.831  66.168  1.00  0.00    -0.104 A  
HETATM   19  C   UNL     1      -7.503   9.582  63.753  1.00  0.00    -0.116 A  
HETATM   20  C   UNL     1      -7.010   9.955  67.498  1.00  0.00    -0.083 C  
ENDBRANCH   7  14
ENDBRANCH   6   7
ENDBRANCH   5   6
ENDBRANCH   4   5
ENDBRANCH   2   4
TORSDOF 6
ENDMDL
MODEL      131
REMARK 921   NORMALIZED FREE ENERGY PREDICTED BY IDOCK:   -3.82 KCAL/MOL
REMARK 922        TOTAL FREE ENERGY PREDICTED BY IDOCK:   -6.21 KCAL/MOL
REMARK 923 INTER-LIGAND FREE ENERGY PREDICTED BY IDOCK:   -5.12 KCAL/MOL
REMARK 924 INTRA-LIGAND FREE ENERGY PREDICTED BY IDOCK:   -1.08 KCAL/MOL
REMARK 927      BINDING AFFINITY PREDICTED BY RF-SCORE:    0.00 PKD
ROOT
HETATM    1  C   UNL     1     -12.889  15.406  70.304  1.00  0.00    -0.237 C  
HETATM    2  N   UNL     1     -12.331  14.420  71.231  1.00  0.00    -0.341 NA 
HETATM    3  C   UNL     1     -12.855  14.647  72.577  1.00  0.00    -0.388 C  
ENDROOT
BRANCH   2   4
HETATM    4  C   UNL     1     -12.627  13.061  70.742  1.00  0.00    -0.241 C  
BRANCH   4   5
HETATM    5  C   UNL     1     -11.460  12.354  70.028  1.00  0.00    -0.031 C  
BRANCH   5   6
HETATM    6  O   UNL     1     -11.388  12.647  68.627  1.00  0.00    -0.248 OA 
BRANCH   6   7
HETATM    7  C   UNL     1     -10.505  11.811  67.853  1.00  0.00    -0.196 C  
BRANCH   7   8
HETATM    8  C   UNL     1     -10.866  11.863  66.371  1.00  0.00    -0.318 A  
HETATM    9  C   UNL     1     -11.714  12.881  65.897  1.00  0.00    -0.449 A  
HETATM   10  C   UNL     1     -10.256  11.014  65.434  1.00  0.00    -0.333 A  
HETATM   11  C   UNL     1     -11.903  13.075  64.528  1.00  0.00    -0.431 A  
HETATM   12  C   UNL     1     -10.458  11.202  64.065  1.00  0.00    -0.447 A  
HETATM   13  C   UNL     1     -11.267  12.241  63.613  1.00  0.00    -0.539 A  
ENDBRANCH   7   8
BRANCH   7  14
HETATM   14  C   UNL     1      -9.055  12.190  68.166  1.00  0.00    -0.196 A  
HETATM   15  C   UNL     1      -7.309  13.902  68.235  1.00  0.00    -0.117 A  
HETATM   16  C   UNL     1      -8.630  13.524  67.997  1.00  0.00    -0.177 A  
HETATM   17  C   UNL     1      -6.783  11.633  68.844  1.00  0.00    -0.088 A  
HETATM   18  C   UNL     1      -8.113  11.239  68.627  1.00  0.00    -0.145 A  
HETATM   19  C   UNL     1      -6.382  12.953  68.645  1.00  0.00    -0.075 A  
HETATM   20  C   UNL     1      -8.494   9.812  68.920  1.00  0.00    -0.129 C  
ENDBRANCH   7  14
ENDBRANCH   6   7
ENDBRANCH   5   6
ENDBRANCH   4   5
ENDBRANCH   2   4
TORSDOF 6
ENDMDL
MODEL      132
REMARK 921   NORMALIZED FREE ENERGY PREDICTED BY IDOCK:   -3.81 KCAL/MOL
REMARK 922        TOTAL FREE ENERGY PREDICTED BY IDOCK:   -6.21 KCAL/MOL
REMARK 923 INTER-LIGAND FREE ENERGY PREDICTED BY IDOCK:   -5.03 KCAL/MOL
REMARK 924 INTRA-LIGAND FREE ENERGY PREDICTED BY IDOCK:   -1.18 KCAL/MOL
REMARK 927      BINDING AFFINITY PREDICTED BY RF-SCORE:    0.00 PKD
ROOT
HETATM    1  C   UNL     1      -6.983  12.488  68.771  1.00  0.00    -0.094 C  
HETATM    2  N   UNL     1      -7.747  11.787  67.739  1.00  0.00    -0.124 NA 
HETATM    3  C   UNL     1      -7.142  10.485  67.466  1.00  0.00    -0.089 C  
ENDROOT
BRANCH   2   4
HETATM    4  C   UNL     1      -9.153  11.666  68.164  1.00  0.00    -0.183 C  
BRANCH   4   5
HETATM    5  C   UNL     1     -10.055  10.849  67.218  1.00  0.00    -0.191 C  
BRANCH   5   6
HETATM    6  O   UNL     1     -10.943   9.959  67.905  1.00  0.00    -0.272 OA 
BRANCH   6   7
HETATM    7  C   UNL     1     -10.358   9.182  68.970  1.00  0.00    -0.215 C  
BRANCH   7   8
HETATM    8  C   UNL     1     -11.242   9.211  70.214  1.00  0.00    -0.249 A  
HETATM    9  C   UNL     1     -11.898  10.403  70.572  1.00  0.00    -0.430 A  
HETATM   10  C   UNL     1     -11.542   8.042  70.931  1.00  0.00    -0.284 A  
HETATM   11  C   UNL     1     -12.863  10.412  71.580  1.00  0.00    -0.579 A  
HETATM   12  C   UNL     1     -12.497   8.058  71.949  1.00  0.00    -0.364 A  
HETATM   13  C   UNL     1     -13.169   9.237  72.262  1.00  0.00    -0.535 A  
ENDBRANCH   7   8
BRANCH   7  14
HETATM   14  C   UNL     1     -10.043   7.777  68.448  1.00  0.00    -0.215 A  
HETATM   15  C   UNL     1     -10.665   5.885  67.026  1.00  0.00    -0.396 A  
HETATM   16  C   UNL     1     -10.896   7.178  67.497  1.00  0.00    -0.311 A  
HETATM   17  C   UNL     1      -8.707   5.742  68.419  1.00  0.00    -0.111 A  
HETATM   18  C   UNL     1      -8.913   7.048  68.890  1.00  0.00    -0.129 A  
HETATM   19  C   UNL     1      -9.578   5.162  67.498  1.00  0.00    -0.159 A  
HETATM   20  C   UNL     1      -7.900   7.637  69.836  1.00  0.00    -0.102 C  
ENDBRANCH   7  14
ENDBRANCH   6   7
ENDBRANCH   5   6
ENDBRANCH   4   5
ENDBRANCH   2   4
TORSDOF 6
ENDMDL
MODEL      133
REMARK 921   NORMALIZED FREE ENERGY PREDICTED BY IDOCK:   -3.81 KCAL/MOL
REMARK 922        TOTAL FREE ENERGY PREDICTED BY IDOCK:   -6.20 KCAL/MOL
REMARK 923 INTER-LIGAND FREE ENERGY PREDICTED BY IDOCK:   -5.06 KCAL/MOL
REMARK 924 INTRA-LIGAND FREE ENERGY PREDICTED BY IDOCK:   -1.13 KCAL/MOL
REMARK 927      BINDING AFFINITY PREDICTED BY RF-SCORE:    0.00 PKD
ROOT
HETATM    1  C   UNL     1      -7.498  13.610  67.457  1.00  0.00    -0.170 C  
HETATM    2  N   UNL     1      -7.036  12.233  67.638  1.00  0.00    -0.114 NA 
HETATM    3  C   UNL     1      -5.747  12.047  66.975  1.00  0.00    -0.123 C  
ENDROOT
BRANCH   2   4
HETATM    4  C   UNL     1      -6.969  11.920  69.077  1.00  0.00    -0.098 C  
BRANCH   4   5
HETATM    5  C   UNL     1      -7.592  10.571  69.483  1.00  0.00    -0.145 C  
BRANCH   5   6
HETATM    6  O   UNL     1      -9.012  10.519  69.297  1.00  0.00    -0.179 OA 
BRANCH   6   7
HETATM    7  C   UNL     1      -9.464   9.931  68.060  1.00  0.00    -0.134 C  
BRANCH   7   8
HETATM    8  C   UNL     1     -10.221   8.632  68.320  1.00  0.00    -0.237 A  
HETATM    9  C   UNL     1     -10.496   7.762  67.249  1.00  0.00    -0.392 A  
HETATM   10  C   UNL     1     -10.521   8.202  69.622  1.00  0.00    -0.224 A  
HETATM   11  C   UNL     1     -11.005   6.483  67.479  1.00  0.00    -0.444 A  
HETATM   12  C   UNL     1     -11.044   6.927  69.849  1.00  0.00    -0.333 A  
HETATM   13  C   UNL     1     -11.270   6.063  68.780  1.00  0.00    -0.212 A  
ENDBRANCH   7   8
BRANCH   7  14
HETATM   14  C   UNL     1     -10.253  10.978  67.269  1.00  0.00    -0.234 A  
HETATM   15  C   UNL     1     -11.939  12.751  67.247  1.00  0.00    -0.345 A  
HETATM   16  C   UNL     1     -11.173  11.812  67.938  1.00  0.00    -0.331 A  
HETATM   17  C   UNL     1     -10.883  12.080  65.190  1.00  0.00    -0.347 A  
HETATM   18  C   UNL     1     -10.091  11.143  65.872  1.00  0.00    -0.296 A  
HETATM   19  C   UNL     1     -11.804  12.874  65.871  1.00  0.00    -0.476 A  
HETATM   20  C   UNL     1      -9.072  10.359  65.086  1.00  0.00    -0.232 C  
ENDBRANCH   7  14
ENDBRANCH   6   7
ENDBRANCH   5   6
ENDBRANCH   4   5
ENDBRANCH   2   4
TORSDOF 6
ENDMDL
MODEL      134
REMARK 921   NORMALIZED FREE ENERGY PREDICTED BY IDOCK:   -3.78 KCAL/MOL
REMARK 922        TOTAL FREE ENERGY PREDICTED BY IDOCK:   -6.16 KCAL/MOL
REMARK 923 INTER-LIGAND FREE ENERGY PREDICTED BY IDOCK:   -5.73 KCAL/MOL
REMARK 924 INTRA-LIGAND FREE ENERGY PREDICTED BY IDOCK:   -0.42 KCAL/MOL
REMARK 927      BINDING AFFINITY PREDICTED BY RF-SCORE:    0.00 PKD
ROOT
HETATM    1  C   UNL     1     -10.750  12.131  65.601  1.00  0.00    -0.275 C  
HETATM    2  N   UNL     1     -11.500  13.266  65.061  1.00  0.00    -0.299 NA 
HETATM    3  C   UNL     1     -12.461  13.747  66.050  1.00  0.00    -0.445 C  
ENDROOT
BRANCH   2   4
HETATM    4  C   UNL     1     -10.561  14.322  64.642  1.00  0.00    -0.340 C  
BRANCH   4   5
HETATM    5  C   UNL     1     -10.372  15.469  65.653  1.00  0.00    -0.384 C  
BRANCH   5   6
HETATM    6  O   UNL     1      -9.108  15.432  66.327  1.00  0.00    -0.288 OA 
BRANCH   6   7
HETATM    7  C   UNL     1      -9.060  16.081  67.613  1.00  0.00    -0.199 C  
BRANCH   7   8
HETATM    8  C   UNL     1      -7.814  15.663  68.388  1.00  0.00    -0.127 A  
HETATM    9  C   UNL     1      -7.175  16.592  69.231  1.00  0.00    -0.200 A  
HETATM   10  C   UNL     1      -7.369  14.332  68.405  1.00  0.00    -0.119 A  
HETATM   11  C   UNL     1      -6.160  16.190  70.099  1.00  0.00    -0.094 A  
HETATM   12  C   UNL     1      -6.343  13.935  69.265  1.00  0.00    -0.112 A  
HETATM   13  C   UNL     1      -5.751  14.859  70.123  1.00  0.00    -0.133 A  
ENDBRANCH   7   8
BRANCH   7  14
HETATM   14  C   UNL     1      -9.207  17.593  67.416  1.00  0.00    -0.247 A  
HETATM   15  C   UNL     1     -10.405  19.663  67.930  1.00  0.00    -0.583 A  
HETATM   16  C   UNL     1     -10.214  18.293  68.112  1.00  0.00    -0.406 A  
HETATM   17  C   UNL     1      -8.578  19.697  66.364  1.00  0.00    -0.390 A  
HETATM   18  C   UNL     1      -8.359  18.323  66.549  1.00  0.00    -0.287 A  
HETATM   19  C   UNL     1      -9.596  20.362  67.045  1.00  0.00    -0.571 A  
HETATM   20  C   UNL     1      -7.202  17.678  65.830  1.00  0.00    -0.235 C  
ENDBRANCH   7  14
ENDBRANCH   6   7
ENDBRANCH   5   6
ENDBRANCH   4   5
ENDBRANCH   2   4
TORSDOF 6
ENDMDL
MODEL      135
REMARK 921   NORMALIZED FREE ENERGY PREDICTED BY IDOCK:   -3.77 KCAL/MOL
REMARK 922        TOTAL FREE ENERGY PREDICTED BY IDOCK:   -6.15 KCAL/MOL
REMARK 923 INTER-LIGAND FREE ENERGY PREDICTED BY IDOCK:   -6.49 KCAL/MOL
REMARK 924 INTRA-LIGAND FREE ENERGY PREDICTED BY IDOCK:    0.34 KCAL/MOL
REMARK 927      BINDING AFFINITY PREDICTED BY RF-SCORE:    0.00 PKD
ROOT
HETATM    1  C   UNL     1     -10.852   8.627  71.035  1.00  0.00    -0.247 C  
HETATM    2  N   UNL     1      -9.650   9.460  71.111  1.00  0.00    -0.221 NA 
HETATM    3  C   UNL     1      -8.546   8.692  71.685  1.00  0.00    -0.189 C  
ENDROOT
BRANCH   2   4
HETATM    4  C   UNL     1      -9.326   9.981  69.772  1.00  0.00    -0.202 C  
BRANCH   4   5
HETATM    5  C   UNL     1     -10.530  10.146  68.825  1.00  0.00    -0.204 C  
BRANCH   5   6
HETATM    6  O   UNL     1     -10.377  11.222  67.890  1.00  0.00    -0.174 OA 
BRANCH   6   7
HETATM    7  C   UNL     1     -11.472  12.157  67.821  1.00  0.00    -0.332 C  
BRANCH   7   8
HETATM    8  C   UNL     1     -11.300  13.272  68.849  1.00  0.00    -0.333 A  
HETATM    9  C   UNL     1     -10.263  14.210  68.690  1.00  0.00    -0.238 A  
HETATM   10  C   UNL     1     -12.241  13.484  69.869  1.00  0.00    -0.356 A  
HETATM   11  C   UNL     1     -10.200  15.349  69.494  1.00  0.00    -0.273 A  
HETATM   12  C   UNL     1     -12.167  14.618  70.681  1.00  0.00    -0.394 A  
HETATM   13  C   UNL     1     -11.158  15.557  70.483  1.00  0.00    -0.369 A  
ENDBRANCH   7   8
BRANCH   7  14
HETATM   14  C   UNL     1     -11.624  12.643  66.377  1.00  0.00    -0.441 A  
HETATM   15  C   UNL     1     -12.502  14.303  64.809  1.00  0.00    -0.390 A  
HETATM   16  C   UNL     1     -12.309  13.847  66.113  1.00  0.00    -0.504 A  
HETATM   17  C   UNL     1     -11.313  12.383  63.975  1.00  0.00    -0.465 A  
HETATM   18  C   UNL     1     -11.094  11.919  65.282  1.00  0.00    -0.354 A  
HETATM   19  C   UNL     1     -12.016  13.564  63.740  1.00  0.00    -0.475 A  
HETATM   20  C   UNL     1     -10.273  10.669  65.469  1.00  0.00    -0.329 C  
ENDBRANCH   7  14
ENDBRANCH   6   7
ENDBRANCH   5   6
ENDBRANCH   4   5
ENDBRANCH   2   4
TORSDOF 6
ENDMDL
MODEL      136
REMARK 921   NORMALIZED FREE ENERGY PREDICTED BY IDOCK:   -3.76 KCAL/MOL
REMARK 922        TOTAL FREE ENERGY PREDICTED BY IDOCK:   -6.13 KCAL/MOL
REMARK 923 INTER-LIGAND FREE ENERGY PREDICTED BY IDOCK:   -4.97 KCAL/MOL
REMARK 924 INTRA-LIGAND FREE ENERGY PREDICTED BY IDOCK:   -1.17 KCAL/MOL
REMARK 927      BINDING AFFINITY PREDICTED BY RF-SCORE:    0.00 PKD
ROOT
HETATM    1  C   UNL     1      -9.705   4.774  68.276  1.00  0.00    -0.140 C  
HETATM    2  N   UNL     1      -9.390   5.234  66.923  1.00  0.00    -0.123 NA 
HETATM    3  C   UNL     1     -10.164   4.473  65.944  1.00  0.00    -0.263 C  
ENDROOT
BRANCH   2   4
HETATM    4  C   UNL     1      -9.640   6.683  66.824  1.00  0.00    -0.166 C  
BRANCH   4   5
HETATM    5  C   UNL     1     -10.797   7.208  67.696  1.00  0.00    -0.209 C  
BRANCH   5   6
HETATM    6  O   UNL     1     -10.427   8.315  68.527  1.00  0.00    -0.207 OA 
BRANCH   6   7
HETATM    7  C   UNL     1     -10.498   8.088  69.949  1.00  0.00    -0.233 C  
BRANCH   7   8
HETATM    8  C   UNL     1      -9.109   8.140  70.579  1.00  0.00    -0.150 A  
HETATM    9  C   UNL     1      -7.991   8.424  69.773  1.00  0.00    -0.104 A  
HETATM   10  C   UNL     1      -8.928   8.062  71.968  1.00  0.00    -0.212 A  
HETATM   11  C   UNL     1      -6.743   8.674  70.345  1.00  0.00    -0.038 A  
HETATM   12  C   UNL     1      -7.674   8.299  72.537  1.00  0.00    -0.167 A  
HETATM   13  C   UNL     1      -6.587   8.620  71.728  1.00  0.00    -0.076 A  
ENDBRANCH   7   8
BRANCH   7  14
HETATM   14  C   UNL     1     -11.509   9.062  70.560  1.00  0.00    -0.248 A  
HETATM   15  C   UNL     1     -12.277  11.365  70.860  1.00  0.00    -0.447 A  
HETATM   16  C   UNL     1     -11.399  10.442  70.292  1.00  0.00    -0.406 A  
HETATM   17  C   UNL     1     -13.426   9.568  71.975  1.00  0.00    -0.522 A  
HETATM   18  C   UNL     1     -12.564   8.623  71.397  1.00  0.00    -0.325 A  
HETATM   19  C   UNL     1     -13.281  10.929  71.713  1.00  0.00    -0.513 A  
HETATM   20  C   UNL     1     -12.813   7.163  71.671  1.00  0.00    -0.420 C  
ENDBRANCH   7  14
ENDBRANCH   6   7
ENDBRANCH   5   6
ENDBRANCH   4   5
ENDBRANCH   2   4
TORSDOF 6
ENDMDL
MODEL      137
REMARK 921   NORMALIZED FREE ENERGY PREDICTED BY IDOCK:   -3.76 KCAL/MOL
REMARK 922        TOTAL FREE ENERGY PREDICTED BY IDOCK:   -6.13 KCAL/MOL
REMARK 923 INTER-LIGAND FREE ENERGY PREDICTED BY IDOCK:   -5.12 KCAL/MOL
REMARK 924 INTRA-LIGAND FREE ENERGY PREDICTED BY IDOCK:   -1.01 KCAL/MOL
REMARK 927      BINDING AFFINITY PREDICTED BY RF-SCORE:    0.00 PKD
ROOT
HETATM    1  C   UNL     1      -8.719  10.537  64.574  1.00  0.00    -0.180 C  
HETATM    2  N   UNL     1      -8.080  10.448  65.888  1.00  0.00    -0.144 NA 
HETATM    3  C   UNL     1      -6.627  10.512  65.742  1.00  0.00    -0.123 C  
ENDROOT
BRANCH   2   4
HETATM    4  C   UNL     1      -8.598  11.515  66.762  1.00  0.00    -0.170 C  
BRANCH   4   5
HETATM    5  C   UNL     1      -8.200  11.397  68.245  1.00  0.00    -0.150 C  
BRANCH   5   6
HETATM    6  O   UNL     1      -8.613  10.166  68.851  1.00  0.00    -0.123 OA 
BRANCH   6   7
HETATM    7  C   UNL     1      -9.911   9.676  68.460  1.00  0.00    -0.165 C  
BRANCH   7   8
HETATM    8  C   UNL     1      -9.825   8.231  67.976  1.00  0.00    -0.201 A  
HETATM    9  C   UNL     1      -8.762   7.416  68.409  1.00  0.00    -0.123 A  
HETATM   10  C   UNL     1     -10.858   7.641  67.231  1.00  0.00    -0.263 A  
HETATM   11  C   UNL     1      -8.761   6.045  68.148  1.00  0.00    -0.113 A  
HETATM   12  C   UNL     1     -10.847   6.272  66.960  1.00  0.00    -0.458 A  
HETATM   13  C   UNL     1      -9.809   5.472  67.432  1.00  0.00    -0.167 A  
ENDBRANCH   7   8
BRANCH   7  14
HETATM   14  C   UNL     1     -10.898   9.903  69.609  1.00  0.00    -0.281 A  
HETATM   15  C   UNL     1     -11.784   9.192  71.776  1.00  0.00    -0.456 A  
HETATM   16  C   UNL     1     -10.877   9.042  70.727  1.00  0.00    -0.310 A  
HETATM   17  C   UNL     1     -12.758  11.082  70.647  1.00  0.00    -0.375 A  
HETATM   18  C   UNL     1     -11.841  10.958  69.592  1.00  0.00    -0.416 A  
HETATM   19  C   UNL     1     -12.734  10.203  71.729  1.00  0.00    -0.534 A  
HETATM   20  C   UNL     1     -11.882  11.978  68.484  1.00  0.00    -0.369 C  
ENDBRANCH   7  14
ENDBRANCH   6   7
ENDBRANCH   5   6
ENDBRANCH   4   5
ENDBRANCH   2   4
TORSDOF 6
ENDMDL
MODEL      138
REMARK 921   NORMALIZED FREE ENERGY PREDICTED BY IDOCK:   -3.74 KCAL/MOL
REMARK 922        TOTAL FREE ENERGY PREDICTED BY IDOCK:   -6.11 KCAL/MOL
REMARK 923 INTER-LIGAND FREE ENERGY PREDICTED BY IDOCK:   -5.55 KCAL/MOL
REMARK 924 INTRA-LIGAND FREE ENERGY PREDICTED BY IDOCK:   -0.56 KCAL/MOL
REMARK 927      BINDING AFFINITY PREDICTED BY RF-SCORE:    0.00 PKD
ROOT
HETATM    1  C   UNL     1      -6.057  16.371  69.916  1.00  0.00    -0.187 C  
HETATM    2  N   UNL     1      -6.267  15.106  69.210  1.00  0.00    -0.107 NA 
HETATM    3  C   UNL     1      -6.380  14.011  70.171  1.00  0.00    -0.107 C  
ENDROOT
BRANCH   2   4
HETATM    4  C   UNL     1      -7.457  15.214  68.348  1.00  0.00    -0.115 C  
BRANCH   4   5
HETATM    5  C   UNL     1      -8.741  15.678  69.061  1.00  0.00    -0.240 C  
BRANCH   5   6
HETATM    6  O   UNL     1      -9.929  15.050  68.562  1.00  0.00    -0.208 OA 
BRANCH   6   7
HETATM    7  C   UNL     1     -10.338  13.845  69.240  1.00  0.00     0.083 C  
BRANCH   7   8
HETATM    8  C   UNL     1     -11.600  14.085  70.063  1.00  0.00    -0.302 A  
HETATM    9  C   UNL     1     -12.211  13.007  70.729  1.00  0.00    -0.359 A  
HETATM   10  C   UNL     1     -12.089  15.379  70.301  1.00  0.00    -0.402 A  
HETATM   11  C   UNL     1     -13.243  13.223  71.644  1.00  0.00    -0.446 A  
HETATM   12  C   UNL     1     -13.130  15.592  71.206  1.00  0.00    -0.581 A  
HETATM   13  C   UNL     1     -13.695  14.517  71.889  1.00  0.00    -0.516 A  
ENDBRANCH   7   8
BRANCH   7  14
HETATM   14  C   UNL     1     -10.452  12.711  68.218  1.00  0.00    -0.249 A  
HETATM   15  C   UNL     1      -9.784  10.471  67.494  1.00  0.00    -0.190 A  
HETATM   16  C   UNL     1      -9.736  11.513  68.420  1.00  0.00    -0.202 A  
HETATM   17  C   UNL     1     -11.283  11.771  66.130  1.00  0.00    -0.363 A  
HETATM   18  C   UNL     1     -11.262  12.821  67.061  1.00  0.00    -0.336 A  
HETATM   19  C   UNL     1     -10.547  10.607  66.341  1.00  0.00    -0.240 A  
HETATM   20  C   UNL     1     -12.129  14.026  66.803  1.00  0.00    -0.480 C  
ENDBRANCH   7  14
ENDBRANCH   6   7
ENDBRANCH   5   6
ENDBRANCH   4   5
ENDBRANCH   2   4
TORSDOF 6
ENDMDL
MODEL      139
REMARK 921   NORMALIZED FREE ENERGY PREDICTED BY IDOCK:   -3.73 KCAL/MOL
REMARK 922        TOTAL FREE ENERGY PREDICTED BY IDOCK:   -6.09 KCAL/MOL
REMARK 923 INTER-LIGAND FREE ENERGY PREDICTED BY IDOCK:   -5.24 KCAL/MOL
REMARK 924 INTRA-LIGAND FREE ENERGY PREDICTED BY IDOCK:   -0.86 KCAL/MOL
REMARK 927      BINDING AFFINITY PREDICTED BY RF-SCORE:    0.00 PKD
ROOT
HETATM    1  C   UNL     1      -7.190  14.739  69.020  1.00  0.00    -0.135 C  
HETATM    2  N   UNL     1      -6.229  13.635  68.984  1.00  0.00    -0.091 NA 
HETATM    3  C   UNL     1      -5.289  13.755  70.097  1.00  0.00    -0.102 C  
ENDROOT
BRANCH   2   4
HETATM    4  C   UNL     1      -6.953  12.352  69.005  1.00  0.00    -0.071 C  
BRANCH   4   5
HETATM    5  C   UNL     1      -7.453  11.860  67.633  1.00  0.00    -0.127 C  
BRANCH   5   6
HETATM    6  O   UNL     1      -8.730  11.213  67.690  1.00  0.00    -0.127 OA 
BRANCH   6   7
HETATM    7  C   UNL     1      -9.808  11.992  68.246  1.00  0.00    -0.204 C  
BRANCH   7   8
HETATM    8  C   UNL     1     -10.605  12.683  67.144  1.00  0.00    -0.252 A  
HETATM    9  C   UNL     1     -11.361  11.910  66.244  1.00  0.00    -0.394 A  
HETATM   10  C   UNL     1     -10.729  14.080  67.090  1.00  0.00    -0.283 A  
HETATM   11  C   UNL     1     -12.252  12.514  65.355  1.00  0.00    -0.475 A  
HETATM   12  C   UNL     1     -11.611  14.683  66.191  1.00  0.00    -0.332 A  
HETATM   13  C   UNL     1     -12.383  13.900  65.336  1.00  0.00    -0.494 A  
ENDBRANCH   7   8
BRANCH   7  14
HETATM   14  C   UNL     1     -10.643  11.102  69.170  1.00  0.00    -0.238 A  
HETATM   15  C   UNL     1     -11.131   8.870  70.046  1.00  0.00    -0.180 A  
HETATM   16  C   UNL     1     -10.369   9.720  69.245  1.00  0.00    -0.230 A  
HETATM   17  C   UNL     1     -12.464  10.747  70.748  1.00  0.00    -0.481 A  
HETATM   18  C   UNL     1     -11.695  11.621  69.963  1.00  0.00    -0.402 A  
HETATM   19  C   UNL     1     -12.188   9.382  70.786  1.00  0.00    -0.228 A  
HETATM   20  C   UNL     1     -12.007  13.094  70.015  1.00  0.00    -0.391 C  
ENDBRANCH   7  14
ENDBRANCH   6   7
ENDBRANCH   5   6
ENDBRANCH   4   5
ENDBRANCH   2   4
TORSDOF 6
ENDMDL
MODEL      140
REMARK 921   NORMALIZED FREE ENERGY PREDICTED BY IDOCK:   -3.72 KCAL/MOL
REMARK 922        TOTAL FREE ENERGY PREDICTED BY IDOCK:   -6.08 KCAL/MOL
REMARK 923 INTER-LIGAND FREE ENERGY PREDICTED BY IDOCK:   -5.32 KCAL/MOL
REMARK 924 INTRA-LIGAND FREE ENERGY PREDICTED BY IDOCK:   -0.76 KCAL/MOL
REMARK 927      BINDING AFFINITY PREDICTED BY RF-SCORE:    0.00 PKD
ROOT
HETATM    1  C   UNL     1     -12.011  16.367  73.032  1.00  0.00    -0.463 C  
HETATM    2  N   UNL     1     -12.672  15.442  72.110  1.00  0.00    -0.344 NA 
HETATM    3  C   UNL     1     -14.123  15.593  72.206  1.00  0.00    -0.475 C  
ENDROOT
BRANCH   2   4
HETATM    4  C   UNL     1     -12.180  15.675  70.741  1.00  0.00    -0.418 C  
BRANCH   4   5
HETATM    5  C   UNL     1     -10.648  15.764  70.602  1.00  0.00    -0.062 C  
BRANCH   5   6
HETATM    6  O   UNL     1     -10.215  16.140  69.289  1.00  0.00    -0.226 OA 
BRANCH   6   7
HETATM    7  C   UNL     1      -9.334  15.211  68.626  1.00  0.00    -0.199 C  
BRANCH   7   8
HETATM    8  C   UNL     1     -10.117  14.283  67.701  1.00  0.00    -0.229 A  
HETATM    9  C   UNL     1     -10.165  14.555  66.321  1.00  0.00    -0.306 A  
HETATM   10  C   UNL     1     -10.669  13.078  68.163  1.00  0.00    -0.258 A  
HETATM   11  C   UNL     1     -10.700  13.627  65.428  1.00  0.00    -0.311 A  
HETATM   12  C   UNL     1     -11.217  12.157  67.268  1.00  0.00    -0.366 A  
HETATM   13  C   UNL     1     -11.217  12.424  65.901  1.00  0.00    -0.373 A  
ENDBRANCH   7   8
BRANCH   7  14
HETATM   14  C   UNL     1      -8.211  15.992  67.938  1.00  0.00    -0.154 A  
HETATM   15  C   UNL     1      -7.522  17.905  66.578  1.00  0.00    -0.281 A  
HETATM   16  C   UNL     1      -8.510  17.186  67.249  1.00  0.00    -0.211 A  
HETATM   17  C   UNL     1      -5.886  16.281  67.271  1.00  0.00    -0.157 A  
HETATM   18  C   UNL     1      -6.864  15.555  67.968  1.00  0.00    -0.148 A  
HETATM   19  C   UNL     1      -6.213  17.445  66.577  1.00  0.00    -0.251 A  
HETATM   20  C   UNL     1      -6.434  14.341  68.749  1.00  0.00    -0.089 C  
ENDBRANCH   7  14
ENDBRANCH   6   7
ENDBRANCH   5   6
ENDBRANCH   4   5
ENDBRANCH   2   4
TORSDOF 6
ENDMDL
MODEL      141
REMARK 921   NORMALIZED FREE ENERGY PREDICTED BY IDOCK:   -3.72 KCAL/MOL
REMARK 922        TOTAL FREE ENERGY PREDICTED BY IDOCK:   -6.08 KCAL/MOL
REMARK 923 INTER-LIGAND FREE ENERGY PREDICTED BY IDOCK:   -5.40 KCAL/MOL
REMARK 924 INTRA-LIGAND FREE ENERGY PREDICTED BY IDOCK:   -0.68 KCAL/MOL
REMARK 927      BINDING AFFINITY PREDICTED BY RF-SCORE:    0.00 PKD
ROOT
HETATM    1  C   UNL     1      -8.392  18.811  66.250  1.00  0.00    -0.246 C  
HETATM    2  N   UNL     1      -9.808  18.801  66.623  1.00  0.00    -0.336 NA 
HETATM    3  C   UNL     1     -10.364  20.148  66.507  1.00  0.00    -0.383 C  
ENDROOT
BRANCH   2   4
HETATM    4  C   UNL     1     -10.531  17.828  65.786  1.00  0.00    -0.198 C  
BRANCH   4   5
HETATM    5  C   UNL     1     -10.185  16.351  66.052  1.00  0.00    -0.356 C  
BRANCH   5   6
HETATM    6  O   UNL     1     -10.728  15.850  67.280  1.00  0.00    -0.313 OA 
BRANCH   6   7
HETATM    7  C   UNL     1     -10.200  14.588  67.735  1.00  0.00    -0.226 C  
BRANCH   7   8
HETATM    8  C   UNL     1      -8.707  14.697  68.031  1.00  0.00    -0.167 A  
HETATM    9  C   UNL     1      -7.876  13.579  67.833  1.00  0.00    -0.159 A  
HETATM   10  C   UNL     1      -8.108  15.925  68.351  1.00  0.00    -0.149 A  
HETATM   11  C   UNL     1      -6.487  13.699  67.902  1.00  0.00    -0.159 A  
HETATM   12  C   UNL     1      -6.719  16.040  68.434  1.00  0.00    -0.120 A  
HETATM   13  C   UNL     1      -5.909  14.932  68.194  1.00  0.00    -0.141 A  
ENDBRANCH   7   8
BRANCH   7  14
HETATM   14  C   UNL     1     -11.045  14.087  68.909  1.00  0.00    -0.296 A  
HETATM   15  C   UNL     1     -12.197  14.569  71.014  1.00  0.00    -0.407 A  
HETATM   16  C   UNL     1     -11.459  14.993  69.909  1.00  0.00    -0.320 A  
HETATM   17  C   UNL     1     -12.159  12.318  70.160  1.00  0.00    -0.364 A  
HETATM   18  C   UNL     1     -11.433  12.731  69.031  1.00  0.00    -0.360 A  
HETATM   19  C   UNL     1     -12.534  13.229  71.146  1.00  0.00    -0.397 A  
HETATM   20  C   UNL     1     -11.113  11.708  67.972  1.00  0.00    -0.299 C  
ENDBRANCH   7  14
ENDBRANCH   6   7
ENDBRANCH   5   6
ENDBRANCH   4   5
ENDBRANCH   2   4
TORSDOF 6
ENDMDL
MODEL      142
REMARK 921   NORMALIZED FREE ENERGY PREDICTED BY IDOCK:   -3.72 KCAL/MOL
REMARK 922        TOTAL FREE ENERGY PREDICTED BY IDOCK:   -6.08 KCAL/MOL
REMARK 923 INTER-LIGAND FREE ENERGY PREDICTED BY IDOCK:   -5.20 KCAL/MOL
REMARK 924 INTRA-LIGAND FREE ENERGY PREDICTED BY IDOCK:   -0.88 KCAL/MOL
REMARK 927      BINDING AFFINITY PREDICTED BY RF-SCORE:    0.00 PKD
ROOT
HETATM    1  C   UNL     1      -8.834  11.162  67.260  1.00  0.00    -0.144 C  
HETATM    2  N   UNL     1      -9.419  11.909  68.375  1.00  0.00    -0.202 NA 
HETATM    3  C   UNL     1     -10.465  12.803  67.883  1.00  0.00    -0.220 C  
ENDROOT
BRANCH   2   4
HETATM    4  C   UNL     1      -9.926  10.966  69.387  1.00  0.00    -0.057 C  
BRANCH   4   5
HETATM    5  C   UNL     1      -9.195   9.611  69.445  1.00  0.00    -0.189 C  
BRANCH   5   6
HETATM    6  O   UNL     1     -10.081   8.485  69.469  1.00  0.00    -0.190 OA 
BRANCH   6   7
HETATM    7  C   UNL     1     -10.344   7.917  70.767  1.00  0.00    -0.203 C  
BRANCH   7   8
HETATM    8  C   UNL     1     -11.788   8.170  71.190  1.00  0.00    -0.303 A  
HETATM    9  C   UNL     1     -12.675   7.086  71.317  1.00  0.00    -0.400 A  
HETATM   10  C   UNL     1     -12.221   9.439  71.606  1.00  0.00    -0.467 A  
HETATM   11  C   UNL     1     -13.936   7.258  71.890  1.00  0.00    -0.371 A  
HETATM   12  C   UNL     1     -13.489   9.611  72.165  1.00  0.00    -0.516 A  
HETATM   13  C   UNL     1     -14.339   8.518  72.322  1.00  0.00    -0.483 A  
ENDBRANCH   7   8
BRANCH   7  14
HETATM   14  C   UNL     1      -9.935   6.441  70.758  1.00  0.00    -0.212 A  
HETATM   15  C   UNL     1      -9.715   4.338  69.527  1.00  0.00    -0.272 A  
HETATM   16  C   UNL     1     -10.041   5.694  69.567  1.00  0.00    -0.292 A  
HETATM   17  C   UNL     1      -9.141   4.421  71.864  1.00  0.00    -0.163 A  
HETATM   18  C   UNL     1      -9.447   5.791  71.917  1.00  0.00    -0.169 A  
HETATM   19  C   UNL     1      -9.279   3.699  70.680  1.00  0.00    -0.204 A  
HETATM   20  C   UNL     1      -9.217   6.526  73.212  1.00  0.00    -0.140 C  
ENDBRANCH   7  14
ENDBRANCH   6   7
ENDBRANCH   5   6
ENDBRANCH   4   5
ENDBRANCH   2   4
TORSDOF 6
ENDMDL
MODEL      143
REMARK 921   NORMALIZED FREE ENERGY PREDICTED BY IDOCK:   -3.71 KCAL/MOL
REMARK 922        TOTAL FREE ENERGY PREDICTED BY IDOCK:   -6.06 KCAL/MOL
REMARK 923 INTER-LIGAND FREE ENERGY PREDICTED BY IDOCK:   -5.64 KCAL/MOL
REMARK 924 INTRA-LIGAND FREE ENERGY PREDICTED BY IDOCK:   -0.42 KCAL/MOL
REMARK 927      BINDING AFFINITY PREDICTED BY RF-SCORE:    0.00 PKD
ROOT
HETATM    1  C   UNL     1      -6.785  11.778  69.452  1.00  0.00    -0.098 C  
HETATM    2  N   UNL     1      -6.573  11.071  68.188  1.00  0.00    -0.058 NA 
HETATM    3  C   UNL     1      -7.133   9.724  68.269  1.00  0.00    -0.077 C  
ENDROOT
BRANCH   2   4
HETATM    4  C   UNL     1      -7.160  11.850  67.083  1.00  0.00    -0.142 C  
BRANCH   4   5
HETATM    5  C   UNL     1      -7.502  13.313  67.423  1.00  0.00    -0.124 C  
BRANCH   5   6
HETATM    6  O   UNL     1      -8.872  13.652  67.173  1.00  0.00    -0.215 OA 
BRANCH   6   7
HETATM    7  C   UNL     1      -9.782  12.542  67.041  1.00  0.00    -0.213 C  
BRANCH   7   8
HETATM    8  C   UNL     1     -10.534  12.296  68.346  1.00  0.00    -0.244 A  
HETATM    9  C   UNL     1     -11.262  13.345  68.937  1.00  0.00    -0.320 A  
HETATM   10  C   UNL     1     -10.647  11.011  68.900  1.00  0.00    -0.239 A  
HETATM   11  C   UNL     1     -12.116  13.105  70.014  1.00  0.00    -0.375 A  
HETATM   12  C   UNL     1     -11.492  10.776  69.987  1.00  0.00    -0.412 A  
HETATM   13  C   UNL     1     -12.237  11.818  70.533  1.00  0.00    -0.438 A  
ENDBRANCH   7   8
BRANCH   7  14
HETATM   14  C   UNL     1     -10.682  12.775  65.825  1.00  0.00    -0.296 A  
HETATM   15  C   UNL     1     -11.950  11.845  63.951  1.00  0.00    -0.503 A  
HETATM   16  C   UNL     1     -11.159  11.672  65.087  1.00  0.00    -0.300 A  
HETATM   17  C   UNL     1     -11.839  14.231  64.251  1.00  0.00    -0.401 A  
HETATM   18  C   UNL     1     -11.058  14.075  65.408  1.00  0.00    -0.318 A  
HETATM   19  C   UNL     1     -12.277  13.125  63.525  1.00  0.00    -0.552 A  
HETATM   20  C   UNL     1     -10.670  15.308  66.181  1.00  0.00    -0.322 C  
ENDBRANCH   7  14
ENDBRANCH   6   7
ENDBRANCH   5   6
ENDBRANCH   4   5
ENDBRANCH   2   4
TORSDOF 6
ENDMDL
MODEL      144
REMARK 921   NORMALIZED FREE ENERGY PREDICTED BY IDOCK:   -3.71 KCAL/MOL
REMARK 922        TOTAL FREE ENERGY PREDICTED BY IDOCK:   -6.06 KCAL/MOL
REMARK 923 INTER-LIGAND FREE ENERGY PREDICTED BY IDOCK:   -5.84 KCAL/MOL
REMARK 924 INTRA-LIGAND FREE ENERGY PREDICTED BY IDOCK:   -0.22 KCAL/MOL
REMARK 927      BINDING AFFINITY PREDICTED BY RF-SCORE:    0.00 PKD
ROOT
HETATM    1  C   UNL     1     -12.803  15.667  71.251  1.00  0.00    -0.487 C  
HETATM    2  N   UNL     1     -12.531  14.633  72.251  1.00  0.00    -0.324 NA 
HETATM    3  C   UNL     1     -12.523  15.222  73.589  1.00  0.00    -0.589 C  
ENDROOT
BRANCH   2   4
HETATM    4  C   UNL     1     -13.526  13.553  72.126  1.00  0.00    -0.537 C  
BRANCH   4   5
HETATM    5  C   UNL     1     -13.010  12.262  71.461  1.00  0.00    -0.289 C  
BRANCH   5   6
HETATM    6  O   UNL     1     -11.929  12.484  70.547  1.00  0.00    -0.326 OA 
BRANCH   6   7
HETATM    7  C   UNL     1     -11.931  11.671  69.357  1.00  0.00    -0.316 C  
BRANCH   7   8
HETATM    8  C   UNL     1     -11.803  12.536  68.107  1.00  0.00    -0.371 A  
HETATM    9  C   UNL     1     -11.820  11.929  66.837  1.00  0.00    -0.177 A  
HETATM   10  C   UNL     1     -11.820  13.938  68.176  1.00  0.00    -0.407 A  
HETATM   11  C   UNL     1     -11.905  12.700  65.677  1.00  0.00    -0.488 A  
HETATM   12  C   UNL     1     -11.890  14.707  67.013  1.00  0.00    -0.358 A  
HETATM   13  C   UNL     1     -11.949  14.089  65.766  1.00  0.00    -0.417 A  
ENDBRANCH   7   8
BRANCH   7  14
HETATM   14  C   UNL     1     -10.859  10.586  69.491  1.00  0.00    -0.298 A  
HETATM   15  C   UNL     1     -10.288   8.259  69.987  1.00  0.00    -0.212 A  
HETATM   16  C   UNL     1     -11.237   9.267  69.818  1.00  0.00    -0.104 A  
HETATM   17  C   UNL     1      -8.541   9.839  69.489  1.00  0.00    -0.186 A  
HETATM   18  C   UNL     1      -9.484  10.861  69.297  1.00  0.00    -0.048 A  
HETATM   19  C   UNL     1      -8.939   8.549  69.837  1.00  0.00    -0.145 A  
HETATM   20  C   UNL     1      -8.992  12.217  68.862  1.00  0.00     0.237 C  
ENDBRANCH   7  14
ENDBRANCH   6   7
ENDBRANCH   5   6
ENDBRANCH   4   5
ENDBRANCH   2   4
TORSDOF 6
ENDMDL
MODEL      145
REMARK 921   NORMALIZED FREE ENERGY PREDICTED BY IDOCK:   -3.70 KCAL/MOL
REMARK 922        TOTAL FREE ENERGY PREDICTED BY IDOCK:   -6.06 KCAL/MOL
REMARK 923 INTER-LIGAND FREE ENERGY PREDICTED BY IDOCK:   -5.02 KCAL/MOL
REMARK 924 INTRA-LIGAND FREE ENERGY PREDICTED BY IDOCK:   -1.04 KCAL/MOL
REMARK 927      BINDING AFFINITY PREDICTED BY RF-SCORE:    0.00 PKD
ROOT
HETATM    1  C   UNL     1      -8.441   5.810  67.869  1.00  0.00    -0.103 C  
HETATM    2  N   UNL     1      -8.699   6.792  66.814  1.00  0.00    -0.118 NA 
HETATM    3  C   UNL     1      -8.193   6.295  65.536  1.00  0.00    -0.145 C  
ENDROOT
BRANCH   2   4
HETATM    4  C   UNL     1     -10.140   7.093  66.762  1.00  0.00    -0.208 C  
BRANCH   4   5
HETATM    5  C   UNL     1     -10.555   8.424  67.417  1.00  0.00    -0.243 C  
BRANCH   5   6
HETATM    6  O   UNL     1      -9.742   9.534  67.018  1.00  0.00    -0.159 OA 
BRANCH   6   7
HETATM    7  C   UNL     1     -10.369  10.493  66.143  1.00  0.00    -0.210 C  
BRANCH   7   8
HETATM    8  C   UNL     1     -10.499  11.851  66.828  1.00  0.00    -0.253 A  
HETATM    9  C   UNL     1     -11.700  12.189  67.478  1.00  0.00    -0.385 A  
HETATM   10  C   UNL     1      -9.402  12.716  66.961  1.00  0.00    -0.220 A  
HETATM   11  C   UNL     1     -11.783  13.329  68.279  1.00  0.00    -0.388 A  
HETATM   12  C   UNL     1      -9.492  13.864  67.751  1.00  0.00    -0.214 A  
HETATM   13  C   UNL     1     -10.676  14.161  68.422  1.00  0.00    -0.264 A  
ENDBRANCH   7   8
BRANCH   7  14
HETATM   14  C   UNL     1      -9.614  10.524  64.812  1.00  0.00    -0.342 A  
HETATM   15  C   UNL     1      -7.619   9.934  63.524  1.00  0.00    -0.143 A  
HETATM   16  C   UNL     1      -8.355   9.895  64.708  1.00  0.00    -0.163 A  
HETATM   17  C   UNL     1      -9.375  11.214  62.488  1.00  0.00    -0.271 A  
HETATM   18  C   UNL     1     -10.139  11.169  63.665  1.00  0.00    -0.432 A  
HETATM   19  C   UNL     1      -8.123  10.606  62.418  1.00  0.00    -0.233 A  
HETATM   20  C   UNL     1     -11.510  11.792  63.655  1.00  0.00    -0.524 C  
ENDBRANCH   7  14
ENDBRANCH   6   7
ENDBRANCH   5   6
ENDBRANCH   4   5
ENDBRANCH   2   4
TORSDOF 6
ENDMDL
MODEL      146
REMARK 921   NORMALIZED FREE ENERGY PREDICTED BY IDOCK:   -3.69 KCAL/MOL
REMARK 922        TOTAL FREE ENERGY PREDICTED BY IDOCK:   -6.04 KCAL/MOL
REMARK 923 INTER-LIGAND FREE ENERGY PREDICTED BY IDOCK:   -5.14 KCAL/MOL
REMARK 924 INTRA-LIGAND FREE ENERGY PREDICTED BY IDOCK:   -0.90 KCAL/MOL
REMARK 927      BINDING AFFINITY PREDICTED BY RF-SCORE:    0.00 PKD
ROOT
HETATM    1  C   UNL     1      -5.236  12.661  69.265  1.00  0.00    -0.069 C  
HETATM    2  N   UNL     1      -5.636  11.344  68.765  1.00  0.00    -0.043 NA 
HETATM    3  C   UNL     1      -5.981  10.469  69.883  1.00  0.00    -0.066 C  
ENDROOT
BRANCH   2   4
HETATM    4  C   UNL     1      -6.751  11.496  67.814  1.00  0.00    -0.072 C  
BRANCH   4   5
HETATM    5  C   UNL     1      -8.141  11.668  68.457  1.00  0.00    -0.145 C  
BRANCH   5   6
HETATM    6  O   UNL     1      -8.813  12.867  68.050  1.00  0.00    -0.180 OA 
BRANCH   6   7
HETATM    7  C   UNL     1     -10.253  12.814  68.052  1.00  0.00    -0.228 C  
BRANCH   7   8
HETATM    8  C   UNL     1     -10.833  13.807  69.056  1.00  0.00    -0.247 A  
HETATM    9  C   UNL     1     -10.145  15.005  69.324  1.00  0.00    -0.236 A  
HETATM   10  C   UNL     1     -12.111  13.633  69.610  1.00  0.00    -0.378 A  
HETATM   11  C   UNL     1     -10.740  16.018  70.078  1.00  0.00    -0.328 A  
HETATM   12  C   UNL     1     -12.698  14.642  70.376  1.00  0.00    -0.370 A  
HETATM   13  C   UNL     1     -12.020  15.839  70.596  1.00  0.00    -0.426 A  
ENDBRANCH   7   8
BRANCH   7  14
HETATM   14  C   UNL     1     -10.762  12.990  66.619  1.00  0.00    -0.285 A  
HETATM   15  C   UNL     1     -11.479  14.488  64.823  1.00  0.00    -0.408 A  
HETATM   16  C   UNL     1     -10.980  14.287  66.109  1.00  0.00    -0.313 A  
HETATM   17  C   UNL     1     -11.545  12.105  64.489  1.00  0.00    -0.403 A  
HETATM   18  C   UNL     1     -11.025  11.884  65.774  1.00  0.00    -0.359 A  
HETATM   19  C   UNL     1     -11.775  13.396  64.018  1.00  0.00    -0.465 A  
HETATM   20  C   UNL     1     -10.742  10.467  66.199  1.00  0.00    -0.115 C  
ENDBRANCH   7  14
ENDBRANCH   6   7
ENDBRANCH   5   6
ENDBRANCH   4   5
ENDBRANCH   2   4
TORSDOF 6
ENDMDL
MODEL      147
REMARK 921   NORMALIZED FREE ENERGY PREDICTED BY IDOCK:   -3.69 KCAL/MOL
REMARK 922        TOTAL FREE ENERGY PREDICTED BY IDOCK:   -6.04 KCAL/MOL
REMARK 923 INTER-LIGAND FREE ENERGY PREDICTED BY IDOCK:   -5.10 KCAL/MOL
REMARK 924 INTRA-LIGAND FREE ENERGY PREDICTED BY IDOCK:   -0.94 KCAL/MOL
REMARK 927      BINDING AFFINITY PREDICTED BY RF-SCORE:    0.00 PKD
ROOT
HETATM    1  C   UNL     1      -7.801   4.073  66.790  1.00  0.00    -0.093 C  
HETATM    2  N   UNL     1      -8.804   5.131  66.918  1.00  0.00    -0.110 NA 
HETATM    3  C   UNL     1      -9.753   5.056  65.809  1.00  0.00    -0.141 C  
ENDROOT
BRANCH   2   4
HETATM    4  C   UNL     1      -9.471   5.022  68.227  1.00  0.00    -0.133 C  
BRANCH   4   5
HETATM    5  C   UNL     1     -10.648   5.993  68.445  1.00  0.00    -0.261 C  
BRANCH   5   6
HETATM    6  O   UNL     1     -11.193   5.940  69.769  1.00  0.00    -0.389 OA 
BRANCH   6   7
HETATM    7  C   UNL     1     -10.697   6.928  70.695  1.00  0.00    -0.236 C  
BRANCH   7   8
HETATM    8  C   UNL     1     -11.673   8.095  70.820  1.00  0.00    -0.211 A  
HETATM    9  C   UNL     1     -12.803   7.969  71.650  1.00  0.00    -0.350 A  
HETATM   10  C   UNL     1     -11.399   9.348  70.251  1.00  0.00    -0.261 A  
HETATM   11  C   UNL     1     -13.601   9.076  71.942  1.00  0.00    -0.486 A  
HETATM   12  C   UNL     1     -12.208  10.451  70.534  1.00  0.00    -0.412 A  
HETATM   13  C   UNL     1     -13.298  10.318  71.391  1.00  0.00    -0.395 A  
ENDBRANCH   7   8
BRANCH   7  14
HETATM   14  C   UNL     1     -10.353   6.243  72.020  1.00  0.00    -0.231 A  
HETATM   15  C   UNL     1     -10.512   4.271  73.458  1.00  0.00    -0.265 A  
HETATM   16  C   UNL     1     -10.772   4.916  72.250  1.00  0.00    -0.218 A  
HETATM   17  C   UNL     1      -9.383   6.242  74.254  1.00  0.00    -0.185 A  
HETATM   18  C   UNL     1      -9.619   6.901  73.037  1.00  0.00    -0.178 A  
HETATM   19  C   UNL     1      -9.830   4.939  74.466  1.00  0.00    -0.213 A  
HETATM   20  C   UNL     1      -9.056   8.285  72.850  1.00  0.00    -0.332 C  
ENDBRANCH   7  14
ENDBRANCH   6   7
ENDBRANCH   5   6
ENDBRANCH   4   5
ENDBRANCH   2   4
TORSDOF 6
ENDMDL
MODEL      148
REMARK 921   NORMALIZED FREE ENERGY PREDICTED BY IDOCK:   -3.67 KCAL/MOL
REMARK 922        TOTAL FREE ENERGY PREDICTED BY IDOCK:   -6.02 KCAL/MOL
REMARK 923 INTER-LIGAND FREE ENERGY PREDICTED BY IDOCK:   -5.35 KCAL/MOL
REMARK 924 INTRA-LIGAND FREE ENERGY PREDICTED BY IDOCK:   -0.67 KCAL/MOL
REMARK 927      BINDING AFFINITY PREDICTED BY RF-SCORE:    0.00 PKD
ROOT
HETATM    1  C   UNL     1      -9.790   3.855  67.459  1.00  0.00    -0.018 C  
HETATM    2  N   UNL     1      -9.409   4.906  66.515  1.00  0.00    -0.133 NA 
HETATM    3  C   UNL     1     -10.044   4.668  65.220  1.00  0.00    -0.101 C  
ENDROOT
BRANCH   2   4
HETATM    4  C   UNL     1      -9.765   6.223  67.073  1.00  0.00    -0.144 C  
BRANCH   4   5
HETATM    5  C   UNL     1     -10.875   6.203  68.141  1.00  0.00    -0.306 C  
BRANCH   5   6
HETATM    6  O   UNL     1     -10.499   6.844  69.366  1.00  0.00    -0.199 OA 
BRANCH   6   7
HETATM    7  C   UNL     1     -11.404   6.667  70.474  1.00  0.00    -0.358 C  
BRANCH   7   8
HETATM    8  C   UNL     1     -10.723   5.923  71.619  1.00  0.00    -0.308 A  
HETATM    9  C   UNL     1     -11.428   5.694  72.816  1.00  0.00    -0.328 A  
HETATM   10  C   UNL     1      -9.463   5.323  71.462  1.00  0.00    -0.191 A  
HETATM   11  C   UNL     1     -10.910   4.850  73.800  1.00  0.00    -0.376 A  
HETATM   12  C   UNL     1      -8.942   4.491  72.455  1.00  0.00    -0.133 A  
HETATM   13  C   UNL     1      -9.672   4.242  73.615  1.00  0.00    -0.144 A  
ENDBRANCH   7   8
BRANCH   7  14
HETATM   14  C   UNL     1     -11.991   8.027  70.862  1.00  0.00    -0.201 A  
HETATM   15  C   UNL     1     -11.706  10.448  71.062  1.00  0.00    -0.430 A  
HETATM   16  C   UNL     1     -11.222   9.196  70.686  1.00  0.00    -0.322 A  
HETATM   17  C   UNL     1     -13.760   9.422  71.787  1.00  0.00    -0.418 A  
HETATM   18  C   UNL     1     -13.296   8.156  71.397  1.00  0.00    -0.243 A  
HETATM   19  C   UNL     1     -12.970  10.559  71.626  1.00  0.00    -0.581 A  
HETATM   20  C   UNL     1     -14.223   6.978  71.540  1.00  0.00    -0.413 C  
ENDBRANCH   7  14
ENDBRANCH   6   7
ENDBRANCH   5   6
ENDBRANCH   4   5
ENDBRANCH   2   4
TORSDOF 6
ENDMDL
MODEL      149
REMARK 921   NORMALIZED FREE ENERGY PREDICTED BY IDOCK:   -3.66 KCAL/MOL
REMARK 922        TOTAL FREE ENERGY PREDICTED BY IDOCK:   -6.00 KCAL/MOL
REMARK 923 INTER-LIGAND FREE ENERGY PREDICTED BY IDOCK:   -5.16 KCAL/MOL
REMARK 924 INTRA-LIGAND FREE ENERGY PREDICTED BY IDOCK:   -0.84 KCAL/MOL
REMARK 927      BINDING AFFINITY PREDICTED BY RF-SCORE:    0.00 PKD
ROOT
HETATM    1  C   UNL     1     -10.398   4.531  66.096  1.00  0.00    -0.223 C  
HETATM    2  N   UNL     1      -9.894   5.081  67.355  1.00  0.00    -0.165 NA 
HETATM    3  C   UNL     1      -8.487   5.450  67.212  1.00  0.00    -0.106 C  
ENDROOT
BRANCH   2   4
HETATM    4  C   UNL     1     -10.729   6.226  67.762  1.00  0.00    -0.306 C  
BRANCH   4   5
HETATM    5  C   UNL     1     -10.090   7.611  67.546  1.00  0.00    -0.202 C  
BRANCH   5   6
HETATM    6  O   UNL     1     -10.737   8.658  68.281  1.00  0.00    -0.164 OA 
BRANCH   6   7
HETATM    7  C   UNL     1     -10.196   8.938  69.587  1.00  0.00    -0.206 C  
BRANCH   7   8
HETATM    8  C   UNL     1      -9.091   9.987  69.506  1.00  0.00    -0.236 A  
HETATM    9  C   UNL     1      -7.936   9.843  70.297  1.00  0.00    -0.135 A  
HETATM   10  C   UNL     1      -9.123  11.017  68.553  1.00  0.00    -0.173 A  
HETATM   11  C   UNL     1      -6.829  10.670  70.102  1.00  0.00    -0.119 A  
HETATM   12  C   UNL     1      -8.018  11.852  68.370  1.00  0.00    -0.154 A  
HETATM   13  C   UNL     1      -6.867  11.668  69.132  1.00  0.00    -0.111 A  
ENDBRANCH   7   8
BRANCH   7  14
HETATM   14  C   UNL     1     -11.344   9.296  70.536  1.00  0.00    -0.306 A  
HETATM   15  C   UNL     1     -12.826  11.000  71.476  1.00  0.00    -0.555 A  
HETATM   16  C   UNL     1     -11.809  10.626  70.598  1.00  0.00    -0.463 A  
HETATM   17  C   UNL     1     -12.971   8.728  72.256  1.00  0.00    -0.462 A  
HETATM   18  C   UNL     1     -11.963   8.329  71.365  1.00  0.00    -0.333 A  
HETATM   19  C   UNL     1     -13.397  10.053  72.316  1.00  0.00    -0.387 A  
HETATM   20  C   UNL     1     -11.593   6.870  71.306  1.00  0.00    -0.352 C  
ENDBRANCH   7  14
ENDBRANCH   6   7
ENDBRANCH   5   6
ENDBRANCH   4   5
ENDBRANCH   2   4
TORSDOF 6
ENDMDL
MODEL      150
REMARK 921   NORMALIZED FREE ENERGY PREDICTED BY IDOCK:   -3.65 KCAL/MOL
REMARK 922        TOTAL FREE ENERGY PREDICTED BY IDOCK:   -5.98 KCAL/MOL
REMARK 923 INTER-LIGAND FREE ENERGY PREDICTED BY IDOCK:   -4.90 KCAL/MOL
REMARK 924 INTRA-LIGAND FREE ENERGY PREDICTED BY IDOCK:   -1.09 KCAL/MOL
REMARK 927      BINDING AFFINITY PREDICTED BY RF-SCORE:    0.00 PKD
ROOT
HETATM    1  C   UNL     1      -8.464  10.204  65.896  1.00  0.00    -0.141 C  
HETATM    2  N   UNL     1      -8.590   8.914  66.576  1.00  0.00    -0.121 NA 
HETATM    3  C   UNL     1      -8.497   7.826  65.604  1.00  0.00    -0.141 C  
ENDROOT
BRANCH   2   4
HETATM    4  C   UNL     1      -7.563   8.808  67.627  1.00  0.00    -0.097 C  
BRANCH   4   5
HETATM    5  C   UNL     1      -7.985   9.337  69.011  1.00  0.00    -0.097 C  
BRANCH   5   6
HETATM    6  O   UNL     1      -9.374   9.132  69.300  1.00  0.00    -0.152 OA 
BRANCH   6   7
HETATM    7  C   UNL     1      -9.680   8.668  70.630  1.00  0.00    -0.184 C  
BRANCH   7   8
HETATM    8  C   UNL     1     -10.969   9.302  71.145  1.00  0.00    -0.409 A  
HETATM    9  C   UNL     1     -11.399  10.532  70.614  1.00  0.00    -0.363 A  
HETATM   10  C   UNL     1     -11.823   8.621  72.026  1.00  0.00    -0.443 A  
HETATM   11  C   UNL     1     -12.664  11.038  70.915  1.00  0.00    -0.452 A  
HETATM   12  C   UNL     1     -13.083   9.136  72.337  1.00  0.00    -0.493 A  
HETATM   13  C   UNL     1     -13.509  10.334  71.769  1.00  0.00    -0.387 A  
ENDBRANCH   7   8
BRANCH   7  14
HETATM   14  C   UNL     1      -9.678   7.137  70.638  1.00  0.00    -0.175 A  
HETATM   15  C   UNL     1     -10.274   5.038  69.531  1.00  0.00    -0.286 A  
HETATM   16  C   UNL     1     -10.222   6.432  69.544  1.00  0.00    -0.228 A  
HETATM   17  C   UNL     1      -9.220   4.991  71.695  1.00  0.00    -0.178 A  
HETATM   18  C   UNL     1      -9.143   6.392  71.717  1.00  0.00    -0.143 A  
HETATM   19  C   UNL     1      -9.786   4.318  70.613  1.00  0.00    -0.274 A  
HETATM   20  C   UNL     1      -8.464   7.054  72.888  1.00  0.00    -0.130 C  
ENDBRANCH   7  14
ENDBRANCH   6   7
ENDBRANCH   5   6
ENDBRANCH   4   5
ENDBRANCH   2   4
TORSDOF 6
ENDMDL
MODEL      151
REMARK 921   NORMALIZED FREE ENERGY PREDICTED BY IDOCK:   -3.64 KCAL/MOL
REMARK 922        TOTAL FREE ENERGY PREDICTED BY IDOCK:   -5.97 KCAL/MOL
REMARK 923 INTER-LIGAND FREE ENERGY PREDICTED BY IDOCK:   -5.59 KCAL/MOL
REMARK 924 INTRA-LIGAND FREE ENERGY PREDICTED BY IDOCK:   -0.38 KCAL/MOL
REMARK 927      BINDING AFFINITY PREDICTED BY RF-SCORE:    0.00 PKD
ROOT
HETATM    1  C   UNL     1      -7.169   6.309  71.727  1.00  0.00    -0.087 C  
HETATM    2  N   UNL     1      -7.362   7.131  72.923  1.00  0.00    -0.073 NA 
HETATM    3  C   UNL     1      -6.074   7.393  73.562  1.00  0.00    -0.060 C  
ENDROOT
BRANCH   2   4
HETATM    4  C   UNL     1      -8.064   8.374  72.559  1.00  0.00    -0.116 C  
BRANCH   4   5
HETATM    5  C   UNL     1      -8.765   8.352  71.187  1.00  0.00    -0.159 C  
BRANCH   5   6
HETATM    6  O   UNL     1      -9.705   9.420  71.010  1.00  0.00    -0.275 OA 
BRANCH   6   7
HETATM    7  C   UNL     1     -10.827   9.135  70.151  1.00  0.00    -0.240 C  
BRANCH   7   8
HETATM    8  C   UNL     1     -12.008   8.603  70.958  1.00  0.00    -0.278 A  
HETATM    9  C   UNL     1     -12.780   9.493  71.729  1.00  0.00    -0.492 A  
HETATM   10  C   UNL     1     -12.444   7.275  70.837  1.00  0.00    -0.266 A  
HETATM   11  C   UNL     1     -13.977   9.077  72.315  1.00  0.00    -0.522 A  
HETATM   12  C   UNL     1     -13.634   6.858  71.437  1.00  0.00    -0.234 A  
HETATM   13  C   UNL     1     -14.408   7.762  72.161  1.00  0.00    -0.376 A  
ENDBRANCH   7   8
BRANCH   7  14
HETATM   14  C   UNL     1     -11.141  10.376  69.311  1.00  0.00    -0.303 A  
HETATM   15  C   UNL     1     -11.943  12.685  69.207  1.00  0.00    -0.301 A  
HETATM   16  C   UNL     1     -11.610  11.547  69.942  1.00  0.00    -0.387 A  
HETATM   17  C   UNL     1     -11.331  11.540  67.180  1.00  0.00    -0.354 A  
HETATM   18  C   UNL     1     -10.974  10.393  67.905  1.00  0.00    -0.354 A  
HETATM   19  C   UNL     1     -11.817  12.676  67.825  1.00  0.00    -0.381 A  
HETATM   20  C   UNL     1     -10.397   9.221  67.153  1.00  0.00    -0.330 C  
ENDBRANCH   7  14
ENDBRANCH   6   7
ENDBRANCH   5   6
ENDBRANCH   4   5
ENDBRANCH   2   4
TORSDOF 6
ENDMDL
MODEL      152
REMARK 921   NORMALIZED FREE ENERGY PREDICTED BY IDOCK:   -3.64 KCAL/MOL
REMARK 922        TOTAL FREE ENERGY PREDICTED BY IDOCK:   -5.97 KCAL/MOL
REMARK 923 INTER-LIGAND FREE ENERGY PREDICTED BY IDOCK:   -6.03 KCAL/MOL
REMARK 924 INTRA-LIGAND FREE ENERGY PREDICTED BY IDOCK:    0.06 KCAL/MOL
REMARK 927      BINDING AFFINITY PREDICTED BY RF-SCORE:    0.00 PKD
ROOT
HETATM    1  C   UNL     1      -8.360  11.187  67.836  1.00  0.00    -0.129 C  
HETATM    2  N   UNL     1      -9.461  12.147  67.748  1.00  0.00    -0.186 NA 
HETATM    3  C   UNL     1      -8.997  13.383  67.120  1.00  0.00    -0.226 C  
ENDROOT
BRANCH   2   4
HETATM    4  C   UNL     1     -10.586  11.541  67.015  1.00  0.00    -0.242 C  
BRANCH   4   5
HETATM    5  C   UNL     1     -11.261  10.349  67.720  1.00  0.00    -0.237 C  
BRANCH   5   6
HETATM    6  O   UNL     1     -12.161  10.740  68.765  1.00  0.00    -0.451 OA 
BRANCH   6   7
HETATM    7  C   UNL     1     -11.556  11.044  70.037  1.00  0.00    -0.344 C  
BRANCH   7   8
HETATM    8  C   UNL     1     -12.217  12.262  70.677  1.00  0.00    -0.378 A  
HETATM    9  C   UNL     1     -12.187  13.500  70.010  1.00  0.00    -0.381 A  
HETATM   10  C   UNL     1     -12.989  12.152  71.845  1.00  0.00    -0.419 A  
HETATM   11  C   UNL     1     -12.947  14.578  70.467  1.00  0.00    -0.303 A  
HETATM   12  C   UNL     1     -13.737  13.236  72.308  1.00  0.00    -0.686 A  
HETATM   13  C   UNL     1     -13.729  14.442  71.611  1.00  0.00    -0.484 A  
ENDBRANCH   7   8
BRANCH   7  14
HETATM   14  C   UNL     1     -11.566   9.785  70.909  1.00  0.00    -0.441 A  
HETATM   15  C   UNL     1     -10.329   8.179  72.278  1.00  0.00    -0.361 A  
HETATM   16  C   UNL     1     -10.369   9.342  71.509  1.00  0.00    -0.364 A  
HETATM   17  C   UNL     1     -12.685   7.862  71.899  1.00  0.00    -0.341 A  
HETATM   18  C   UNL     1     -12.748   9.040  71.138  1.00  0.00    -0.242 A  
HETATM   19  C   UNL     1     -11.484   7.432  72.461  1.00  0.00    -0.346 A  
HETATM   20  C   UNL     1     -14.088   9.482  70.612  1.00  0.00     0.535 C  
ENDBRANCH   7  14
ENDBRANCH   6   7
ENDBRANCH   5   6
ENDBRANCH   4   5
ENDBRANCH   2   4
TORSDOF 6
ENDMDL
MODEL      153
REMARK 921   NORMALIZED FREE ENERGY PREDICTED BY IDOCK:   -3.63 KCAL/MOL
REMARK 922        TOTAL FREE ENERGY PREDICTED BY IDOCK:   -5.96 KCAL/MOL
REMARK 923 INTER-LIGAND FREE ENERGY PREDICTED BY IDOCK:   -4.99 KCAL/MOL
REMARK 924 INTRA-LIGAND FREE ENERGY PREDICTED BY IDOCK:   -0.97 KCAL/MOL
REMARK 927      BINDING AFFINITY PREDICTED BY RF-SCORE:    0.00 PKD
ROOT
HETATM    1  C   UNL     1     -11.755   6.615  71.981  1.00  0.00    -0.313 C  
HETATM    2  N   UNL     1     -11.881   8.043  71.689  1.00  0.00    -0.277 NA 
HETATM    3  C   UNL     1     -13.034   8.598  72.396  1.00  0.00    -0.351 C  
ENDROOT
BRANCH   2   4
HETATM    4  C   UNL     1     -10.628   8.732  72.044  1.00  0.00    -0.344 C  
BRANCH   4   5
HETATM    5  C   UNL     1      -9.805   9.252  70.850  1.00  0.00    -0.293 C  
BRANCH   5   6
HETATM    6  O   UNL     1     -10.433   9.022  69.582  1.00  0.00    -0.212 OA 
BRANCH   6   7
HETATM    7  C   UNL     1      -9.544   8.837  68.462  1.00  0.00    -0.150 C  
BRANCH   7   8
HETATM    8  C   UNL     1      -9.608   7.401  67.949  1.00  0.00    -0.157 A  
HETATM    9  C   UNL     1     -10.756   6.957  67.267  1.00  0.00    -0.421 A  
HETATM   10  C   UNL     1      -8.492   6.550  68.002  1.00  0.00    -0.119 A  
HETATM   11  C   UNL     1     -10.767   5.723  66.615  1.00  0.00    -0.333 A  
HETATM   12  C   UNL     1      -8.512   5.310  67.361  1.00  0.00    -0.106 A  
HETATM   13  C   UNL     1      -9.642   4.904  66.655  1.00  0.00    -0.171 A  
ENDBRANCH   7   8
BRANCH   7  14
HETATM   14  C   UNL     1      -9.844   9.903  67.405  1.00  0.00    -0.223 A  
HETATM   15  C   UNL     1     -11.367  11.598  66.516  1.00  0.00    -0.331 A  
HETATM   16  C   UNL     1     -11.040  10.645  67.481  1.00  0.00    -0.367 A  
HETATM   17  C   UNL     1      -9.306  11.123  65.366  1.00  0.00    -0.243 A  
HETATM   18  C   UNL     1      -8.952  10.174  66.339  1.00  0.00    -0.163 A  
HETATM   19  C   UNL     1     -10.507  11.826  65.451  1.00  0.00    -0.317 A  
HETATM   20  C   UNL     1      -7.613   9.495  66.222  1.00  0.00    -0.097 C  
ENDBRANCH   7  14
ENDBRANCH   6   7
ENDBRANCH   5   6
ENDBRANCH   4   5
ENDBRANCH   2   4
TORSDOF 6
ENDMDL
MODEL      154
REMARK 921   NORMALIZED FREE ENERGY PREDICTED BY IDOCK:   -3.62 KCAL/MOL
REMARK 922        TOTAL FREE ENERGY PREDICTED BY IDOCK:   -5.94 KCAL/MOL
REMARK 923 INTER-LIGAND FREE ENERGY PREDICTED BY IDOCK:   -5.18 KCAL/MOL
REMARK 924 INTRA-LIGAND FREE ENERGY PREDICTED BY IDOCK:   -0.77 KCAL/MOL
REMARK 927      BINDING AFFINITY PREDICTED BY RF-SCORE:    0.00 PKD
ROOT
HETATM    1  C   UNL     1     -10.877  19.828  65.546  1.00  0.00    -0.151 C  
HETATM    2  N   UNL     1      -9.580  19.728  66.218  1.00  0.00    -0.405 NA 
HETATM    3  C   UNL     1      -9.532  20.651  67.350  1.00  0.00    -0.376 C  
ENDROOT
BRANCH   2   4
HETATM    4  C   UNL     1      -9.345  18.332  66.629  1.00  0.00    -0.303 C  
BRANCH   4   5
HETATM    5  C   UNL     1     -10.514  17.365  66.363  1.00  0.00    -0.267 C  
BRANCH   5   6
HETATM    6  O   UNL     1     -10.119  16.167  65.682  1.00  0.00    -0.359 OA 
BRANCH   6   7
HETATM    7  C   UNL     1     -10.497  14.929  66.316  1.00  0.00    -0.302 C  
BRANCH   7   8
HETATM    8  C   UNL     1     -10.991  13.918  65.285  1.00  0.00    -0.331 A  
HETATM    9  C   UNL     1     -12.223  14.131  64.638  1.00  0.00    -0.465 A  
HETATM   10  C   UNL     1     -10.183  12.857  64.848  1.00  0.00    -0.296 A  
HETATM   11  C   UNL     1     -12.608  13.339  63.555  1.00  0.00    -0.172 A  
HETATM   12  C   UNL     1     -10.577  12.058  63.773  1.00  0.00    -0.478 A  
HETATM   13  C   UNL     1     -11.781  12.309  63.117  1.00  0.00    -0.309 A  
ENDBRANCH   7   8
BRANCH   7  14
HETATM   14  C   UNL     1      -9.333  14.435  67.181  1.00  0.00    -0.226 A  
HETATM   15  C   UNL     1      -6.949  14.514  67.723  1.00  0.00    -0.194 A  
HETATM   16  C   UNL     1      -8.041  14.965  66.982  1.00  0.00    -0.200 A  
HETATM   17  C   UNL     1      -8.395  12.999  68.910  1.00  0.00     0.263 A  
HETATM   18  C   UNL     1      -9.509  13.454  68.187  1.00  0.00    -0.218 A  
HETATM   19  C   UNL     1      -7.124  13.521  68.676  1.00  0.00    -0.106 A  
HETATM   20  C   UNL     1     -10.864  12.894  68.531  1.00  0.00    -0.283 C  
ENDBRANCH   7  14
ENDBRANCH   6   7
ENDBRANCH   5   6
ENDBRANCH   4   5
ENDBRANCH   2   4
TORSDOF 6
ENDMDL
MODEL      155
REMARK 921   NORMALIZED FREE ENERGY PREDICTED BY IDOCK:   -3.61 KCAL/MOL
REMARK 922        TOTAL FREE ENERGY PREDICTED BY IDOCK:   -5.92 KCAL/MOL
REMARK 923 INTER-LIGAND FREE ENERGY PREDICTED BY IDOCK:   -5.27 KCAL/MOL
REMARK 924 INTRA-LIGAND FREE ENERGY PREDICTED BY IDOCK:   -0.66 KCAL/MOL
REMARK 927      BINDING AFFINITY PREDICTED BY RF-SCORE:    0.00 PKD
ROOT
HETATM    1  C   UNL     1     -10.282  10.902  63.966  1.00  0.00    -0.357 C  
HETATM    2  N   UNL     1     -10.955  12.104  63.472  1.00  0.00    -0.440 NA 
HETATM    3  C   UNL     1     -12.364  11.816  63.211  1.00  0.00    -0.294 C  
ENDROOT
BRANCH   2   4
HETATM    4  C   UNL     1     -10.784  13.199  64.444  1.00  0.00    -0.407 C  
BRANCH   4   5
HETATM    5  C   UNL     1     -11.893  13.311  65.507  1.00  0.00    -0.370 C  
BRANCH   5   6
HETATM    6  O   UNL     1     -11.405  13.664  66.807  1.00  0.00    -0.310 OA 
BRANCH   6   7
HETATM    7  C   UNL     1     -10.096  13.164  67.145  1.00  0.00    -0.242 C  
BRANCH   7   8
HETATM    8  C   UNL     1      -9.270  14.235  67.853  1.00  0.00    -0.194 A  
HETATM    9  C   UNL     1      -8.062  13.880  68.480  1.00  0.00    -0.133 A  
HETATM   10  C   UNL     1      -9.603  15.596  67.768  1.00  0.00    -0.209 A  
HETATM   11  C   UNL     1      -7.191  14.859  68.960  1.00  0.00    -0.138 A  
HETATM   12  C   UNL     1      -8.735  16.573  68.261  1.00  0.00    -0.209 A  
HETATM   13  C   UNL     1      -7.524  16.205  68.842  1.00  0.00    -0.197 A  
ENDBRANCH   7   8
BRANCH   7  14
HETATM   14  C   UNL     1     -10.247  11.858  67.930  1.00  0.00    -0.203 A  
HETATM   15  C   UNL     1      -9.587   9.525  68.258  1.00  0.00    -0.151 A  
HETATM   16  C   UNL     1      -9.452  10.744  67.593  1.00  0.00    -0.166 A  
HETATM   17  C   UNL     1     -11.305  10.487  69.643  1.00  0.00    -0.345 A  
HETATM   18  C   UNL     1     -11.169  11.726  68.997  1.00  0.00    -0.324 A  
HETATM   19  C   UNL     1     -10.524   9.393  69.274  1.00  0.00    -0.230 A  
HETATM   20  C   UNL     1     -11.999  12.884  69.486  1.00  0.00    -0.346 C  
ENDBRANCH   7  14
ENDBRANCH   6   7
ENDBRANCH   5   6
ENDBRANCH   4   5
ENDBRANCH   2   4
TORSDOF 6
ENDMDL
MODEL      156
REMARK 921   NORMALIZED FREE ENERGY PREDICTED BY IDOCK:   -3.60 KCAL/MOL
REMARK 922        TOTAL FREE ENERGY PREDICTED BY IDOCK:   -5.92 KCAL/MOL
REMARK 923 INTER-LIGAND FREE ENERGY PREDICTED BY IDOCK:   -4.84 KCAL/MOL
REMARK 924 INTRA-LIGAND FREE ENERGY PREDICTED BY IDOCK:   -1.08 KCAL/MOL
REMARK 927      BINDING AFFINITY PREDICTED BY RF-SCORE:    0.00 PKD
ROOT
HETATM    1  C   UNL     1      -9.214   3.489  69.251  1.00  0.00    -0.161 C  
HETATM    2  N   UNL     1      -9.766   4.059  70.481  1.00  0.00    -0.191 NA 
HETATM    3  C   UNL     1      -8.995   3.599  71.634  1.00  0.00    -0.106 C  
ENDROOT
BRANCH   2   4
HETATM    4  C   UNL     1      -9.787   5.529  70.377  1.00  0.00    -0.197 C  
BRANCH   4   5
HETATM    5  C   UNL     1     -10.787   6.099  69.354  1.00  0.00    -0.353 C  
BRANCH   5   6
HETATM    6  O   UNL     1     -10.466   7.427  68.921  1.00  0.00    -0.204 OA 
BRANCH   6   7
HETATM    7  C   UNL     1      -9.913   8.301  69.925  1.00  0.00    -0.190 C  
BRANCH   7   8
HETATM    8  C   UNL     1      -8.607   8.927  69.442  1.00  0.00    -0.133 A  
HETATM    9  C   UNL     1      -7.862   9.741  70.315  1.00  0.00    -0.190 A  
HETATM   10  C   UNL     1      -8.046   8.594  68.199  1.00  0.00    -0.115 A  
HETATM   11  C   UNL     1      -6.576  10.164  69.975  1.00  0.00    -0.117 A  
HETATM   12  C   UNL     1      -6.765   9.030  67.856  1.00  0.00    -0.068 A  
HETATM   13  C   UNL     1      -6.024   9.800  68.750  1.00  0.00    -0.038 A  
ENDBRANCH   7   8
BRANCH   7  14
HETATM   14  C   UNL     1     -10.981   9.311  70.351  1.00  0.00    -0.302 A  
HETATM   15  C   UNL     1     -12.242  11.352  69.871  1.00  0.00    -0.346 A  
HETATM   16  C   UNL     1     -11.302  10.390  69.501  1.00  0.00    -0.325 A  
HETATM   17  C   UNL     1     -12.598  10.188  71.948  1.00  0.00    -0.437 A  
HETATM   18  C   UNL     1     -11.669   9.201  71.584  1.00  0.00    -0.448 A  
HETATM   19  C   UNL     1     -12.879  11.259  71.100  1.00  0.00    -0.452 A  
HETATM   20  C   UNL     1     -11.457   8.038  72.518  1.00  0.00    -0.471 C  
ENDBRANCH   7  14
ENDBRANCH   6   7
ENDBRANCH   5   6
ENDBRANCH   4   5
ENDBRANCH   2   4
TORSDOF 6
ENDMDL
MODEL      157
REMARK 921   NORMALIZED FREE ENERGY PREDICTED BY IDOCK:   -3.60 KCAL/MOL
REMARK 922        TOTAL FREE ENERGY PREDICTED BY IDOCK:   -5.92 KCAL/MOL
REMARK 923 INTER-LIGAND FREE ENERGY PREDICTED BY IDOCK:   -5.68 KCAL/MOL
REMARK 924 INTRA-LIGAND FREE ENERGY PREDICTED BY IDOCK:   -0.24 KCAL/MOL
REMARK 927      BINDING AFFINITY PREDICTED BY RF-SCORE:    0.00 PKD
ROOT
HETATM    1  C   UNL     1     -13.143  10.907  71.691  1.00  0.00    -0.433 C  
HETATM    2  N   UNL     1     -12.048   9.951  71.521  1.00  0.00    -0.400 NA 
HETATM    3  C   UNL     1     -12.410   8.666  72.116  1.00  0.00    -0.386 C  
ENDROOT
BRANCH   2   4
HETATM    4  C   UNL     1     -11.718   9.827  70.090  1.00  0.00    -0.130 C  
BRANCH   4   5
HETATM    5  C   UNL     1     -10.644  10.805  69.579  1.00  0.00    -0.196 C  
BRANCH   5   6
HETATM    6  O   UNL     1     -11.040  11.525  68.405  1.00  0.00    -0.201 OA 
BRANCH   6   7
HETATM    7  C   UNL     1     -10.166  11.403  67.265  1.00  0.00    -0.199 C  
BRANCH   7   8
HETATM    8  C   UNL     1     -10.819  11.982  66.013  1.00  0.00    -0.329 A  
HETATM    9  C   UNL     1     -10.312  11.644  64.745  1.00  0.00    -0.331 A  
HETATM   10  C   UNL     1     -12.010  12.722  66.080  1.00  0.00    -0.491 A  
HETATM   11  C   UNL     1     -11.002  11.992  63.583  1.00  0.00    -0.517 A  
HETATM   12  C   UNL     1     -12.691  13.081  64.915  1.00  0.00    -0.456 A  
HETATM   13  C   UNL     1     -12.196  12.703  63.669  1.00  0.00    -0.624 A  
ENDBRANCH   7   8
BRANCH   7  14
HETATM   14  C   UNL     1      -8.806  12.016  67.612  1.00  0.00    -0.172 A  
HETATM   15  C   UNL     1      -6.368  11.811  67.650  1.00  0.00    -0.082 A  
HETATM   16  C   UNL     1      -7.624  11.305  67.316  1.00  0.00    -0.130 A  
HETATM   17  C   UNL     1      -7.418  13.772  68.572  1.00  0.00    -0.119 A  
HETATM   18  C   UNL     1      -8.689  13.286  68.226  1.00  0.00    -0.168 A  
HETATM   19  C   UNL     1      -6.266  13.038  68.292  1.00  0.00    -0.085 A  
HETATM   20  C   UNL     1      -9.888  14.156  68.501  1.00  0.00    -0.230 C  
ENDBRANCH   7  14
ENDBRANCH   6   7
ENDBRANCH   5   6
ENDBRANCH   4   5
ENDBRANCH   2   4
TORSDOF 6
ENDMDL
MODEL      158
REMARK 921   NORMALIZED FREE ENERGY PREDICTED BY IDOCK:   -3.59 KCAL/MOL
REMARK 922        TOTAL FREE ENERGY PREDICTED BY IDOCK:   -5.90 KCAL/MOL
REMARK 923 INTER-LIGAND FREE ENERGY PREDICTED BY IDOCK:   -4.99 KCAL/MOL
REMARK 924 INTRA-LIGAND FREE ENERGY PREDICTED BY IDOCK:   -0.91 KCAL/MOL
REMARK 927      BINDING AFFINITY PREDICTED BY RF-SCORE:    0.00 PKD
ROOT
HETATM    1  C   UNL     1     -11.867  12.698  64.259  1.00  0.00    -0.393 C  
HETATM    2  N   UNL     1     -10.759  12.768  65.213  1.00  0.00    -0.287 NA 
HETATM    3  C   UNL     1     -10.276  14.143  65.317  1.00  0.00    -0.375 C  
ENDROOT
BRANCH   2   4
HETATM    4  C   UNL     1     -11.195  12.233  66.515  1.00  0.00    -0.324 C  
BRANCH   4   5
HETATM    5  C   UNL     1     -10.618  10.852  66.882  1.00  0.00    -0.261 C  
BRANCH   5   6
HETATM    6  O   UNL     1     -10.729  10.540  68.276  1.00  0.00    -0.197 OA 
BRANCH   6   7
HETATM    7  C   UNL     1     -10.320   9.212  68.659  1.00  0.00    -0.209 C  
BRANCH   7   8
HETATM    8  C   UNL     1      -8.804   9.131  68.809  1.00  0.00    -0.132 A  
HETATM    9  C   UNL     1      -8.060   8.319  67.932  1.00  0.00    -0.127 A  
HETATM   10  C   UNL     1      -8.107   9.962  69.700  1.00  0.00    -0.171 A  
HETATM   11  C   UNL     1      -6.666   8.377  67.913  1.00  0.00    -0.066 A  
HETATM   12  C   UNL     1      -6.711  10.007  69.689  1.00  0.00    -0.068 A  
HETATM   13  C   UNL     1      -5.993   9.228  68.785  1.00  0.00    -0.044 A  
ENDBRANCH   7   8
BRANCH   7  14
HETATM   14  C   UNL     1     -11.104   8.787  69.904  1.00  0.00    -0.129 A  
HETATM   15  C   UNL     1     -12.296   9.422  71.944  1.00  0.00    -0.450 A  
HETATM   16  C   UNL     1     -11.610   9.770  70.780  1.00  0.00    -0.417 A  
HETATM   17  C   UNL     1     -12.019   7.095  71.398  1.00  0.00    -0.364 A  
HETATM   18  C   UNL     1     -11.343   7.426  70.213  1.00  0.00    -0.244 A  
HETATM   19  C   UNL     1     -12.488   8.084  72.260  1.00  0.00    -0.302 A  
HETATM   20  C   UNL     1     -10.917   6.310  69.295  1.00  0.00    -0.435 C  
ENDBRANCH   7  14
ENDBRANCH   6   7
ENDBRANCH   5   6
ENDBRANCH   4   5
ENDBRANCH   2   4
TORSDOF 6
ENDMDL
MODEL      159
REMARK 921   NORMALIZED FREE ENERGY PREDICTED BY IDOCK:   -3.58 KCAL/MOL
REMARK 922        TOTAL FREE ENERGY PREDICTED BY IDOCK:   -5.89 KCAL/MOL
REMARK 923 INTER-LIGAND FREE ENERGY PREDICTED BY IDOCK:   -5.01 KCAL/MOL
REMARK 924 INTRA-LIGAND FREE ENERGY PREDICTED BY IDOCK:   -0.88 KCAL/MOL
REMARK 927      BINDING AFFINITY PREDICTED BY RF-SCORE:    0.00 PKD
ROOT
HETATM    1  C   UNL     1      -5.906  12.295  70.435  1.00  0.00    -0.152 C  
HETATM    2  N   UNL     1      -6.076  11.496  69.221  1.00  0.00    -0.061 NA 
HETATM    3  C   UNL     1      -6.959  10.363  69.489  1.00  0.00    -0.102 C  
ENDROOT
BRANCH   2   4
HETATM    4  C   UNL     1      -6.585  12.352  68.135  1.00  0.00    -0.073 C  
BRANCH   4   5
HETATM    5  C   UNL     1      -8.095  12.655  68.193  1.00  0.00    -0.164 C  
BRANCH   5   6
HETATM    6  O   UNL     1      -8.549  13.497  67.127  1.00  0.00    -0.205 OA 
BRANCH   6   7
HETATM    7  C   UNL     1      -9.809  14.163  67.342  1.00  0.00    -0.239 C  
BRANCH   7   8
HETATM    8  C   UNL     1      -9.600  15.652  67.605  1.00  0.00    -0.220 A  
HETATM    9  C   UNL     1      -8.397  16.265  67.211  1.00  0.00    -0.203 A  
HETATM   10  C   UNL     1     -10.635  16.465  68.094  1.00  0.00    -0.318 A  
HETATM   11  C   UNL     1      -8.254  17.652  67.255  1.00  0.00    -0.225 A  
HETATM   12  C   UNL     1     -10.484  17.852  68.150  1.00  0.00    -0.380 A  
HETATM   13  C   UNL     1      -9.301  18.446  67.716  1.00  0.00    -0.283 A  
ENDBRANCH   7   8
BRANCH   7  14
HETATM   14  C   UNL     1     -10.746  13.851  66.172  1.00  0.00    -0.283 A  
HETATM   15  C   UNL     1     -11.665  14.496  63.998  1.00  0.00    -0.104 A  
HETATM   16  C   UNL     1     -10.797  14.725  65.066  1.00  0.00    -0.440 A  
HETATM   17  C   UNL     1     -12.454  12.497  65.084  1.00  0.00    -0.451 A  
HETATM   18  C   UNL     1     -11.573  12.702  66.158  1.00  0.00    -0.445 A  
HETATM   19  C   UNL     1     -12.503  13.389  64.014  1.00  0.00    -0.310 A  
HETATM   20  C   UNL     1     -11.525  11.667  67.252  1.00  0.00    -0.350 C  
ENDBRANCH   7  14
ENDBRANCH   6   7
ENDBRANCH   5   6
ENDBRANCH   4   5
ENDBRANCH   2   4
TORSDOF 6
ENDMDL
MODEL      160
REMARK 921   NORMALIZED FREE ENERGY PREDICTED BY IDOCK:   -3.57 KCAL/MOL
REMARK 922        TOTAL FREE ENERGY PREDICTED BY IDOCK:   -5.87 KCAL/MOL
REMARK 923 INTER-LIGAND FREE ENERGY PREDICTED BY IDOCK:   -6.43 KCAL/MOL
REMARK 924 INTRA-LIGAND FREE ENERGY PREDICTED BY IDOCK:    0.56 KCAL/MOL
REMARK 927      BINDING AFFINITY PREDICTED BY RF-SCORE:    0.00 PKD
ROOT
HETATM    1  C   UNL     1     -12.589  12.164  63.676  1.00  0.00    -0.504 C  
HETATM    2  N   UNL     1     -11.255  12.186  64.276  1.00  0.00    -0.325 NA 
HETATM    3  C   UNL     1     -10.236  12.080  63.233  1.00  0.00    -0.361 C  
ENDROOT
BRANCH   2   4
HETATM    4  C   UNL     1     -11.097  13.408  65.084  1.00  0.00    -0.301 C  
BRANCH   4   5
HETATM    5  C   UNL     1     -11.763  13.364  66.473  1.00  0.00    -0.373 C  
BRANCH   5   6
HETATM    6  O   UNL     1     -11.867  14.651  67.096  1.00  0.00    -0.391 OA 
BRANCH   6   7
HETATM    7  C   UNL     1     -10.905  14.930  68.132  1.00  0.00    -0.256 C  
BRANCH   7   8
HETATM    8  C   UNL     1     -11.578  14.980  69.501  1.00  0.00    -0.337 A  
HETATM    9  C   UNL     1     -12.307  13.866  69.958  1.00  0.00    -0.378 A  
HETATM   10  C   UNL     1     -11.366  16.048  70.387  1.00  0.00    -0.405 A  
HETATM   11  C   UNL     1     -12.764  13.802  71.275  1.00  0.00    -0.450 A  
HETATM   12  C   UNL     1     -11.836  15.987  71.700  1.00  0.00    -0.582 A  
HETATM   13  C   UNL     1     -12.520  14.859  72.149  1.00  0.00    -0.416 A  
ENDBRANCH   7   8
BRANCH   7  14
HETATM   14  C   UNL     1      -9.753  13.927  68.028  1.00  0.00    -0.226 A  
HETATM   15  C   UNL     1      -8.910  11.662  68.409  1.00  0.00    -0.161 A  
HETATM   16  C   UNL     1      -9.945  12.596  68.453  1.00  0.00    -0.210 A  
HETATM   17  C   UNL     1      -7.450  13.343  67.494  1.00  0.00    -0.170 A  
HETATM   18  C   UNL     1      -8.485  14.290  67.513  1.00  0.00    -0.195 A  
HETATM   19  C   UNL     1      -7.658  12.040  67.944  1.00  0.00    -0.124 A  
HETATM   20  C   UNL     1      -8.211  15.663  66.955  1.00  0.00    -0.268 C  
ENDBRANCH   7  14
ENDBRANCH   6   7
ENDBRANCH   5   6
ENDBRANCH   4   5
ENDBRANCH   2   4
TORSDOF 6
ENDMDL
MODEL      161
REMARK 921   NORMALIZED FREE ENERGY PREDICTED BY IDOCK:   -3.55 KCAL/MOL
REMARK 922        TOTAL FREE ENERGY PREDICTED BY IDOCK:   -5.84 KCAL/MOL
REMARK 923 INTER-LIGAND FREE ENERGY PREDICTED BY IDOCK:   -6.36 KCAL/MOL
REMARK 924 INTRA-LIGAND FREE ENERGY PREDICTED BY IDOCK:    0.52 KCAL/MOL
REMARK 927      BINDING AFFINITY PREDICTED BY RF-SCORE:    0.00 PKD
ROOT
HETATM    1  C   UNL     1      -6.807  15.950  67.950  1.00  0.00    -0.143 C  
HETATM    2  N   UNL     1      -8.068  15.306  67.581  1.00  0.00    -0.146 NA 
HETATM    3  C   UNL     1      -8.575  15.877  66.335  1.00  0.00    -0.328 C  
ENDROOT
BRANCH   2   4
HETATM    4  C   UNL     1      -7.869  13.849  67.483  1.00  0.00    -0.181 C  
BRANCH   4   5
HETATM    5  C   UNL     1      -8.985  12.992  68.109  1.00  0.00    -0.198 C  
BRANCH   5   6
HETATM    6  O   UNL     1      -8.933  11.614  67.718  1.00  0.00    -0.159 OA 
BRANCH   6   7
HETATM    7  C   UNL     1     -10.201  10.996  67.419  1.00  0.00    -0.195 C  
BRANCH   7   8
HETATM    8  C   UNL     1     -10.900  10.542  68.697  1.00  0.00    -0.276 A  
HETATM    9  C   UNL     1     -10.336   9.509  69.469  1.00  0.00    -0.229 A  
HETATM   10  C   UNL     1     -12.013  11.227  69.210  1.00  0.00    -0.411 A  
HETATM   11  C   UNL     1     -10.838   9.207  70.736  1.00  0.00    -0.331 A  
HETATM   12  C   UNL     1     -12.522  10.913  70.472  1.00  0.00    -0.438 A  
HETATM   13  C   UNL     1     -11.925   9.916  71.241  1.00  0.00    -0.489 A  
ENDBRANCH   7   8
BRANCH   7  14
HETATM   14  C   UNL     1     -11.026  11.946  66.547  1.00  0.00    -0.337 A  
HETATM   15  C   UNL     1     -12.533  13.867  66.392  1.00  0.00    -0.414 A  
HETATM   16  C   UNL     1     -11.740  13.004  67.148  1.00  0.00    -0.439 A  
HETATM   17  C   UNL     1     -11.920  12.666  64.398  1.00  0.00    -0.469 A  
HETATM   18  C   UNL     1     -11.101  11.799  65.140  1.00  0.00    -0.341 A  
HETATM   19  C   UNL     1     -12.635  13.688  65.019  1.00  0.00    -0.434 A  
HETATM   20  C   UNL     1     -10.307  10.755  64.400  1.00  0.00    -0.405 C  
ENDBRANCH   7  14
ENDBRANCH   6   7
ENDBRANCH   5   6
ENDBRANCH   4   5
ENDBRANCH   2   4
TORSDOF 6
ENDMDL
MODEL      162
REMARK 921   NORMALIZED FREE ENERGY PREDICTED BY IDOCK:   -3.53 KCAL/MOL
REMARK 922        TOTAL FREE ENERGY PREDICTED BY IDOCK:   -5.83 KCAL/MOL
REMARK 923 INTER-LIGAND FREE ENERGY PREDICTED BY IDOCK:   -4.85 KCAL/MOL
REMARK 924 INTRA-LIGAND FREE ENERGY PREDICTED BY IDOCK:   -0.98 KCAL/MOL
REMARK 927      BINDING AFFINITY PREDICTED BY RF-SCORE:    0.00 PKD
ROOT
HETATM    1  C   UNL     1     -12.909  13.952  65.218  1.00  0.00    -0.398 C  
HETATM    2  N   UNL     1     -12.119  12.720  65.213  1.00  0.00    -0.432 NA 
HETATM    3  C   UNL     1     -11.204  12.717  64.073  1.00  0.00    -0.413 C  
ENDROOT
BRANCH   2   4
HETATM    4  C   UNL     1     -11.407  12.585  66.496  1.00  0.00    -0.334 C  
BRANCH   4   5
HETATM    5  C   UNL     1     -11.048  13.914  67.188  1.00  0.00    -0.300 C  
BRANCH   5   6
HETATM    6  O   UNL     1      -9.638  14.161  67.252  1.00  0.00    -0.222 OA 
BRANCH   6   7
HETATM    7  C   UNL     1      -9.173  14.864  68.422  1.00  0.00    -0.189 C  
BRANCH   7   8
HETATM    8  C   UNL     1      -7.816  14.332  68.873  1.00  0.00    -0.097 A  
HETATM    9  C   UNL     1      -7.014  15.111  69.728  1.00  0.00    -0.174 A  
HETATM   10  C   UNL     1      -7.405  13.022  68.583  1.00  0.00    -0.097 A  
HETATM   11  C   UNL     1      -5.866  14.576  70.315  1.00  0.00    -0.148 A  
HETATM   12  C   UNL     1      -6.248  12.494  69.160  1.00  0.00    -0.094 A  
HETATM   13  C   UNL     1      -5.489  13.265  70.038  1.00  0.00    -0.107 A  
ENDBRANCH   7   8
BRANCH   7  14
HETATM   14  C   UNL     1      -9.205  16.370  68.146  1.00  0.00    -0.201 A  
HETATM   15  C   UNL     1      -8.358  18.283  66.878  1.00  0.00    -0.256 A  
HETATM   16  C   UNL     1      -8.386  16.912  67.134  1.00  0.00    -0.217 A  
HETATM   17  C   UNL     1      -9.984  18.628  68.619  1.00  0.00    -0.431 A  
HETATM   18  C   UNL     1     -10.039  17.250  68.878  1.00  0.00    -0.331 A  
HETATM   19  C   UNL     1      -9.147  19.142  67.630  1.00  0.00    -0.341 A  
HETATM   20  C   UNL     1     -11.010  16.754  69.917  1.00  0.00    -0.063 C  
ENDBRANCH   7  14
ENDBRANCH   6   7
ENDBRANCH   5   6
ENDBRANCH   4   5
ENDBRANCH   2   4
TORSDOF 6
ENDMDL
MODEL      163
REMARK 921   NORMALIZED FREE ENERGY PREDICTED BY IDOCK:   -3.53 KCAL/MOL
REMARK 922        TOTAL FREE ENERGY PREDICTED BY IDOCK:   -5.83 KCAL/MOL
REMARK 923 INTER-LIGAND FREE ENERGY PREDICTED BY IDOCK:   -4.98 KCAL/MOL
REMARK 924 INTRA-LIGAND FREE ENERGY PREDICTED BY IDOCK:   -0.84 KCAL/MOL
REMARK 927      BINDING AFFINITY PREDICTED BY RF-SCORE:    0.00 PKD
ROOT
HETATM    1  C   UNL     1      -6.833   6.616  68.142  1.00  0.00    -0.074 C  
HETATM    2  N   UNL     1      -7.424   5.657  69.076  1.00  0.00    -0.082 NA 
HETATM    3  C   UNL     1      -6.729   4.375  68.982  1.00  0.00    -0.046 C  
ENDROOT
BRANCH   2   4
HETATM    4  C   UNL     1      -7.385   6.211  70.442  1.00  0.00    -0.089 C  
BRANCH   4   5
HETATM    5  C   UNL     1      -7.699   7.715  70.547  1.00  0.00    -0.089 C  
BRANCH   5   6
HETATM    6  O   UNL     1      -9.034   7.989  70.992  1.00  0.00    -0.138 OA 
BRANCH   6   7
HETATM    7  C   UNL     1      -9.674   9.135  70.395  1.00  0.00    -0.221 C  
BRANCH   7   8
HETATM    8  C   UNL     1      -9.696   9.016  68.874  1.00  0.00    -0.166 A  
HETATM    9  C   UNL     1      -8.816   9.799  68.103  1.00  0.00    -0.119 A  
HETATM   10  C   UNL     1     -10.462   8.037  68.223  1.00  0.00    -0.210 A  
HETATM   11  C   UNL     1      -8.671   9.572  66.734  1.00  0.00    -0.138 A  
HETATM   12  C   UNL     1     -10.325   7.822  66.850  1.00  0.00    -0.396 A  
HETATM   13  C   UNL     1      -9.419   8.577  66.110  1.00  0.00    -0.286 A  
ENDBRANCH   7   8
BRANCH   7  14
HETATM   14  C   UNL     1     -11.051   9.327  71.036  1.00  0.00    -0.396 A  
HETATM   15  C   UNL     1     -12.790   8.501  72.546  1.00  0.00    -0.310 A  
HETATM   16  C   UNL     1     -11.526   8.382  71.969  1.00  0.00    -0.418 A  
HETATM   17  C   UNL     1     -13.154  10.528  71.300  1.00  0.00    -0.478 A  
HETATM   18  C   UNL     1     -11.877  10.434  70.724  1.00  0.00    -0.466 A  
HETATM   19  C   UNL     1     -13.609   9.566  72.200  1.00  0.00    -0.500 A  
HETATM   20  C   UNL     1     -11.422  11.539  69.806  1.00  0.00    -0.362 C  
ENDBRANCH   7  14
ENDBRANCH   6   7
ENDBRANCH   5   6
ENDBRANCH   4   5
ENDBRANCH   2   4
TORSDOF 6
ENDMDL
MODEL      164
REMARK 921   NORMALIZED FREE ENERGY PREDICTED BY IDOCK:   -3.52 KCAL/MOL
REMARK 922        TOTAL FREE ENERGY PREDICTED BY IDOCK:   -5.81 KCAL/MOL
REMARK 923 INTER-LIGAND FREE ENERGY PREDICTED BY IDOCK:   -5.06 KCAL/MOL
REMARK 924 INTRA-LIGAND FREE ENERGY PREDICTED BY IDOCK:   -0.75 KCAL/MOL
REMARK 927      BINDING AFFINITY PREDICTED BY RF-SCORE:    0.00 PKD
ROOT
HETATM    1  C   UNL     1     -10.384  14.572  68.031  1.00  0.00    -0.229 C  
HETATM    2  N   UNL     1     -10.094  13.527  67.048  1.00  0.00    -0.241 NA 
HETATM    3  C   UNL     1      -8.697  13.112  67.157  1.00  0.00    -0.213 C  
ENDROOT
BRANCH   2   4
HETATM    4  C   UNL     1     -11.025  12.400  67.237  1.00  0.00    -0.260 C  
BRANCH   4   5
HETATM    5  C   UNL     1     -10.629  11.097  66.516  1.00  0.00    -0.262 C  
BRANCH   5   6
HETATM    6  O   UNL     1      -9.923  10.174  67.354  1.00  0.00    -0.179 OA 
BRANCH   6   7
HETATM    7  C   UNL     1     -10.684   9.047  67.833  1.00  0.00    -0.138 C  
BRANCH   7   8
HETATM    8  C   UNL     1     -10.313   7.777  67.074  1.00  0.00    -0.405 A  
HETATM    9  C   UNL     1      -9.148   7.754  66.284  1.00  0.00    -0.221 A  
HETATM   10  C   UNL     1     -11.017   6.576  67.258  1.00  0.00    -0.475 A  
HETATM   11  C   UNL     1      -8.676   6.559  65.741  1.00  0.00    -0.129 A  
HETATM   12  C   UNL     1     -10.550   5.384  66.701  1.00  0.00    -0.359 A  
HETATM   13  C   UNL     1      -9.372   5.372  65.958  1.00  0.00    -0.167 A  
ENDBRANCH   7   8
BRANCH   7  14
HETATM   14  C   UNL     1     -10.526   8.947  69.353  1.00  0.00    -0.228 A  
HETATM   15  C   UNL     1      -9.307   8.049  71.275  1.00  0.00    -0.182 A  
HETATM   16  C   UNL     1      -9.463   8.196  69.897  1.00  0.00    -0.160 A  
HETATM   17  C   UNL     1     -11.257   9.416  71.628  1.00  0.00    -0.431 A  
HETATM   18  C   UNL     1     -11.419   9.590  70.245  1.00  0.00    -0.256 A  
HETATM   19  C   UNL     1     -10.213   8.647  72.140  1.00  0.00    -0.394 A  
HETATM   20  C   UNL     1     -12.530  10.483  69.760  1.00  0.00    -0.133 C  
ENDBRANCH   7  14
ENDBRANCH   6   7
ENDBRANCH   5   6
ENDBRANCH   4   5
ENDBRANCH   2   4
TORSDOF 6
ENDMDL
MODEL      165
REMARK 921   NORMALIZED FREE ENERGY PREDICTED BY IDOCK:   -3.50 KCAL/MOL
REMARK 922        TOTAL FREE ENERGY PREDICTED BY IDOCK:   -5.78 KCAL/MOL
REMARK 923 INTER-LIGAND FREE ENERGY PREDICTED BY IDOCK:   -4.67 KCAL/MOL
REMARK 924 INTRA-LIGAND FREE ENERGY PREDICTED BY IDOCK:   -1.11 KCAL/MOL
REMARK 927      BINDING AFFINITY PREDICTED BY RF-SCORE:    0.00 PKD
ROOT
HETATM    1  C   UNL     1      -9.719   4.756  68.286  1.00  0.00    -0.140 C  
HETATM    2  N   UNL     1      -9.426   5.403  67.006  1.00  0.00    -0.126 NA 
HETATM    3  C   UNL     1     -10.178   4.755  65.934  1.00  0.00    -0.258 C  
ENDROOT
BRANCH   2   4
HETATM    4  C   UNL     1      -9.726   6.843  67.103  1.00  0.00    -0.154 C  
BRANCH   4   5
HETATM    5  C   UNL     1     -10.876   7.209  68.059  1.00  0.00    -0.128 C  
BRANCH   5   6
HETATM    6  O   UNL     1     -10.491   8.128  69.090  1.00  0.00    -0.220 OA 
BRANCH   6   7
HETATM    7  C   UNL     1     -10.684   9.525  68.794  1.00  0.00    -0.190 C  
BRANCH   7   8
HETATM    8  C   UNL     1     -11.622  10.172  69.809  1.00  0.00    -0.245 A  
HETATM    9  C   UNL     1     -12.147   9.399  70.861  1.00  0.00    -0.327 A  
HETATM   10  C   UNL     1     -11.858  11.556  69.816  1.00  0.00    -0.429 A  
HETATM   11  C   UNL     1     -12.841  10.000  71.913  1.00  0.00    -0.524 A  
HETATM   12  C   UNL     1     -12.566  12.152  70.862  1.00  0.00    -0.340 A  
HETATM   13  C   UNL     1     -13.042  11.377  71.917  1.00  0.00    -0.505 A  
ENDBRANCH   7   8
BRANCH   7  14
HETATM   14  C   UNL     1      -9.317  10.204  68.669  1.00  0.00    -0.161 A  
HETATM   15  C   UNL     1      -7.132  10.700  69.650  1.00  0.00    -0.143 A  
HETATM   16  C   UNL     1      -8.373  10.067  69.708  1.00  0.00    -0.187 A  
HETATM   17  C   UNL     1      -7.715  11.620  67.503  1.00  0.00    -0.136 A  
HETATM   18  C   UNL     1      -8.961  10.974  67.536  1.00  0.00    -0.137 A  
HETATM   19  C   UNL     1      -6.809  11.489  68.554  1.00  0.00    -0.074 A  
HETATM   20  C   UNL     1      -9.869  11.107  66.341  1.00  0.00    -0.248 C  
ENDBRANCH   7  14
ENDBRANCH   6   7
ENDBRANCH   5   6
ENDBRANCH   4   5
ENDBRANCH   2   4
TORSDOF 6
ENDMDL
MODEL      166
REMARK 921   NORMALIZED FREE ENERGY PREDICTED BY IDOCK:   -3.47 KCAL/MOL
REMARK 922        TOTAL FREE ENERGY PREDICTED BY IDOCK:   -5.75 KCAL/MOL
REMARK 923 INTER-LIGAND FREE ENERGY PREDICTED BY IDOCK:   -5.38 KCAL/MOL
REMARK 924 INTRA-LIGAND FREE ENERGY PREDICTED BY IDOCK:   -0.37 KCAL/MOL
REMARK 927      BINDING AFFINITY PREDICTED BY RF-SCORE:    0.00 PKD
ROOT
HETATM    1  C   UNL     1     -10.941  12.757  64.870  1.00  0.00    -0.294 C  
HETATM    2  N   UNL     1     -11.026  13.924  65.750  1.00  0.00    -0.282 NA 
HETATM    3  C   UNL     1     -12.395  14.085  66.235  1.00  0.00    -0.448 C  
ENDROOT
BRANCH   2   4
HETATM    4  C   UNL     1     -10.059  13.781  66.853  1.00  0.00    -0.260 C  
BRANCH   4   5
HETATM    5  C   UNL     1     -10.598  13.069  68.108  1.00  0.00    -0.245 C  
BRANCH   5   6
HETATM    6  O   UNL     1     -10.549  11.639  68.017  1.00  0.00    -0.189 OA 
BRANCH   6   7
HETATM    7  C   UNL     1      -9.911  10.960  69.117  1.00  0.00    -0.161 C  
BRANCH   7   8
HETATM    8  C   UNL     1     -10.949  10.343  70.051  1.00  0.00    -0.370 A  
HETATM    9  C   UNL     1     -10.557   9.345  70.963  1.00  0.00    -0.400 A  
HETATM   10  C   UNL     1     -12.256  10.848  70.136  1.00  0.00    -0.423 A  
HETATM   11  C   UNL     1     -11.429   8.906  71.960  1.00  0.00    -0.431 A  
HETATM   12  C   UNL     1     -13.131  10.396  71.125  1.00  0.00    -0.474 A  
HETATM   13  C   UNL     1     -12.713   9.438  72.046  1.00  0.00    -0.483 A  
ENDBRANCH   7   8
BRANCH   7  14
HETATM   14  C   UNL     1      -8.886   9.966  68.563  1.00  0.00    -0.122 A  
HETATM   15  C   UNL     1      -6.577   9.162  68.496  1.00  0.00    -0.055 A  
HETATM   16  C   UNL     1      -7.548  10.024  69.005  1.00  0.00    -0.090 A  
HETATM   17  C   UNL     1      -8.242   8.132  67.096  1.00  0.00    -0.120 A  
HETATM   18  C   UNL     1      -9.236   8.978  67.611  1.00  0.00    -0.150 A  
HETATM   19  C   UNL     1      -6.921   8.226  67.531  1.00  0.00    -0.075 A  
HETATM   20  C   UNL     1     -10.655   8.784  67.144  1.00  0.00    -0.303 C  
ENDBRANCH   7  14
ENDBRANCH   6   7
ENDBRANCH   5   6
ENDBRANCH   4   5
ENDBRANCH   2   4
TORSDOF 6
ENDMDL
MODEL      167
REMARK 921   NORMALIZED FREE ENERGY PREDICTED BY IDOCK:   -3.44 KCAL/MOL
REMARK 922        TOTAL FREE ENERGY PREDICTED BY IDOCK:   -5.70 KCAL/MOL
REMARK 923 INTER-LIGAND FREE ENERGY PREDICTED BY IDOCK:   -5.59 KCAL/MOL
REMARK 924 INTRA-LIGAND FREE ENERGY PREDICTED BY IDOCK:   -0.11 KCAL/MOL
REMARK 927      BINDING AFFINITY PREDICTED BY RF-SCORE:    0.00 PKD
ROOT
HETATM    1  C   UNL     1      -5.373   9.154  73.623  1.00  0.00    -0.107 C  
HETATM    2  N   UNL     1      -6.648   8.783  73.008  1.00  0.00    -0.299 NA 
HETATM    3  C   UNL     1      -6.410   8.101  71.737  1.00  0.00    -0.047 C  
ENDROOT
BRANCH   2   4
HETATM    4  C   UNL     1      -7.424   7.953  73.945  1.00  0.00    -0.151 C  
BRANCH   4   5
HETATM    5  C   UNL     1      -8.576   7.150  73.310  1.00  0.00    -0.131 C  
BRANCH   5   6
HETATM    6  O   UNL     1      -9.875   7.647  73.653  1.00  0.00    -0.301 OA 
BRANCH   6   7
HETATM    7  C   UNL     1     -10.976   7.114  72.891  1.00  0.00    -0.320 C  
BRANCH   7   8
HETATM    8  C   UNL     1     -11.696   8.221  72.126  1.00  0.00    -0.429 A  
HETATM    9  C   UNL     1     -13.101   8.287  72.158  1.00  0.00    -0.312 A  
HETATM   10  C   UNL     1     -10.992   9.270  71.513  1.00  0.00    -0.446 A  
HETATM   11  C   UNL     1     -13.777   9.393  71.639  1.00  0.00    -0.393 A  
HETATM   12  C   UNL     1     -11.672  10.368  70.982  1.00  0.00    -0.430 A  
HETATM   13  C   UNL     1     -13.061  10.437  71.060  1.00  0.00    -0.450 A  
ENDBRANCH   7   8
BRANCH   7  14
HETATM   14  C   UNL     1     -10.468   5.965  72.015  1.00  0.00    -0.259 A  
HETATM   15  C   UNL     1      -9.581   5.208  69.865  1.00  0.00    -0.241 A  
HETATM   16  C   UNL     1     -10.016   6.232  70.706  1.00  0.00    -0.220 A  
HETATM   17  C   UNL     1     -10.010   3.608  71.611  1.00  0.00    -0.196 A  
HETATM   18  C   UNL     1     -10.433   4.627  72.478  1.00  0.00    -0.257 A  
HETATM   19  C   UNL     1      -9.592   3.894  70.312  1.00  0.00    -0.271 A  
HETATM   20  C   UNL     1     -10.813   4.257  73.888  1.00  0.00    -0.330 C  
ENDBRANCH   7  14
ENDBRANCH   6   7
ENDBRANCH   5   6
ENDBRANCH   4   5
ENDBRANCH   2   4
TORSDOF 6
ENDMDL
MODEL      168
REMARK 921   NORMALIZED FREE ENERGY PREDICTED BY IDOCK:   -3.44 KCAL/MOL
REMARK 922        TOTAL FREE ENERGY PREDICTED BY IDOCK:   -5.69 KCAL/MOL
REMARK 923 INTER-LIGAND FREE ENERGY PREDICTED BY IDOCK:   -5.52 KCAL/MOL
REMARK 924 INTRA-LIGAND FREE ENERGY PREDICTED BY IDOCK:   -0.17 KCAL/MOL
REMARK 927      BINDING AFFINITY PREDICTED BY RF-SCORE:    0.00 PKD
ROOT
HETATM    1  C   UNL     1      -9.120   9.018  65.267  1.00  0.00    -0.167 C  
HETATM    2  N   UNL     1      -8.785   7.889  66.137  1.00  0.00    -0.151 NA 
HETATM    3  C   UNL     1      -8.319   6.761  65.334  1.00  0.00    -0.122 C  
ENDROOT
BRANCH   2   4
HETATM    4  C   UNL     1      -7.783   8.314  67.131  1.00  0.00    -0.097 C  
BRANCH   4   5
HETATM    5  C   UNL     1      -8.181   9.537  67.979  1.00  0.00    -0.114 C  
BRANCH   5   6
HETATM    6  O   UNL     1      -9.451   9.395  68.626  1.00  0.00    -0.144 OA 
BRANCH   6   7
HETATM    7  C   UNL     1      -9.903  10.532  69.387  1.00  0.00    -0.182 C  
BRANCH   7   8
HETATM    8  C   UNL     1     -10.350  11.662  68.464  1.00  0.00    -0.224 A  
HETATM    9  C   UNL     1     -11.287  11.400  67.448  1.00  0.00    -0.359 A  
HETATM   10  C   UNL     1      -9.969  12.994  68.692  1.00  0.00    -0.114 A  
HETATM   11  C   UNL     1     -11.863  12.442  66.720  1.00  0.00    -0.385 A  
HETATM   12  C   UNL     1     -10.536  14.034  67.953  1.00  0.00    -0.246 A  
HETATM   13  C   UNL     1     -11.494  13.759  66.980  1.00  0.00    -0.368 A  
ENDBRANCH   7   8
BRANCH   7  14
HETATM   14  C   UNL     1     -10.966  10.073  70.389  1.00  0.00    -0.384 A  
HETATM   15  C   UNL     1     -13.115  10.470  71.488  1.00  0.00    -0.532 A  
HETATM   16  C   UNL     1     -12.141  10.834  70.558  1.00  0.00    -0.459 A  
HETATM   17  C   UNL     1     -11.792   8.557  72.106  1.00  0.00    -0.448 A  
HETATM   18  C   UNL     1     -10.810   8.897  71.162  1.00  0.00    -0.352 A  
HETATM   19  C   UNL     1     -12.933   9.339  72.272  1.00  0.00    -0.488 A  
HETATM   20  C   UNL     1      -9.632   7.975  70.990  1.00  0.00    -0.184 C  
ENDBRANCH   7  14
ENDBRANCH   6   7
ENDBRANCH   5   6
ENDBRANCH   4   5
ENDBRANCH   2   4
TORSDOF 6
ENDMDL
MODEL      169
REMARK 921   NORMALIZED FREE ENERGY PREDICTED BY IDOCK:   -3.43 KCAL/MOL
REMARK 922        TOTAL FREE ENERGY PREDICTED BY IDOCK:   -5.68 KCAL/MOL
REMARK 923 INTER-LIGAND FREE ENERGY PREDICTED BY IDOCK:   -4.88 KCAL/MOL
REMARK 924 INTRA-LIGAND FREE ENERGY PREDICTED BY IDOCK:   -0.81 KCAL/MOL
REMARK 927      BINDING AFFINITY PREDICTED BY RF-SCORE:    0.00 PKD
ROOT
HETATM    1  C   UNL     1      -6.855   5.866  73.150  1.00  0.00    -0.079 C  
HETATM    2  N   UNL     1      -7.315   6.999  73.955  1.00  0.00    -0.091 NA 
HETATM    3  C   UNL     1      -6.171   7.791  74.401  1.00  0.00    -0.091 C  
ENDROOT
BRANCH   2   4
HETATM    4  C   UNL     1      -8.275   7.800  73.176  1.00  0.00    -0.149 C  
BRANCH   4   5
HETATM    5  C   UNL     1      -9.048   7.024  72.092  1.00  0.00    -0.130 C  
BRANCH   5   6
HETATM    6  O   UNL     1      -8.825   7.521  70.767  1.00  0.00    -0.145 OA 
BRANCH   6   7
HETATM    7  C   UNL     1      -9.976   7.539  69.899  1.00  0.00    -0.189 C  
BRANCH   7   8
HETATM    8  C   UNL     1     -11.205   8.063  70.636  1.00  0.00    -0.266 A  
HETATM    9  C   UNL     1     -11.350   9.446  70.852  1.00  0.00    -0.386 A  
HETATM   10  C   UNL     1     -12.275   7.219  70.974  1.00  0.00    -0.350 A  
HETATM   11  C   UNL     1     -12.546   9.972  71.342  1.00  0.00    -0.518 A  
HETATM   12  C   UNL     1     -13.466   7.747  71.477  1.00  0.00    -0.379 A  
HETATM   13  C   UNL     1     -13.607   9.123  71.645  1.00  0.00    -0.451 A  
ENDBRANCH   7   8
BRANCH   7  14
HETATM   14  C   UNL     1      -9.626   8.309  68.622  1.00  0.00    -0.152 A  
HETATM   15  C   UNL     1      -8.380  10.118  67.545  1.00  0.00    -0.118 A  
HETATM   16  C   UNL     1      -8.697   9.369  68.678  1.00  0.00    -0.131 A  
HETATM   17  C   UNL     1      -9.893   8.770  66.246  1.00  0.00    -0.342 A  
HETATM   18  C   UNL     1     -10.209   7.993  67.371  1.00  0.00    -0.330 A  
HETATM   19  C   UNL     1      -8.990   9.828  66.332  1.00  0.00    -0.176 A  
HETATM   20  C   UNL     1     -11.145   6.825  67.196  1.00  0.00    -0.404 C  
ENDBRANCH   7  14
ENDBRANCH   6   7
ENDBRANCH   5   6
ENDBRANCH   4   5
ENDBRANCH   2   4
TORSDOF 6
ENDMDL
MODEL      170
REMARK 921   NORMALIZED FREE ENERGY PREDICTED BY IDOCK:   -3.41 KCAL/MOL
REMARK 922        TOTAL FREE ENERGY PREDICTED BY IDOCK:   -5.66 KCAL/MOL
REMARK 923 INTER-LIGAND FREE ENERGY PREDICTED BY IDOCK:   -5.74 KCAL/MOL
REMARK 924 INTRA-LIGAND FREE ENERGY PREDICTED BY IDOCK:    0.08 KCAL/MOL
REMARK 927      BINDING AFFINITY PREDICTED BY RF-SCORE:    0.00 PKD
ROOT
HETATM    1  C   UNL     1      -5.790   8.842  72.120  1.00  0.00    -0.067 C  
HETATM    2  N   UNL     1      -7.182   9.216  71.863  1.00  0.00    -0.324 NA 
HETATM    3  C   UNL     1      -7.388   9.420  70.431  1.00  0.00    -0.121 C  
ENDROOT
BRANCH   2   4
HETATM    4  C   UNL     1      -8.079   8.183  72.411  1.00  0.00    -0.146 C  
BRANCH   4   5
HETATM    5  C   UNL     1      -8.978   7.481  71.376  1.00  0.00    -0.133 C  
BRANCH   5   6
HETATM    6  O   UNL     1      -9.781   6.434  71.935  1.00  0.00    -0.154 OA 
BRANCH   6   7
HETATM    7  C   UNL     1     -10.990   6.115  71.218  1.00  0.00    -0.282 C  
BRANCH   7   8
HETATM    8  C   UNL     1     -12.042   7.204  71.414  1.00  0.00    -0.381 A  
HETATM    9  C   UNL     1     -13.397   6.846  71.537  1.00  0.00    -0.303 A  
HETATM   10  C   UNL     1     -11.683   8.544  71.627  1.00  0.00    -0.369 A  
HETATM   11  C   UNL     1     -14.354   7.790  71.913  1.00  0.00    -0.545 A  
HETATM   12  C   UNL     1     -12.645   9.489  71.989  1.00  0.00    -0.456 A  
HETATM   13  C   UNL     1     -13.975   9.110  72.148  1.00  0.00    -0.466 A  
ENDBRANCH   7   8
BRANCH   7  14
HETATM   14  C   UNL     1     -10.642   5.825  69.755  1.00  0.00    -0.388 A  
HETATM   15  C   UNL     1     -10.737   6.505  67.407  1.00  0.00    -0.412 A  
HETATM   16  C   UNL     1     -11.002   6.751  68.754  1.00  0.00    -0.267 A  
HETATM   17  C   UNL     1      -9.720   4.406  68.003  1.00  0.00    -0.182 A  
HETATM   18  C   UNL     1      -9.962   4.646  69.365  1.00  0.00    -0.249 A  
HETATM   19  C   UNL     1     -10.109   5.326  67.031  1.00  0.00    -0.243 A  
HETATM   20  C   UNL     1      -9.461   3.641  70.370  1.00  0.00    -0.255 C  
ENDBRANCH   7  14
ENDBRANCH   6   7
ENDBRANCH   5   6
ENDBRANCH   4   5
ENDBRANCH   2   4
TORSDOF 6
ENDMDL
MODEL      171
REMARK 921   NORMALIZED FREE ENERGY PREDICTED BY IDOCK:   -3.41 KCAL/MOL
REMARK 922        TOTAL FREE ENERGY PREDICTED BY IDOCK:   -5.66 KCAL/MOL
REMARK 923 INTER-LIGAND FREE ENERGY PREDICTED BY IDOCK:   -5.06 KCAL/MOL
REMARK 924 INTRA-LIGAND FREE ENERGY PREDICTED BY IDOCK:   -0.60 KCAL/MOL
REMARK 927      BINDING AFFINITY PREDICTED BY RF-SCORE:    0.00 PKD
ROOT
HETATM    1  C   UNL     1      -7.081   3.708  68.285  1.00  0.00    -0.051 C  
HETATM    2  N   UNL     1      -8.347   4.442  68.266  1.00  0.00    -0.092 NA 
HETATM    3  C   UNL     1      -9.350   3.688  67.517  1.00  0.00    -0.202 C  
ENDROOT
BRANCH   2   4
HETATM    4  C   UNL     1      -8.777   4.718  69.648  1.00  0.00    -0.085 C  
BRANCH   4   5
HETATM    5  C   UNL     1     -10.276   5.033  69.816  1.00  0.00    -0.266 C  
BRANCH   5   6
HETATM    6  O   UNL     1     -10.593   5.647  71.072  1.00  0.00    -0.237 OA 
BRANCH   6   7
HETATM    7  C   UNL     1     -10.486   7.084  71.116  1.00  0.00    -0.211 C  
BRANCH   7   8
HETATM    8  C   UNL     1     -11.852   7.725  71.341  1.00  0.00    -0.324 A  
HETATM    9  C   UNL     1     -13.002   6.915  71.380  1.00  0.00    -0.339 A  
HETATM   10  C   UNL     1     -11.983   9.085  71.662  1.00  0.00    -0.426 A  
HETATM   11  C   UNL     1     -14.232   7.438  71.779  1.00  0.00    -0.544 A  
HETATM   12  C   UNL     1     -13.219   9.609  72.047  1.00  0.00    -0.546 A  
HETATM   13  C   UNL     1     -14.338   8.784  72.122  1.00  0.00    -0.481 A  
ENDBRANCH   7   8
BRANCH   7  14
HETATM   14  C   UNL     1      -9.424   7.474  72.148  1.00  0.00    -0.185 A  
HETATM   15  C   UNL     1      -7.343   8.651  72.666  1.00  0.00     0.008 A  
HETATM   16  C   UNL     1      -8.350   8.305  71.765  1.00  0.00    -0.193 A  
HETATM   17  C   UNL     1      -8.449   7.370  74.377  1.00  0.00    -0.249 A  
HETATM   18  C   UNL     1      -9.481   7.027  73.490  1.00  0.00    -0.226 A  
HETATM   19  C   UNL     1      -7.385   8.172  73.968  1.00  0.00    -0.216 A  
HETATM   20  C   UNL     1     -10.633   6.209  74.013  1.00  0.00    -0.191 C  
ENDBRANCH   7  14
ENDBRANCH   6   7
ENDBRANCH   5   6
ENDBRANCH   4   5
ENDBRANCH   2   4
TORSDOF 6
ENDMDL
MODEL      172
REMARK 921   NORMALIZED FREE ENERGY PREDICTED BY IDOCK:   -3.40 KCAL/MOL
REMARK 922        TOTAL FREE ENERGY PREDICTED BY IDOCK:   -5.64 KCAL/MOL
REMARK 923 INTER-LIGAND FREE ENERGY PREDICTED BY IDOCK:   -5.32 KCAL/MOL
REMARK 924 INTRA-LIGAND FREE ENERGY PREDICTED BY IDOCK:   -0.32 KCAL/MOL
REMARK 927      BINDING AFFINITY PREDICTED BY RF-SCORE:    0.00 PKD
ROOT
HETATM    1  C   UNL     1      -9.610   9.273  70.552  1.00  0.00    -0.262 C  
HETATM    2  N   UNL     1      -8.246   9.621  70.152  1.00  0.00    -0.177 NA 
HETATM    3  C   UNL     1      -7.615   8.484  69.486  1.00  0.00    -0.089 C  
ENDROOT
BRANCH   2   4
HETATM    4  C   UNL     1      -8.274  10.820  69.296  1.00  0.00    -0.078 C  
BRANCH   4   5
HETATM    5  C   UNL     1      -9.021  10.653  67.959  1.00  0.00    -0.140 C  
BRANCH   5   6
HETATM    6  O   UNL     1     -10.002  11.670  67.723  1.00  0.00    -0.175 OA 
BRANCH   6   7
HETATM    7  C   UNL     1      -9.627  12.704  66.791  1.00  0.00    -0.241 C  
BRANCH   7   8
HETATM    8  C   UNL     1     -10.634  12.799  65.649  1.00  0.00    -0.297 A  
HETATM    9  C   UNL     1     -11.233  14.038  65.353  1.00  0.00    -0.319 A  
HETATM   10  C   UNL     1     -10.871  11.720  64.784  1.00  0.00    -0.358 A  
HETATM   11  C   UNL     1     -12.001  14.203  64.199  1.00  0.00    -0.421 A  
HETATM   12  C   UNL     1     -11.651  11.884  63.637  1.00  0.00    -0.559 A  
HETATM   13  C   UNL     1     -12.202  13.128  63.337  1.00  0.00    -0.521 A  
ENDBRANCH   7   8
BRANCH   7  14
HETATM   14  C   UNL     1      -9.410  14.012  67.558  1.00  0.00    -0.209 A  
HETATM   15  C   UNL     1      -8.074  16.030  67.916  1.00  0.00    -0.149 A  
HETATM   16  C   UNL     1      -8.328  14.850  67.217  1.00  0.00    -0.233 A  
HETATM   17  C   UNL     1      -9.986  15.598  69.314  1.00  0.00    -0.265 A  
HETATM   18  C   UNL     1     -10.267  14.417  68.609  1.00  0.00    -0.245 A  
HETATM   19  C   UNL     1      -8.895  16.396  68.974  1.00  0.00    -0.240 A  
HETATM   20  C   UNL     1     -11.497  13.632  68.987  1.00  0.00    -0.346 C  
ENDBRANCH   7  14
ENDBRANCH   6   7
ENDBRANCH   5   6
ENDBRANCH   4   5
ENDBRANCH   2   4
TORSDOF 6
ENDMDL
MODEL      173
REMARK 921   NORMALIZED FREE ENERGY PREDICTED BY IDOCK:   -3.39 KCAL/MOL
REMARK 922        TOTAL FREE ENERGY PREDICTED BY IDOCK:   -5.64 KCAL/MOL
REMARK 923 INTER-LIGAND FREE ENERGY PREDICTED BY IDOCK:   -5.25 KCAL/MOL
REMARK 924 INTRA-LIGAND FREE ENERGY PREDICTED BY IDOCK:   -0.39 KCAL/MOL
REMARK 927      BINDING AFFINITY PREDICTED BY RF-SCORE:    0.00 PKD
ROOT
HETATM    1  C   UNL     1     -11.711  16.014  69.021  1.00  0.00    -0.318 C  
HETATM    2  N   UNL     1     -11.803  15.175  70.216  1.00  0.00    -0.287 NA 
HETATM    3  C   UNL     1     -13.001  15.521  70.978  1.00  0.00    -0.489 C  
ENDROOT
BRANCH   2   4
HETATM    4  C   UNL     1     -11.787  13.754  69.823  1.00  0.00    -0.331 C  
BRANCH   4   5
HETATM    5  C   UNL     1     -10.538  13.306  69.041  1.00  0.00    -0.065 C  
BRANCH   5   6
HETATM    6  O   UNL     1     -10.819  12.918  67.691  1.00  0.00    -0.225 OA 
BRANCH   6   7
HETATM    7  C   UNL     1     -10.480  11.561  67.341  1.00  0.00    -0.209 C  
BRANCH   7   8
HETATM    8  C   UNL     1     -10.153  11.447  65.855  1.00  0.00    -0.286 A  
HETATM    9  C   UNL     1      -9.675  10.228  65.340  1.00  0.00    -0.340 A  
HETATM   10  C   UNL     1     -10.457  12.479  64.953  1.00  0.00    -0.328 A  
HETATM   11  C   UNL     1      -9.556  10.031  63.963  1.00  0.00    -0.243 A  
HETATM   12  C   UNL     1     -10.323  12.284  63.577  1.00  0.00    -0.443 A  
HETATM   13  C   UNL     1      -9.889  11.057  63.082  1.00  0.00    -0.398 A  
ENDBRANCH   7   8
BRANCH   7  14
HETATM   14  C   UNL     1      -9.372  11.066  68.275  1.00  0.00    -0.172 A  
HETATM   15  C   UNL     1      -6.996  11.004  68.853  1.00  0.00    -0.088 A  
HETATM   16  C   UNL     1      -8.038  11.464  68.048  1.00  0.00    -0.134 A  
HETATM   17  C   UNL     1      -8.577   9.746  70.161  1.00  0.00    -0.214 A  
HETATM   18  C   UNL     1      -9.641  10.213  69.373  1.00  0.00    -0.249 A  
HETATM   19  C   UNL     1      -7.264  10.134  69.900  1.00  0.00    -0.155 A  
HETATM   20  C   UNL     1     -11.042   9.805  69.746  1.00  0.00    -0.272 C  
ENDBRANCH   7  14
ENDBRANCH   6   7
ENDBRANCH   5   6
ENDBRANCH   4   5
ENDBRANCH   2   4
TORSDOF 6
ENDMDL
MODEL      174
REMARK 921   NORMALIZED FREE ENERGY PREDICTED BY IDOCK:   -3.39 KCAL/MOL
REMARK 922        TOTAL FREE ENERGY PREDICTED BY IDOCK:   -5.63 KCAL/MOL
REMARK 923 INTER-LIGAND FREE ENERGY PREDICTED BY IDOCK:   -4.81 KCAL/MOL
REMARK 924 INTRA-LIGAND FREE ENERGY PREDICTED BY IDOCK:   -0.82 KCAL/MOL
REMARK 927      BINDING AFFINITY PREDICTED BY RF-SCORE:    0.00 PKD
ROOT
HETATM    1  C   UNL     1      -7.490   8.382  66.329  1.00  0.00    -0.089 C  
HETATM    2  N   UNL     1      -8.321   9.300  67.110  1.00  0.00    -0.123 NA 
HETATM    3  C   UNL     1      -9.023   8.567  68.161  1.00  0.00    -0.142 C  
ENDROOT
BRANCH   2   4
HETATM    4  C   UNL     1      -7.482  10.383  67.653  1.00  0.00    -0.089 C  
BRANCH   4   5
HETATM    5  C   UNL     1      -7.975  11.810  67.347  1.00  0.00    -0.155 C  
BRANCH   5   6
HETATM    6  O   UNL     1      -9.315  11.854  66.842  1.00  0.00    -0.186 OA 
BRANCH   6   7
HETATM    7  C   UNL     1     -10.072  13.037  67.165  1.00  0.00    -0.244 C  
BRANCH   7   8
HETATM    8  C   UNL     1     -10.894  13.502  65.966  1.00  0.00    -0.282 A  
HETATM    9  C   UNL     1     -11.639  12.563  65.228  1.00  0.00    -0.406 A  
HETATM   10  C   UNL     1     -11.053  14.864  65.666  1.00  0.00    -0.348 A  
HETATM   11  C   UNL     1     -12.551  12.978  64.258  1.00  0.00    -0.326 A  
HETATM   12  C   UNL     1     -11.957  15.276  64.684  1.00  0.00    -0.235 A  
HETATM   13  C   UNL     1     -12.717  14.335  63.993  1.00  0.00     0.208 A  
ENDBRANCH   7   8
BRANCH   7  14
HETATM   14  C   UNL     1     -10.890  12.776  68.433  1.00  0.00    -0.272 A  
HETATM   15  C   UNL     1     -11.952  11.171  69.944  1.00  0.00    -0.439 A  
HETATM   16  C   UNL     1     -11.178  11.450  68.818  1.00  0.00    -0.308 A  
HETATM   17  C   UNL     1     -12.168  13.532  70.363  1.00  0.00    -0.426 A  
HETATM   18  C   UNL     1     -11.375  13.830  69.244  1.00  0.00    -0.325 A  
HETATM   19  C   UNL     1     -12.459  12.213  70.708  1.00  0.00    -0.362 A  
HETATM   20  C   UNL     1     -11.047  15.273  68.962  1.00  0.00    -0.263 C  
ENDBRANCH   7  14
ENDBRANCH   6   7
ENDBRANCH   5   6
ENDBRANCH   4   5
ENDBRANCH   2   4
TORSDOF 6
ENDMDL
MODEL      175
REMARK 921   NORMALIZED FREE ENERGY PREDICTED BY IDOCK:   -3.37 KCAL/MOL
REMARK 922        TOTAL FREE ENERGY PREDICTED BY IDOCK:   -5.61 KCAL/MOL
REMARK 923 INTER-LIGAND FREE ENERGY PREDICTED BY IDOCK:   -5.25 KCAL/MOL
REMARK 924 INTRA-LIGAND FREE ENERGY PREDICTED BY IDOCK:   -0.36 KCAL/MOL
REMARK 927      BINDING AFFINITY PREDICTED BY RF-SCORE:    0.00 PKD
ROOT
HETATM    1  C   UNL     1      -6.130  14.032  70.344  1.00  0.00    -0.157 C  
HETATM    2  N   UNL     1      -6.749  15.023  69.462  1.00  0.00    -0.153 NA 
HETATM    3  C   UNL     1      -5.965  16.257  69.470  1.00  0.00    -0.167 C  
ENDROOT
BRANCH   2   4
HETATM    4  C   UNL     1      -6.884  14.461  68.107  1.00  0.00    -0.123 C  
BRANCH   4   5
HETATM    5  C   UNL     1      -8.314  14.047  67.710  1.00  0.00    -0.176 C  
BRANCH   5   6
HETATM    6  O   UNL     1      -8.500  12.628  67.640  1.00  0.00    -0.151 OA 
BRANCH   6   7
HETATM    7  C   UNL     1      -9.862  12.175  67.514  1.00  0.00    -0.191 C  
BRANCH   7   8
HETATM    8  C   UNL     1     -10.564  12.877  66.354  1.00  0.00    -0.285 A  
HETATM    9  C   UNL     1     -10.184  12.583  65.031  1.00  0.00    -0.301 A  
HETATM   10  C   UNL     1     -11.683  13.699  66.559  1.00  0.00    -0.414 A  
HETATM   11  C   UNL     1     -10.933  13.053  63.951  1.00  0.00    -0.375 A  
HETATM   12  C   UNL     1     -12.422  14.179  65.476  1.00  0.00    -0.495 A  
HETATM   13  C   UNL     1     -12.057  13.843  64.175  1.00  0.00    -0.464 A  
ENDBRANCH   7   8
BRANCH   7  14
HETATM   14  C   UNL     1      -9.875  10.646  67.431  1.00  0.00    -0.198 A  
HETATM   15  C   UNL     1      -9.351   8.615  66.173  1.00  0.00    -0.291 A  
HETATM   16  C   UNL     1      -9.324  10.003  66.303  1.00  0.00    -0.213 A  
HETATM   17  C   UNL     1     -10.462   8.449  68.301  1.00  0.00    -0.214 A  
HETATM   18  C   UNL     1     -10.427   9.844  68.458  1.00  0.00    -0.232 A  
HETATM   19  C   UNL     1      -9.933   7.839  67.165  1.00  0.00    -0.298 A  
HETATM   20  C   UNL     1     -10.960  10.435  69.737  1.00  0.00    -0.345 C  
ENDBRANCH   7  14
ENDBRANCH   6   7
ENDBRANCH   5   6
ENDBRANCH   4   5
ENDBRANCH   2   4
TORSDOF 6
ENDMDL
MODEL      176
REMARK 921   NORMALIZED FREE ENERGY PREDICTED BY IDOCK:   -3.37 KCAL/MOL
REMARK 922        TOTAL FREE ENERGY PREDICTED BY IDOCK:   -5.60 KCAL/MOL
REMARK 923 INTER-LIGAND FREE ENERGY PREDICTED BY IDOCK:   -5.05 KCAL/MOL
REMARK 924 INTRA-LIGAND FREE ENERGY PREDICTED BY IDOCK:   -0.55 KCAL/MOL
REMARK 927      BINDING AFFINITY PREDICTED BY RF-SCORE:    0.00 PKD
ROOT
HETATM    1  C   UNL     1      -5.614   8.756  73.809  1.00  0.00    -0.113 C  
HETATM    2  N   UNL     1      -6.524   9.307  72.804  1.00  0.00    -0.286 NA 
HETATM    3  C   UNL     1      -5.853   9.376  71.507  1.00  0.00    -0.068 C  
ENDROOT
BRANCH   2   4
HETATM    4  C   UNL     1      -7.751   8.492  72.751  1.00  0.00     0.001 C  
BRANCH   4   5
HETATM    5  C   UNL     1      -8.038   7.829  71.390  1.00  0.00    -0.099 C  
BRANCH   5   6
HETATM    6  O   UNL     1      -9.252   8.284  70.779  1.00  0.00    -0.146 OA 
BRANCH   6   7
HETATM    7  C   UNL     1     -10.291   7.296  70.630  1.00  0.00    -0.204 C  
BRANCH   7   8
HETATM    8  C   UNL     1     -11.636   7.845  71.098  1.00  0.00    -0.302 A  
HETATM    9  C   UNL     1     -12.766   7.006  71.103  1.00  0.00    -0.361 A  
HETATM   10  C   UNL     1     -11.751   9.123  71.668  1.00  0.00    -0.448 A  
HETATM   11  C   UNL     1     -13.956   7.414  71.707  1.00  0.00    -0.469 A  
HETATM   12  C   UNL     1     -12.947   9.533  72.259  1.00  0.00    -0.466 A  
HETATM   13  C   UNL     1     -14.043   8.674  72.293  1.00  0.00    -0.491 A  
ENDBRANCH   7   8
BRANCH   7  14
HETATM   14  C   UNL     1     -10.284   6.777  69.189  1.00  0.00    -0.195 A  
HETATM   15  C   UNL     1     -10.033   4.898  67.643  1.00  0.00    -0.192 A  
HETATM   16  C   UNL     1     -10.084   5.403  68.942  1.00  0.00    -0.265 A  
HETATM   17  C   UNL     1     -10.400   7.114  66.780  1.00  0.00    -0.297 A  
HETATM   18  C   UNL     1     -10.474   7.637  68.080  1.00  0.00    -0.233 A  
HETATM   19  C   UNL     1     -10.177   5.756  66.562  1.00  0.00    -0.241 A  
HETATM   20  C   UNL     1     -10.780   9.103  68.247  1.00  0.00    -0.173 C  
ENDBRANCH   7  14
ENDBRANCH   6   7
ENDBRANCH   5   6
ENDBRANCH   4   5
ENDBRANCH   2   4
TORSDOF 6
ENDMDL
MODEL      177
REMARK 921   NORMALIZED FREE ENERGY PREDICTED BY IDOCK:   -3.35 KCAL/MOL
REMARK 922        TOTAL FREE ENERGY PREDICTED BY IDOCK:   -5.58 KCAL/MOL
REMARK 923 INTER-LIGAND FREE ENERGY PREDICTED BY IDOCK:   -4.46 KCAL/MOL
REMARK 924 INTRA-LIGAND FREE ENERGY PREDICTED BY IDOCK:   -1.12 KCAL/MOL
REMARK 927      BINDING AFFINITY PREDICTED BY RF-SCORE:    0.00 PKD
ROOT
HETATM    1  C   UNL     1      -9.603   3.871  69.897  1.00  0.00    -0.200 C  
HETATM    2  N   UNL     1     -10.161   4.469  71.111  1.00  0.00    -0.178 NA 
HETATM    3  C   UNL     1      -9.324   4.137  72.262  1.00  0.00    -0.125 C  
ENDROOT
BRANCH   2   4
HETATM    4  C   UNL     1     -10.297   5.924  70.925  1.00  0.00    -0.229 C  
BRANCH   4   5
HETATM    5  C   UNL     1     -11.152   6.353  69.717  1.00  0.00    -0.396 C  
BRANCH   5   6
HETATM    6  O   UNL     1     -10.740   7.599  69.140  1.00  0.00    -0.214 OA 
BRANCH   6   7
HETATM    7  C   UNL     1     -10.466   7.578  67.725  1.00  0.00    -0.223 C  
BRANCH   7   8
HETATM    8  C   UNL     1     -10.437   8.993  67.156  1.00  0.00    -0.333 A  
HETATM    9  C   UNL     1      -9.943   9.209  65.856  1.00  0.00    -0.232 A  
HETATM   10  C   UNL     1     -11.029  10.071  67.832  1.00  0.00    -0.311 A  
HETATM   11  C   UNL     1     -10.085  10.451  65.234  1.00  0.00    -0.370 A  
HETATM   12  C   UNL     1     -11.158  11.316  67.213  1.00  0.00    -0.367 A  
HETATM   13  C   UNL     1     -10.701  11.501  65.909  1.00  0.00    -0.325 A  
ENDBRANCH   7   8
BRANCH   7  14
HETATM   14  C   UNL     1      -9.191   6.767  67.475  1.00  0.00    -0.122 A  
HETATM   15  C   UNL     1      -6.772   6.534  67.754  1.00  0.00    -0.071 A  
HETATM   16  C   UNL     1      -7.960   7.223  67.992  1.00  0.00    -0.119 A  
HETATM   17  C   UNL     1      -7.993   4.890  66.489  1.00  0.00    -0.107 A  
HETATM   18  C   UNL     1      -9.202   5.560  66.735  1.00  0.00    -0.129 A  
HETATM   19  C   UNL     1      -6.786   5.375  66.991  1.00  0.00    -0.063 A  
HETATM   20  C   UNL     1     -10.478   4.950  66.217  1.00  0.00    -0.349 C  
ENDBRANCH   7  14
ENDBRANCH   6   7
ENDBRANCH   5   6
ENDBRANCH   4   5
ENDBRANCH   2   4
TORSDOF 6
ENDMDL
MODEL      178
REMARK 921   NORMALIZED FREE ENERGY PREDICTED BY IDOCK:   -3.34 KCAL/MOL
REMARK 922        TOTAL FREE ENERGY PREDICTED BY IDOCK:   -5.57 KCAL/MOL
REMARK 923 INTER-LIGAND FREE ENERGY PREDICTED BY IDOCK:   -4.74 KCAL/MOL
REMARK 924 INTRA-LIGAND FREE ENERGY PREDICTED BY IDOCK:   -0.82 KCAL/MOL
REMARK 927      BINDING AFFINITY PREDICTED BY RF-SCORE:    0.00 PKD
ROOT
HETATM    1  C   UNL     1      -7.235   7.540  70.348  1.00  0.00    -0.064 C  
HETATM    2  N   UNL     1      -8.359   7.935  69.497  1.00  0.00    -0.130 NA 
HETATM    3  C   UNL     1      -8.327   7.181  68.246  1.00  0.00    -0.124 C  
ENDROOT
BRANCH   2   4
HETATM    4  C   UNL     1      -9.623   7.743  70.229  1.00  0.00    -0.175 C  
BRANCH   4   5
HETATM    5  C   UNL     1     -10.780   8.662  69.791  1.00  0.00    -0.215 C  
BRANCH   5   6
HETATM    6  O   UNL     1     -10.358   9.990  69.459  1.00  0.00    -0.204 OA 
BRANCH   6   7
HETATM    7  C   UNL     1     -10.968  10.572  68.290  1.00  0.00    -0.263 C  
BRANCH   7   8
HETATM    8  C   UNL     1     -11.502  11.969  68.592  1.00  0.00    -0.350 A  
HETATM    9  C   UNL     1     -11.742  12.348  69.926  1.00  0.00    -0.339 A  
HETATM   10  C   UNL     1     -11.618  12.946  67.590  1.00  0.00    -0.406 A  
HETATM   11  C   UNL     1     -12.038  13.673  70.251  1.00  0.00    -0.427 A  
HETATM   12  C   UNL     1     -11.928  14.267  67.917  1.00  0.00    -0.364 A  
HETATM   13  C   UNL     1     -12.121  14.634  69.247  1.00  0.00    -0.307 A  
ENDBRANCH   7   8
BRANCH   7  14
HETATM   14  C   UNL     1      -9.976  10.510  67.125  1.00  0.00    -0.234 A  
HETATM   15  C   UNL     1      -9.515   9.910  64.799  1.00  0.00    -0.356 A  
HETATM   16  C   UNL     1     -10.398  10.018  65.873  1.00  0.00    -0.202 A  
HETATM   17  C   UNL     1      -7.752  10.800  66.175  1.00  0.00    -0.149 A  
HETATM   18  C   UNL     1      -8.632  10.934  67.261  1.00  0.00    -0.128 A  
HETATM   19  C   UNL     1      -8.189  10.287  64.955  1.00  0.00    -0.157 A  
HETATM   20  C   UNL     1      -8.111  11.553  68.532  1.00  0.00    -0.146 C  
ENDBRANCH   7  14
ENDBRANCH   6   7
ENDBRANCH   5   6
ENDBRANCH   4   5
ENDBRANCH   2   4
TORSDOF 6
ENDMDL
MODEL      179
REMARK 921   NORMALIZED FREE ENERGY PREDICTED BY IDOCK:   -3.34 KCAL/MOL
REMARK 922        TOTAL FREE ENERGY PREDICTED BY IDOCK:   -5.56 KCAL/MOL
REMARK 923 INTER-LIGAND FREE ENERGY PREDICTED BY IDOCK:   -4.69 KCAL/MOL
REMARK 924 INTRA-LIGAND FREE ENERGY PREDICTED BY IDOCK:   -0.87 KCAL/MOL
REMARK 927      BINDING AFFINITY PREDICTED BY RF-SCORE:    0.00 PKD
ROOT
HETATM    1  C   UNL     1      -7.403  12.204  67.218  1.00  0.00    -0.149 C  
HETATM    2  N   UNL     1      -8.716  12.694  67.642  1.00  0.00    -0.168 NA 
HETATM    3  C   UNL     1      -9.539  12.993  66.472  1.00  0.00    -0.260 C  
ENDROOT
BRANCH   2   4
HETATM    4  C   UNL     1      -9.351  11.702  68.527  1.00  0.00    -0.167 C  
BRANCH   4   5
HETATM    5  C   UNL     1     -10.831  11.403  68.222  1.00  0.00    -0.209 C  
BRANCH   5   6
HETATM    6  O   UNL     1     -11.140  10.004  68.208  1.00  0.00    -0.247 OA 
BRANCH   6   7
HETATM    7  C   UNL     1     -10.142   9.133  68.777  1.00  0.00    -0.197 C  
BRANCH   7   8
HETATM    8  C   UNL     1     -10.420   8.881  70.256  1.00  0.00    -0.239 A  
HETATM    9  C   UNL     1     -11.749   8.790  70.709  1.00  0.00    -0.253 A  
HETATM   10  C   UNL     1      -9.386   8.584  71.159  1.00  0.00    -0.249 A  
HETATM   11  C   UNL     1     -12.035   8.366  72.007  1.00  0.00    -0.419 A  
HETATM   12  C   UNL     1      -9.675   8.173  72.462  1.00  0.00    -0.357 A  
HETATM   13  C   UNL     1     -10.998   8.048  72.880  1.00  0.00    -0.398 A  
ENDBRANCH   7   8
BRANCH   7  14
HETATM   14  C   UNL     1     -10.042   7.864  67.925  1.00  0.00    -0.240 A  
HETATM   15  C   UNL     1     -10.702   5.538  67.550  1.00  0.00    -0.211 A  
HETATM   16  C   UNL     1     -10.794   6.724  68.278  1.00  0.00    -0.290 A  
HETATM   17  C   UNL     1      -9.118   6.585  66.070  1.00  0.00    -0.111 A  
HETATM   18  C   UNL     1      -9.213   7.793  66.780  1.00  0.00    -0.202 A  
HETATM   19  C   UNL     1      -9.852   5.465  66.455  1.00  0.00    -0.196 A  
HETATM   20  C   UNL     1      -8.440   8.983  66.275  1.00  0.00    -0.132 C  
ENDBRANCH   7  14
ENDBRANCH   6   7
ENDBRANCH   5   6
ENDBRANCH   4   5
ENDBRANCH   2   4
TORSDOF 6
ENDMDL
MODEL      180
REMARK 921   NORMALIZED FREE ENERGY PREDICTED BY IDOCK:   -3.33 KCAL/MOL
REMARK 922        TOTAL FREE ENERGY PREDICTED BY IDOCK:   -5.56 KCAL/MOL
REMARK 923 INTER-LIGAND FREE ENERGY PREDICTED BY IDOCK:   -4.79 KCAL/MOL
REMARK 924 INTRA-LIGAND FREE ENERGY PREDICTED BY IDOCK:   -0.77 KCAL/MOL
REMARK 927      BINDING AFFINITY PREDICTED BY RF-SCORE:    0.00 PKD
ROOT
HETATM    1  C   UNL     1      -9.442   2.085  71.728  1.00  0.00    -0.116 C  
HETATM    2  N   UNL     1     -10.501   2.537  72.631  1.00  0.00    -0.151 NA 
HETATM    3  C   UNL     1     -10.376   1.866  73.923  1.00  0.00    -0.104 C  
ENDROOT
BRANCH   2   4
HETATM    4  C   UNL     1     -10.447   4.004  72.759  1.00  0.00    -0.159 C  
BRANCH   4   5
HETATM    5  C   UNL     1     -10.352   4.774  71.428  1.00  0.00    -0.122 C  
BRANCH   5   6
HETATM    6  O   UNL     1     -10.253   6.194  71.597  1.00  0.00    -0.192 OA 
BRANCH   6   7
HETATM    7  C   UNL     1     -10.806   6.995  70.533  1.00  0.00    -0.251 C  
BRANCH   7   8
HETATM    8  C   UNL     1     -11.643   8.141  71.094  1.00  0.00    -0.306 A  
HETATM    9  C   UNL     1     -11.243   9.471  70.865  1.00  0.00    -0.411 A  
HETATM   10  C   UNL     1     -12.887   7.914  71.703  1.00  0.00    -0.357 A  
HETATM   11  C   UNL     1     -12.085  10.536  71.189  1.00  0.00    -0.473 A  
HETATM   12  C   UNL     1     -13.721   8.982  72.039  1.00  0.00    -0.516 A  
HETATM   13  C   UNL     1     -13.328  10.291  71.767  1.00  0.00    -0.476 A  
ENDBRANCH   7   8
BRANCH   7  14
HETATM   14  C   UNL     1      -9.674   7.434  69.599  1.00  0.00    -0.163 A  
HETATM   15  C   UNL     1      -7.424   8.355  69.327  1.00  0.00    -0.084 A  
HETATM   16  C   UNL     1      -8.464   7.910  70.144  1.00  0.00    -0.129 A  
HETATM   17  C   UNL     1      -8.751   7.848  67.384  1.00  0.00    -0.128 A  
HETATM   18  C   UNL     1      -9.800   7.379  68.190  1.00  0.00    -0.174 A  
HETATM   19  C   UNL     1      -7.574   8.337  67.948  1.00  0.00    -0.102 A  
HETATM   20  C   UNL     1     -11.020   6.806  67.517  1.00  0.00    -0.375 C  
ENDBRANCH   7  14
ENDBRANCH   6   7
ENDBRANCH   5   6
ENDBRANCH   4   5
ENDBRANCH   2   4
TORSDOF 6
ENDMDL
MODEL      181
REMARK 921   NORMALIZED FREE ENERGY PREDICTED BY IDOCK:   -3.33 KCAL/MOL
REMARK 922        TOTAL FREE ENERGY PREDICTED BY IDOCK:   -5.55 KCAL/MOL
REMARK 923 INTER-LIGAND FREE ENERGY PREDICTED BY IDOCK:   -4.66 KCAL/MOL
REMARK 924 INTRA-LIGAND FREE ENERGY PREDICTED BY IDOCK:   -0.88 KCAL/MOL
REMARK 927      BINDING AFFINITY PREDICTED BY RF-SCORE:    0.00 PKD
ROOT
HETATM    1  C   UNL     1     -12.731  15.777  71.037  1.00  0.00    -0.398 C  
HETATM    2  N   UNL     1     -12.226  14.547  71.648  1.00  0.00    -0.342 NA 
HETATM    3  C   UNL     1     -12.362  14.619  73.102  1.00  0.00    -0.244 C  
ENDROOT
BRANCH   2   4
HETATM    4  C   UNL     1     -12.937  13.387  71.081  1.00  0.00    -0.236 C  
BRANCH   4   5
HETATM    5  C   UNL     1     -12.157  12.601  70.010  1.00  0.00    -0.269 C  
BRANCH   5   6
HETATM    6  O   UNL     1     -11.063  13.336  69.448  1.00  0.00    -0.197 OA 
BRANCH   6   7
HETATM    7  C   UNL     1     -10.869  13.190  68.027  1.00  0.00    -0.242 C  
BRANCH   7   8
HETATM    8  C   UNL     1     -10.418  14.506  67.400  1.00  0.00    -0.264 A  
HETATM    9  C   UNL     1     -10.232  14.585  66.007  1.00  0.00    -0.329 A  
HETATM   10  C   UNL     1     -10.327  15.687  68.153  1.00  0.00    -0.246 A  
HETATM   11  C   UNL     1     -10.016  15.815  65.384  1.00  0.00    -0.273 A  
HETATM   12  C   UNL     1     -10.096  16.914  67.529  1.00  0.00    -0.282 A  
HETATM   13  C   UNL     1      -9.957  16.980  66.144  1.00  0.00    -0.314 A  
ENDBRANCH   7   8
BRANCH   7  14
HETATM   14  C   UNL     1      -9.927  12.009  67.770  1.00  0.00    -0.199 A  
HETATM   15  C   UNL     1      -7.947  10.732  68.426  1.00  0.00    -0.124 A  
HETATM   16  C   UNL     1      -8.848  11.773  68.647  1.00  0.00    -0.062 A  
HETATM   17  C   UNL     1      -9.175  10.104  66.454  1.00  0.00    -0.190 A  
HETATM   18  C   UNL     1     -10.103  11.134  66.671  1.00  0.00    -0.256 A  
HETATM   19  C   UNL     1      -8.102   9.906  67.321  1.00  0.00    -0.113 A  
HETATM   20  C   UNL     1     -11.273  11.254  65.731  1.00  0.00    -0.084 C  
ENDBRANCH   7  14
ENDBRANCH   6   7
ENDBRANCH   5   6
ENDBRANCH   4   5
ENDBRANCH   2   4
TORSDOF 6
ENDMDL
MODEL      182
REMARK 921   NORMALIZED FREE ENERGY PREDICTED BY IDOCK:   -3.32 KCAL/MOL
REMARK 922        TOTAL FREE ENERGY PREDICTED BY IDOCK:   -5.53 KCAL/MOL
REMARK 923 INTER-LIGAND FREE ENERGY PREDICTED BY IDOCK:   -5.36 KCAL/MOL
REMARK 924 INTRA-LIGAND FREE ENERGY PREDICTED BY IDOCK:   -0.18 KCAL/MOL
REMARK 927      BINDING AFFINITY PREDICTED BY RF-SCORE:    0.00 PKD
ROOT
HETATM    1  C   UNL     1      -6.011   8.976  74.164  1.00  0.00    -0.058 C  
HETATM    2  N   UNL     1      -6.999   8.472  73.210  1.00  0.00    -0.285 NA 
HETATM    3  C   UNL     1      -6.430   7.371  72.436  1.00  0.00    -0.051 C  
ENDROOT
BRANCH   2   4
HETATM    4  C   UNL     1      -8.220   8.071  73.930  1.00  0.00    -0.249 C  
BRANCH   4   5
HETATM    5  C   UNL     1      -9.511   8.084  73.090  1.00  0.00    -0.280 C  
BRANCH   5   6
HETATM    6  O   UNL     1      -9.272   8.063  71.677  1.00  0.00    -0.134 OA 
BRANCH   6   7
HETATM    7  C   UNL     1     -10.104   8.932  70.883  1.00  0.00    -0.241 C  
BRANCH   7   8
HETATM    8  C   UNL     1      -9.774   8.796  69.400  1.00  0.00    -0.172 A  
HETATM    9  C   UNL     1     -10.634   9.364  68.441  1.00  0.00    -0.247 A  
HETATM   10  C   UNL     1      -8.556   8.252  68.963  1.00  0.00    -0.135 A  
HETATM   11  C   UNL     1     -10.262   9.432  67.098  1.00  0.00    -0.319 A  
HETATM   12  C   UNL     1      -8.192   8.308  67.616  1.00  0.00    -0.127 A  
HETATM   13  C   UNL     1      -9.037   8.912  66.687  1.00  0.00    -0.192 A  
ENDBRANCH   7   8
BRANCH   7  14
HETATM   14  C   UNL     1     -11.573   8.672  71.232  1.00  0.00    -0.340 A  
HETATM   15  C   UNL     1     -13.695   9.516  72.108  1.00  0.00    -0.447 A  
HETATM   16  C   UNL     1     -12.365   9.722  71.743  1.00  0.00    -0.470 A  
HETATM   17  C   UNL     1     -13.507   7.209  71.450  1.00  0.00    -0.374 A  
HETATM   18  C   UNL     1     -12.172   7.401  71.059  1.00  0.00    -0.315 A  
HETATM   19  C   UNL     1     -14.261   8.256  71.976  1.00  0.00    -0.507 A  
HETATM   20  C   UNL     1     -11.432   6.244  70.442  1.00  0.00    -0.414 C  
ENDBRANCH   7  14
ENDBRANCH   6   7
ENDBRANCH   5   6
ENDBRANCH   4   5
ENDBRANCH   2   4
TORSDOF 6
ENDMDL
MODEL      183
REMARK 921   NORMALIZED FREE ENERGY PREDICTED BY IDOCK:   -3.31 KCAL/MOL
REMARK 922        TOTAL FREE ENERGY PREDICTED BY IDOCK:   -5.52 KCAL/MOL
REMARK 923 INTER-LIGAND FREE ENERGY PREDICTED BY IDOCK:   -4.69 KCAL/MOL
REMARK 924 INTRA-LIGAND FREE ENERGY PREDICTED BY IDOCK:   -0.83 KCAL/MOL
REMARK 927      BINDING AFFINITY PREDICTED BY RF-SCORE:    0.00 PKD
ROOT
HETATM    1  C   UNL     1      -7.986   9.799  65.839  1.00  0.00    -0.111 C  
HETATM    2  N   UNL     1      -9.288   9.255  65.453  1.00  0.00    -0.242 NA 
HETATM    3  C   UNL     1      -9.805   8.395  66.515  1.00  0.00    -0.268 C  
ENDROOT
BRANCH   2   4
HETATM    4  C   UNL     1     -10.210  10.360  65.135  1.00  0.00    -0.256 C  
BRANCH   4   5
HETATM    5  C   UNL     1      -9.803  11.734  65.699  1.00  0.00    -0.237 C  
BRANCH   5   6
HETATM    6  O   UNL     1     -10.603  12.154  66.812  1.00  0.00    -0.219 OA 
BRANCH   6   7
HETATM    7  C   UNL     1     -10.045  11.910  68.118  1.00  0.00    -0.198 C  
BRANCH   7   8
HETATM    8  C   UNL     1      -8.731  12.665  68.299  1.00  0.00    -0.169 A  
HETATM    9  C   UNL     1      -8.699  14.059  68.104  1.00  0.00    -0.180 A  
HETATM   10  C   UNL     1      -7.583  12.035  68.802  1.00  0.00    -0.070 A  
HETATM   11  C   UNL     1      -7.570  14.803  68.452  1.00  0.00    -0.116 A  
HETATM   12  C   UNL     1      -6.450  12.781  69.136  1.00  0.00    -0.109 A  
HETATM   13  C   UNL     1      -6.450  14.164  68.977  1.00  0.00    -0.099 A  
ENDBRANCH   7   8
BRANCH   7  14
HETATM   14  C   UNL     1     -11.105  12.216  69.180  1.00  0.00    -0.263 A  
HETATM   15  C   UNL     1     -12.520  13.862  70.308  1.00  0.00    -0.380 A  
HETATM   16  C   UNL     1     -11.584  13.535  69.328  1.00  0.00    -0.369 A  
HETATM   17  C   UNL     1     -12.556  11.563  71.023  1.00  0.00    -0.457 A  
HETATM   18  C   UNL     1     -11.628  11.212  70.030  1.00  0.00    -0.421 A  
HETATM   19  C   UNL     1     -12.996  12.879  71.165  1.00  0.00    -0.259 A  
HETATM   20  C   UNL     1     -11.242   9.763  69.890  1.00  0.00    -0.271 C  
ENDBRANCH   7  14
ENDBRANCH   6   7
ENDBRANCH   5   6
ENDBRANCH   4   5
ENDBRANCH   2   4
TORSDOF 6
ENDMDL
MODEL      184
REMARK 921   NORMALIZED FREE ENERGY PREDICTED BY IDOCK:   -3.30 KCAL/MOL
REMARK 922        TOTAL FREE ENERGY PREDICTED BY IDOCK:   -5.51 KCAL/MOL
REMARK 923 INTER-LIGAND FREE ENERGY PREDICTED BY IDOCK:   -5.53 KCAL/MOL
REMARK 924 INTRA-LIGAND FREE ENERGY PREDICTED BY IDOCK:    0.02 KCAL/MOL
REMARK 927      BINDING AFFINITY PREDICTED BY RF-SCORE:    0.00 PKD
ROOT
HETATM    1  C   UNL     1      -8.339  16.229  68.221  1.00  0.00    -0.185 C  
HETATM    2  N   UNL     1      -9.047  17.272  67.479  1.00  0.00    -0.222 NA 
HETATM    3  C   UNL     1      -8.275  17.659  66.300  1.00  0.00    -0.229 C  
ENDROOT
BRANCH   2   4
HETATM    4  C   UNL     1     -10.397  16.797  67.127  1.00  0.00    -0.297 C  
BRANCH   4   5
HETATM    5  C   UNL     1     -10.601  15.273  67.226  1.00  0.00    -0.290 C  
BRANCH   5   6
HETATM    6  O   UNL     1     -11.945  14.897  67.548  1.00  0.00    -0.314 OA 
BRANCH   6   7
HETATM    7  C   UNL     1     -12.092  13.729  68.379  1.00  0.00    -0.289 C  
BRANCH   7   8
HETATM    8  C   UNL     1     -10.972  12.727  68.112  1.00  0.00    -0.273 A  
HETATM    9  C   UNL     1     -11.157  11.716  67.151  1.00  0.00    -0.354 A  
HETATM   10  C   UNL     1      -9.700  12.874  68.688  1.00  0.00    -0.047 A  
HETATM   11  C   UNL     1     -10.091  10.914  66.742  1.00  0.00    -0.259 A  
HETATM   12  C   UNL     1      -8.638  12.061  68.287  1.00  0.00    -0.174 A  
HETATM   13  C   UNL     1      -8.830  11.093  67.304  1.00  0.00    -0.144 A  
ENDBRANCH   7   8
BRANCH   7  14
HETATM   14  C   UNL     1     -12.216  14.167  69.841  1.00  0.00    -0.416 A  
HETATM   15  C   UNL     1     -12.175  15.969  71.495  1.00  0.00    -0.478 A  
HETATM   16  C   UNL     1     -12.106  15.534  70.171  1.00  0.00    -0.404 A  
HETATM   17  C   UNL     1     -12.489  13.694  72.214  1.00  0.00     0.003 A  
HETATM   18  C   UNL     1     -12.441  13.240  70.886  1.00  0.00    -0.424 A  
HETATM   19  C   UNL     1     -12.352  15.047  72.517  1.00  0.00    -0.445 A  
HETATM   20  C   UNL     1     -12.657  11.772  70.622  1.00  0.00    -0.289 C  
ENDBRANCH   7  14
ENDBRANCH   6   7
ENDBRANCH   5   6
ENDBRANCH   4   5
ENDBRANCH   2   4
TORSDOF 6
ENDMDL
MODEL      185
REMARK 921   NORMALIZED FREE ENERGY PREDICTED BY IDOCK:   -3.28 KCAL/MOL
REMARK 922        TOTAL FREE ENERGY PREDICTED BY IDOCK:   -5.48 KCAL/MOL
REMARK 923 INTER-LIGAND FREE ENERGY PREDICTED BY IDOCK:   -4.57 KCAL/MOL
REMARK 924 INTRA-LIGAND FREE ENERGY PREDICTED BY IDOCK:   -0.91 KCAL/MOL
REMARK 927      BINDING AFFINITY PREDICTED BY RF-SCORE:    0.00 PKD
ROOT
HETATM    1  C   UNL     1     -12.283  16.170  72.363  1.00  0.00    -0.507 C  
HETATM    2  N   UNL     1     -12.571  15.110  71.395  1.00  0.00    -0.324 NA 
HETATM    3  C   UNL     1     -13.982  14.737  71.467  1.00  0.00    -0.467 C  
ENDROOT
BRANCH   2   4
HETATM    4  C   UNL     1     -12.184  15.557  70.045  1.00  0.00    -0.355 C  
BRANCH   4   5
HETATM    5  C   UNL     1     -10.901  16.408  69.980  1.00  0.00    -0.305 C  
BRANCH   5   6
HETATM    6  O   UNL     1     -10.160  16.231  68.766  1.00  0.00    -0.222 OA 
BRANCH   6   7
HETATM    7  C   UNL     1      -8.769  15.885  68.920  1.00  0.00    -0.225 C  
BRANCH   7   8
HETATM    8  C   UNL     1      -8.565  14.379  68.785  1.00  0.00    -0.125 A  
HETATM    9  C   UNL     1      -9.633  13.568  68.356  1.00  0.00    -0.196 A  
HETATM   10  C   UNL     1      -7.298  13.792  68.930  1.00  0.00    -0.076 A  
HETATM   11  C   UNL     1      -9.426  12.226  68.033  1.00  0.00    -0.206 A  
HETATM   12  C   UNL     1      -7.098  12.446  68.619  1.00  0.00    -0.103 A  
HETATM   13  C   UNL     1      -8.156  11.668  68.155  1.00  0.00    -0.148 A  
ENDBRANCH   7   8
BRANCH   7  14
HETATM   14  C   UNL     1      -7.935  16.728  67.951  1.00  0.00    -0.182 A  
HETATM   15  C   UNL     1      -7.652  17.681  65.716  1.00  0.00    -0.005 A  
HETATM   16  C   UNL     1      -8.401  16.951  66.639  1.00  0.00    -0.289 A  
HETATM   17  C   UNL     1      -5.948  18.016  67.382  1.00  0.00    -0.160 A  
HETATM   18  C   UNL     1      -6.696  17.300  68.330  1.00  0.00    -0.177 A  
HETATM   19  C   UNL     1      -6.419  18.201  66.083  1.00  0.00    -0.271 A  
HETATM   20  C   UNL     1      -6.159  17.190  69.733  1.00  0.00    -0.229 C  
ENDBRANCH   7  14
ENDBRANCH   6   7
ENDBRANCH   5   6
ENDBRANCH   4   5
ENDBRANCH   2   4
TORSDOF 6
ENDMDL
MODEL      186
REMARK 921   NORMALIZED FREE ENERGY PREDICTED BY IDOCK:   -3.28 KCAL/MOL
REMARK 922        TOTAL FREE ENERGY PREDICTED BY IDOCK:   -5.48 KCAL/MOL
REMARK 923 INTER-LIGAND FREE ENERGY PREDICTED BY IDOCK:   -5.18 KCAL/MOL
REMARK 924 INTRA-LIGAND FREE ENERGY PREDICTED BY IDOCK:   -0.30 KCAL/MOL
REMARK 927      BINDING AFFINITY PREDICTED BY RF-SCORE:    0.00 PKD
ROOT
HETATM    1  C   UNL     1      -8.770  16.769  67.384  1.00  0.00    -0.191 C  
HETATM    2  N   UNL     1      -9.901  15.885  67.669  1.00  0.00    -0.232 NA 
HETATM    3  C   UNL     1     -10.757  15.772  66.490  1.00  0.00    -0.283 C  
ENDROOT
BRANCH   2   4
HETATM    4  C   UNL     1      -9.400  14.574  68.119  1.00  0.00    -0.197 C  
BRANCH   4   5
HETATM    5  C   UNL     1     -10.489  13.530  68.433  1.00  0.00    -0.246 C  
BRANCH   5   6
HETATM    6  O   UNL     1      -9.962  12.264  68.850  1.00  0.00    -0.093 OA 
BRANCH   6   7
HETATM    7  C   UNL     1     -10.733  11.106  68.474  1.00  0.00    -0.201 C  
BRANCH   7   8
HETATM    8  C   UNL     1      -9.930  10.194  67.551  1.00  0.00    -0.231 A  
HETATM    9  C   UNL     1     -10.416   8.908  67.250  1.00  0.00    -0.348 A  
HETATM   10  C   UNL     1      -8.793  10.654  66.868  1.00  0.00    -0.143 A  
HETATM   11  C   UNL     1      -9.813   8.129  66.260  1.00  0.00    -0.193 A  
HETATM   12  C   UNL     1      -8.184   9.867  65.889  1.00  0.00    -0.124 A  
HETATM   13  C   UNL     1      -8.703   8.613  65.574  1.00  0.00    -0.219 A  
ENDBRANCH   7   8
BRANCH   7  14
HETATM   14  C   UNL     1     -11.259  10.423  69.740  1.00  0.00    -0.353 A  
HETATM   15  C   UNL     1     -13.145   9.914  71.212  1.00  0.00    -0.487 A  
HETATM   16  C   UNL     1     -12.634  10.490  70.049  1.00  0.00    -0.192 A  
HETATM   17  C   UNL     1     -10.935   9.161  71.797  1.00  0.00    -0.429 A  
HETATM   18  C   UNL     1     -10.406   9.718  70.622  1.00  0.00    -0.330 A  
HETATM   19  C   UNL     1     -12.293   9.263  72.093  1.00  0.00    -0.398 A  
HETATM   20  C   UNL     1      -8.941   9.519  70.332  1.00  0.00    -0.291 C  
ENDBRANCH   7  14
ENDBRANCH   6   7
ENDBRANCH   5   6
ENDBRANCH   4   5
ENDBRANCH   2   4
TORSDOF 6
ENDMDL
MODEL      187
REMARK 921   NORMALIZED FREE ENERGY PREDICTED BY IDOCK:   -3.26 KCAL/MOL
REMARK 922        TOTAL FREE ENERGY PREDICTED BY IDOCK:   -5.46 KCAL/MOL
REMARK 923 INTER-LIGAND FREE ENERGY PREDICTED BY IDOCK:   -5.40 KCAL/MOL
REMARK 924 INTRA-LIGAND FREE ENERGY PREDICTED BY IDOCK:   -0.06 KCAL/MOL
REMARK 927      BINDING AFFINITY PREDICTED BY RF-SCORE:    0.00 PKD
ROOT
HETATM    1  C   UNL     1     -10.152  17.359  67.473  1.00  0.00    -0.322 C  
HETATM    2  N   UNL     1     -10.415  15.951  67.170  1.00  0.00    -0.309 NA 
HETATM    3  C   UNL     1     -10.019  15.653  65.795  1.00  0.00    -0.359 C  
ENDROOT
BRANCH   2   4
HETATM    4  C   UNL     1      -9.716  15.097  68.147  1.00  0.00    -0.217 C  
BRANCH   4   5
HETATM    5  C   UNL     1      -9.186  13.762  67.588  1.00  0.00    -0.207 C  
BRANCH   5   6
HETATM    6  O   UNL     1      -9.824  12.613  68.158  1.00  0.00    -0.215 OA 
BRANCH   6   7
HETATM    7  C   UNL     1      -9.520  11.349  67.535  1.00  0.00    -0.167 C  
BRANCH   7   8
HETATM    8  C   UNL     1     -10.116  10.192  68.332  1.00  0.00    -0.184 A  
HETATM    9  C   UNL     1      -9.649   8.883  68.111  1.00  0.00    -0.161 A  
HETATM   10  C   UNL     1     -11.011  10.411  69.390  1.00  0.00    -0.296 A  
HETATM   11  C   UNL     1     -10.026   7.837  68.955  1.00  0.00    -0.182 A  
HETATM   12  C   UNL     1     -11.398   9.360  70.225  1.00  0.00    -0.261 A  
HETATM   13  C   UNL     1     -10.893   8.078  70.017  1.00  0.00    -0.235 A  
ENDBRANCH   7   8
BRANCH   7  14
HETATM   14  C   UNL     1      -9.953  11.398  66.067  1.00  0.00    -0.269 A  
HETATM   15  C   UNL     1      -9.475  10.875  63.726  1.00  0.00    -0.308 A  
HETATM   16  C   UNL     1      -9.134  10.817  65.077  1.00  0.00    -0.226 A  
HETATM   17  C   UNL     1     -11.480  12.079  64.296  1.00  0.00    -0.435 A  
HETATM   18  C   UNL     1     -11.162  12.014  65.662  1.00  0.00    -0.377 A  
HETATM   19  C   UNL     1     -10.641  11.519  63.335  1.00  0.00    -0.460 A  
HETATM   20  C   UNL     1     -12.142  12.584  66.654  1.00  0.00    -0.212 C  
ENDBRANCH   7  14
ENDBRANCH   6   7
ENDBRANCH   5   6
ENDBRANCH   4   5
ENDBRANCH   2   4
TORSDOF 6
ENDMDL
MODEL      188
REMARK 921   NORMALIZED FREE ENERGY PREDICTED BY IDOCK:   -3.24 KCAL/MOL
REMARK 922        TOTAL FREE ENERGY PREDICTED BY IDOCK:   -5.43 KCAL/MOL
REMARK 923 INTER-LIGAND FREE ENERGY PREDICTED BY IDOCK:   -4.40 KCAL/MOL
REMARK 924 INTRA-LIGAND FREE ENERGY PREDICTED BY IDOCK:   -1.03 KCAL/MOL
REMARK 927      BINDING AFFINITY PREDICTED BY RF-SCORE:    0.00 PKD
ROOT
HETATM    1  C   UNL     1     -12.836  14.087  65.304  1.00  0.00    -0.384 C  
HETATM    2  N   UNL     1     -12.296  12.774  64.946  1.00  0.00    -0.469 NA 
HETATM    3  C   UNL     1     -11.495  12.879  63.728  1.00  0.00    -0.459 C  
ENDROOT
BRANCH   2   4
HETATM    4  C   UNL     1     -11.518  12.236  66.076  1.00  0.00    -0.381 C  
BRANCH   4   5
HETATM    5  C   UNL     1     -10.300  13.081  66.494  1.00  0.00    -0.274 C  
BRANCH   5   6
HETATM    6  O   UNL     1      -9.051  12.396  66.339  1.00  0.00    -0.215 OA 
BRANCH   6   7
HETATM    7  C   UNL     1      -9.114  10.956  66.361  1.00  0.00    -0.172 C  
BRANCH   7   8
HETATM    8  C   UNL     1      -8.288  10.357  65.227  1.00  0.00    -0.166 A  
HETATM    9  C   UNL     1      -8.924   9.977  64.030  1.00  0.00    -0.270 A  
HETATM   10  C   UNL     1      -6.886  10.312  65.280  1.00  0.00    -0.131 A  
HETATM   11  C   UNL     1      -8.177   9.615  62.908  1.00  0.00    -0.153 A  
HETATM   12  C   UNL     1      -6.142   9.936  64.160  1.00  0.00    -0.123 A  
HETATM   13  C   UNL     1      -6.786   9.604  62.971  1.00  0.00    -0.106 A  
ENDBRANCH   7   8
BRANCH   7  14
HETATM   14  C   UNL     1      -8.728  10.460  67.758  1.00  0.00    -0.122 A  
HETATM   15  C   UNL     1      -7.235  10.605  69.690  1.00  0.00    -0.139 A  
HETATM   16  C   UNL     1      -7.642  11.054  68.434  1.00  0.00    -0.108 A  
HETATM   17  C   UNL     1      -8.994   8.963  69.660  1.00  0.00    -0.147 A  
HETATM   18  C   UNL     1      -9.430   9.414  68.404  1.00  0.00    -0.148 A  
HETATM   19  C   UNL     1      -7.902   9.550  70.297  1.00  0.00    -0.180 A  
HETATM   20  C   UNL     1     -10.654   8.777  67.799  1.00  0.00    -0.256 C  
ENDBRANCH   7  14
ENDBRANCH   6   7
ENDBRANCH   5   6
ENDBRANCH   4   5
ENDBRANCH   2   4
TORSDOF 6
ENDMDL
MODEL      189
REMARK 921   NORMALIZED FREE ENERGY PREDICTED BY IDOCK:   -3.20 KCAL/MOL
REMARK 922        TOTAL FREE ENERGY PREDICTED BY IDOCK:   -5.37 KCAL/MOL
REMARK 923 INTER-LIGAND FREE ENERGY PREDICTED BY IDOCK:   -4.50 KCAL/MOL
REMARK 924 INTRA-LIGAND FREE ENERGY PREDICTED BY IDOCK:   -0.87 KCAL/MOL
REMARK 927      BINDING AFFINITY PREDICTED BY RF-SCORE:    0.00 PKD
ROOT
HETATM    1  C   UNL     1     -12.506  13.348  65.585  1.00  0.00    -0.464 C  
HETATM    2  N   UNL     1     -11.338  13.948  66.232  1.00  0.00    -0.317 NA 
HETATM    3  C   UNL     1     -11.702  14.443  67.559  1.00  0.00    -0.387 C  
ENDROOT
BRANCH   2   4
HETATM    4  C   UNL     1     -10.245  12.961  66.289  1.00  0.00    -0.278 C  
BRANCH   4   5
HETATM    5  C   UNL     1     -10.623  11.538  65.835  1.00  0.00    -0.268 C  
BRANCH   5   6
HETATM    6  O   UNL     1     -10.614  10.579  66.899  1.00  0.00    -0.248 OA 
BRANCH   6   7
HETATM    7  C   UNL     1     -10.128   9.265  66.559  1.00  0.00    -0.273 C  
BRANCH   7   8
HETATM    8  C   UNL     1      -8.659   9.316  66.152  1.00  0.00    -0.146 A  
HETATM    9  C   UNL     1      -8.307   9.160  64.798  1.00  0.00    -0.176 A  
HETATM   10  C   UNL     1      -7.653   9.666  67.067  1.00  0.00    -0.095 A  
HETATM   11  C   UNL     1      -7.001   9.398  64.367  1.00  0.00    -0.101 A  
HETATM   12  C   UNL     1      -6.344   9.890  66.634  1.00  0.00    -0.069 A  
HETATM   13  C   UNL     1      -6.022   9.773  65.284  1.00  0.00    -0.074 A  
ENDBRANCH   7   8
BRANCH   7  14
HETATM   14  C   UNL     1     -10.434   8.305  67.713  1.00  0.00    -0.280 A  
HETATM   15  C   UNL     1     -11.003   7.982  70.070  1.00  0.00    -0.202 A  
HETATM   16  C   UNL     1     -10.756   8.823  68.985  1.00  0.00    -0.134 A  
HETATM   17  C   UNL     1     -10.639   6.069  68.656  1.00  0.00    -0.327 A  
HETATM   18  C   UNL     1     -10.406   6.899  67.548  1.00  0.00    -0.277 A  
HETATM   19  C   UNL     1     -10.930   6.606  69.909  1.00  0.00    -0.373 A  
HETATM   20  C   UNL     1     -10.158   6.255  66.209  1.00  0.00    -0.007 C  
ENDBRANCH   7  14
ENDBRANCH   6   7
ENDBRANCH   5   6
ENDBRANCH   4   5
ENDBRANCH   2   4
TORSDOF 6
ENDMDL
MODEL      190
REMARK 921   NORMALIZED FREE ENERGY PREDICTED BY IDOCK:   -3.18 KCAL/MOL
REMARK 922        TOTAL FREE ENERGY PREDICTED BY IDOCK:   -5.35 KCAL/MOL
REMARK 923 INTER-LIGAND FREE ENERGY PREDICTED BY IDOCK:   -4.16 KCAL/MOL
REMARK 924 INTRA-LIGAND FREE ENERGY PREDICTED BY IDOCK:   -1.19 KCAL/MOL
REMARK 927      BINDING AFFINITY PREDICTED BY RF-SCORE:    0.00 PKD
ROOT
HETATM    1  C   UNL     1     -10.594   6.009  73.472  1.00  0.00    -0.268 C  
HETATM    2  N   UNL     1      -9.961   6.473  72.237  1.00  0.00    -0.164 NA 
HETATM    3  C   UNL     1      -9.062   5.444  71.719  1.00  0.00    -0.138 C  
ENDROOT
BRANCH   2   4
HETATM    4  C   UNL     1     -11.000   6.846  71.261  1.00  0.00    -0.243 C  
BRANCH   4   5
HETATM    5  C   UNL     1     -11.134   5.898  70.054  1.00  0.00    -0.341 C  
BRANCH   5   6
HETATM    6  O   UNL     1     -11.185   6.581  68.795  1.00  0.00    -0.293 OA 
BRANCH   6   7
HETATM    7  C   UNL     1      -9.912   6.917  68.208  1.00  0.00    -0.153 C  
BRANCH   7   8
HETATM    8  C   UNL     1      -9.713   6.184  66.884  1.00  0.00    -0.178 A  
HETATM    9  C   UNL     1      -8.537   6.398  66.141  1.00  0.00    -0.144 A  
HETATM   10  C   UNL     1     -10.600   5.185  66.455  1.00  0.00    -0.336 A  
HETATM   11  C   UNL     1      -8.234   5.602  65.036  1.00  0.00    -0.137 A  
HETATM   12  C   UNL     1     -10.301   4.398  65.340  1.00  0.00    -0.238 A  
HETATM   13  C   UNL     1      -9.113   4.596  64.642  1.00  0.00    -0.141 A  
ENDBRANCH   7   8
BRANCH   7  14
HETATM   14  C   UNL     1      -9.792   8.441  68.114  1.00  0.00    -0.196 A  
HETATM   15  C   UNL     1     -10.544  10.541  67.109  1.00  0.00    -0.319 A  
HETATM   16  C   UNL     1     -10.648   9.157  67.251  1.00  0.00    -0.303 A  
HETATM   17  C   UNL     1      -8.739  10.557  68.702  1.00  0.00    -0.143 A  
HETATM   18  C   UNL     1      -8.842   9.167  68.872  1.00  0.00    -0.139 A  
HETATM   19  C   UNL     1      -9.580  11.238  67.824  1.00  0.00    -0.181 A  
HETATM   20  C   UNL     1      -7.945   8.501  69.882  1.00  0.00    -0.106 C  
ENDBRANCH   7  14
ENDBRANCH   6   7
ENDBRANCH   5   6
ENDBRANCH   4   5
ENDBRANCH   2   4
TORSDOF 6
ENDMDL
MODEL      191
REMARK 921   NORMALIZED FREE ENERGY PREDICTED BY IDOCK:   -3.18 KCAL/MOL
REMARK 922        TOTAL FREE ENERGY PREDICTED BY IDOCK:   -5.34 KCAL/MOL
REMARK 923 INTER-LIGAND FREE ENERGY PREDICTED BY IDOCK:   -4.46 KCAL/MOL
REMARK 924 INTRA-LIGAND FREE ENERGY PREDICTED BY IDOCK:   -0.88 KCAL/MOL
REMARK 927      BINDING AFFINITY PREDICTED BY RF-SCORE:    0.00 PKD
ROOT
HETATM    1  C   UNL     1      -8.592  16.232  67.964  1.00  0.00    -0.176 C  
HETATM    2  N   UNL     1      -7.268  15.817  68.429  1.00  0.00    -0.117 NA 
HETATM    3  C   UNL     1      -6.835  16.673  69.532  1.00  0.00    -0.157 C  
ENDROOT
BRANCH   2   4
HETATM    4  C   UNL     1      -7.303  14.394  68.812  1.00  0.00    -0.131 C  
BRANCH   4   5
HETATM    5  C   UNL     1      -7.324  13.401  67.635  1.00  0.00    -0.168 C  
BRANCH   5   6
HETATM    6  O   UNL     1      -7.818  12.104  67.992  1.00  0.00    -0.125 OA 
BRANCH   6   7
HETATM    7  C   UNL     1      -9.253  11.965  68.032  1.00  0.00    -0.190 C  
BRANCH   7   8
HETATM    8  C   UNL     1      -9.860  12.184  66.649  1.00  0.00    -0.224 A  
HETATM    9  C   UNL     1     -10.479  13.412  66.349  1.00  0.00    -0.286 A  
HETATM   10  C   UNL     1      -9.686  11.253  65.613  1.00  0.00    -0.267 A  
HETATM   11  C   UNL     1     -10.864  13.717  65.042  1.00  0.00    -0.358 A  
HETATM   12  C   UNL     1     -10.086  11.556  64.310  1.00  0.00    -0.338 A  
HETATM   13  C   UNL     1     -10.659  12.792  64.022  1.00  0.00    -0.446 A  
ENDBRANCH   7   8
BRANCH   7  14
HETATM   14  C   UNL     1      -9.607  10.621  68.675  1.00  0.00    -0.179 A  
HETATM   15  C   UNL     1      -8.953   8.329  69.225  1.00  0.00    -0.147 A  
HETATM   16  C   UNL     1      -8.656   9.579  68.684  1.00  0.00    -0.119 A  
HETATM   17  C   UNL     1     -11.158   9.112  69.792  1.00  0.00    -0.140 A  
HETATM   18  C   UNL     1     -10.870  10.383  69.269  1.00  0.00    -0.280 A  
HETATM   19  C   UNL     1     -10.209   8.091  69.766  1.00  0.00    -0.206 A  
HETATM   20  C   UNL     1     -11.917  11.459  69.384  1.00  0.00    -0.407 C  
ENDBRANCH   7  14
ENDBRANCH   6   7
ENDBRANCH   5   6
ENDBRANCH   4   5
ENDBRANCH   2   4
TORSDOF 6
ENDMDL
MODEL      192
REMARK 921   NORMALIZED FREE ENERGY PREDICTED BY IDOCK:   -3.18 KCAL/MOL
REMARK 922        TOTAL FREE ENERGY PREDICTED BY IDOCK:   -5.34 KCAL/MOL
REMARK 923 INTER-LIGAND FREE ENERGY PREDICTED BY IDOCK:   -4.86 KCAL/MOL
REMARK 924 INTRA-LIGAND FREE ENERGY PREDICTED BY IDOCK:   -0.48 KCAL/MOL
REMARK 927      BINDING AFFINITY PREDICTED BY RF-SCORE:    0.00 PKD
ROOT
HETATM    1  C   UNL     1     -10.222   4.650  65.941  1.00  0.00    -0.276 C  
HETATM    2  N   UNL     1      -9.806   5.642  66.934  1.00  0.00    -0.146 NA 
HETATM    3  C   UNL     1     -10.920   6.535  67.245  1.00  0.00    -0.400 C  
ENDROOT
BRANCH   2   4
HETATM    4  C   UNL     1      -9.294   4.955  68.133  1.00  0.00    -0.130 C  
BRANCH   4   5
HETATM    5  C   UNL     1      -8.801   5.884  69.259  1.00  0.00    -0.118 C  
BRANCH   5   6
HETATM    6  O   UNL     1      -8.361   5.180  70.427  1.00  0.00    -0.101 OA 
BRANCH   6   7
HETATM    7  C   UNL     1      -9.106   5.435  71.635  1.00  0.00    -0.139 C  
BRANCH   7   8
HETATM    8  C   UNL     1     -10.114   6.561  71.425  1.00  0.00    -0.213 A  
HETATM    9  C   UNL     1     -11.405   6.260  70.955  1.00  0.00    -0.378 A  
HETATM   10  C   UNL     1      -9.842   7.877  71.831  1.00  0.00    -0.233 A  
HETATM   11  C   UNL     1     -12.407   7.232  70.942  1.00  0.00    -0.287 A  
HETATM   12  C   UNL     1     -10.842   8.851  71.804  1.00  0.00    -0.436 A  
HETATM   13  C   UNL     1     -12.127   8.525  71.375  1.00  0.00    -0.345 A  
ENDBRANCH   7   8
BRANCH   7  14
HETATM   14  C   UNL     1      -9.716   4.121  72.131  1.00  0.00    -0.225 A  
HETATM   15  C   UNL     1     -10.218   1.762  71.723  1.00  0.00    -0.134 A  
HETATM   16  C   UNL     1      -9.641   2.967  71.324  1.00  0.00    -0.228 A  
HETATM   17  C   UNL     1     -10.953   2.805  73.764  1.00  0.00    -0.308 A  
HETATM   18  C   UNL     1     -10.362   4.021  73.387  1.00  0.00    -0.232 A  
HETATM   19  C   UNL     1     -10.887   1.685  72.937  1.00  0.00    -0.241 A  
HETATM   20  C   UNL     1     -10.417   5.175  74.354  1.00  0.00    -0.294 C  
ENDBRANCH   7  14
ENDBRANCH   6   7
ENDBRANCH   5   6
ENDBRANCH   4   5
ENDBRANCH   2   4
TORSDOF 6
ENDMDL
MODEL      193
REMARK 921   NORMALIZED FREE ENERGY PREDICTED BY IDOCK:   -3.17 KCAL/MOL
REMARK 922        TOTAL FREE ENERGY PREDICTED BY IDOCK:   -5.34 KCAL/MOL
REMARK 923 INTER-LIGAND FREE ENERGY PREDICTED BY IDOCK:   -5.27 KCAL/MOL
REMARK 924 INTRA-LIGAND FREE ENERGY PREDICTED BY IDOCK:   -0.07 KCAL/MOL
REMARK 927      BINDING AFFINITY PREDICTED BY RF-SCORE:    0.00 PKD
ROOT
HETATM    1  C   UNL     1      -8.153   9.743  65.089  1.00  0.00    -0.132 C  
HETATM    2  N   UNL     1      -8.665  10.402  66.292  1.00  0.00    -0.149 NA 
HETATM    3  C   UNL     1      -9.495   9.472  67.055  1.00  0.00    -0.155 C  
ENDROOT
BRANCH   2   4
HETATM    4  C   UNL     1      -7.538  10.921  67.087  1.00  0.00    -0.109 C  
BRANCH   4   5
HETATM    5  C   UNL     1      -7.807  12.254  67.812  1.00  0.00    -0.151 C  
BRANCH   5   6
HETATM    6  O   UNL     1      -8.656  13.142  67.075  1.00  0.00    -0.205 OA 
BRANCH   6   7
HETATM    7  C   UNL     1     -10.072  12.996  67.303  1.00  0.00    -0.235 C  
BRANCH   7   8
HETATM    8  C   UNL     1     -10.534  13.892  68.449  1.00  0.00    -0.250 A  
HETATM    9  C   UNL     1      -9.742  14.990  68.834  1.00  0.00    -0.224 A  
HETATM   10  C   UNL     1     -11.802  13.746  69.033  1.00  0.00    -0.397 A  
HETATM   11  C   UNL     1     -10.227  15.939  69.736  1.00  0.00    -0.268 A  
HETATM   12  C   UNL     1     -12.278  14.689  69.946  1.00  0.00    -0.365 A  
HETATM   13  C   UNL     1     -11.498  15.793  70.284  1.00  0.00    -0.369 A  
ENDBRANCH   7   8
BRANCH   7  14
HETATM   14  C   UNL     1     -10.817  13.218  65.984  1.00  0.00    -0.284 A  
HETATM   15  C   UNL     1     -12.392  12.389  64.306  1.00  0.00    -0.544 A  
HETATM   16  C   UNL     1     -11.724  12.242  65.521  1.00  0.00    -0.433 A  
HETATM   17  C   UNL     1     -11.293  14.504  63.972  1.00  0.00     0.195 A  
HETATM   18  C   UNL     1     -10.626  14.382  65.201  1.00  0.00    -0.429 A  
HETATM   19  C   UNL     1     -12.166  13.514  63.525  1.00  0.00    -0.410 A  
HETATM   20  C   UNL     1      -9.745  15.517  65.654  1.00  0.00    -0.355 C  
ENDBRANCH   7  14
ENDBRANCH   6   7
ENDBRANCH   5   6
ENDBRANCH   4   5
ENDBRANCH   2   4
TORSDOF 6
ENDMDL
MODEL      194
REMARK 921   NORMALIZED FREE ENERGY PREDICTED BY IDOCK:   -3.17 KCAL/MOL
REMARK 922        TOTAL FREE ENERGY PREDICTED BY IDOCK:   -5.33 KCAL/MOL
REMARK 923 INTER-LIGAND FREE ENERGY PREDICTED BY IDOCK:   -5.42 KCAL/MOL
REMARK 924 INTRA-LIGAND FREE ENERGY PREDICTED BY IDOCK:    0.08 KCAL/MOL
REMARK 927      BINDING AFFINITY PREDICTED BY RF-SCORE:    0.00 PKD
ROOT
HETATM    1  C   UNL     1      -9.037   7.495  70.853  1.00  0.00    -0.153 C  
HETATM    2  N   UNL     1      -8.518   7.859  69.534  1.00  0.00    -0.131 NA 
HETATM    3  C   UNL     1      -8.423   6.671  68.688  1.00  0.00    -0.122 C  
ENDROOT
BRANCH   2   4
HETATM    4  C   UNL     1      -9.375   8.899  68.936  1.00  0.00    -0.140 C  
BRANCH   4   5
HETATM    5  C   UNL     1      -8.945  10.349  69.228  1.00  0.00    -0.163 C  
BRANCH   5   6
HETATM    6  O   UNL     1      -9.182  11.245  68.135  1.00  0.00    -0.157 OA 
BRANCH   6   7
HETATM    7  C   UNL     1     -10.548  11.343  67.685  1.00  0.00    -0.202 C  
BRANCH   7   8
HETATM    8  C   UNL     1     -11.346  12.293  68.573  1.00  0.00    -0.332 A  
HETATM    9  C   UNL     1     -12.125  11.773  69.624  1.00  0.00    -0.323 A  
HETATM   10  C   UNL     1     -11.210  13.687  68.470  1.00  0.00    -0.310 A  
HETATM   11  C   UNL     1     -12.703  12.619  70.571  1.00  0.00    -0.066 A  
HETATM   12  C   UNL     1     -11.802  14.531  69.411  1.00  0.00    -0.367 A  
HETATM   13  C   UNL     1     -12.534  13.998  70.469  1.00  0.00    -0.429 A  
ENDBRANCH   7   8
BRANCH   7  14
HETATM   14  C   UNL     1     -10.559  11.705  66.197  1.00  0.00    -0.306 A  
HETATM   15  C   UNL     1     -10.939  13.380  64.454  1.00  0.00    -0.413 A  
HETATM   16  C   UNL     1     -10.880  13.020  65.800  1.00  0.00    -0.292 A  
HETATM   17  C   UNL     1     -10.337  11.131  63.841  1.00  0.00    -0.441 A  
HETATM   18  C   UNL     1     -10.255  10.756  65.191  1.00  0.00    -0.365 A  
HETATM   19  C   UNL     1     -10.681  12.431  63.474  1.00  0.00    -0.473 A  
HETATM   20  C   UNL     1      -9.818   9.353  65.520  1.00  0.00    -0.231 C  
ENDBRANCH   7  14
ENDBRANCH   6   7
ENDBRANCH   5   6
ENDBRANCH   4   5
ENDBRANCH   2   4
TORSDOF 6
ENDMDL
MODEL      195
REMARK 921   NORMALIZED FREE ENERGY PREDICTED BY IDOCK:   -3.17 KCAL/MOL
REMARK 922        TOTAL FREE ENERGY PREDICTED BY IDOCK:   -5.33 KCAL/MOL
REMARK 923 INTER-LIGAND FREE ENERGY PREDICTED BY IDOCK:   -4.77 KCAL/MOL
REMARK 924 INTRA-LIGAND FREE ENERGY PREDICTED BY IDOCK:   -0.56 KCAL/MOL
REMARK 927      BINDING AFFINITY PREDICTED BY RF-SCORE:    0.00 PKD
ROOT
HETATM    1  C   UNL     1      -5.319   7.049  71.269  1.00  0.00    -0.027 C  
HETATM    2  N   UNL     1      -5.438   8.431  70.801  1.00  0.00    -0.028 NA 
HETATM    3  C   UNL     1      -5.216   8.490  69.358  1.00  0.00    -0.031 C  
ENDROOT
BRANCH   2   4
HETATM    4  C   UNL     1      -6.756   8.969  71.182  1.00  0.00    -0.090 C  
BRANCH   4   5
HETATM    5  C   UNL     1      -7.925   8.541  70.273  1.00  0.00    -0.103 C  
BRANCH   5   6
HETATM    6  O   UNL     1      -8.809   9.618  69.938  1.00  0.00    -0.187 OA 
BRANCH   6   7
HETATM    7  C   UNL     1      -9.998   9.253  69.209  1.00  0.00    -0.180 C  
BRANCH   7   8
HETATM    8  C   UNL     1     -10.964   8.475  70.098  1.00  0.00    -0.221 A  
HETATM    9  C   UNL     1     -11.182   7.106  69.856  1.00  0.00    -0.241 A  
HETATM   10  C   UNL     1     -11.530   9.047  71.249  1.00  0.00    -0.390 A  
HETATM   11  C   UNL     1     -11.899   6.324  70.764  1.00  0.00    -0.205 A  
HETATM   12  C   UNL     1     -12.258   8.266  72.148  1.00  0.00    -0.418 A  
HETATM   13  C   UNL     1     -12.428   6.903  71.914  1.00  0.00    -0.350 A  
ENDBRANCH   7   8
BRANCH   7  14
HETATM   14  C   UNL     1     -10.597  10.509  68.569  1.00  0.00    -0.234 A  
HETATM   15  C   UNL     1     -11.644  12.702  68.846  1.00  0.00    -0.363 A  
HETATM   16  C   UNL     1     -11.058  11.559  69.389  1.00  0.00    -0.287 A  
HETATM   17  C   UNL     1     -11.316  11.805  66.637  1.00  0.00    -0.381 A  
HETATM   18  C   UNL     1     -10.706  10.656  67.165  1.00  0.00    -0.327 A  
HETATM   19  C   UNL     1     -11.786  12.818  67.470  1.00  0.00    -0.422 A  
HETATM   20  C   UNL     1     -10.164   9.628  66.207  1.00  0.00    -0.286 C  
ENDBRANCH   7  14
ENDBRANCH   6   7
ENDBRANCH   5   6
ENDBRANCH   4   5
ENDBRANCH   2   4
TORSDOF 6
ENDMDL
MODEL      196
REMARK 921   NORMALIZED FREE ENERGY PREDICTED BY IDOCK:   -3.15 KCAL/MOL
REMARK 922        TOTAL FREE ENERGY PREDICTED BY IDOCK:   -5.31 KCAL/MOL
REMARK 923 INTER-LIGAND FREE ENERGY PREDICTED BY IDOCK:   -4.38 KCAL/MOL
REMARK 924 INTRA-LIGAND FREE ENERGY PREDICTED BY IDOCK:   -0.93 KCAL/MOL
REMARK 927      BINDING AFFINITY PREDICTED BY RF-SCORE:    0.00 PKD
ROOT
HETATM    1  C   UNL     1      -5.879  19.235  62.741  1.00  0.00     0.336 C  
HETATM    2  N   UNL     1      -6.062  19.106  64.188  1.00  0.00    -0.449 NA 
HETATM    3  C   UNL     1      -5.132  18.114  64.722  1.00  0.00    -0.013 C  
ENDROOT
BRANCH   2   4
HETATM    4  C   UNL     1      -5.893  20.424  64.825  1.00  0.00    -0.235 C  
BRANCH   4   5
HETATM    5  C   UNL     1      -6.998  20.814  65.825  1.00  0.00    -0.030 C  
BRANCH   5   6
HETATM    6  O   UNL     1      -6.597  20.686  67.195  1.00  0.00    -0.235 OA 
BRANCH   6   7
HETATM    7  C   UNL     1      -6.694  19.363  67.760  1.00  0.00    -0.224 C  
BRANCH   7   8
HETATM    8  C   UNL     1      -6.055  19.314  69.144  1.00  0.00    -0.287 A  
HETATM    9  C   UNL     1      -5.566  20.498  69.727  1.00  0.00    -0.384 A  
HETATM   10  C   UNL     1      -6.075  18.146  69.923  1.00  0.00    -0.157 A  
HETATM   11  C   UNL     1      -5.160  20.523  71.062  1.00  0.00    -0.275 A  
HETATM   12  C   UNL     1      -5.654  18.171  71.254  1.00  0.00     0.166 A  
HETATM   13  C   UNL     1      -5.213  19.362  71.828  1.00  0.00    -0.376 A  
ENDBRANCH   7   8
BRANCH   7  14
HETATM   14  C   UNL     1      -8.156  18.908  67.719  1.00  0.00    -0.284 A  
HETATM   15  C   UNL     1     -10.509  19.386  68.186  1.00  0.00    -0.476 A  
HETATM   16  C   UNL     1      -9.170  19.777  68.171  1.00  0.00    -0.406 A  
HETATM   17  C   UNL     1      -9.881  17.247  67.277  1.00  0.00    -0.267 A  
HETATM   18  C   UNL     1      -8.531  17.631  67.237  1.00  0.00    -0.225 A  
HETATM   19  C   UNL     1     -10.862  18.116  67.753  1.00  0.00    -0.250 A  
HETATM   20  C   UNL     1      -7.530  16.668  66.655  1.00  0.00    -0.311 C  
ENDBRANCH   7  14
ENDBRANCH   6   7
ENDBRANCH   5   6
ENDBRANCH   4   5
ENDBRANCH   2   4
TORSDOF 6
ENDMDL
MODEL      197
REMARK 921   NORMALIZED FREE ENERGY PREDICTED BY IDOCK:   -3.15 KCAL/MOL
REMARK 922        TOTAL FREE ENERGY PREDICTED BY IDOCK:   -5.31 KCAL/MOL
REMARK 923 INTER-LIGAND FREE ENERGY PREDICTED BY IDOCK:   -5.13 KCAL/MOL
REMARK 924 INTRA-LIGAND FREE ENERGY PREDICTED BY IDOCK:   -0.18 KCAL/MOL
REMARK 927      BINDING AFFINITY PREDICTED BY RF-SCORE:    0.00 PKD
ROOT
HETATM    1  C   UNL     1      -8.749   8.703  65.369  1.00  0.00    -0.174 C  
HETATM    2  N   UNL     1      -8.639   8.162  66.724  1.00  0.00    -0.128 NA 
HETATM    3  C   UNL     1      -7.472   8.730  67.396  1.00  0.00    -0.089 C  
ENDROOT
BRANCH   2   4
HETATM    4  C   UNL     1      -9.887   8.425  67.462  1.00  0.00    -0.181 C  
BRANCH   4   5
HETATM    5  C   UNL     1     -10.533   7.190  68.119  1.00  0.00    -0.200 C  
BRANCH   5   6
HETATM    6  O   UNL     1     -11.024   7.438  69.442  1.00  0.00    -0.205 OA 
BRANCH   6   7
HETATM    7  C   UNL     1     -10.375   8.501  70.166  1.00  0.00    -0.207 C  
BRANCH   7   8
HETATM    8  C   UNL     1     -11.368   9.605  70.520  1.00  0.00    -0.360 A  
HETATM    9  C   UNL     1     -12.306   9.393  71.548  1.00  0.00    -0.452 A  
HETATM   10  C   UNL     1     -11.278  10.886  69.953  1.00  0.00    -0.355 A  
HETATM   11  C   UNL     1     -13.090  10.443  72.027  1.00  0.00    -0.521 A  
HETATM   12  C   UNL     1     -12.074  11.931  70.425  1.00  0.00    -0.421 A  
HETATM   13  C   UNL     1     -12.967  11.714  71.472  1.00  0.00    -0.463 A  
ENDBRANCH   7   8
BRANCH   7  14
HETATM   14  C   UNL     1      -9.633   7.907  71.367  1.00  0.00    -0.187 A  
HETATM   15  C   UNL     1      -7.764   8.030  72.940  1.00  0.00    -0.177 A  
HETATM   16  C   UNL     1      -8.489   8.559  71.873  1.00  0.00    -0.234 A  
HETATM   17  C   UNL     1      -9.305   6.184  73.056  1.00  0.00    -0.139 A  
HETATM   18  C   UNL     1     -10.058   6.712  71.996  1.00  0.00    -0.198 A  
HETATM   19  C   UNL     1      -8.164   6.834  73.522  1.00  0.00    -0.124 A  
HETATM   20  C   UNL     1     -11.315   5.993  71.582  1.00  0.00    -0.313 C  
ENDBRANCH   7  14
ENDBRANCH   6   7
ENDBRANCH   5   6
ENDBRANCH   4   5
ENDBRANCH   2   4
TORSDOF 6
ENDMDL
MODEL      198
REMARK 921   NORMALIZED FREE ENERGY PREDICTED BY IDOCK:   -3.14 KCAL/MOL
REMARK 922        TOTAL FREE ENERGY PREDICTED BY IDOCK:   -5.30 KCAL/MOL
REMARK 923 INTER-LIGAND FREE ENERGY PREDICTED BY IDOCK:   -4.25 KCAL/MOL
REMARK 924 INTRA-LIGAND FREE ENERGY PREDICTED BY IDOCK:   -1.05 KCAL/MOL
REMARK 927      BINDING AFFINITY PREDICTED BY RF-SCORE:    0.00 PKD
ROOT
HETATM    1  C   UNL     1      -7.161  13.007  68.244  1.00  0.00    -0.103 C  
HETATM    2  N   UNL     1      -7.092  11.824  67.385  1.00  0.00    -0.116 NA 
HETATM    3  C   UNL     1      -5.975  10.975  67.792  1.00  0.00    -0.046 C  
ENDROOT
BRANCH   2   4
HETATM    4  C   UNL     1      -8.379  11.107  67.429  1.00  0.00    -0.135 C  
BRANCH   4   5
HETATM    5  C   UNL     1      -8.898  10.781  68.842  1.00  0.00    -0.150 C  
BRANCH   5   6
HETATM    6  O   UNL     1      -8.736   9.404  69.206  1.00  0.00    -0.132 OA 
BRANCH   6   7
HETATM    7  C   UNL     1      -9.930   8.597  69.163  1.00  0.00    -0.192 C  
BRANCH   7   8
HETATM    8  C   UNL     1      -9.777   7.453  68.165  1.00  0.00    -0.163 A  
HETATM    9  C   UNL     1     -10.906   6.699  67.793  1.00  0.00    -0.372 A  
HETATM   10  C   UNL     1      -8.570   7.223  67.487  1.00  0.00    -0.122 A  
HETATM   11  C   UNL     1     -10.840   5.784  66.742  1.00  0.00    -0.327 A  
HETATM   12  C   UNL     1      -8.503   6.296  66.445  1.00  0.00    -0.125 A  
HETATM   13  C   UNL     1      -9.641   5.589  66.062  1.00  0.00    -0.128 A  
ENDBRANCH   7   8
BRANCH   7  14
HETATM   14  C   UNL     1     -10.285   8.154  70.586  1.00  0.00    -0.211 A  
HETATM   15  C   UNL     1      -9.910   6.621  72.455  1.00  0.00    -0.169 A  
HETATM   16  C   UNL     1      -9.590   7.079  71.177  1.00  0.00    -0.165 A  
HETATM   17  C   UNL     1     -11.619   8.308  72.617  1.00  0.00    -0.419 A  
HETATM   18  C   UNL     1     -11.298   8.794  71.340  1.00  0.00    -0.364 A  
HETATM   19  C   UNL     1     -10.934   7.227  73.169  1.00  0.00    -0.384 A  
HETATM   20  C   UNL     1     -12.035  10.004  70.827  1.00  0.00    -0.426 C  
ENDBRANCH   7  14
ENDBRANCH   6   7
ENDBRANCH   5   6
ENDBRANCH   4   5
ENDBRANCH   2   4
TORSDOF 6
ENDMDL
MODEL      199
REMARK 921   NORMALIZED FREE ENERGY PREDICTED BY IDOCK:   -3.11 KCAL/MOL
REMARK 922        TOTAL FREE ENERGY PREDICTED BY IDOCK:   -5.25 KCAL/MOL
REMARK 923 INTER-LIGAND FREE ENERGY PREDICTED BY IDOCK:   -4.11 KCAL/MOL
REMARK 924 INTRA-LIGAND FREE ENERGY PREDICTED BY IDOCK:   -1.14 KCAL/MOL
REMARK 927      BINDING AFFINITY PREDICTED BY RF-SCORE:    0.00 PKD
ROOT
HETATM    1  C   UNL     1      -7.662   4.773  65.338  1.00  0.00    -0.086 C  
HETATM    2  N   UNL     1      -9.059   4.792  64.903  1.00  0.00    -0.155 NA 
HETATM    3  C   UNL     1      -9.168   4.257  63.547  1.00  0.00    -0.138 C  
ENDROOT
BRANCH   2   4
HETATM    4  C   UNL     1      -9.885   4.039  65.864  1.00  0.00    -0.171 C  
BRANCH   4   5
HETATM    5  C   UNL     1      -9.839   4.559  67.314  1.00  0.00    -0.175 C  
BRANCH   5   6
HETATM    6  O   UNL     1     -10.300   5.909  67.451  1.00  0.00    -0.170 OA 
BRANCH   6   7
HETATM    7  C   UNL     1      -9.626   6.707  68.444  1.00  0.00    -0.123 C  
BRANCH   7   8
HETATM    8  C   UNL     1      -9.592   8.176  68.030  1.00  0.00    -0.174 A  
HETATM    9  C   UNL     1     -10.396   8.616  66.963  1.00  0.00    -0.368 A  
HETATM   10  C   UNL     1      -8.894   9.136  68.780  1.00  0.00    -0.132 A  
HETATM   11  C   UNL     1     -10.538   9.978  66.689  1.00  0.00    -0.196 A  
HETATM   12  C   UNL     1      -9.027  10.496  68.495  1.00  0.00    -0.147 A  
HETATM   13  C   UNL     1      -9.861  10.917  67.462  1.00  0.00    -0.192 A  
ENDBRANCH   7   8
BRANCH   7  14
HETATM   14  C   UNL     1     -10.267   6.448  69.811  1.00  0.00    -0.226 A  
HETATM   15  C   UNL     1     -12.218   6.632  71.276  1.00  0.00    -0.369 A  
HETATM   16  C   UNL     1     -11.610   6.816  70.034  1.00  0.00    -0.367 A  
HETATM   17  C   UNL     1     -10.173   5.685  72.122  1.00  0.00    -0.247 A  
HETATM   18  C   UNL     1      -9.551   5.845  70.873  1.00  0.00    -0.202 A  
HETATM   19  C   UNL     1     -11.494   6.079  72.324  1.00  0.00    -0.364 A  
HETATM   20  C   UNL     1      -8.141   5.342  70.705  1.00  0.00    -0.108 C  
ENDBRANCH   7  14
ENDBRANCH   6   7
ENDBRANCH   5   6
ENDBRANCH   4   5
ENDBRANCH   2   4
TORSDOF 6
ENDMDL
MODEL      200
REMARK 921   NORMALIZED FREE ENERGY PREDICTED BY IDOCK:   -3.10 KCAL/MOL
REMARK 922        TOTAL FREE ENERGY PREDICTED BY IDOCK:   -5.24 KCAL/MOL
REMARK 923 INTER-LIGAND FREE ENERGY PREDICTED BY IDOCK:   -5.07 KCAL/MOL
REMARK 924 INTRA-LIGAND FREE ENERGY PREDICTED BY IDOCK:   -0.17 KCAL/MOL
REMARK 927      BINDING AFFINITY PREDICTED BY RF-SCORE:    0.00 PKD
ROOT
HETATM    1  C   UNL     1     -11.506  15.919  64.454  1.00  0.00    -0.264 C  
HETATM    2  N   UNL     1     -11.617  14.568  65.008  1.00  0.00    -0.367 NA 
HETATM    3  C   UNL     1     -12.214  13.671  64.021  1.00  0.00    -0.390 C  
ENDROOT
BRANCH   2   4
HETATM    4  C   UNL     1     -10.289  14.105  65.448  1.00  0.00    -0.365 C  
BRANCH   4   5
HETATM    5  C   UNL     1      -9.823  14.655  66.810  1.00  0.00    -0.255 C  
BRANCH   5   6
HETATM    6  O   UNL     1     -10.353  13.933  67.928  1.00  0.00    -0.233 OA 
BRANCH   6   7
HETATM    7  C   UNL     1     -10.235  12.497  67.866  1.00  0.00    -0.219 C  
BRANCH   7   8
HETATM    8  C   UNL     1      -8.770  12.075  67.802  1.00  0.00    -0.161 A  
HETATM    9  C   UNL     1      -8.294  11.385  66.671  1.00  0.00    -0.172 A  
HETATM   10  C   UNL     1      -7.842  12.486  68.772  1.00  0.00     0.031 A  
HETATM   11  C   UNL     1      -6.928  11.162  66.493  1.00  0.00    -0.126 A  
HETATM   12  C   UNL     1      -6.477  12.248  68.598  1.00  0.00    -0.073 A  
HETATM   13  C   UNL     1      -6.019  11.601  67.452  1.00  0.00    -0.096 A  
ENDBRANCH   7   8
BRANCH   7  14
HETATM   14  C   UNL     1     -11.023  11.880  69.025  1.00  0.00    -0.267 A  
HETATM   15  C   UNL     1     -12.520  12.188  70.935  1.00  0.00    -0.374 A  
HETATM   16  C   UNL     1     -11.818  12.706  69.847  1.00  0.00    -0.364 A  
HETATM   17  C   UNL     1     -11.682   9.993  70.415  1.00  0.00    -0.365 A  
HETATM   18  C   UNL     1     -10.984  10.493  69.305  1.00  0.00    -0.291 A  
HETATM   19  C   UNL     1     -12.441  10.834  71.227  1.00  0.00    -0.504 A  
HETATM   20  C   UNL     1     -10.233   9.521  68.433  1.00  0.00    -0.221 C  
ENDBRANCH   7  14
ENDBRANCH   6   7
ENDBRANCH   5   6
ENDBRANCH   4   5
ENDBRANCH   2   4
TORSDOF 6
ENDMDL
MODEL      201
REMARK 921   NORMALIZED FREE ENERGY PREDICTED BY IDOCK:   -3.10 KCAL/MOL
REMARK 922        TOTAL FREE ENERGY PREDICTED BY IDOCK:   -5.24 KCAL/MOL
REMARK 923 INTER-LIGAND FREE ENERGY PREDICTED BY IDOCK:   -4.48 KCAL/MOL
REMARK 924 INTRA-LIGAND FREE ENERGY PREDICTED BY IDOCK:   -0.76 KCAL/MOL
REMARK 927      BINDING AFFINITY PREDICTED BY RF-SCORE:    0.00 PKD
ROOT
HETATM    1  C   UNL     1     -12.331  13.429  63.667  1.00  0.00    -0.351 C  
HETATM    2  N   UNL     1     -10.998  13.164  64.211  1.00  0.00    -0.387 NA 
HETATM    3  C   UNL     1     -10.555  14.295  65.023  1.00  0.00    -0.425 C  
ENDROOT
BRANCH   2   4
HETATM    4  C   UNL     1     -11.019  11.906  64.978  1.00  0.00    -0.312 C  
BRANCH   4   5
HETATM    5  C   UNL     1      -9.963  10.865  64.558  1.00  0.00    -0.317 C  
BRANCH   5   6
HETATM    6  O   UNL     1     -10.104   9.607  65.229  1.00  0.00    -0.237 OA 
BRANCH   6   7
HETATM    7  C   UNL     1      -8.894   9.042  65.772  1.00  0.00    -0.179 C  
BRANCH   7   8
HETATM    8  C   UNL     1      -8.181  10.046  66.672  1.00  0.00    -0.122 A  
HETATM    9  C   UNL     1      -6.951  10.595  66.264  1.00  0.00    -0.133 A  
HETATM   10  C   UNL     1      -8.788  10.558  67.830  1.00  0.00    -0.133 A  
HETATM   11  C   UNL     1      -6.375  11.656  66.963  1.00  0.00    -0.149 A  
HETATM   12  C   UNL     1      -8.202  11.611  68.536  1.00  0.00    -0.144 A  
HETATM   13  C   UNL     1      -7.005  12.170  68.093  1.00  0.00    -0.082 A  
ENDBRANCH   7   8
BRANCH   7  14
HETATM   14  C   UNL     1      -9.225   7.708  66.447  1.00  0.00    -0.223 A  
HETATM   15  C   UNL     1     -10.875   6.265  67.532  1.00  0.00    -0.436 A  
HETATM   16  C   UNL     1     -10.543   7.451  66.880  1.00  0.00    -0.375 A  
HETATM   17  C   UNL     1      -8.593   5.528  67.330  1.00  0.00    -0.108 A  
HETATM   18  C   UNL     1      -8.244   6.708  66.654  1.00  0.00    -0.112 A  
HETATM   19  C   UNL     1      -9.897   5.309  67.770  1.00  0.00    -0.187 A  
HETATM   20  C   UNL     1      -6.832   6.855  66.150  1.00  0.00    -0.064 C  
ENDBRANCH   7  14
ENDBRANCH   6   7
ENDBRANCH   5   6
ENDBRANCH   4   5
ENDBRANCH   2   4
TORSDOF 6
ENDMDL
MODEL      202
REMARK 921   NORMALIZED FREE ENERGY PREDICTED BY IDOCK:   -3.09 KCAL/MOL
REMARK 922        TOTAL FREE ENERGY PREDICTED BY IDOCK:   -5.23 KCAL/MOL
REMARK 923 INTER-LIGAND FREE ENERGY PREDICTED BY IDOCK:   -4.58 KCAL/MOL
REMARK 924 INTRA-LIGAND FREE ENERGY PREDICTED BY IDOCK:   -0.65 KCAL/MOL
REMARK 927      BINDING AFFINITY PREDICTED BY RF-SCORE:    0.00 PKD
ROOT
HETATM    1  C   UNL     1      -6.043  10.863  67.306  1.00  0.00    -0.062 C  
HETATM    2  N   UNL     1      -6.264  12.089  68.075  1.00  0.00    -0.053 NA 
HETATM    3  C   UNL     1      -6.978  13.069  67.259  1.00  0.00    -0.035 C  
ENDROOT
BRANCH   2   4
HETATM    4  C   UNL     1      -6.990  11.767  69.317  1.00  0.00    -0.065 C  
BRANCH   4   5
HETATM    5  C   UNL     1      -7.094  10.266  69.644  1.00  0.00    -0.125 C  
BRANCH   5   6
HETATM    6  O   UNL     1      -8.163   9.604  68.956  1.00  0.00    -0.103 OA 
BRANCH   6   7
HETATM    7  C   UNL     1      -9.496   9.991  69.343  1.00  0.00    -0.223 C  
BRANCH   7   8
HETATM    8  C   UNL     1     -10.137  10.876  68.277  1.00  0.00    -0.189 A  
HETATM    9  C   UNL     1      -9.809  10.681  66.923  1.00  0.00    -0.228 A  
HETATM   10  C   UNL     1     -11.162  11.782  68.592  1.00  0.00    -0.312 A  
HETATM   11  C   UNL     1     -10.521  11.333  65.914  1.00  0.00    -0.314 A  
HETATM   12  C   UNL     1     -11.863  12.443  67.582  1.00  0.00    -0.363 A  
HETATM   13  C   UNL     1     -11.553  12.207  66.244  1.00  0.00    -0.424 A  
ENDBRANCH   7   8
BRANCH   7  14
HETATM   14  C   UNL     1     -10.299   8.734  69.691  1.00  0.00    -0.213 A  
HETATM   15  C   UNL     1     -10.722   6.353  69.322  1.00  0.00    -0.349 A  
HETATM   16  C   UNL     1      -9.990   7.511  69.061  1.00  0.00    -0.175 A  
HETATM   17  C   UNL     1     -12.093   7.585  70.871  1.00  0.00    -0.254 A  
HETATM   18  C   UNL     1     -11.354   8.755  70.635  1.00  0.00    -0.289 A  
HETATM   19  C   UNL     1     -11.783   6.394  70.217  1.00  0.00    -0.389 A  
HETATM   20  C   UNL     1     -11.701   9.992  71.421  1.00  0.00    -0.414 C  
ENDBRANCH   7  14
ENDBRANCH   6   7
ENDBRANCH   5   6
ENDBRANCH   4   5
ENDBRANCH   2   4
TORSDOF 6
ENDMDL
MODEL      203
REMARK 921   NORMALIZED FREE ENERGY PREDICTED BY IDOCK:   -3.09 KCAL/MOL
REMARK 922        TOTAL FREE ENERGY PREDICTED BY IDOCK:   -5.22 KCAL/MOL
REMARK 923 INTER-LIGAND FREE ENERGY PREDICTED BY IDOCK:   -5.10 KCAL/MOL
REMARK 924 INTRA-LIGAND FREE ENERGY PREDICTED BY IDOCK:   -0.13 KCAL/MOL
REMARK 927      BINDING AFFINITY PREDICTED BY RF-SCORE:    0.00 PKD
ROOT
HETATM    1  C   UNL     1      -9.227  15.288  66.786  1.00  0.00    -0.250 C  
HETATM    2  N   UNL     1      -9.915  15.512  68.058  1.00  0.00    -0.214 NA 
HETATM    3  C   UNL     1     -10.780  16.686  67.959  1.00  0.00    -0.350 C  
ENDROOT
BRANCH   2   4
HETATM    4  C   UNL     1     -10.666  14.301  68.433  1.00  0.00    -0.251 C  
BRANCH   4   5
HETATM    5  C   UNL     1     -10.586  13.142  67.420  1.00  0.00    -0.242 C  
BRANCH   5   6
HETATM    6  O   UNL     1     -11.256  11.954  67.859  1.00  0.00    -0.227 OA 
BRANCH   6   7
HETATM    7  C   UNL     1     -10.901  10.738  67.171  1.00  0.00    -0.277 C  
BRANCH   7   8
HETATM    8  C   UNL     1     -10.366  11.040  65.773  1.00  0.00    -0.316 A  
HETATM    9  C   UNL     1      -9.133  10.497  65.369  1.00  0.00    -0.215 A  
HETATM   10  C   UNL     1     -11.140  11.722  64.821  1.00  0.00    -0.356 A  
HETATM   11  C   UNL     1      -8.713  10.588  64.041  1.00  0.00    -0.176 A  
HETATM   12  C   UNL     1     -10.711  11.823  63.496  1.00  0.00    -0.501 A  
HETATM   13  C   UNL     1      -9.507  11.243  63.103  1.00  0.00    -0.367 A  
ENDBRANCH   7   8
BRANCH   7  14
HETATM   14  C   UNL     1      -9.948   9.925  68.052  1.00  0.00    -0.179 A  
HETATM   15  C   UNL     1      -8.220   9.887  69.783  1.00  0.00    -0.191 A  
HETATM   16  C   UNL     1      -9.127  10.587  68.989  1.00  0.00    -0.188 A  
HETATM   17  C   UNL     1      -8.928   7.829  68.755  1.00  0.00    -0.141 A  
HETATM   18  C   UNL     1      -9.860   8.515  67.961  1.00  0.00    -0.202 A  
HETATM   19  C   UNL     1      -8.110   8.509  69.655  1.00  0.00    -0.113 A  
HETATM   20  C   UNL     1     -10.757   7.714  67.054  1.00  0.00    -0.340 C  
ENDBRANCH   7  14
ENDBRANCH   6   7
ENDBRANCH   5   6
ENDBRANCH   4   5
ENDBRANCH   2   4
TORSDOF 6
ENDMDL
MODEL      204
REMARK 921   NORMALIZED FREE ENERGY PREDICTED BY IDOCK:   -3.07 KCAL/MOL
REMARK 922        TOTAL FREE ENERGY PREDICTED BY IDOCK:   -5.20 KCAL/MOL
REMARK 923 INTER-LIGAND FREE ENERGY PREDICTED BY IDOCK:   -4.57 KCAL/MOL
REMARK 924 INTRA-LIGAND FREE ENERGY PREDICTED BY IDOCK:   -0.62 KCAL/MOL
REMARK 927      BINDING AFFINITY PREDICTED BY RF-SCORE:    0.00 PKD
ROOT
HETATM    1  C   UNL     1     -12.585  13.960  65.233  1.00  0.00    -0.478 C  
HETATM    2  N   UNL     1     -11.263  13.461  64.851  1.00  0.00    -0.319 NA 
HETATM    3  C   UNL     1     -10.238  14.061  65.702  1.00  0.00    -0.334 C  
ENDROOT
BRANCH   2   4
HETATM    4  C   UNL     1     -11.253  11.989  64.923  1.00  0.00    -0.320 C  
BRANCH   4   5
HETATM    5  C   UNL     1     -10.798  11.403  66.274  1.00  0.00    -0.263 C  
BRANCH   5   6
HETATM    6  O   UNL     1     -10.284  10.069  66.173  1.00  0.00    -0.247 OA 
BRANCH   6   7
HETATM    7  C   UNL     1      -9.455   9.629  67.267  1.00  0.00    -0.143 C  
BRANCH   7   8
HETATM    8  C   UNL     1     -10.132   8.502  68.043  1.00  0.00    -0.245 A  
HETATM    9  C   UNL     1     -10.655   7.396  67.347  1.00  0.00    -0.371 A  
HETATM   10  C   UNL     1     -10.114   8.460  69.446  1.00  0.00    -0.198 A  
HETATM   11  C   UNL     1     -11.098   6.265  68.033  1.00  0.00    -0.365 A  
HETATM   12  C   UNL     1     -10.571   7.332  70.130  1.00  0.00    -0.245 A  
HETATM   13  C   UNL     1     -11.047   6.230  69.424  1.00  0.00    -0.477 A  
ENDBRANCH   7   8
BRANCH   7  14
HETATM   14  C   UNL     1      -8.063   9.283  66.731  1.00  0.00    -0.112 A  
HETATM   15  C   UNL     1      -6.563   7.646  65.704  1.00  0.00    -0.045 A  
HETATM   16  C   UNL     1      -7.827   8.012  66.167  1.00  0.00    -0.093 A  
HETATM   17  C   UNL     1      -5.720   9.813  66.327  1.00  0.00    -0.053 A  
HETATM   18  C   UNL     1      -6.989  10.205  66.781  1.00  0.00    -0.091 A  
HETATM   19  C   UNL     1      -5.507   8.542  65.797  1.00  0.00    -0.035 A  
HETATM   20  C   UNL     1      -7.166  11.614  67.285  1.00  0.00    -0.137 C  
ENDBRANCH   7  14
ENDBRANCH   6   7
ENDBRANCH   5   6
ENDBRANCH   4   5
ENDBRANCH   2   4
TORSDOF 6
ENDMDL
MODEL      205
REMARK 921   NORMALIZED FREE ENERGY PREDICTED BY IDOCK:   -3.05 KCAL/MOL
REMARK 922        TOTAL FREE ENERGY PREDICTED BY IDOCK:   -5.17 KCAL/MOL
REMARK 923 INTER-LIGAND FREE ENERGY PREDICTED BY IDOCK:   -4.11 KCAL/MOL
REMARK 924 INTRA-LIGAND FREE ENERGY PREDICTED BY IDOCK:   -1.06 KCAL/MOL
REMARK 927      BINDING AFFINITY PREDICTED BY RF-SCORE:    0.00 PKD
ROOT
HETATM    1  C   UNL     1      -8.463  10.125  64.446  1.00  0.00    -0.175 C  
HETATM    2  N   UNL     1      -8.254   9.107  65.477  1.00  0.00    -0.118 NA 
HETATM    3  C   UNL     1      -7.622   7.926  64.892  1.00  0.00    -0.104 C  
ENDROOT
BRANCH   2   4
HETATM    4  C   UNL     1      -7.455   9.676  66.576  1.00  0.00    -0.094 C  
BRANCH   4   5
HETATM    5  C   UNL     1      -7.852   9.202  67.987  1.00  0.00    -0.100 C  
BRANCH   5   6
HETATM    6  O   UNL     1      -9.140   8.575  68.037  1.00  0.00    -0.140 OA 
BRANCH   6   7
HETATM    7  C   UNL     1      -9.256   7.442  68.921  1.00  0.00    -0.142 C  
BRANCH   7   8
HETATM    8  C   UNL     1     -10.326   7.686  69.981  1.00  0.00    -0.223 A  
HETATM    9  C   UNL     1     -11.409   6.794  70.093  1.00  0.00    -0.404 A  
HETATM   10  C   UNL     1     -10.186   8.691  70.951  1.00  0.00    -0.261 A  
HETATM   11  C   UNL     1     -12.292   6.874  71.171  1.00  0.00    -0.419 A  
HETATM   12  C   UNL     1     -11.080   8.777  72.020  1.00  0.00    -0.441 A  
HETATM   13  C   UNL     1     -12.121   7.860  72.139  1.00  0.00    -0.371 A  
ENDBRANCH   7   8
BRANCH   7  14
HETATM   14  C   UNL     1      -9.467   6.176  68.086  1.00  0.00    -0.113 A  
HETATM   15  C   UNL     1     -10.425   5.114  66.101  1.00  0.00    -0.301 A  
HETATM   16  C   UNL     1     -10.179   6.251  66.871  1.00  0.00    -0.268 A  
HETATM   17  C   UNL     1      -9.239   3.780  67.715  1.00  0.00    -0.216 A  
HETATM   18  C   UNL     1      -8.966   4.916  68.493  1.00  0.00    -0.131 A  
HETATM   19  C   UNL     1      -9.967   3.876  66.531  1.00  0.00    -0.023 A  
HETATM   20  C   UNL     1      -8.121   4.751  69.729  1.00  0.00    -0.069 C  
ENDBRANCH   7  14
ENDBRANCH   6   7
ENDBRANCH   5   6
ENDBRANCH   4   5
ENDBRANCH   2   4
TORSDOF 6
ENDMDL
MODEL      206
REMARK 921   NORMALIZED FREE ENERGY PREDICTED BY IDOCK:   -3.05 KCAL/MOL
REMARK 922        TOTAL FREE ENERGY PREDICTED BY IDOCK:   -5.17 KCAL/MOL
REMARK 923 INTER-LIGAND FREE ENERGY PREDICTED BY IDOCK:   -4.42 KCAL/MOL
REMARK 924 INTRA-LIGAND FREE ENERGY PREDICTED BY IDOCK:   -0.75 KCAL/MOL
REMARK 927      BINDING AFFINITY PREDICTED BY RF-SCORE:    0.00 PKD
ROOT
HETATM    1  C   UNL     1      -6.019   8.169  74.326  1.00  0.00    -0.103 C  
HETATM    2  N   UNL     1      -6.631   8.508  73.040  1.00  0.00    -0.195 NA 
HETATM    3  C   UNL     1      -5.953   7.794  71.960  1.00  0.00    -0.036 C  
ENDROOT
BRANCH   2   4
HETATM    4  C   UNL     1      -8.073   8.206  73.085  1.00  0.00    -0.179 C  
BRANCH   4   5
HETATM    5  C   UNL     1      -8.483   6.872  72.433  1.00  0.00    -0.114 C  
BRANCH   5   6
HETATM    6  O   UNL     1      -9.656   6.974  71.616  1.00  0.00    -0.158 OA 
BRANCH   6   7
HETATM    7  C   UNL     1      -9.531   7.785  70.431  1.00  0.00    -0.164 C  
BRANCH   7   8
HETATM    8  C   UNL     1      -9.628   6.927  69.172  1.00  0.00    -0.144 A  
HETATM    9  C   UNL     1      -8.564   6.073  68.829  1.00  0.00    -0.112 A  
HETATM   10  C   UNL     1     -10.813   6.849  68.424  1.00  0.00    -0.238 A  
HETATM   11  C   UNL     1      -8.701   5.136  67.804  1.00  0.00    -0.103 A  
HETATM   12  C   UNL     1     -10.943   5.920  67.389  1.00  0.00    -0.258 A  
HETATM   13  C   UNL     1      -9.894   5.053  67.091  1.00  0.00    -0.204 A  
ENDBRANCH   7   8
BRANCH   7  14
HETATM   14  C   UNL     1     -10.547   8.929  70.498  1.00  0.00    -0.262 A  
HETATM   15  C   UNL     1     -12.502   9.930  71.576  1.00  0.00    -0.506 A  
HETATM   16  C   UNL     1     -11.536   8.926  71.504  1.00  0.00    -0.391 A  
HETATM   17  C   UNL     1     -11.520  10.995  69.653  1.00  0.00    -0.375 A  
HETATM   18  C   UNL     1     -10.529  10.004  69.577  1.00  0.00    -0.260 A  
HETATM   19  C   UNL     1     -12.502  10.957  70.642  1.00  0.00    -0.460 A  
HETATM   20  C   UNL     1      -9.460  10.138  68.524  1.00  0.00    -0.159 C  
ENDBRANCH   7  14
ENDBRANCH   6   7
ENDBRANCH   5   6
ENDBRANCH   4   5
ENDBRANCH   2   4
TORSDOF 6
ENDMDL
MODEL      207
REMARK 921   NORMALIZED FREE ENERGY PREDICTED BY IDOCK:   -3.05 KCAL/MOL
REMARK 922        TOTAL FREE ENERGY PREDICTED BY IDOCK:   -5.17 KCAL/MOL
REMARK 923 INTER-LIGAND FREE ENERGY PREDICTED BY IDOCK:   -4.67 KCAL/MOL
REMARK 924 INTRA-LIGAND FREE ENERGY PREDICTED BY IDOCK:   -0.50 KCAL/MOL
REMARK 927      BINDING AFFINITY PREDICTED BY RF-SCORE:    0.00 PKD
ROOT
HETATM    1  C   UNL     1      -9.081   6.810  71.179  1.00  0.00    -0.151 C  
HETATM    2  N   UNL     1      -9.471   6.823  69.768  1.00  0.00    -0.145 NA 
HETATM    3  C   UNL     1     -10.098   5.552  69.411  1.00  0.00    -0.236 C  
ENDROOT
BRANCH   2   4
HETATM    4  C   UNL     1     -10.360   7.971  69.512  1.00  0.00    -0.221 C  
BRANCH   4   5
HETATM    5  C   UNL     1      -9.649   9.262  69.064  1.00  0.00    -0.159 C  
BRANCH   5   6
HETATM    6  O   UNL     1     -10.409  10.036  68.128  1.00  0.00    -0.173 OA 
BRANCH   6   7
HETATM    7  C   UNL     1      -9.794  11.258  67.674  1.00  0.00    -0.175 C  
BRANCH   7   8
HETATM    8  C   UNL     1      -8.488  10.970  66.939  1.00  0.00    -0.139 A  
HETATM    9  C   UNL     1      -7.377  11.810  67.140  1.00  0.00    -0.146 A  
HETATM   10  C   UNL     1      -8.312   9.802  66.181  1.00  0.00    -0.122 A  
HETATM   11  C   UNL     1      -6.120  11.464  66.643  1.00  0.00    -0.140 A  
HETATM   12  C   UNL     1      -7.056   9.465  65.673  1.00  0.00    -0.090 A  
HETATM   13  C   UNL     1      -5.958  10.287  65.918  1.00  0.00    -0.094 A  
ENDBRANCH   7   8
BRANCH   7  14
HETATM   14  C   UNL     1     -10.816  12.060  66.862  1.00  0.00    -0.302 A  
HETATM   15  C   UNL     1     -11.946  12.457  64.729  1.00  0.00    -0.462 A  
HETATM   16  C   UNL     1     -11.052  11.727  65.512  1.00  0.00    -0.336 A  
HETATM   17  C   UNL     1     -12.424  13.872  66.616  1.00  0.00    -0.313 A  
HETATM   18  C   UNL     1     -11.542  13.137  67.425  1.00  0.00    -0.403 A  
HETATM   19  C   UNL     1     -12.621  13.539  65.277  1.00  0.00    -0.517 A  
HETATM   20  C   UNL     1     -11.422  13.512  68.879  1.00  0.00    -0.348 C  
ENDBRANCH   7  14
ENDBRANCH   6   7
ENDBRANCH   5   6
ENDBRANCH   4   5
ENDBRANCH   2   4
TORSDOF 6
ENDMDL
MODEL      208
REMARK 921   NORMALIZED FREE ENERGY PREDICTED BY IDOCK:   -3.04 KCAL/MOL
REMARK 922        TOTAL FREE ENERGY PREDICTED BY IDOCK:   -5.16 KCAL/MOL
REMARK 923 INTER-LIGAND FREE ENERGY PREDICTED BY IDOCK:   -5.28 KCAL/MOL
REMARK 924 INTRA-LIGAND FREE ENERGY PREDICTED BY IDOCK:    0.12 KCAL/MOL
REMARK 927      BINDING AFFINITY PREDICTED BY RF-SCORE:    0.00 PKD
ROOT
HETATM    1  C   UNL     1     -10.062   7.418  73.419  1.00  0.00    -0.338 C  
HETATM    2  N   UNL     1      -8.996   7.113  72.463  1.00  0.00    -0.127 NA 
HETATM    3  C   UNL     1      -9.302   5.871  71.755  1.00  0.00    -0.148 C  
ENDROOT
BRANCH   2   4
HETATM    4  C   UNL     1      -8.821   8.248  71.541  1.00  0.00    -0.168 C  
BRANCH   4   5
HETATM    5  C   UNL     1     -10.127   8.877  71.020  1.00  0.00    -0.255 C  
BRANCH   5   6
HETATM    6  O   UNL     1      -9.922  10.085  70.277  1.00  0.00    -0.244 OA 
BRANCH   6   7
HETATM    7  C   UNL     1     -11.018  10.502  69.437  1.00  0.00    -0.250 C  
BRANCH   7   8
HETATM    8  C   UNL     1     -11.852  11.578  70.127  1.00  0.00    -0.440 A  
HETATM    9  C   UNL     1     -12.684  11.228  71.206  1.00  0.00    -0.510 A  
HETATM   10  C   UNL     1     -11.702  12.939  69.815  1.00  0.00    -0.351 A  
HETATM   11  C   UNL     1     -13.302  12.210  71.981  1.00  0.00    -0.470 A  
HETATM   12  C   UNL     1     -12.333  13.919  70.583  1.00  0.00    -0.451 A  
HETATM   13  C   UNL     1     -13.119  13.556  71.674  1.00  0.00    -0.459 A  
ENDBRANCH   7   8
BRANCH   7  14
HETATM   14  C   UNL     1     -10.470  10.905  68.065  1.00  0.00    -0.222 A  
HETATM   15  C   UNL     1     -10.862  11.248  65.675  1.00  0.00    -0.242 A  
HETATM   16  C   UNL     1     -11.331  10.924  66.948  1.00  0.00    -0.044 A  
HETATM   17  C   UNL     1      -8.656  11.570  66.583  1.00  0.00    -0.176 A  
HETATM   18  C   UNL     1      -9.114  11.265  67.874  1.00  0.00    -0.150 A  
HETATM   19  C   UNL     1      -9.522  11.557  65.490  1.00  0.00    -0.234 A  
HETATM   20  C   UNL     1      -8.141  11.358  69.020  1.00  0.00    -0.005 C  
ENDBRANCH   7  14
ENDBRANCH   6   7
ENDBRANCH   5   6
ENDBRANCH   4   5
ENDBRANCH   2   4
TORSDOF 6
ENDMDL
MODEL      209
REMARK 921   NORMALIZED FREE ENERGY PREDICTED BY IDOCK:   -3.04 KCAL/MOL
REMARK 922        TOTAL FREE ENERGY PREDICTED BY IDOCK:   -5.16 KCAL/MOL
REMARK 923 INTER-LIGAND FREE ENERGY PREDICTED BY IDOCK:   -4.30 KCAL/MOL
REMARK 924 INTRA-LIGAND FREE ENERGY PREDICTED BY IDOCK:   -0.86 KCAL/MOL
REMARK 927      BINDING AFFINITY PREDICTED BY RF-SCORE:    0.00 PKD
ROOT
HETATM    1  C   UNL     1      -9.471   4.965  68.779  1.00  0.00    -0.145 C  
HETATM    2  N   UNL     1     -10.413   6.065  68.992  1.00  0.00    -0.227 NA 
HETATM    3  C   UNL     1     -10.493   6.384  70.416  1.00  0.00    -0.218 C  
ENDROOT
BRANCH   2   4
HETATM    4  C   UNL     1     -10.003   7.228  68.186  1.00  0.00    -0.159 C  
BRANCH   4   5
HETATM    5  C   UNL     1     -10.764   8.534  68.486  1.00  0.00    -0.031 C  
BRANCH   5   6
HETATM    6  O   UNL     1     -10.896   9.392  67.346  1.00  0.00    -0.263 OA 
BRANCH   6   7
HETATM    7  C   UNL     1      -9.814  10.319  67.127  1.00  0.00    -0.185 C  
BRANCH   7   8
HETATM    8  C   UNL     1      -9.213  10.136  65.736  1.00  0.00    -0.221 A  
HETATM    9  C   UNL     1      -7.964   9.502  65.596  1.00  0.00    -0.108 A  
HETATM   10  C   UNL     1      -9.938  10.444  64.574  1.00  0.00    -0.401 A  
HETATM   11  C   UNL     1      -7.482   9.142  64.337  1.00  0.00    -0.101 A  
HETATM   12  C   UNL     1      -9.447  10.095  63.315  1.00  0.00    -0.302 A  
HETATM   13  C   UNL     1      -8.229   9.431  63.197  1.00  0.00    -0.165 A  
ENDBRANCH   7   8
BRANCH   7  14
HETATM   14  C   UNL     1     -10.304  11.739  67.424  1.00  0.00    -0.228 A  
HETATM   15  C   UNL     1     -12.059  13.432  67.221  1.00  0.00    -0.352 A  
HETATM   16  C   UNL     1     -11.591  12.136  67.003  1.00  0.00    -0.406 A  
HETATM   17  C   UNL     1      -9.984  13.985  68.309  1.00  0.00    -0.236 A  
HETATM   18  C   UNL     1      -9.504  12.680  68.115  1.00  0.00    -0.218 A  
HETATM   19  C   UNL     1     -11.250  14.360  67.861  1.00  0.00    -0.304 A  
HETATM   20  C   UNL     1      -8.153  12.323  68.678  1.00  0.00    -0.029 C  
ENDBRANCH   7  14
ENDBRANCH   6   7
ENDBRANCH   5   6
ENDBRANCH   4   5
ENDBRANCH   2   4
TORSDOF 6
ENDMDL
MODEL      210
REMARK 921   NORMALIZED FREE ENERGY PREDICTED BY IDOCK:   -3.03 KCAL/MOL
REMARK 922        TOTAL FREE ENERGY PREDICTED BY IDOCK:   -5.15 KCAL/MOL
REMARK 923 INTER-LIGAND FREE ENERGY PREDICTED BY IDOCK:   -4.12 KCAL/MOL
REMARK 924 INTRA-LIGAND FREE ENERGY PREDICTED BY IDOCK:   -1.03 KCAL/MOL
REMARK 927      BINDING AFFINITY PREDICTED BY RF-SCORE:    0.00 PKD
ROOT
HETATM    1  C   UNL     1      -8.067   3.976  66.967  1.00  0.00    -0.096 C  
HETATM    2  N   UNL     1      -8.937   4.966  66.331  1.00  0.00    -0.116 NA 
HETATM    3  C   UNL     1      -9.277   4.536  64.977  1.00  0.00    -0.157 C  
ENDROOT
BRANCH   2   4
HETATM    4  C   UNL     1     -10.134   5.177  67.164  1.00  0.00    -0.206 C  
BRANCH   4   5
HETATM    5  C   UNL     1     -10.971   6.420  66.806  1.00  0.00    -0.251 C  
BRANCH   5   6
HETATM    6  O   UNL     1     -10.993   7.410  67.842  1.00  0.00    -0.118 OA 
BRANCH   6   7
HETATM    7  C   UNL     1      -9.891   8.339  67.851  1.00  0.00    -0.169 C  
BRANCH   7   8
HETATM    8  C   UNL     1     -10.303   9.679  67.248  1.00  0.00    -0.310 A  
HETATM    9  C   UNL     1     -11.097  10.564  68.000  1.00  0.00    -0.361 A  
HETATM   10  C   UNL     1      -9.788  10.123  66.020  1.00  0.00    -0.308 A  
HETATM   11  C   UNL     1     -11.324  11.869  67.561  1.00  0.00    -0.381 A  
HETATM   12  C   UNL     1     -10.028  11.425  65.577  1.00  0.00    -0.282 A  
HETATM   13  C   UNL     1     -10.781  12.302  66.354  1.00  0.00    -0.284 A  
ENDBRANCH   7   8
BRANCH   7  14
HETATM   14  C   UNL     1      -9.324   8.429  69.271  1.00  0.00    -0.154 A  
HETATM   15  C   UNL     1      -9.664   8.165  71.679  1.00  0.00    -0.238 A  
HETATM   16  C   UNL     1     -10.130   8.061  70.368  1.00  0.00    -0.194 A  
HETATM   17  C   UNL     1      -7.560   8.990  70.852  1.00  0.00    -0.141 A  
HETATM   18  C   UNL     1      -8.005   8.874  69.526  1.00  0.00    -0.092 A  
HETATM   19  C   UNL     1      -8.384   8.643  71.921  1.00  0.00    -0.189 A  
HETATM   20  C   UNL     1      -7.043   9.206  68.415  1.00  0.00    -0.073 C  
ENDBRANCH   7  14
ENDBRANCH   6   7
ENDBRANCH   5   6
ENDBRANCH   4   5
ENDBRANCH   2   4
TORSDOF 6
ENDMDL
MODEL      211
REMARK 921   NORMALIZED FREE ENERGY PREDICTED BY IDOCK:   -3.00 KCAL/MOL
REMARK 922        TOTAL FREE ENERGY PREDICTED BY IDOCK:   -5.11 KCAL/MOL
REMARK 923 INTER-LIGAND FREE ENERGY PREDICTED BY IDOCK:   -4.09 KCAL/MOL
REMARK 924 INTRA-LIGAND FREE ENERGY PREDICTED BY IDOCK:   -1.01 KCAL/MOL
REMARK 927      BINDING AFFINITY PREDICTED BY RF-SCORE:    0.00 PKD
ROOT
HETATM    1  C   UNL     1      -9.054   4.654  68.937  1.00  0.00    -0.119 C  
HETATM    2  N   UNL     1      -9.571   5.516  70.002  1.00  0.00    -0.157 NA 
HETATM    3  C   UNL     1      -8.653   5.509  71.139  1.00  0.00    -0.127 C  
ENDROOT
BRANCH   2   4
HETATM    4  C   UNL     1      -9.790   6.874  69.474  1.00  0.00    -0.159 C  
BRANCH   4   5
HETATM    5  C   UNL     1     -10.957   7.008  68.477  1.00  0.00    -0.077 C  
BRANCH   5   6
HETATM    6  O   UNL     1     -10.721   7.980  67.450  1.00  0.00    -0.269 OA 
BRANCH   6   7
HETATM    7  C   UNL     1      -9.829   9.058  67.796  1.00  0.00    -0.168 C  
BRANCH   7   8
HETATM    8  C   UNL     1      -8.595   9.053  66.897  1.00  0.00    -0.128 A  
HETATM    9  C   UNL     1      -7.385   9.590  67.375  1.00  0.00    -0.087 A  
HETATM   10  C   UNL     1      -8.589   8.391  65.660  1.00  0.00    -0.197 A  
HETATM   11  C   UNL     1      -6.198   9.422  66.661  1.00  0.00    -0.065 A  
HETATM   12  C   UNL     1      -7.402   8.238  64.940  1.00  0.00    -0.087 A  
HETATM   13  C   UNL     1      -6.205   8.738  65.448  1.00  0.00    -0.059 A  
ENDBRANCH   7   8
BRANCH   7  14
HETATM   14  C   UNL     1     -10.611  10.375  67.793  1.00  0.00    -0.294 A  
HETATM   15  C   UNL     1     -11.522  12.264  66.533  1.00  0.00    -0.438 A  
HETATM   16  C   UNL     1     -10.847  11.044  66.574  1.00  0.00    -0.269 A  
HETATM   17  C   UNL     1     -11.773  12.190  68.926  1.00  0.00    -0.381 A  
HETATM   18  C   UNL     1     -11.112  10.953  68.984  1.00  0.00    -0.302 A  
HETATM   19  C   UNL     1     -11.972  12.844  67.711  1.00  0.00    -0.336 A  
HETATM   20  C   UNL     1     -10.985  10.270  70.321  1.00  0.00    -0.375 C  
ENDBRANCH   7  14
ENDBRANCH   6   7
ENDBRANCH   5   6
ENDBRANCH   4   5
ENDBRANCH   2   4
TORSDOF 6
ENDMDL
MODEL      212
REMARK 921   NORMALIZED FREE ENERGY PREDICTED BY IDOCK:   -3.00 KCAL/MOL
REMARK 922        TOTAL FREE ENERGY PREDICTED BY IDOCK:   -5.11 KCAL/MOL
REMARK 923 INTER-LIGAND FREE ENERGY PREDICTED BY IDOCK:   -4.66 KCAL/MOL
REMARK 924 INTRA-LIGAND FREE ENERGY PREDICTED BY IDOCK:   -0.45 KCAL/MOL
REMARK 927      BINDING AFFINITY PREDICTED BY RF-SCORE:    0.00 PKD
ROOT
HETATM    1  C   UNL     1     -10.463   4.659  65.741  1.00  0.00    -0.255 C  
HETATM    2  N   UNL     1      -9.885   5.629  66.672  1.00  0.00    -0.156 NA 
HETATM    3  C   UNL     1     -10.932   6.506  67.193  1.00  0.00    -0.408 C  
ENDROOT
BRANCH   2   4
HETATM    4  C   UNL     1      -9.172   4.917  67.747  1.00  0.00    -0.121 C  
BRANCH   4   5
HETATM    5  C   UNL     1      -8.330   5.810  68.678  1.00  0.00    -0.107 C  
BRANCH   5   6
HETATM    6  O   UNL     1      -8.480   5.487  70.066  1.00  0.00    -0.115 OA 
BRANCH   6   7
HETATM    7  C   UNL     1      -9.820   5.181  70.501  1.00  0.00    -0.215 C  
BRANCH   7   8
HETATM    8  C   UNL     1      -9.839   3.916  71.354  1.00  0.00    -0.243 A  
HETATM    9  C   UNL     1     -10.357   3.967  72.662  1.00  0.00    -0.229 A  
HETATM   10  C   UNL     1      -9.495   2.664  70.821  1.00  0.00    -0.214 A  
HETATM   11  C   UNL     1     -10.573   2.797  73.391  1.00  0.00    -0.263 A  
HETATM   12  C   UNL     1      -9.698   1.496  71.559  1.00  0.00    -0.206 A  
HETATM   13  C   UNL     1     -10.252   1.561  72.836  1.00  0.00    -0.187 A  
ENDBRANCH   7   8
BRANCH   7  14
HETATM   14  C   UNL     1     -10.418   6.415  71.183  1.00  0.00    -0.265 A  
HETATM   15  C   UNL     1     -12.320   7.926  71.479  1.00  0.00    -0.340 A  
HETATM   16  C   UNL     1     -11.751   6.787  70.909  1.00  0.00    -0.424 A  
HETATM   17  C   UNL     1     -10.256   8.360  72.640  1.00  0.00    -0.320 A  
HETATM   18  C   UNL     1      -9.673   7.207  72.090  1.00  0.00    -0.163 A  
HETATM   19  C   UNL     1     -11.567   8.720  72.334  1.00  0.00    -0.321 A  
HETATM   20  C   UNL     1      -8.274   6.841  72.510  1.00  0.00    -0.104 C  
ENDBRANCH   7  14
ENDBRANCH   6   7
ENDBRANCH   5   6
ENDBRANCH   4   5
ENDBRANCH   2   4
TORSDOF 6
ENDMDL
MODEL      213
REMARK 921   NORMALIZED FREE ENERGY PREDICTED BY IDOCK:   -2.96 KCAL/MOL
REMARK 922        TOTAL FREE ENERGY PREDICTED BY IDOCK:   -5.05 KCAL/MOL
REMARK 923 INTER-LIGAND FREE ENERGY PREDICTED BY IDOCK:   -4.18 KCAL/MOL
REMARK 924 INTRA-LIGAND FREE ENERGY PREDICTED BY IDOCK:   -0.87 KCAL/MOL
REMARK 927      BINDING AFFINITY PREDICTED BY RF-SCORE:    0.00 PKD
ROOT
HETATM    1  C   UNL     1      -7.480   7.404  64.731  1.00  0.00    -0.088 C  
HETATM    2  N   UNL     1      -7.675   8.061  63.438  1.00  0.00    -0.134 NA 
HETATM    3  C   UNL     1      -8.118   7.086  62.443  1.00  0.00    -0.108 C  
ENDROOT
BRANCH   2   4
HETATM    4  C   UNL     1      -8.631   9.173  63.589  1.00  0.00    -0.166 C  
BRANCH   4   5
HETATM    5  C   UNL     1      -8.905   9.607  65.041  1.00  0.00    -0.186 C  
BRANCH   5   6
HETATM    6  O   UNL     1      -8.688  11.005  65.269  1.00  0.00    -0.177 OA 
BRANCH   6   7
HETATM    7  C   UNL     1      -9.255  11.542  66.481  1.00  0.00    -0.194 C  
BRANCH   7   8
HETATM    8  C   UNL     1      -8.199  12.291  67.289  1.00  0.00    -0.182 A  
HETATM    9  C   UNL     1      -8.217  13.698  67.321  1.00  0.00    -0.164 A  
HETATM   10  C   UNL     1      -7.299  11.616  68.129  1.00  0.00    -0.092 A  
HETATM   11  C   UNL     1      -7.397  14.403  68.203  1.00  0.00    -0.130 A  
HETATM   12  C   UNL     1      -6.470  12.325  69.000  1.00  0.00    -0.096 A  
HETATM   13  C   UNL     1      -6.530  13.716  69.049  1.00  0.00    -0.106 A  
ENDBRANCH   7   8
BRANCH   7  14
HETATM   14  C   UNL     1     -10.492  12.373  66.128  1.00  0.00    -0.274 A  
HETATM   15  C   UNL     1     -11.738  13.671  64.471  1.00  0.00    -0.429 A  
HETATM   16  C   UNL     1     -10.645  12.878  64.820  1.00  0.00    -0.362 A  
HETATM   17  C   UNL     1     -12.585  13.472  66.715  1.00  0.00    -0.042 A  
HETATM   18  C   UNL     1     -11.502  12.657  67.080  1.00  0.00    -0.406 A  
HETATM   19  C   UNL     1     -12.701  13.979  65.422  1.00  0.00    -0.499 A  
HETATM   20  C   UNL     1     -11.469  12.090  68.475  1.00  0.00    -0.345 C  
ENDBRANCH   7  14
ENDBRANCH   6   7
ENDBRANCH   5   6
ENDBRANCH   4   5
ENDBRANCH   2   4
TORSDOF 6
ENDMDL
MODEL      214
REMARK 921   NORMALIZED FREE ENERGY PREDICTED BY IDOCK:   -2.95 KCAL/MOL
REMARK 922        TOTAL FREE ENERGY PREDICTED BY IDOCK:   -5.04 KCAL/MOL
REMARK 923 INTER-LIGAND FREE ENERGY PREDICTED BY IDOCK:   -4.39 KCAL/MOL
REMARK 924 INTRA-LIGAND FREE ENERGY PREDICTED BY IDOCK:   -0.64 KCAL/MOL
REMARK 927      BINDING AFFINITY PREDICTED BY RF-SCORE:    0.00 PKD
ROOT
HETATM    1  C   UNL     1      -5.476   8.514  72.492  1.00  0.00    -0.050 C  
HETATM    2  N   UNL     1      -5.644   7.290  71.707  1.00  0.00    -0.036 NA 
HETATM    3  C   UNL     1      -5.812   6.144  72.599  1.00  0.00    -0.037 C  
ENDROOT
BRANCH   2   4
HETATM    4  C   UNL     1      -6.783   7.447  70.786  1.00  0.00    -0.047 C  
BRANCH   4   5
HETATM    5  C   UNL     1      -7.636   8.710  71.010  1.00  0.00    -0.100 C  
BRANCH   5   6
HETATM    6  O   UNL     1      -8.266   9.192  69.816  1.00  0.00    -0.110 OA 
BRANCH   6   7
HETATM    7  C   UNL     1      -9.492   9.927  70.003  1.00  0.00    -0.202 C  
BRANCH   7   8
HETATM    8  C   UNL     1      -9.913  10.621  68.710  1.00  0.00    -0.201 A  
HETATM    9  C   UNL     1      -9.024  10.657  67.620  1.00  0.00    -0.139 A  
HETATM   10  C   UNL     1     -11.221  11.095  68.521  1.00  0.00    -0.318 A  
HETATM   11  C   UNL     1      -9.448  11.104  66.367  1.00  0.00    -0.216 A  
HETATM   12  C   UNL     1     -11.637  11.555  67.271  1.00  0.00    -0.280 A  
HETATM   13  C   UNL     1     -10.757  11.544  66.191  1.00  0.00    -0.324 A  
ENDBRANCH   7   8
BRANCH   7  14
HETATM   14  C   UNL     1     -10.550   8.992  70.594  1.00  0.00    -0.290 A  
HETATM   15  C   UNL     1     -12.124   8.489  72.399  1.00  0.00    -0.436 A  
HETATM   16  C   UNL     1     -11.183   9.332  71.808  1.00  0.00    -0.413 A  
HETATM   17  C   UNL     1     -11.857   6.937  70.578  1.00  0.00    -0.385 A  
HETATM   18  C   UNL     1     -10.922   7.782  69.960  1.00  0.00    -0.218 A  
HETATM   19  C   UNL     1     -12.450   7.284  71.791  1.00  0.00    -0.378 A  
HETATM   20  C   UNL     1     -10.366   7.376  68.620  1.00  0.00    -0.215 C  
ENDBRANCH   7  14
ENDBRANCH   6   7
ENDBRANCH   5   6
ENDBRANCH   4   5
ENDBRANCH   2   4
TORSDOF 6
ENDMDL
MODEL      215
REMARK 921   NORMALIZED FREE ENERGY PREDICTED BY IDOCK:   -2.94 KCAL/MOL
REMARK 922        TOTAL FREE ENERGY PREDICTED BY IDOCK:   -5.02 KCAL/MOL
REMARK 923 INTER-LIGAND FREE ENERGY PREDICTED BY IDOCK:   -4.99 KCAL/MOL
REMARK 924 INTRA-LIGAND FREE ENERGY PREDICTED BY IDOCK:   -0.03 KCAL/MOL
REMARK 927      BINDING AFFINITY PREDICTED BY RF-SCORE:    0.00 PKD
ROOT
HETATM    1  C   UNL     1      -5.621  14.884  70.120  1.00  0.00    -0.125 C  
HETATM    2  N   UNL     1      -6.512  15.758  69.356  1.00  0.00    -0.154 NA 
HETATM    3  C   UNL     1      -6.221  17.158  69.662  1.00  0.00    -0.235 C  
ENDROOT
BRANCH   2   4
HETATM    4  C   UNL     1      -6.376  15.465  67.918  1.00  0.00    -0.153 C  
BRANCH   4   5
HETATM    5  C   UNL     1      -7.702  15.389  67.138  1.00  0.00    -0.211 C  
BRANCH   5   6
HETATM    6  O   UNL     1      -8.459  14.204  67.414  1.00  0.00    -0.180 OA 
BRANCH   6   7
HETATM    7  C   UNL     1      -9.793  14.166  66.870  1.00  0.00    -0.265 C  
BRANCH   7   8
HETATM    8  C   UNL     1      -9.981  12.947  65.972  1.00  0.00    -0.275 A  
HETATM    9  C   UNL     1     -11.100  12.876  65.121  1.00  0.00    -0.321 A  
HETATM   10  C   UNL     1      -8.991  11.959  65.856  1.00  0.00    -0.009 A  
HETATM   11  C   UNL     1     -11.197  11.877  64.151  1.00  0.00    -0.446 A  
HETATM   12  C   UNL     1      -9.098  10.953  64.893  1.00  0.00    -0.201 A  
HETATM   13  C   UNL     1     -10.192  10.922  64.031  1.00  0.00    -0.422 A  
ENDBRANCH   7   8
BRANCH   7  14
HETATM   14  C   UNL     1     -10.803  14.272  68.016  1.00  0.00    -0.247 A  
HETATM   15  C   UNL     1     -12.316  15.656  69.350  1.00  0.00    -0.096 A  
HETATM   16  C   UNL     1     -11.420  15.510  68.291  1.00  0.00    -0.359 A  
HETATM   17  C   UNL     1     -12.035  13.328  69.893  1.00  0.00    -0.400 A  
HETATM   18  C   UNL     1     -11.145  13.158  68.820  1.00  0.00    -0.309 A  
HETATM   19  C   UNL     1     -12.612  14.569  70.160  1.00  0.00    -0.339 A  
HETATM   20  C   UNL     1     -10.605  11.779  68.549  1.00  0.00    -0.242 C  
ENDBRANCH   7  14
ENDBRANCH   6   7
ENDBRANCH   5   6
ENDBRANCH   4   5
ENDBRANCH   2   4
TORSDOF 6
ENDMDL
MODEL      216
REMARK 921   NORMALIZED FREE ENERGY PREDICTED BY IDOCK:   -2.92 KCAL/MOL
REMARK 922        TOTAL FREE ENERGY PREDICTED BY IDOCK:   -5.00 KCAL/MOL
REMARK 923 INTER-LIGAND FREE ENERGY PREDICTED BY IDOCK:   -4.08 KCAL/MOL
REMARK 924 INTRA-LIGAND FREE ENERGY PREDICTED BY IDOCK:   -0.92 KCAL/MOL
REMARK 927      BINDING AFFINITY PREDICTED BY RF-SCORE:    0.00 PKD
ROOT
HETATM    1  C   UNL     1      -9.691   4.430  65.025  1.00  0.00    -0.164 C  
HETATM    2  N   UNL     1      -9.445   5.264  66.203  1.00  0.00    -0.155 NA 
HETATM    3  C   UNL     1      -8.281   6.118  65.977  1.00  0.00    -0.127 C  
ENDROOT
BRANCH   2   4
HETATM    4  C   UNL     1     -10.655   6.045  66.515  1.00  0.00    -0.172 C  
BRANCH   4   5
HETATM    5  C   UNL     1     -10.428   7.557  66.700  1.00  0.00    -0.131 C  
BRANCH   5   6
HETATM    6  O   UNL     1     -11.000   8.077  67.907  1.00  0.00    -0.036 OA 
BRANCH   6   7
HETATM    7  C   UNL     1     -10.078   8.692  68.829  1.00  0.00    -0.196 C  
BRANCH   7   8
HETATM    8  C   UNL     1     -10.043  10.205  68.636  1.00  0.00    -0.186 A  
HETATM    9  C   UNL     1      -8.804  10.867  68.554  1.00  0.00    -0.153 A  
HETATM   10  C   UNL     1     -11.211  10.942  68.384  1.00  0.00    -0.347 A  
HETATM   11  C   UNL     1      -8.734  12.210  68.181  1.00  0.00    -0.185 A  
HETATM   12  C   UNL     1     -11.139  12.289  68.025  1.00  0.00    -0.285 A  
HETATM   13  C   UNL     1      -9.901  12.918  67.908  1.00  0.00    -0.227 A  
ENDBRANCH   7   8
BRANCH   7  14
HETATM   14  C   UNL     1     -10.419   8.241  70.252  1.00  0.00    -0.221 A  
HETATM   15  C   UNL     1     -12.092   7.971  72.016  1.00  0.00    -0.377 A  
HETATM   16  C   UNL     1     -11.748   8.335  70.715  1.00  0.00    -0.213 A  
HETATM   17  C   UNL     1      -9.797   7.384  72.445  1.00  0.00    -0.207 A  
HETATM   18  C   UNL     1      -9.436   7.728  71.133  1.00  0.00    -0.169 A  
HETATM   19  C   UNL     1     -11.113   7.509  72.886  1.00  0.00    -0.426 A  
HETATM   20  C   UNL     1      -8.009   7.510  70.701  1.00  0.00    -0.100 C  
ENDBRANCH   7  14
ENDBRANCH   6   7
ENDBRANCH   5   6
ENDBRANCH   4   5
ENDBRANCH   2   4
TORSDOF 6
ENDMDL
MODEL      217
REMARK 921   NORMALIZED FREE ENERGY PREDICTED BY IDOCK:   -2.92 KCAL/MOL
REMARK 922        TOTAL FREE ENERGY PREDICTED BY IDOCK:   -5.00 KCAL/MOL
REMARK 923 INTER-LIGAND FREE ENERGY PREDICTED BY IDOCK:   -4.60 KCAL/MOL
REMARK 924 INTRA-LIGAND FREE ENERGY PREDICTED BY IDOCK:   -0.40 KCAL/MOL
REMARK 927      BINDING AFFINITY PREDICTED BY RF-SCORE:    0.00 PKD
ROOT
HETATM    1  C   UNL     1      -6.815  11.128  66.923  1.00  0.00    -0.127 C  
HETATM    2  N   UNL     1      -7.159  11.924  68.102  1.00  0.00    -0.075 NA 
HETATM    3  C   UNL     1      -7.251  13.337  67.741  1.00  0.00    -0.151 C  
ENDROOT
BRANCH   2   4
HETATM    4  C   UNL     1      -8.414  11.419  68.688  1.00  0.00    -0.131 C  
BRANCH   4   5
HETATM    5  C   UNL     1      -9.176  10.397  67.823  1.00  0.00    -0.142 C  
BRANCH   5   6
HETATM    6  O   UNL     1      -9.878   9.411  68.591  1.00  0.00    -0.156 OA 
BRANCH   6   7
HETATM    7  C   UNL     1      -9.575   9.376  70.000  1.00  0.00    -0.226 C  
BRANCH   7   8
HETATM    8  C   UNL     1     -10.834   9.599  70.833  1.00  0.00    -0.409 A  
HETATM    9  C   UNL     1     -11.698  10.663  70.516  1.00  0.00    -0.451 A  
HETATM   10  C   UNL     1     -11.238   8.681  71.816  1.00  0.00    -0.396 A  
HETATM   11  C   UNL     1     -12.949  10.774  71.125  1.00  0.00    -0.467 A  
HETATM   12  C   UNL     1     -12.484   8.803  72.434  1.00  0.00    -0.421 A  
HETATM   13  C   UNL     1     -13.345   9.839  72.077  1.00  0.00    -0.547 A  
ENDBRANCH   7   8
BRANCH   7  14
HETATM   14  C   UNL     1      -8.825   8.079  70.317  1.00  0.00    -0.145 A  
HETATM   15  C   UNL     1      -6.952   6.964  71.427  1.00  0.00    -0.066 A  
HETATM   16  C   UNL     1      -7.684   8.117  71.146  1.00  0.00    -0.092 A  
HETATM   17  C   UNL     1      -8.480   5.680  70.082  1.00  0.00    -0.119 A  
HETATM   18  C   UNL     1      -9.240   6.827  69.803  1.00  0.00    -0.146 A  
HETATM   19  C   UNL     1      -7.341   5.748  70.883  1.00  0.00    -0.085 A  
HETATM   20  C   UNL     1     -10.493   6.674  68.982  1.00  0.00    -0.243 C  
ENDBRANCH   7  14
ENDBRANCH   6   7
ENDBRANCH   5   6
ENDBRANCH   4   5
ENDBRANCH   2   4
TORSDOF 6
ENDMDL
MODEL      218
REMARK 921   NORMALIZED FREE ENERGY PREDICTED BY IDOCK:   -2.92 KCAL/MOL
REMARK 922        TOTAL FREE ENERGY PREDICTED BY IDOCK:   -5.00 KCAL/MOL
REMARK 923 INTER-LIGAND FREE ENERGY PREDICTED BY IDOCK:   -4.32 KCAL/MOL
REMARK 924 INTRA-LIGAND FREE ENERGY PREDICTED BY IDOCK:   -0.68 KCAL/MOL
REMARK 927      BINDING AFFINITY PREDICTED BY RF-SCORE:    0.00 PKD
ROOT
HETATM    1  C   UNL     1     -11.528  15.603  68.184  1.00  0.00    -0.322 C  
HETATM    2  N   UNL     1     -11.768  14.327  67.509  1.00  0.00    -0.366 NA 
HETATM    3  C   UNL     1     -11.997  14.552  66.083  1.00  0.00    -0.312 C  
ENDROOT
BRANCH   2   4
HETATM    4  C   UNL     1     -10.634  13.418  67.752  1.00  0.00    -0.245 C  
BRANCH   4   5
HETATM    5  C   UNL     1     -10.930  11.925  67.519  1.00  0.00    -0.247 C  
BRANCH   5   6
HETATM    6  O   UNL     1      -9.755  11.142  67.270  1.00  0.00    -0.165 OA 
BRANCH   6   7
HETATM    7  C   UNL     1      -9.979   9.765  66.908  1.00  0.00    -0.211 C  
BRANCH   7   8
HETATM    8  C   UNL     1      -9.202   9.401  65.646  1.00  0.00    -0.285 A  
HETATM    9  C   UNL     1      -8.163   8.455  65.719  1.00  0.00    -0.131 A  
HETATM   10  C   UNL     1      -9.590   9.869  64.381  1.00  0.00    -0.257 A  
HETATM   11  C   UNL     1      -7.569   7.955  64.559  1.00  0.00    -0.111 A  
HETATM   12  C   UNL     1      -8.984   9.378  63.223  1.00  0.00    -0.155 A  
HETATM   13  C   UNL     1      -7.986   8.410  63.311  1.00  0.00    -0.161 A  
ENDBRANCH   7   8
BRANCH   7  14
HETATM   14  C   UNL     1      -9.680   8.875  68.117  1.00  0.00    -0.180 A  
HETATM   15  C   UNL     1      -8.572   8.586  70.279  1.00  0.00    -0.137 A  
HETATM   16  C   UNL     1      -8.899   9.378  69.178  1.00  0.00    -0.143 A  
HETATM   17  C   UNL     1      -9.810   6.760  69.317  1.00  0.00    -0.160 A  
HETATM   18  C   UNL     1     -10.165   7.548  68.211  1.00  0.00    -0.218 A  
HETATM   19  C   UNL     1      -9.016   7.273  70.341  1.00  0.00    -0.151 A  
HETATM   20  C   UNL     1     -11.076   6.953  67.170  1.00  0.00    -0.362 C  
ENDBRANCH   7  14
ENDBRANCH   6   7
ENDBRANCH   5   6
ENDBRANCH   4   5
ENDBRANCH   2   4
TORSDOF 6
ENDMDL
MODEL      219
REMARK 921   NORMALIZED FREE ENERGY PREDICTED BY IDOCK:   -2.92 KCAL/MOL
REMARK 922        TOTAL FREE ENERGY PREDICTED BY IDOCK:   -5.00 KCAL/MOL
REMARK 923 INTER-LIGAND FREE ENERGY PREDICTED BY IDOCK:   -3.94 KCAL/MOL
REMARK 924 INTRA-LIGAND FREE ENERGY PREDICTED BY IDOCK:   -1.06 KCAL/MOL
REMARK 927      BINDING AFFINITY PREDICTED BY RF-SCORE:    0.00 PKD
ROOT
HETATM    1  C   UNL     1     -12.280   6.782  72.004  1.00  0.00    -0.291 C  
HETATM    2  N   UNL     1     -11.072   6.778  71.177  1.00  0.00    -0.259 NA 
HETATM    3  C   UNL     1     -10.044   5.947  71.799  1.00  0.00    -0.187 C  
ENDROOT
BRANCH   2   4
HETATM    4  C   UNL     1     -11.408   6.320  69.817  1.00  0.00    -0.436 C  
BRANCH   4   5
HETATM    5  C   UNL     1     -10.363   5.397  69.161  1.00  0.00    -0.230 C  
BRANCH   5   6
HETATM    6  O   UNL     1     -10.483   5.323  67.735  1.00  0.00    -0.168 OA 
BRANCH   6   7
HETATM    7  C   UNL     1      -9.305   5.678  66.984  1.00  0.00    -0.118 C  
BRANCH   7   8
HETATM    8  C   UNL     1      -9.321   5.027  65.604  1.00  0.00    -0.163 A  
HETATM    9  C   UNL     1     -10.377   4.164  65.256  1.00  0.00    -0.184 A  
HETATM   10  C   UNL     1      -8.393   5.379  64.612  1.00  0.00    -0.141 A  
HETATM   11  C   UNL     1     -10.528   3.712  63.944  1.00  0.00    -0.276 A  
HETATM   12  C   UNL     1      -8.539   4.915  63.304  1.00  0.00    -0.122 A  
HETATM   13  C   UNL     1      -9.614   4.096  62.966  1.00  0.00    -0.136 A  
ENDBRANCH   7   8
BRANCH   7  14
HETATM   14  C   UNL     1      -9.166   7.203  66.965  1.00  0.00    -0.167 A  
HETATM   15  C   UNL     1     -10.187   9.392  66.578  1.00  0.00    -0.308 A  
HETATM   16  C   UNL     1     -10.283   8.002  66.644  1.00  0.00    -0.315 A  
HETATM   17  C   UNL     1      -7.859   9.247  67.170  1.00  0.00    -0.099 A  
HETATM   18  C   UNL     1      -7.941   7.849  67.260  1.00  0.00    -0.118 A  
HETATM   19  C   UNL     1      -8.971  10.013  66.827  1.00  0.00    -0.151 A  
HETATM   20  C   UNL     1      -6.718   7.086  67.696  1.00  0.00    -0.068 C  
ENDBRANCH   7  14
ENDBRANCH   6   7
ENDBRANCH   5   6
ENDBRANCH   4   5
ENDBRANCH   2   4
TORSDOF 6
ENDMDL
MODEL      220
REMARK 921   NORMALIZED FREE ENERGY PREDICTED BY IDOCK:   -2.87 KCAL/MOL
REMARK 922        TOTAL FREE ENERGY PREDICTED BY IDOCK:   -4.93 KCAL/MOL
REMARK 923 INTER-LIGAND FREE ENERGY PREDICTED BY IDOCK:   -4.34 KCAL/MOL
REMARK 924 INTRA-LIGAND FREE ENERGY PREDICTED BY IDOCK:   -0.58 KCAL/MOL
REMARK 927      BINDING AFFINITY PREDICTED BY RF-SCORE:    0.00 PKD
ROOT
HETATM    1  C   UNL     1      -8.256  10.253  64.467  1.00  0.00    -0.158 C  
HETATM    2  N   UNL     1      -7.334   9.983  65.571  1.00  0.00    -0.130 NA 
HETATM    3  C   UNL     1      -5.960  10.250  65.151  1.00  0.00    -0.130 C  
ENDROOT
BRANCH   2   4
HETATM    4  C   UNL     1      -7.722  10.786  66.745  1.00  0.00    -0.136 C  
BRANCH   4   5
HETATM    5  C   UNL     1      -7.238  10.239  68.101  1.00  0.00    -0.084 C  
BRANCH   5   6
HETATM    6  O   UNL     1      -8.046   9.167  68.604  1.00  0.00    -0.100 OA 
BRANCH   6   7
HETATM    7  C   UNL     1      -9.340   9.010  67.989  1.00  0.00    -0.141 C  
BRANCH   7   8
HETATM    8  C   UNL     1      -9.593   7.551  67.620  1.00  0.00    -0.171 A  
HETATM    9  C   UNL     1     -10.876   7.154  67.197  1.00  0.00    -0.403 A  
HETATM   10  C   UNL     1      -8.547   6.619  67.542  1.00  0.00    -0.120 A  
HETATM   11  C   UNL     1     -11.091   5.881  66.666  1.00  0.00    -0.104 A  
HETATM   12  C   UNL     1      -8.768   5.341  67.024  1.00  0.00    -0.107 A  
HETATM   13  C   UNL     1     -10.035   4.979  66.571  1.00  0.00    -0.249 A  
ENDBRANCH   7   8
BRANCH   7  14
HETATM   14  C   UNL     1     -10.405   9.629  68.899  1.00  0.00    -0.220 A  
HETATM   15  C   UNL     1     -12.132  11.326  69.244  1.00  0.00    -0.372 A  
HETATM   16  C   UNL     1     -11.179  10.711  68.432  1.00  0.00    -0.347 A  
HETATM   17  C   UNL     1     -11.593   9.791  71.018  1.00  0.00    -0.455 A  
HETATM   18  C   UNL     1     -10.644   9.148  70.209  1.00  0.00    -0.261 A  
HETATM   19  C   UNL     1     -12.328  10.875  70.542  1.00  0.00    -0.463 A  
HETATM   20  C   UNL     1      -9.928   7.944  70.763  1.00  0.00    -0.192 C  
ENDBRANCH   7  14
ENDBRANCH   6   7
ENDBRANCH   5   6
ENDBRANCH   4   5
ENDBRANCH   2   4
TORSDOF 6
ENDMDL
MODEL      221
REMARK 921   NORMALIZED FREE ENERGY PREDICTED BY IDOCK:   -2.86 KCAL/MOL
REMARK 922        TOTAL FREE ENERGY PREDICTED BY IDOCK:   -4.92 KCAL/MOL
REMARK 923 INTER-LIGAND FREE ENERGY PREDICTED BY IDOCK:   -3.75 KCAL/MOL
REMARK 924 INTRA-LIGAND FREE ENERGY PREDICTED BY IDOCK:   -1.18 KCAL/MOL
REMARK 927      BINDING AFFINITY PREDICTED BY RF-SCORE:    0.00 PKD
ROOT
HETATM    1  C   UNL     1     -10.925   7.526  72.893  1.00  0.00    -0.383 C  
HETATM    2  N   UNL     1     -11.082   6.332  72.060  1.00  0.00    -0.254 NA 
HETATM    3  C   UNL     1     -11.717   5.266  72.831  1.00  0.00    -0.153 C  
ENDROOT
BRANCH   2   4
HETATM    4  C   UNL     1     -11.849   6.674  70.849  1.00  0.00    -0.377 C  
BRANCH   4   5
HETATM    5  C   UNL     1     -11.261   6.138  69.530  1.00  0.00    -0.411 C  
BRANCH   5   6
HETATM    6  O   UNL     1      -9.850   6.352  69.404  1.00  0.00    -0.147 OA 
BRANCH   6   7
HETATM    7  C   UNL     1      -9.437   7.714  69.174  1.00  0.00    -0.154 C  
BRANCH   7   8
HETATM    8  C   UNL     1      -8.364   8.134  70.174  1.00  0.00    -0.125 A  
HETATM    9  C   UNL     1      -7.912   7.212  71.137  1.00  0.00    -0.102 A  
HETATM   10  C   UNL     1      -7.701   9.367  70.068  1.00  0.00    -0.124 A  
HETATM   11  C   UNL     1      -6.800   7.496  71.931  1.00  0.00    -0.061 A  
HETATM   12  C   UNL     1      -6.597   9.653  70.874  1.00  0.00    -0.073 A  
HETATM   13  C   UNL     1      -6.137   8.713  71.793  1.00  0.00    -0.063 A  
ENDBRANCH   7   8
BRANCH   7  14
HETATM   14  C   UNL     1      -9.033   7.872  67.705  1.00  0.00    -0.128 A  
HETATM   15  C   UNL     1      -7.631   7.156  65.833  1.00  0.00    -0.093 A  
HETATM   16  C   UNL     1      -8.054   7.019  67.155  1.00  0.00    -0.118 A  
HETATM   17  C   UNL     1      -9.163   8.991  65.546  1.00  0.00    -0.262 A  
HETATM   18  C   UNL     1      -9.614   8.855  66.868  1.00  0.00    -0.248 A  
HETATM   19  C   UNL     1      -8.175   8.151  65.033  1.00  0.00    -0.157 A  
HETATM   20  C   UNL     1     -10.727   9.753  67.341  1.00  0.00    -0.314 C  
ENDBRANCH   7  14
ENDBRANCH   6   7
ENDBRANCH   5   6
ENDBRANCH   4   5
ENDBRANCH   2   4
TORSDOF 6
ENDMDL
MODEL      222
REMARK 921   NORMALIZED FREE ENERGY PREDICTED BY IDOCK:   -2.86 KCAL/MOL
REMARK 922        TOTAL FREE ENERGY PREDICTED BY IDOCK:   -4.92 KCAL/MOL
REMARK 923 INTER-LIGAND FREE ENERGY PREDICTED BY IDOCK:   -5.34 KCAL/MOL
REMARK 924 INTRA-LIGAND FREE ENERGY PREDICTED BY IDOCK:    0.42 KCAL/MOL
REMARK 927      BINDING AFFINITY PREDICTED BY RF-SCORE:    0.00 PKD
ROOT
HETATM    1  C   UNL     1      -8.806  15.188  66.598  1.00  0.00    -0.286 C  
HETATM    2  N   UNL     1      -8.723  15.456  68.035  1.00  0.00    -0.159 NA 
HETATM    3  C   UNL     1      -9.345  16.742  68.341  1.00  0.00    -0.231 C  
ENDROOT
BRANCH   2   4
HETATM    4  C   UNL     1      -9.345  14.347  68.780  1.00  0.00    -0.150 C  
BRANCH   4   5
HETATM    5  C   UNL     1      -9.318  12.982  68.066  1.00  0.00    -0.213 C  
BRANCH   5   6
HETATM    6  O   UNL     1     -10.266  12.045  68.591  1.00  0.00    -0.214 OA 
BRANCH   6   7
HETATM    7  C   UNL     1     -11.085  11.364  67.618  1.00  0.00    -0.268 C  
BRANCH   7   8
HETATM    8  C   UNL     1     -11.485  12.308  66.488  1.00  0.00    -0.438 A  
HETATM    9  C   UNL     1     -12.266  13.443  66.773  1.00  0.00    -0.367 A  
HETATM   10  C   UNL     1     -10.969  12.163  65.190  1.00  0.00    -0.355 A  
HETATM   11  C   UNL     1     -12.480  14.426  65.806  1.00  0.00    -0.334 A  
HETATM   12  C   UNL     1     -11.197  13.140  64.220  1.00  0.00    -0.422 A  
HETATM   13  C   UNL     1     -11.937  14.278  64.532  1.00  0.00    -0.478 A  
ENDBRANCH   7   8
BRANCH   7  14
HETATM   14  C   UNL     1     -10.364  10.094  67.160  1.00  0.00    -0.295 A  
HETATM   15  C   UNL     1      -8.957   8.969  65.504  1.00  0.00    -0.252 A  
HETATM   16  C   UNL     1      -9.598  10.115  65.975  1.00  0.00    -0.265 A  
HETATM   17  C   UNL     1      -9.803   7.735  67.390  1.00  0.00    -0.230 A  
HETATM   18  C   UNL     1     -10.438   8.883  67.890  1.00  0.00    -0.281 A  
HETATM   19  C   UNL     1      -9.072   7.776  66.204  1.00  0.00    -0.199 A  
HETATM   20  C   UNL     1     -11.160   8.786  69.208  1.00  0.00     0.096 C  
ENDBRANCH   7  14
ENDBRANCH   6   7
ENDBRANCH   5   6
ENDBRANCH   4   5
ENDBRANCH   2   4
TORSDOF 6
ENDMDL
MODEL      223
REMARK 921   NORMALIZED FREE ENERGY PREDICTED BY IDOCK:   -2.86 KCAL/MOL
REMARK 922        TOTAL FREE ENERGY PREDICTED BY IDOCK:   -4.91 KCAL/MOL
REMARK 923 INTER-LIGAND FREE ENERGY PREDICTED BY IDOCK:   -5.22 KCAL/MOL
REMARK 924 INTRA-LIGAND FREE ENERGY PREDICTED BY IDOCK:    0.31 KCAL/MOL
REMARK 927      BINDING AFFINITY PREDICTED BY RF-SCORE:    0.00 PKD
ROOT
HETATM    1  C   UNL     1     -12.991  14.425  70.739  1.00  0.00    -0.326 C  
HETATM    2  N   UNL     1     -12.189  15.320  69.903  1.00  0.00    -0.334 NA 
HETATM    3  C   UNL     1     -10.855  15.479  70.479  1.00  0.00    -0.328 C  
ENDROOT
BRANCH   2   4
HETATM    4  C   UNL     1     -12.141  14.797  68.527  1.00  0.00    -0.175 C  
BRANCH   4   5
HETATM    5  C   UNL     1     -11.142  13.646  68.298  1.00  0.00    -0.256 C  
BRANCH   5   6
HETATM    6  O   UNL     1      -9.921  14.066  67.675  1.00  0.00    -0.231 OA 
BRANCH   6   7
HETATM    7  C   UNL     1      -9.433  13.221  66.614  1.00  0.00    -0.260 C  
BRANCH   7   8
HETATM    8  C   UNL     1      -8.949  11.882  67.162  1.00  0.00    -0.178 A  
HETATM    9  C   UNL     1      -7.747  11.329  66.683  1.00  0.00    -0.148 A  
HETATM   10  C   UNL     1      -9.588  11.255  68.243  1.00  0.00    -0.193 A  
HETATM   11  C   UNL     1      -7.177  10.214  67.300  1.00  0.00    -0.089 A  
HETATM   12  C   UNL     1      -9.022  10.131  68.850  1.00  0.00    -0.155 A  
HETATM   13  C   UNL     1      -7.811   9.622  68.389  1.00  0.00    -0.085 A  
ENDBRANCH   7   8
BRANCH   7  14
HETATM   14  C   UNL     1     -10.508  13.111  65.528  1.00  0.00    -0.297 A  
HETATM   15  C   UNL     1     -11.995  11.702  64.192  1.00  0.00    -0.238 A  
HETATM   16  C   UNL     1     -11.043  11.848  65.201  1.00  0.00    -0.360 A  
HETATM   17  C   UNL     1     -11.935  14.077  63.807  1.00  0.00    -0.230 A  
HETATM   18  C   UNL     1     -10.991  14.246  64.832  1.00  0.00    -0.413 A  
HETATM   19  C   UNL     1     -12.430  12.815  63.486  1.00  0.00    -0.474 A  
HETATM   20  C   UNL     1     -10.543  15.644  65.171  1.00  0.00    -0.449 C  
ENDBRANCH   7  14
ENDBRANCH   6   7
ENDBRANCH   5   6
ENDBRANCH   4   5
ENDBRANCH   2   4
TORSDOF 6
ENDMDL
MODEL      224
REMARK 921   NORMALIZED FREE ENERGY PREDICTED BY IDOCK:   -2.85 KCAL/MOL
REMARK 922        TOTAL FREE ENERGY PREDICTED BY IDOCK:   -4.91 KCAL/MOL
REMARK 923 INTER-LIGAND FREE ENERGY PREDICTED BY IDOCK:   -3.93 KCAL/MOL
REMARK 924 INTRA-LIGAND FREE ENERGY PREDICTED BY IDOCK:   -0.98 KCAL/MOL
REMARK 927      BINDING AFFINITY PREDICTED BY RF-SCORE:    0.00 PKD
ROOT
HETATM    1  C   UNL     1      -6.981   4.980  64.916  1.00  0.00    -0.054 C  
HETATM    2  N   UNL     1      -8.387   5.269  64.632  1.00  0.00    -0.138 NA 
HETATM    3  C   UNL     1      -8.950   4.224  63.780  1.00  0.00    -0.138 C  
ENDROOT
BRANCH   2   4
HETATM    4  C   UNL     1      -9.126   5.410  65.899  1.00  0.00    -0.157 C  
BRANCH   4   5
HETATM    5  C   UNL     1      -8.943   6.761  66.617  1.00  0.00    -0.144 C  
BRANCH   5   6
HETATM    6  O   UNL     1      -9.453   7.876  65.874  1.00  0.00    -0.080 OA 
BRANCH   6   7
HETATM    7  C   UNL     1      -8.822   9.146  66.132  1.00  0.00    -0.158 C  
BRANCH   7   8
HETATM    8  C   UNL     1      -7.599   9.338  65.239  1.00  0.00    -0.099 A  
HETATM    9  C   UNL     1      -7.548   8.702  63.985  1.00  0.00    -0.126 A  
HETATM   10  C   UNL     1      -6.586  10.253  65.565  1.00  0.00    -0.128 A  
HETATM   11  C   UNL     1      -6.543   9.013  63.067  1.00  0.00    -0.090 A  
HETATM   12  C   UNL     1      -5.574  10.551  64.650  1.00  0.00    -0.120 A  
HETATM   13  C   UNL     1      -5.562   9.944  63.397  1.00  0.00    -0.101 A  
ENDBRANCH   7   8
BRANCH   7  14
HETATM   14  C   UNL     1      -9.871  10.256  66.018  1.00  0.00    -0.292 A  
HETATM   15  C   UNL     1     -11.133  11.806  64.607  1.00  0.00    -0.363 A  
HETATM   16  C   UNL     1     -10.211  10.769  64.749  1.00  0.00    -0.403 A  
HETATM   17  C   UNL     1     -11.432  11.850  66.995  1.00  0.00    -0.384 A  
HETATM   18  C   UNL     1     -10.521  10.794  67.155  1.00  0.00    -0.285 A  
HETATM   19  C   UNL     1     -11.732  12.356  65.732  1.00  0.00    -0.470 A  
HETATM   20  C   UNL     1     -10.288  10.252  68.542  1.00  0.00    -0.200 C  
ENDBRANCH   7  14
ENDBRANCH   6   7
ENDBRANCH   5   6
ENDBRANCH   4   5
ENDBRANCH   2   4
TORSDOF 6
ENDMDL
MODEL      225
REMARK 921   NORMALIZED FREE ENERGY PREDICTED BY IDOCK:   -2.85 KCAL/MOL
REMARK 922        TOTAL FREE ENERGY PREDICTED BY IDOCK:   -4.90 KCAL/MOL
REMARK 923 INTER-LIGAND FREE ENERGY PREDICTED BY IDOCK:   -3.99 KCAL/MOL
REMARK 924 INTRA-LIGAND FREE ENERGY PREDICTED BY IDOCK:   -0.91 KCAL/MOL
REMARK 927      BINDING AFFINITY PREDICTED BY RF-SCORE:    0.00 PKD
ROOT
HETATM    1  C   UNL     1      -7.589  16.877  66.067  1.00  0.00    -0.028 C  
HETATM    2  N   UNL     1      -6.771  16.136  67.028  1.00  0.00    -0.236 NA 
HETATM    3  C   UNL     1      -6.173  17.059  67.991  1.00  0.00    -0.136 C  
ENDROOT
BRANCH   2   4
HETATM    4  C   UNL     1      -7.593  15.105  67.685  1.00  0.00    -0.174 C  
BRANCH   4   5
HETATM    5  C   UNL     1      -6.999  13.683  67.665  1.00  0.00    -0.172 C  
BRANCH   5   6
HETATM    6  O   UNL     1      -7.929  12.671  68.071  1.00  0.00    -0.132 OA 
BRANCH   6   7
HETATM    7  C   UNL     1      -8.775  12.139  67.033  1.00  0.00    -0.190 C  
BRANCH   7   8
HETATM    8  C   UNL     1      -8.882  10.621  67.143  1.00  0.00    -0.139 A  
HETATM    9  C   UNL     1      -8.711  10.000  68.394  1.00  0.00    -0.117 A  
HETATM   10  C   UNL     1      -9.297   9.832  66.059  1.00  0.00    -0.249 A  
HETATM   11  C   UNL     1      -8.996   8.645  68.565  1.00  0.00    -0.139 A  
HETATM   12  C   UNL     1      -9.569   8.473  66.230  1.00  0.00    -0.306 A  
HETATM   13  C   UNL     1      -9.434   7.884  67.485  1.00  0.00    -0.175 A  
ENDBRANCH   7   8
BRANCH   7  14
HETATM   14  C   UNL     1     -10.119  12.873  67.059  1.00  0.00    -0.245 A  
HETATM   15  C   UNL     1     -11.948  13.843  68.362  1.00  0.00    -0.391 A  
HETATM   16  C   UNL     1     -10.708  13.209  68.296  1.00  0.00    -0.261 A  
HETATM   17  C   UNL     1     -12.057  13.853  65.958  1.00  0.00    -0.465 A  
HETATM   18  C   UNL     1     -10.801  13.233  65.872  1.00  0.00    -0.289 A  
HETATM   19  C   UNL     1     -12.629  14.152  67.193  1.00  0.00     0.186 A  
HETATM   20  C   UNL     1     -10.212  12.994  64.506  1.00  0.00    -0.331 C  
ENDBRANCH   7  14
ENDBRANCH   6   7
ENDBRANCH   5   6
ENDBRANCH   4   5
ENDBRANCH   2   4
TORSDOF 6
ENDMDL
MODEL      226
REMARK 921   NORMALIZED FREE ENERGY PREDICTED BY IDOCK:   -2.81 KCAL/MOL
REMARK 922        TOTAL FREE ENERGY PREDICTED BY IDOCK:   -4.85 KCAL/MOL
REMARK 923 INTER-LIGAND FREE ENERGY PREDICTED BY IDOCK:   -3.63 KCAL/MOL
REMARK 924 INTRA-LIGAND FREE ENERGY PREDICTED BY IDOCK:   -1.21 KCAL/MOL
REMARK 927      BINDING AFFINITY PREDICTED BY RF-SCORE:    0.00 PKD
ROOT
HETATM    1  C   UNL     1      -7.755  10.026  68.031  1.00  0.00    -0.089 C  
HETATM    2  N   UNL     1      -8.075   8.736  68.645  1.00  0.00    -0.114 NA 
HETATM    3  C   UNL     1      -8.117   7.693  67.623  1.00  0.00    -0.121 C  
ENDROOT
BRANCH   2   4
HETATM    4  C   UNL     1      -7.094   8.437  69.703  1.00  0.00    -0.052 C  
BRANCH   4   5
HETATM    5  C   UNL     1      -6.899   6.940  70.011  1.00  0.00    -0.057 C  
BRANCH   5   6
HETATM    6  O   UNL     1      -7.644   6.490  71.149  1.00  0.00    -0.087 OA 
BRANCH   6   7
HETATM    7  C   UNL     1      -8.834   5.728  70.863  1.00  0.00    -0.141 C  
BRANCH   7   8
HETATM    8  C   UNL     1      -8.785   4.365  71.547  1.00  0.00    -0.140 A  
HETATM    9  C   UNL     1      -9.815   3.434  71.317  1.00  0.00    -0.194 A  
HETATM   10  C   UNL     1      -7.665   3.951  72.284  1.00  0.00    -0.071 A  
HETATM   11  C   UNL     1      -9.702   2.117  71.764  1.00  0.00    -0.214 A  
HETATM   12  C   UNL     1      -7.560   2.636  72.743  1.00  0.00    -0.046 A  
HETATM   13  C   UNL     1      -8.570   1.716  72.469  1.00  0.00    -0.058 A  
ENDBRANCH   7   8
BRANCH   7  14
HETATM   14  C   UNL     1     -10.064   6.570  71.213  1.00  0.00    -0.208 A  
HETATM   15  C   UNL     1     -11.243   7.979  72.828  1.00  0.00    -0.448 A  
HETATM   16  C   UNL     1     -10.125   7.233  72.456  1.00  0.00    -0.224 A  
HETATM   17  C   UNL     1     -12.281   7.449  70.722  1.00  0.00    -0.204 A  
HETATM   18  C   UNL     1     -11.156   6.711  70.323  1.00  0.00    -0.379 A  
HETATM   19  C   UNL     1     -12.327   8.075  71.966  1.00  0.00    -0.366 A  
HETATM   20  C   UNL     1     -11.145   6.112  68.941  1.00  0.00    -0.417 C  
ENDBRANCH   7  14
ENDBRANCH   6   7
ENDBRANCH   5   6
ENDBRANCH   4   5
ENDBRANCH   2   4
TORSDOF 6
ENDMDL
MODEL      227
REMARK 921   NORMALIZED FREE ENERGY PREDICTED BY IDOCK:   -2.77 KCAL/MOL
REMARK 922        TOTAL FREE ENERGY PREDICTED BY IDOCK:   -4.80 KCAL/MOL
REMARK 923 INTER-LIGAND FREE ENERGY PREDICTED BY IDOCK:   -4.03 KCAL/MOL
REMARK 924 INTRA-LIGAND FREE ENERGY PREDICTED BY IDOCK:   -0.77 KCAL/MOL
REMARK 927      BINDING AFFINITY PREDICTED BY RF-SCORE:    0.00 PKD
ROOT
HETATM    1  C   UNL     1      -5.997  14.632  70.586  1.00  0.00    -0.164 C  
HETATM    2  N   UNL     1      -6.311  15.641  69.574  1.00  0.00    -0.156 NA 
HETATM    3  C   UNL     1      -5.661  16.906  69.911  1.00  0.00    -0.213 C  
ENDROOT
BRANCH   2   4
HETATM    4  C   UNL     1      -5.909  15.147  68.245  1.00  0.00    -0.121 C  
BRANCH   4   5
HETATM    5  C   UNL     1      -7.073  14.799  67.297  1.00  0.00    -0.033 C  
BRANCH   5   6
HETATM    6  O   UNL     1      -7.646  13.510  67.547  1.00  0.00    -0.158 OA 
BRANCH   6   7
HETATM    7  C   UNL     1      -8.949  13.278  66.976  1.00  0.00    -0.228 C  
BRANCH   7   8
HETATM    8  C   UNL     1      -9.283  11.789  66.970  1.00  0.00    -0.187 A  
HETATM    9  C   UNL     1      -9.667  11.157  68.167  1.00  0.00    -0.186 A  
HETATM   10  C   UNL     1      -9.367  11.058  65.774  1.00  0.00    -0.236 A  
HETATM   11  C   UNL     1     -10.168   9.855  68.160  1.00  0.00    -0.210 A  
HETATM   12  C   UNL     1      -9.855   9.750  65.772  1.00  0.00    -0.360 A  
HETATM   13  C   UNL     1     -10.270   9.155  66.961  1.00  0.00    -0.333 A  
ENDBRANCH   7   8
BRANCH   7  14
HETATM   14  C   UNL     1      -9.975  14.155  67.699  1.00  0.00    -0.233 A  
HETATM   15  C   UNL     1     -10.787  15.136  69.787  1.00  0.00    -0.298 A  
HETATM   16  C   UNL     1      -9.852  14.375  69.086  1.00  0.00    -0.040 A  
HETATM   17  C   UNL     1     -11.999  15.509  67.741  1.00  0.00     0.184 A  
HETATM   18  C   UNL     1     -11.057  14.762  67.016  1.00  0.00    -0.333 A  
HETATM   19  C   UNL     1     -11.868  15.691  69.117  1.00  0.00    -0.378 A  
HETATM   20  C   UNL     1     -11.223  14.656  65.523  1.00  0.00    -0.343 C  
ENDBRANCH   7  14
ENDBRANCH   6   7
ENDBRANCH   5   6
ENDBRANCH   4   5
ENDBRANCH   2   4
TORSDOF 6
ENDMDL
MODEL      228
REMARK 921   NORMALIZED FREE ENERGY PREDICTED BY IDOCK:   -2.77 KCAL/MOL
REMARK 922        TOTAL FREE ENERGY PREDICTED BY IDOCK:   -4.79 KCAL/MOL
REMARK 923 INTER-LIGAND FREE ENERGY PREDICTED BY IDOCK:   -3.89 KCAL/MOL
REMARK 924 INTRA-LIGAND FREE ENERGY PREDICTED BY IDOCK:   -0.90 KCAL/MOL
REMARK 927      BINDING AFFINITY PREDICTED BY RF-SCORE:    0.00 PKD
ROOT
HETATM    1  C   UNL     1      -8.087   7.823  64.954  1.00  0.00    -0.136 C  
HETATM    2  N   UNL     1      -6.906   7.804  65.820  1.00  0.00    -0.052 NA 
HETATM    3  C   UNL     1      -6.169   9.059  65.686  1.00  0.00    -0.056 C  
ENDROOT
BRANCH   2   4
HETATM    4  C   UNL     1      -7.319   7.548  67.211  1.00  0.00    -0.098 C  
BRANCH   4   5
HETATM    5  C   UNL     1      -8.738   8.028  67.571  1.00  0.00    -0.125 C  
BRANCH   5   6
HETATM    6  O   UNL     1      -8.795   8.768  68.797  1.00  0.00    -0.133 OA 
BRANCH   6   7
HETATM    7  C   UNL     1      -9.431   8.103  69.907  1.00  0.00    -0.160 C  
BRANCH   7   8
HETATM    8  C   UNL     1      -8.444   7.888  71.050  1.00  0.00    -0.125 A  
HETATM    9  C   UNL     1      -7.199   7.286  70.790  1.00  0.00    -0.069 A  
HETATM   10  C   UNL     1      -8.676   8.411  72.332  1.00  0.00    -0.280 A  
HETATM   11  C   UNL     1      -6.201   7.256  71.766  1.00  0.00    -0.037 A  
HETATM   12  C   UNL     1      -7.681   8.367  73.311  1.00  0.00    -0.129 A  
HETATM   13  C   UNL     1      -6.440   7.805  73.023  1.00  0.00    -0.067 A  
ENDBRANCH   7   8
BRANCH   7  14
HETATM   14  C   UNL     1     -10.694   8.875  70.296  1.00  0.00    -0.248 A  
HETATM   15  C   UNL     1     -11.849  11.020  70.518  1.00  0.00    -0.464 A  
HETATM   16  C   UNL     1     -10.732  10.277  70.140  1.00  0.00    -0.334 A  
HETATM   17  C   UNL     1     -12.950   8.993  71.205  1.00  0.00    -0.280 A  
HETATM   18  C   UNL     1     -11.842   8.227  70.812  1.00  0.00    -0.172 A  
HETATM   19  C   UNL     1     -12.953  10.380  71.064  1.00  0.00    -0.490 A  
HETATM   20  C   UNL     1     -11.928   6.728  70.934  1.00  0.00    -0.437 C  
ENDBRANCH   7  14
ENDBRANCH   6   7
ENDBRANCH   5   6
ENDBRANCH   4   5
ENDBRANCH   2   4
TORSDOF 6
ENDMDL
MODEL      229
REMARK 921   NORMALIZED FREE ENERGY PREDICTED BY IDOCK:   -2.75 KCAL/MOL
REMARK 922        TOTAL FREE ENERGY PREDICTED BY IDOCK:   -4.76 KCAL/MOL
REMARK 923 INTER-LIGAND FREE ENERGY PREDICTED BY IDOCK:   -4.07 KCAL/MOL
REMARK 924 INTRA-LIGAND FREE ENERGY PREDICTED BY IDOCK:   -0.69 KCAL/MOL
REMARK 927      BINDING AFFINITY PREDICTED BY RF-SCORE:    0.00 PKD
ROOT
HETATM    1  C   UNL     1     -12.009  13.595  68.846  1.00  0.00    -0.356 C  
HETATM    2  N   UNL     1     -12.290  13.618  67.409  1.00  0.00    -0.224 NA 
HETATM    3  C   UNL     1     -11.596  14.741  66.783  1.00  0.00    -0.324 C  
ENDROOT
BRANCH   2   4
HETATM    4  C   UNL     1     -11.908  12.326  66.811  1.00  0.00    -0.277 C  
BRANCH   4   5
HETATM    5  C   UNL     1     -11.132  12.424  65.484  1.00  0.00    -0.300 C  
BRANCH   5   6
HETATM    6  O   UNL     1      -9.900  11.692  65.489  1.00  0.00    -0.223 OA 
BRANCH   6   7
HETATM    7  C   UNL     1      -9.456  11.213  66.774  1.00  0.00    -0.184 C  
BRANCH   7   8
HETATM    8  C   UNL     1      -9.882   9.764  66.991  1.00  0.00    -0.245 A  
HETATM    9  C   UNL     1      -9.645   8.811  65.982  1.00  0.00    -0.297 A  
HETATM   10  C   UNL     1     -10.368   9.316  68.229  1.00  0.00    -0.257 A  
HETATM   11  C   UNL     1      -9.838   7.450  66.224  1.00  0.00    -0.042 A  
HETATM   12  C   UNL     1     -10.574   7.956  68.464  1.00  0.00    -0.146 A  
HETATM   13  C   UNL     1     -10.294   7.022  67.469  1.00  0.00    -0.288 A  
ENDBRANCH   7   8
BRANCH   7  14
HETATM   14  C   UNL     1      -7.950  11.458  66.906  1.00  0.00    -0.158 A  
HETATM   15  C   UNL     1      -5.664  10.770  66.374  1.00  0.00    -0.097 A  
HETATM   16  C   UNL     1      -7.043  10.603  66.247  1.00  0.00    -0.137 A  
HETATM   17  C   UNL     1      -6.038  12.668  67.807  1.00  0.00    -0.127 A  
HETATM   18  C   UNL     1      -7.429  12.526  67.676  1.00  0.00    -0.139 A  
HETATM   19  C   UNL     1      -5.162  11.794  67.165  1.00  0.00    -0.109 A  
HETATM   20  C   UNL     1      -8.319  13.541  68.344  1.00  0.00    -0.140 C  
ENDBRANCH   7  14
ENDBRANCH   6   7
ENDBRANCH   5   6
ENDBRANCH   4   5
ENDBRANCH   2   4
TORSDOF 6
ENDMDL
MODEL      230
REMARK 921   NORMALIZED FREE ENERGY PREDICTED BY IDOCK:   -2.73 KCAL/MOL
REMARK 922        TOTAL FREE ENERGY PREDICTED BY IDOCK:   -4.74 KCAL/MOL
REMARK 923 INTER-LIGAND FREE ENERGY PREDICTED BY IDOCK:   -4.56 KCAL/MOL
REMARK 924 INTRA-LIGAND FREE ENERGY PREDICTED BY IDOCK:   -0.19 KCAL/MOL
REMARK 927      BINDING AFFINITY PREDICTED BY RF-SCORE:    0.00 PKD
ROOT
HETATM    1  C   UNL     1     -13.323  14.863  71.388  1.00  0.00    -0.413 C  
HETATM    2  N   UNL     1     -12.529  15.644  70.438  1.00  0.00    -0.410 NA 
HETATM    3  C   UNL     1     -11.174  15.830  70.955  1.00  0.00    -0.366 C  
ENDROOT
BRANCH   2   4
HETATM    4  C   UNL     1     -12.535  14.978  69.124  1.00  0.00     0.058 C  
BRANCH   4   5
HETATM    5  C   UNL     1     -11.149  14.566  68.593  1.00  0.00    -0.257 C  
BRANCH   5   6
HETATM    6  O   UNL     1     -10.711  15.348  67.474  1.00  0.00    -0.281 OA 
BRANCH   6   7
HETATM    7  C   UNL     1      -9.411  15.018  66.945  1.00  0.00    -0.238 C  
BRANCH   7   8
HETATM    8  C   UNL     1      -8.314  15.785  67.678  1.00  0.00    -0.170 A  
HETATM    9  C   UNL     1      -6.973  15.628  67.281  1.00  0.00    -0.224 A  
HETATM   10  C   UNL     1      -8.616  16.761  68.641  1.00  0.00    -0.263 A  
HETATM   11  C   UNL     1      -5.975  16.458  67.794  1.00  0.00    -0.151 A  
HETATM   12  C   UNL     1      -7.612  17.580  69.162  1.00  0.00    -0.069 A  
HETATM   13  C   UNL     1      -6.297  17.440  68.727  1.00  0.00    -0.188 A  
ENDBRANCH   7   8
BRANCH   7  14
HETATM   14  C   UNL     1      -9.238  13.497  66.955  1.00  0.00    -0.248 A  
HETATM   15  C   UNL     1      -8.402  11.495  68.084  1.00  0.00    -0.152 A  
HETATM   16  C   UNL     1      -8.612  12.873  68.054  1.00  0.00    -0.186 A  
HETATM   17  C   UNL     1      -9.453  11.299  65.928  1.00  0.00    -0.247 A  
HETATM   18  C   UNL     1      -9.690  12.683  65.889  1.00  0.00    -0.212 A  
HETATM   19  C   UNL     1      -8.809  10.710  67.014  1.00  0.00    -0.141 A  
HETATM   20  C   UNL     1     -10.446  13.247  64.715  1.00  0.00    -0.402 C  
ENDBRANCH   7  14
ENDBRANCH   6   7
ENDBRANCH   5   6
ENDBRANCH   4   5
ENDBRANCH   2   4
TORSDOF 6
ENDMDL
MODEL      231
REMARK 921   NORMALIZED FREE ENERGY PREDICTED BY IDOCK:   -2.72 KCAL/MOL
REMARK 922        TOTAL FREE ENERGY PREDICTED BY IDOCK:   -4.72 KCAL/MOL
REMARK 923 INTER-LIGAND FREE ENERGY PREDICTED BY IDOCK:   -4.35 KCAL/MOL
REMARK 924 INTRA-LIGAND FREE ENERGY PREDICTED BY IDOCK:   -0.38 KCAL/MOL
REMARK 927      BINDING AFFINITY PREDICTED BY RF-SCORE:    0.00 PKD
ROOT
HETATM    1  C   UNL     1      -9.988   8.990  71.185  1.00  0.00    -0.295 C  
HETATM    2  N   UNL     1      -8.861   9.161  70.266  1.00  0.00    -0.192 NA 
HETATM    3  C   UNL     1      -8.752   7.999  69.387  1.00  0.00    -0.137 C  
ENDROOT
BRANCH   2   4
HETATM    4  C   UNL     1      -9.029  10.415  69.510  1.00  0.00    -0.106 C  
BRANCH   4   5
HETATM    5  C   UNL     1     -10.295  10.489  68.636  1.00  0.00    -0.185 C  
BRANCH   5   6
HETATM    6  O   UNL     1     -10.242  11.517  67.640  1.00  0.00    -0.181 OA 
BRANCH   6   7
HETATM    7  C   UNL     1     -10.467  11.090  66.281  1.00  0.00    -0.254 C  
BRANCH   7   8
HETATM    8  C   UNL     1     -11.074  12.217  65.450  1.00  0.00    -0.353 A  
HETATM    9  C   UNL     1     -11.530  11.951  64.146  1.00  0.00    -0.449 A  
HETATM   10  C   UNL     1     -11.331  13.482  66.002  1.00  0.00    -0.327 A  
HETATM   11  C   UNL     1     -12.265  12.903  63.438  1.00  0.00    -0.574 A  
HETATM   12  C   UNL     1     -12.055  14.438  65.285  1.00  0.00    -0.380 A  
HETATM   13  C   UNL     1     -12.535  14.142  64.012  1.00  0.00    -0.206 A  
ENDBRANCH   7   8
BRANCH   7  14
HETATM   14  C   UNL     1      -9.165  10.515  65.716  1.00  0.00    -0.215 A  
HETATM   15  C   UNL     1      -8.037   8.771  64.423  1.00  0.00    -0.155 A  
HETATM   16  C   UNL     1      -9.204   9.348  64.924  1.00  0.00    -0.246 A  
HETATM   17  C   UNL     1      -6.743  10.514  65.465  1.00  0.00    -0.092 A  
HETATM   18  C   UNL     1      -7.908  11.118  65.961  1.00  0.00    -0.020 A  
HETATM   19  C   UNL     1      -6.805   9.347  64.705  1.00  0.00    -0.094 A  
HETATM   20  C   UNL     1      -7.776  12.412  66.722  1.00  0.00     0.115 C  
ENDBRANCH   7  14
ENDBRANCH   6   7
ENDBRANCH   5   6
ENDBRANCH   4   5
ENDBRANCH   2   4
TORSDOF 6
ENDMDL
MODEL      232
REMARK 921   NORMALIZED FREE ENERGY PREDICTED BY IDOCK:   -2.70 KCAL/MOL
REMARK 922        TOTAL FREE ENERGY PREDICTED BY IDOCK:   -4.70 KCAL/MOL
REMARK 923 INTER-LIGAND FREE ENERGY PREDICTED BY IDOCK:   -4.11 KCAL/MOL
REMARK 924 INTRA-LIGAND FREE ENERGY PREDICTED BY IDOCK:   -0.59 KCAL/MOL
REMARK 927      BINDING AFFINITY PREDICTED BY RF-SCORE:    0.00 PKD
ROOT
HETATM    1  C   UNL     1     -14.028   9.306  72.069  1.00  0.00    -0.327 C  
HETATM    2  N   UNL     1     -12.636   9.053  72.444  1.00  0.00    -0.363 NA 
HETATM    3  C   UNL     1     -12.314   7.642  72.247  1.00  0.00    -0.191 C  
ENDROOT
BRANCH   2   4
HETATM    4  C   UNL     1     -11.748   9.939  71.670  1.00  0.00    -0.252 C  
BRANCH   4   5
HETATM    5  C   UNL     1     -10.696   9.218  70.806  1.00  0.00    -0.284 C  
BRANCH   5   6
HETATM    6  O   UNL     1     -10.806   9.514  69.409  1.00  0.00    -0.228 OA 
BRANCH   6   7
HETATM    7  C   UNL     1     -10.362   8.479  68.508  1.00  0.00    -0.198 C  
BRANCH   7   8
HETATM    8  C   UNL     1     -10.007   9.061  67.143  1.00  0.00    -0.286 A  
HETATM    9  C   UNL     1      -9.437   8.231  66.160  1.00  0.00    -0.241 A  
HETATM   10  C   UNL     1     -10.371  10.368  66.782  1.00  0.00    -0.294 A  
HETATM   11  C   UNL     1      -9.285   8.678  64.847  1.00  0.00     0.225 A  
HETATM   12  C   UNL     1     -10.205  10.817  65.471  1.00  0.00    -0.330 A  
HETATM   13  C   UNL     1      -9.678   9.968  64.501  1.00  0.00    -0.310 A  
ENDBRANCH   7   8
BRANCH   7  14
HETATM   14  C   UNL     1      -9.233   7.688  69.174  1.00  0.00    -0.141 A  
HETATM   15  C   UNL     1      -6.915   7.602  69.952  1.00  0.00    -0.054 A  
HETATM   16  C   UNL     1      -7.980   8.301  69.384  1.00  0.00    -0.113 A  
HETATM   17  C   UNL     1      -8.314   5.653  70.146  1.00  0.00    -0.118 A  
HETATM   18  C   UNL     1      -9.402   6.346  69.593  1.00  0.00    -0.148 A  
HETATM   19  C   UNL     1      -7.078   6.274  70.320  1.00  0.00    -0.074 A  
HETATM   20  C   UNL     1     -10.726   5.636  69.490  1.00  0.00    -0.380 C  
ENDBRANCH   7  14
ENDBRANCH   6   7
ENDBRANCH   5   6
ENDBRANCH   4   5
ENDBRANCH   2   4
TORSDOF 6
ENDMDL
MODEL      233
REMARK 921   NORMALIZED FREE ENERGY PREDICTED BY IDOCK:   -2.66 KCAL/MOL
REMARK 922        TOTAL FREE ENERGY PREDICTED BY IDOCK:   -4.65 KCAL/MOL
REMARK 923 INTER-LIGAND FREE ENERGY PREDICTED BY IDOCK:   -3.74 KCAL/MOL
REMARK 924 INTRA-LIGAND FREE ENERGY PREDICTED BY IDOCK:   -0.91 KCAL/MOL
REMARK 927      BINDING AFFINITY PREDICTED BY RF-SCORE:    0.00 PKD
ROOT
HETATM    1  C   UNL     1     -12.539   6.850  71.755  1.00  0.00    -0.344 C  
HETATM    2  N   UNL     1     -11.316   7.559  71.372  1.00  0.00    -0.253 NA 
HETATM    3  C   UNL     1     -10.169   6.992  72.077  1.00  0.00    -0.190 C  
ENDROOT
BRANCH   2   4
HETATM    4  C   UNL     1     -11.152   7.502  69.909  1.00  0.00    -0.171 C  
BRANCH   4   5
HETATM    5  C   UNL     1      -9.717   7.743  69.401  1.00  0.00    -0.169 C  
BRANCH   5   6
HETATM    6  O   UNL     1      -9.661   8.212  68.049  1.00  0.00    -0.153 OA 
BRANCH   6   7
HETATM    7  C   UNL     1      -8.788   9.334  67.806  1.00  0.00    -0.120 C  
BRANCH   7   8
HETATM    8  C   UNL     1      -7.964   9.117  66.540  1.00  0.00    -0.100 A  
HETATM    9  C   UNL     1      -6.567   8.976  66.637  1.00  0.00    -0.068 A  
HETATM   10  C   UNL     1      -8.571   8.902  65.293  1.00  0.00    -0.209 A  
HETATM   11  C   UNL     1      -5.810   8.581  65.532  1.00  0.00    -0.044 A  
HETATM   12  C   UNL     1      -7.810   8.521  64.186  1.00  0.00    -0.144 A  
HETATM   13  C   UNL     1      -6.434   8.344  64.310  1.00  0.00    -0.067 A  
ENDBRANCH   7   8
BRANCH   7  14
HETATM   14  C   UNL     1      -9.617  10.622  67.811  1.00  0.00    -0.172 A  
HETATM   15  C   UNL     1     -11.774  11.723  67.470  1.00  0.00    -0.312 A  
HETATM   16  C   UNL     1     -10.994  10.567  67.513  1.00  0.00    -0.365 A  
HETATM   17  C   UNL     1      -9.839  13.036  68.041  1.00  0.00    -0.224 A  
HETATM   18  C   UNL     1      -9.043  11.882  68.108  1.00  0.00    -0.190 A  
HETATM   19  C   UNL     1     -11.193  12.958  67.720  1.00  0.00    -0.319 A  
HETATM   20  C   UNL     1      -7.602  12.028  68.521  1.00  0.00    -0.126 C  
ENDBRANCH   7  14
ENDBRANCH   6   7
ENDBRANCH   5   6
ENDBRANCH   4   5
ENDBRANCH   2   4
TORSDOF 6
ENDMDL
MODEL      234
REMARK 921   NORMALIZED FREE ENERGY PREDICTED BY IDOCK:   -2.63 KCAL/MOL
REMARK 922        TOTAL FREE ENERGY PREDICTED BY IDOCK:   -4.60 KCAL/MOL
REMARK 923 INTER-LIGAND FREE ENERGY PREDICTED BY IDOCK:   -3.92 KCAL/MOL
REMARK 924 INTRA-LIGAND FREE ENERGY PREDICTED BY IDOCK:   -0.68 KCAL/MOL
REMARK 927      BINDING AFFINITY PREDICTED BY RF-SCORE:    0.00 PKD
ROOT
HETATM    1  C   UNL     1     -11.710   6.585  71.432  1.00  0.00    -0.324 C  
HETATM    2  N   UNL     1     -10.689   6.105  70.499  1.00  0.00    -0.257 NA 
HETATM    3  C   UNL     1     -10.283   4.747  70.858  1.00  0.00    -0.177 C  
ENDROOT
BRANCH   2   4
HETATM    4  C   UNL     1     -11.203   6.184  69.121  1.00  0.00    -0.339 C  
BRANCH   4   5
HETATM    5  C   UNL     1     -10.547   7.263  68.238  1.00  0.00    -0.172 C  
BRANCH   5   6
HETATM    6  O   UNL     1      -9.188   7.544  68.596  1.00  0.00    -0.144 OA 
BRANCH   6   7
HETATM    7  C   UNL     1      -8.836   8.938  68.689  1.00  0.00    -0.137 C  
BRANCH   7   8
HETATM    8  C   UNL     1     -10.006   9.761  69.222  1.00  0.00    -0.201 A  
HETATM    9  C   UNL     1     -10.782  10.525  68.330  1.00  0.00    -0.262 A  
HETATM   10  C   UNL     1     -10.428   9.661  70.557  1.00  0.00    -0.367 A  
HETATM   11  C   UNL     1     -11.970  11.125  68.750  1.00  0.00    -0.337 A  
HETATM   12  C   UNL     1     -11.610  10.274  70.977  1.00  0.00    -0.430 A  
HETATM   13  C   UNL     1     -12.388  10.992  70.071  1.00  0.00    -0.377 A  
ENDBRANCH   7   8
BRANCH   7  14
HETATM   14  C   UNL     1      -7.544   9.074  69.499  1.00  0.00    -0.077 A  
HETATM   15  C   UNL     1      -5.978   8.117  71.117  1.00  0.00    -0.034 A  
HETATM   16  C   UNL     1      -7.129   8.016  70.335  1.00  0.00    -0.045 A  
HETATM   17  C   UNL     1      -5.595  10.328  70.248  1.00  0.00    -0.058 A  
HETATM   18  C   UNL     1      -6.739  10.238  69.439  1.00  0.00    -0.063 A  
HETATM   19  C   UNL     1      -5.220   9.279  71.084  1.00  0.00    -0.036 A  
HETATM   20  C   UNL     1      -7.054  11.382  68.512  1.00  0.00    -0.085 C  
ENDBRANCH   7  14
ENDBRANCH   6   7
ENDBRANCH   5   6
ENDBRANCH   4   5
ENDBRANCH   2   4
TORSDOF 6
ENDMDL
MODEL      235
REMARK 921   NORMALIZED FREE ENERGY PREDICTED BY IDOCK:   -2.60 KCAL/MOL
REMARK 922        TOTAL FREE ENERGY PREDICTED BY IDOCK:   -4.56 KCAL/MOL
REMARK 923 INTER-LIGAND FREE ENERGY PREDICTED BY IDOCK:   -3.69 KCAL/MOL
REMARK 924 INTRA-LIGAND FREE ENERGY PREDICTED BY IDOCK:   -0.88 KCAL/MOL
REMARK 927      BINDING AFFINITY PREDICTED BY RF-SCORE:    0.00 PKD
ROOT
HETATM    1  C   UNL     1     -10.523   4.299  65.554  1.00  0.00    -0.150 C  
HETATM    2  N   UNL     1      -9.953   5.100  66.638  1.00  0.00    -0.186 NA 
HETATM    3  C   UNL     1     -10.958   6.026  67.156  1.00  0.00    -0.268 C  
ENDROOT
BRANCH   2   4
HETATM    4  C   UNL     1      -9.427   4.209  67.687  1.00  0.00    -0.180 C  
BRANCH   4   5
HETATM    5  C   UNL     1      -8.223   4.761  68.473  1.00  0.00    -0.083 C  
BRANCH   5   6
HETATM    6  O   UNL     1      -8.316   4.545  69.886  1.00  0.00    -0.063 OA 
BRANCH   6   7
HETATM    7  C   UNL     1      -9.593   4.840  70.486  1.00  0.00    -0.187 C  
BRANCH   7   8
HETATM    8  C   UNL     1      -9.892   3.877  71.632  1.00  0.00    -0.247 A  
HETATM    9  C   UNL     1      -9.068   2.753  71.827  1.00  0.00    -0.150 A  
HETATM   10  C   UNL     1     -10.876   4.158  72.592  1.00  0.00    -0.099 A  
HETATM   11  C   UNL     1      -9.191   1.967  72.974  1.00  0.00    -0.091 A  
HETATM   12  C   UNL     1     -11.006   3.362  73.732  1.00  0.00    -0.307 A  
HETATM   13  C   UNL     1     -10.154   2.278  73.931  1.00  0.00    -0.162 A  
ENDBRANCH   7   8
BRANCH   7  14
HETATM   14  C   UNL     1      -9.632   6.320  70.876  1.00  0.00    -0.192 A  
HETATM   15  C   UNL     1      -8.454   8.297  71.707  1.00  0.00    -0.207 A  
HETATM   16  C   UNL     1      -8.452   6.960  71.307  1.00  0.00    -0.120 A  
HETATM   17  C   UNL     1     -10.812   8.419  71.242  1.00  0.00    -0.293 A  
HETATM   18  C   UNL     1     -10.825   7.081  70.818  1.00  0.00    -0.272 A  
HETATM   19  C   UNL     1      -9.637   9.021  71.688  1.00  0.00    -0.319 A  
HETATM   20  C   UNL     1     -12.115   6.509  70.290  1.00  0.00    -0.113 C  
ENDBRANCH   7  14
ENDBRANCH   6   7
ENDBRANCH   5   6
ENDBRANCH   4   5
ENDBRANCH   2   4
TORSDOF 6
ENDMDL
MODEL      236
REMARK 921   NORMALIZED FREE ENERGY PREDICTED BY IDOCK:   -2.59 KCAL/MOL
REMARK 922        TOTAL FREE ENERGY PREDICTED BY IDOCK:   -4.55 KCAL/MOL
REMARK 923 INTER-LIGAND FREE ENERGY PREDICTED BY IDOCK:   -4.24 KCAL/MOL
REMARK 924 INTRA-LIGAND FREE ENERGY PREDICTED BY IDOCK:   -0.31 KCAL/MOL
REMARK 927      BINDING AFFINITY PREDICTED BY RF-SCORE:    0.00 PKD
ROOT
HETATM    1  C   UNL     1      -5.768   8.013  71.366  1.00  0.00    -0.034 C  
HETATM    2  N   UNL     1      -5.306   8.217  69.992  1.00  0.00    -0.023 NA 
HETATM    3  C   UNL     1      -5.420   6.971  69.237  1.00  0.00    -0.015 C  
ENDROOT
BRANCH   2   4
HETATM    4  C   UNL     1      -6.072   9.313  69.373  1.00  0.00    -0.037 C  
BRANCH   4   5
HETATM    5  C   UNL     1      -7.602   9.137  69.396  1.00  0.00    -0.079 C  
BRANCH   5   6
HETATM    6  O   UNL     1      -8.308  10.327  69.769  1.00  0.00    -0.165 OA 
BRANCH   6   7
HETATM    7  C   UNL     1      -9.704  10.370  69.413  1.00  0.00    -0.200 C  
BRANCH   7   8
HETATM    8  C   UNL     1      -9.999  11.563  68.508  1.00  0.00    -0.207 A  
HETATM    9  C   UNL     1      -8.946  12.179  67.804  1.00  0.00    -0.179 A  
HETATM   10  C   UNL     1     -11.313  11.974  68.235  1.00  0.00    -0.342 A  
HETATM   11  C   UNL     1      -9.206  13.136  66.823  1.00  0.00    -0.232 A  
HETATM   12  C   UNL     1     -11.569  12.942  67.262  1.00  0.00    -0.416 A  
HETATM   13  C   UNL     1     -10.518  13.511  66.546  1.00  0.00    -0.284 A  
ENDBRANCH   7   8
BRANCH   7  14
HETATM   14  C   UNL     1     -10.113   9.015  68.829  1.00  0.00    -0.214 A  
HETATM   15  C   UNL     1     -10.344   7.563  66.873  1.00  0.00    -0.379 A  
HETATM   16  C   UNL     1      -9.949   8.770  67.450  1.00  0.00    -0.267 A  
HETATM   17  C   UNL     1     -11.066   6.783  69.033  1.00  0.00    -0.254 A  
HETATM   18  C   UNL     1     -10.656   7.984  69.633  1.00  0.00    -0.223 A  
HETATM   19  C   UNL     1     -10.916   6.575  67.663  1.00  0.00    -0.426 A  
HETATM   20  C   UNL     1     -10.789   8.120  71.128  1.00  0.00    -0.268 C  
ENDBRANCH   7  14
ENDBRANCH   6   7
ENDBRANCH   5   6
ENDBRANCH   4   5
ENDBRANCH   2   4
TORSDOF 6
ENDMDL
MODEL      237
REMARK 921   NORMALIZED FREE ENERGY PREDICTED BY IDOCK:   -2.57 KCAL/MOL
REMARK 922        TOTAL FREE ENERGY PREDICTED BY IDOCK:   -4.53 KCAL/MOL
REMARK 923 INTER-LIGAND FREE ENERGY PREDICTED BY IDOCK:   -3.69 KCAL/MOL
REMARK 924 INTRA-LIGAND FREE ENERGY PREDICTED BY IDOCK:   -0.84 KCAL/MOL
REMARK 927      BINDING AFFINITY PREDICTED BY RF-SCORE:    0.00 PKD
ROOT
HETATM    1  C   UNL     1      -5.810   9.812  71.045  1.00  0.00    -0.082 C  
HETATM    2  N   UNL     1      -5.481   8.414  70.764  1.00  0.00    -0.028 NA 
HETATM    3  C   UNL     1      -5.403   7.659  72.013  1.00  0.00    -0.036 C  
ENDROOT
BRANCH   2   4
HETATM    4  C   UNL     1      -6.477   7.850  69.836  1.00  0.00    -0.037 C  
BRANCH   4   5
HETATM    5  C   UNL     1      -7.843   8.563  69.829  1.00  0.00    -0.094 C  
BRANCH   5   6
HETATM    6  O   UNL     1      -8.170   9.158  68.567  1.00  0.00    -0.112 OA 
BRANCH   6   7
HETATM    7  C   UNL     1      -9.291   8.580  67.869  1.00  0.00    -0.135 C  
BRANCH   7   8
HETATM    8  C   UNL     1     -10.056   9.646  67.091  1.00  0.00    -0.276 A  
HETATM    9  C   UNL     1     -10.895  10.542  67.780  1.00  0.00    -0.347 A  
HETATM   10  C   UNL     1      -9.833   9.861  65.722  1.00  0.00    -0.356 A  
HETATM   11  C   UNL     1     -11.449  11.646  67.131  1.00  0.00    -0.344 A  
HETATM   12  C   UNL     1     -10.401  10.959  65.072  1.00  0.00    -0.356 A  
HETATM   13  C   UNL     1     -11.194  11.859  65.779  1.00  0.00    -0.365 A  
ENDBRANCH   7   8
BRANCH   7  14
HETATM   14  C   UNL     1      -8.799   7.405  67.019  1.00  0.00    -0.132 A  
HETATM   15  C   UNL     1      -7.034   6.409  65.648  1.00  0.00    -0.057 A  
HETATM   16  C   UNL     1      -7.505   7.442  66.459  1.00  0.00    -0.084 A  
HETATM   17  C   UNL     1      -9.122   5.247  65.938  1.00  0.00    -0.159 A  
HETATM   18  C   UNL     1      -9.605   6.268  66.771  1.00  0.00    -0.183 A  
HETATM   19  C   UNL     1      -7.849   5.319  65.376  1.00  0.00    -0.094 A  
HETATM   20  C   UNL     1     -10.966   6.099  67.396  1.00  0.00    -0.409 C  
ENDBRANCH   7  14
ENDBRANCH   6   7
ENDBRANCH   5   6
ENDBRANCH   4   5
ENDBRANCH   2   4
TORSDOF 6
ENDMDL
MODEL      238
REMARK 921   NORMALIZED FREE ENERGY PREDICTED BY IDOCK:   -2.54 KCAL/MOL
REMARK 922        TOTAL FREE ENERGY PREDICTED BY IDOCK:   -4.49 KCAL/MOL
REMARK 923 INTER-LIGAND FREE ENERGY PREDICTED BY IDOCK:   -4.04 KCAL/MOL
REMARK 924 INTRA-LIGAND FREE ENERGY PREDICTED BY IDOCK:   -0.44 KCAL/MOL
REMARK 927      BINDING AFFINITY PREDICTED BY RF-SCORE:    0.00 PKD
ROOT
HETATM    1  C   UNL     1      -6.602   6.177  64.046  1.00  0.00    -0.033 C  
HETATM    2  N   UNL     1      -7.340   6.556  62.840  1.00  0.00    -0.058 NA 
HETATM    3  C   UNL     1      -8.504   5.689  62.673  1.00  0.00    -0.050 C  
ENDROOT
BRANCH   2   4
HETATM    4  C   UNL     1      -7.714   7.979  62.917  1.00  0.00    -0.135 C  
BRANCH   4   5
HETATM    5  C   UNL     1      -7.300   8.695  64.217  1.00  0.00    -0.104 C  
BRANCH   5   6
HETATM    6  O   UNL     1      -7.859  10.008  64.348  1.00  0.00    -0.138 OA 
BRANCH   6   7
HETATM    7  C   UNL     1      -8.627  10.250  65.544  1.00  0.00    -0.164 C  
BRANCH   7   8
HETATM    8  C   UNL     1      -9.975  10.880  65.207  1.00  0.00    -0.330 A  
HETATM    9  C   UNL     1     -10.742  11.469  66.230  1.00  0.00    -0.321 A  
HETATM   10  C   UNL     1     -10.408  11.028  63.880  1.00  0.00    -0.436 A  
HETATM   11  C   UNL     1     -11.877  12.224  65.929  1.00  0.00    -0.420 A  
HETATM   12  C   UNL     1     -11.551  11.772  63.583  1.00  0.00    -0.521 A  
HETATM   13  C   UNL     1     -12.275  12.383  64.604  1.00  0.00    -0.499 A  
ENDBRANCH   7   8
BRANCH   7  14
HETATM   14  C   UNL     1      -8.718   8.951  66.351  1.00  0.00    -0.148 A  
HETATM   15  C   UNL     1      -9.789   6.781  66.708  1.00  0.00    -0.236 A  
HETATM   16  C   UNL     1      -9.649   7.960  65.977  1.00  0.00    -0.037 A  
HETATM   17  C   UNL     1      -8.058   7.521  68.208  1.00  0.00    -0.124 A  
HETATM   18  C   UNL     1      -7.890   8.705  67.473  1.00  0.00    -0.102 A  
HETATM   19  C   UNL     1      -9.003   6.568  67.833  1.00  0.00    -0.115 A  
HETATM   20  C   UNL     1      -6.809   9.665  67.896  1.00  0.00    -0.074 C  
ENDBRANCH   7  14
ENDBRANCH   6   7
ENDBRANCH   5   6
ENDBRANCH   4   5
ENDBRANCH   2   4
TORSDOF 6
ENDMDL
MODEL      239
REMARK 921   NORMALIZED FREE ENERGY PREDICTED BY IDOCK:   -2.53 KCAL/MOL
REMARK 922        TOTAL FREE ENERGY PREDICTED BY IDOCK:   -4.47 KCAL/MOL
REMARK 923 INTER-LIGAND FREE ENERGY PREDICTED BY IDOCK:   -4.74 KCAL/MOL
REMARK 924 INTRA-LIGAND FREE ENERGY PREDICTED BY IDOCK:    0.27 KCAL/MOL
REMARK 927      BINDING AFFINITY PREDICTED BY RF-SCORE:    0.00 PKD
ROOT
HETATM    1  C   UNL     1      -8.793   6.461  71.534  1.00  0.00    -0.137 C  
HETATM    2  N   UNL     1      -9.545   6.204  70.305  1.00  0.00    -0.162 NA 
HETATM    3  C   UNL     1     -10.350   4.993  70.457  1.00  0.00    -0.215 C  
ENDROOT
BRANCH   2   4
HETATM    4  C   UNL     1     -10.369   7.380  69.976  1.00  0.00    -0.219 C  
BRANCH   4   5
HETATM    5  C   UNL     1      -9.599   8.571  69.374  1.00  0.00    -0.170 C  
BRANCH   5   6
HETATM    6  O   UNL     1     -10.426   9.711  69.110  1.00  0.00    -0.200 OA 
BRANCH   6   7
HETATM    7  C   UNL     1      -9.744  10.890  68.640  1.00  0.00    -0.185 C  
BRANCH   7   8
HETATM    8  C   UNL     1      -9.410  10.771  67.156  1.00  0.00    -0.171 A  
HETATM    9  C   UNL     1      -8.064  10.693  66.750  1.00  0.00    -0.131 A  
HETATM   10  C   UNL     1     -10.410  10.584  66.189  1.00  0.00    -0.276 A  
HETATM   11  C   UNL     1      -7.733  10.386  65.430  1.00  0.00    -0.136 A  
HETATM   12  C   UNL     1     -10.075  10.290  64.865  1.00  0.00    -0.346 A  
HETATM   13  C   UNL     1      -8.738  10.175  64.490  1.00  0.00    -0.211 A  
ENDBRANCH   7   8
BRANCH   7  14
HETATM   14  C   UNL     1     -10.570  12.126  69.007  1.00  0.00    -0.117 A  
HETATM   15  C   UNL     1     -10.941  14.534  68.793  1.00  0.00    -0.262 A  
HETATM   16  C   UNL     1     -10.237  13.379  68.454  1.00  0.00    -0.251 A  
HETATM   17  C   UNL     1     -12.358  13.231  70.238  1.00  0.00    -0.334 A  
HETATM   18  C   UNL     1     -11.672  12.055  69.894  1.00  0.00    -0.374 A  
HETATM   19  C   UNL     1     -11.993  14.462  69.697  1.00  0.00    -0.385 A  
HETATM   20  C   UNL     1     -12.157  10.749  70.466  1.00  0.00    -0.459 C  
ENDBRANCH   7  14
ENDBRANCH   6   7
ENDBRANCH   5   6
ENDBRANCH   4   5
ENDBRANCH   2   4
TORSDOF 6
ENDMDL
MODEL      240
REMARK 921   NORMALIZED FREE ENERGY PREDICTED BY IDOCK:   -2.53 KCAL/MOL
REMARK 922        TOTAL FREE ENERGY PREDICTED BY IDOCK:   -4.47 KCAL/MOL
REMARK 923 INTER-LIGAND FREE ENERGY PREDICTED BY IDOCK:   -4.54 KCAL/MOL
REMARK 924 INTRA-LIGAND FREE ENERGY PREDICTED BY IDOCK:    0.07 KCAL/MOL
REMARK 927      BINDING AFFINITY PREDICTED BY RF-SCORE:    0.00 PKD
ROOT
HETATM    1  C   UNL     1      -9.291  11.358  66.922  1.00  0.00    -0.181 C  
HETATM    2  N   UNL     1     -10.112  10.215  67.324  1.00  0.00    -0.195 NA 
HETATM    3  C   UNL     1     -10.197   9.252  66.228  1.00  0.00    -0.203 C  
ENDROOT
BRANCH   2   4
HETATM    4  C   UNL     1      -9.555   9.615  68.549  1.00  0.00    -0.145 C  
BRANCH   4   5
HETATM    5  C   UNL     1     -10.528   8.719  69.339  1.00  0.00    -0.222 C  
BRANCH   5   6
HETATM    6  O   UNL     1      -9.887   7.613  69.987  1.00  0.00    -0.179 OA 
BRANCH   6   7
HETATM    7  C   UNL     1     -10.593   6.357  69.935  1.00  0.00    -0.243 C  
BRANCH   7   8
HETATM    8  C   UNL     1     -10.167   5.543  68.717  1.00  0.00    -0.270 A  
HETATM    9  C   UNL     1      -9.298   4.449  68.881  1.00  0.00    -0.216 A  
HETATM   10  C   UNL     1     -10.737   5.759  67.452  1.00  0.00    -0.332 A  
HETATM   11  C   UNL     1      -9.049   3.569  67.826  1.00  0.00    -0.197 A  
HETATM   12  C   UNL     1     -10.475   4.885  66.395  1.00  0.00    -0.325 A  
HETATM   13  C   UNL     1      -9.645   3.783  66.586  1.00  0.00    -0.197 A  
ENDBRANCH   7   8
BRANCH   7  14
HETATM   14  C   UNL     1     -10.421   5.633  71.274  1.00  0.00    -0.299 A  
HETATM   15  C   UNL     1      -9.074   4.179  72.708  1.00  0.00    -0.121 A  
HETATM   16  C   UNL     1      -9.251   4.884  71.518  1.00  0.00    -0.185 A  
HETATM   17  C   UNL     1     -11.221   4.957  73.472  1.00  0.00    -0.375 A  
HETATM   18  C   UNL     1     -11.407   5.688  72.289  1.00  0.00    -0.300 A  
HETATM   19  C   UNL     1     -10.066   4.204  73.679  1.00  0.00    -0.194 A  
HETATM   20  C   UNL     1     -12.649   6.530  72.154  1.00  0.00    -0.157 C  
ENDBRANCH   7  14
ENDBRANCH   6   7
ENDBRANCH   5   6
ENDBRANCH   4   5
ENDBRANCH   2   4
TORSDOF 6
ENDMDL
MODEL      241
REMARK 921   NORMALIZED FREE ENERGY PREDICTED BY IDOCK:   -2.51 KCAL/MOL
REMARK 922        TOTAL FREE ENERGY PREDICTED BY IDOCK:   -4.44 KCAL/MOL
REMARK 923 INTER-LIGAND FREE ENERGY PREDICTED BY IDOCK:   -4.04 KCAL/MOL
REMARK 924 INTRA-LIGAND FREE ENERGY PREDICTED BY IDOCK:   -0.41 KCAL/MOL
REMARK 927      BINDING AFFINITY PREDICTED BY RF-SCORE:    0.00 PKD
ROOT
HETATM    1  C   UNL     1      -8.778  12.159  66.592  1.00  0.00    -0.153 C  
HETATM    2  N   UNL     1      -9.522  10.918  66.811  1.00  0.00    -0.175 NA 
HETATM    3  C   UNL     1      -9.397  10.048  65.643  1.00  0.00    -0.204 C  
ENDROOT
BRANCH   2   4
HETATM    4  C   UNL     1      -9.042  10.266  68.042  1.00  0.00    -0.132 C  
BRANCH   4   5
HETATM    5  C   UNL     1     -10.003   9.227  68.650  1.00  0.00    -0.178 C  
BRANCH   5   6
HETATM    6  O   UNL     1      -9.391   7.954  68.890  1.00  0.00    -0.150 OA 
BRANCH   6   7
HETATM    7  C   UNL     1     -10.201   6.985  69.583  1.00  0.00    -0.202 C  
BRANCH   7   8
HETATM    8  C   UNL     1      -9.999   5.589  69.001  1.00  0.00    -0.244 A  
HETATM    9  C   UNL     1      -9.862   5.430  67.609  1.00  0.00    -0.176 A  
HETATM   10  C   UNL     1      -9.792   4.470  69.824  1.00  0.00    -0.295 A  
HETATM   11  C   UNL     1      -9.479   4.203  67.064  1.00  0.00    -0.215 A  
HETATM   12  C   UNL     1      -9.423   3.241  69.275  1.00  0.00    -0.199 A  
HETATM   13  C   UNL     1      -9.251   3.112  67.898  1.00  0.00    -0.243 A  
ENDBRANCH   7   8
BRANCH   7  14
HETATM   14  C   UNL     1      -9.930   7.090  71.087  1.00  0.00    -0.191 A  
HETATM   15  C   UNL     1     -10.807   7.236  73.366  1.00  0.00    -0.370 A  
HETATM   16  C   UNL     1     -11.011   7.102  71.993  1.00  0.00    -0.267 A  
HETATM   17  C   UNL     1      -8.431   7.331  72.991  1.00  0.00    -0.147 A  
HETATM   18  C   UNL     1      -8.616   7.178  71.608  1.00  0.00    -0.114 A  
HETATM   19  C   UNL     1      -9.518   7.365  73.863  1.00  0.00    -0.312 A  
HETATM   20  C   UNL     1      -7.398   7.087  70.728  1.00  0.00    -0.073 C  
ENDBRANCH   7  14
ENDBRANCH   6   7
ENDBRANCH   5   6
ENDBRANCH   4   5
ENDBRANCH   2   4
TORSDOF 6
ENDMDL
MODEL      242
REMARK 921   NORMALIZED FREE ENERGY PREDICTED BY IDOCK:   -2.51 KCAL/MOL
REMARK 922        TOTAL FREE ENERGY PREDICTED BY IDOCK:   -4.44 KCAL/MOL
REMARK 923 INTER-LIGAND FREE ENERGY PREDICTED BY IDOCK:   -3.75 KCAL/MOL
REMARK 924 INTRA-LIGAND FREE ENERGY PREDICTED BY IDOCK:   -0.69 KCAL/MOL
REMARK 927      BINDING AFFINITY PREDICTED BY RF-SCORE:    0.00 PKD
ROOT
HETATM    1  C   UNL     1     -14.372  15.200  72.021  1.00  0.00    -0.586 C  
HETATM    2  N   UNL     1     -13.110  15.512  71.347  1.00  0.00    -0.484 NA 
HETATM    3  C   UNL     1     -12.147  16.042  72.311  1.00  0.00    -0.527 C  
ENDROOT
BRANCH   2   4
HETATM    4  C   UNL     1     -12.606  14.308  70.663  1.00  0.00    -0.355 C  
BRANCH   4   5
HETATM    5  C   UNL     1     -11.190  14.437  70.070  1.00  0.00    -0.141 C  
BRANCH   5   6
HETATM    6  O   UNL     1     -11.156  15.139  68.821  1.00  0.00    -0.243 OA 
BRANCH   6   7
HETATM    7  C   UNL     1     -10.082  14.785  67.927  1.00  0.00    -0.221 C  
BRANCH   7   8
HETATM    8  C   UNL     1     -10.357  15.297  66.516  1.00  0.00    -0.289 A  
HETATM    9  C   UNL     1     -10.511  14.378  65.461  1.00  0.00    -0.366 A  
HETATM   10  C   UNL     1     -10.613  16.653  66.262  1.00  0.00    -0.205 A  
HETATM   11  C   UNL     1     -10.958  14.798  64.207  1.00  0.00     0.135 A  
HETATM   12  C   UNL     1     -11.046  17.072  65.003  1.00  0.00     0.094 A  
HETATM   13  C   UNL     1     -11.234  16.144  63.981  1.00  0.00     0.475 A  
ENDBRANCH   7   8
BRANCH   7  14
HETATM   14  C   UNL     1      -8.755  15.259  68.527  1.00  0.00    -0.176 A  
HETATM   15  C   UNL     1      -7.354  17.106  69.309  1.00  0.00    -0.098 A  
HETATM   16  C   UNL     1      -8.562  16.629  68.799  1.00  0.00    -0.261 A  
HETATM   17  C   UNL     1      -6.487  14.860  69.319  1.00  0.00    -0.121 A  
HETATM   18  C   UNL     1      -7.702  14.361  68.823  1.00  0.00    -0.139 A  
HETATM   19  C   UNL     1      -6.312  16.223  69.555  1.00  0.00    -0.195 A  
HETATM   20  C   UNL     1      -7.846  12.872  68.649  1.00  0.00    -0.044 C  
ENDBRANCH   7  14
ENDBRANCH   6   7
ENDBRANCH   5   6
ENDBRANCH   4   5
ENDBRANCH   2   4
TORSDOF 6
ENDMDL
MODEL      243
REMARK 921   NORMALIZED FREE ENERGY PREDICTED BY IDOCK:   -2.49 KCAL/MOL
REMARK 922        TOTAL FREE ENERGY PREDICTED BY IDOCK:   -4.42 KCAL/MOL
REMARK 923 INTER-LIGAND FREE ENERGY PREDICTED BY IDOCK:   -4.28 KCAL/MOL
REMARK 924 INTRA-LIGAND FREE ENERGY PREDICTED BY IDOCK:   -0.14 KCAL/MOL
REMARK 927      BINDING AFFINITY PREDICTED BY RF-SCORE:    0.00 PKD
ROOT
HETATM    1  C   UNL     1     -14.145   8.871  72.026  1.00  0.00    -0.411 C  
HETATM    2  N   UNL     1     -12.804   8.283  72.032  1.00  0.00    -0.338 NA 
HETATM    3  C   UNL     1     -12.821   6.996  71.340  1.00  0.00    -0.356 C  
ENDROOT
BRANCH   2   4
HETATM    4  C   UNL     1     -11.849   9.227  71.425  1.00  0.00    -0.358 C  
BRANCH   4   5
HETATM    5  C   UNL     1     -11.051   8.672  70.229  1.00  0.00    -0.217 C  
BRANCH   5   6
HETATM    6  O   UNL     1      -9.668   8.441  70.525  1.00  0.00    -0.169 OA 
BRANCH   6   7
HETATM    7  C   UNL     1      -8.839   8.061  69.408  1.00  0.00    -0.144 C  
BRANCH   7   8
HETATM    8  C   UNL     1      -8.984   6.573  69.104  1.00  0.00    -0.130 A  
HETATM    9  C   UNL     1      -8.135   5.971  68.156  1.00  0.00    -0.110 A  
HETATM   10  C   UNL     1      -9.839   5.748  69.852  1.00  0.00    -0.234 A  
HETATM   11  C   UNL     1      -8.107   4.584  68.001  1.00  0.00    -0.091 A  
HETATM   12  C   UNL     1      -9.818   4.362  69.685  1.00  0.00    -0.272 A  
HETATM   13  C   UNL     1      -8.941   3.780  68.772  1.00  0.00    -0.177 A  
ENDBRANCH   7   8
BRANCH   7  14
HETATM   14  C   UNL     1      -9.144   8.983  68.224  1.00  0.00    -0.133 A  
HETATM   15  C   UNL     1     -10.349   9.372  66.131  1.00  0.00    -0.162 A  
HETATM   16  C   UNL     1     -10.074   8.578  67.244  1.00  0.00    -0.317 A  
HETATM   17  C   UNL     1      -8.794  11.022  66.938  1.00  0.00    -0.150 A  
HETATM   18  C   UNL     1      -8.518  10.244  68.074  1.00  0.00    -0.118 A  
HETATM   19  C   UNL     1      -9.698  10.587  65.971  1.00  0.00    -0.257 A  
HETATM   20  C   UNL     1      -7.578  10.800  69.112  1.00  0.00    -0.133 C  
ENDBRANCH   7  14
ENDBRANCH   6   7
ENDBRANCH   5   6
ENDBRANCH   4   5
ENDBRANCH   2   4
TORSDOF 6
ENDMDL
MODEL      244
REMARK 921   NORMALIZED FREE ENERGY PREDICTED BY IDOCK:   -2.45 KCAL/MOL
REMARK 922        TOTAL FREE ENERGY PREDICTED BY IDOCK:   -4.36 KCAL/MOL
REMARK 923 INTER-LIGAND FREE ENERGY PREDICTED BY IDOCK:   -3.87 KCAL/MOL
REMARK 924 INTRA-LIGAND FREE ENERGY PREDICTED BY IDOCK:   -0.49 KCAL/MOL
REMARK 927      BINDING AFFINITY PREDICTED BY RF-SCORE:    0.00 PKD
ROOT
HETATM    1  C   UNL     1      -6.021  10.741  67.208  1.00  0.00    -0.055 C  
HETATM    2  N   UNL     1      -6.465  11.839  68.068  1.00  0.00    -0.054 NA 
HETATM    3  C   UNL     1      -7.300  12.765  67.305  1.00  0.00    -0.090 C  
ENDROOT
BRANCH   2   4
HETATM    4  C   UNL     1      -7.171  11.293  69.240  1.00  0.00    -0.094 C  
BRANCH   4   5
HETATM    5  C   UNL     1      -6.830   9.831  69.587  1.00  0.00    -0.072 C  
BRANCH   5   6
HETATM    6  O   UNL     1      -7.884   8.910  69.277  1.00  0.00    -0.091 OA 
BRANCH   6   7
HETATM    7  C   UNL     1      -8.905   8.758  70.283  1.00  0.00    -0.160 C  
BRANCH   7   8
HETATM    8  C   UNL     1     -10.058   9.727  70.039  1.00  0.00    -0.301 A  
HETATM    9  C   UNL     1     -10.191  10.348  68.783  1.00  0.00    -0.201 A  
HETATM   10  C   UNL     1     -11.082   9.905  70.983  1.00  0.00    -0.401 A  
HETATM   11  C   UNL     1     -11.336  11.078  68.465  1.00  0.00    -0.355 A  
HETATM   12  C   UNL     1     -12.220  10.649  70.666  1.00  0.00    -0.459 A  
HETATM   13  C   UNL     1     -12.355  11.221  69.403  1.00  0.00    -0.216 A  
ENDBRANCH   7   8
BRANCH   7  14
HETATM   14  C   UNL     1      -9.318   7.285  70.357  1.00  0.00    -0.158 A  
HETATM   15  C   UNL     1     -10.226   5.309  69.237  1.00  0.00    -0.301 A  
HETATM   16  C   UNL     1      -9.804   6.638  69.201  1.00  0.00    -0.155 A  
HETATM   17  C   UNL     1      -9.677   5.209  71.578  1.00  0.00    -0.221 A  
HETATM   18  C   UNL     1      -9.229   6.540  71.557  1.00  0.00    -0.144 A  
HETATM   19  C   UNL     1     -10.176   4.599  70.429  1.00  0.00    -0.208 A  
HETATM   20  C   UNL     1      -8.644   7.119  72.818  1.00  0.00    -0.134 C  
ENDBRANCH   7  14
ENDBRANCH   6   7
ENDBRANCH   5   6
ENDBRANCH   4   5
ENDBRANCH   2   4
TORSDOF 6
ENDMDL
MODEL      245
REMARK 921   NORMALIZED FREE ENERGY PREDICTED BY IDOCK:   -2.45 KCAL/MOL
REMARK 922        TOTAL FREE ENERGY PREDICTED BY IDOCK:   -4.36 KCAL/MOL
REMARK 923 INTER-LIGAND FREE ENERGY PREDICTED BY IDOCK:   -3.14 KCAL/MOL
REMARK 924 INTRA-LIGAND FREE ENERGY PREDICTED BY IDOCK:   -1.22 KCAL/MOL
REMARK 927      BINDING AFFINITY PREDICTED BY RF-SCORE:    0.00 PKD
ROOT
HETATM    1  C   UNL     1      -7.359   3.430  64.979  1.00  0.00    -0.072 C  
HETATM    2  N   UNL     1      -8.366   4.461  64.719  1.00  0.00    -0.105 NA 
HETATM    3  C   UNL     1      -8.291   4.892  63.325  1.00  0.00    -0.114 C  
ENDROOT
BRANCH   2   4
HETATM    4  C   UNL     1      -9.701   3.945  65.069  1.00  0.00    -0.192 C  
BRANCH   4   5
HETATM    5  C   UNL     1     -10.255   4.428  66.423  1.00  0.00    -0.153 C  
BRANCH   5   6
HETATM    6  O   UNL     1      -9.761   5.714  66.816  1.00  0.00    -0.136 OA 
BRANCH   6   7
HETATM    7  C   UNL     1      -8.938   5.739  67.999  1.00  0.00    -0.111 C  
BRANCH   7   8
HETATM    8  C   UNL     1      -7.889   6.843  67.910  1.00  0.00    -0.113 A  
HETATM    9  C   UNL     1      -7.922   7.748  66.832  1.00  0.00    -0.112 A  
HETATM   10  C   UNL     1      -6.979   7.081  68.952  1.00  0.00    -0.079 A  
HETATM   11  C   UNL     1      -7.107   8.881  66.824  1.00  0.00    -0.081 A  
HETATM   12  C   UNL     1      -6.155   8.208  68.935  1.00  0.00    -0.040 A  
HETATM   13  C   UNL     1      -6.231   9.115  67.881  1.00  0.00    -0.051 A  
ENDBRANCH   7   8
BRANCH   7  14
HETATM   14  C   UNL     1      -9.841   5.820  69.234  1.00  0.00    -0.220 A  
HETATM   15  C   UNL     1     -11.557   7.023  70.496  1.00  0.00    -0.364 A  
HETATM   16  C   UNL     1     -10.745   6.894  69.369  1.00  0.00    -0.275 A  
HETATM   17  C   UNL     1     -10.611   5.000  71.394  1.00  0.00    -0.161 A  
HETATM   18  C   UNL     1      -9.801   4.843  70.258  1.00  0.00    -0.306 A  
HETATM   19  C   UNL     1     -11.479   6.084  71.515  1.00  0.00    -0.280 A  
HETATM   20  C   UNL     1      -8.932   3.617  70.162  1.00  0.00    -0.178 C  
ENDBRANCH   7  14
ENDBRANCH   6   7
ENDBRANCH   5   6
ENDBRANCH   4   5
ENDBRANCH   2   4
TORSDOF 6
ENDMDL
MODEL      246
REMARK 921   NORMALIZED FREE ENERGY PREDICTED BY IDOCK:   -2.44 KCAL/MOL
REMARK 922        TOTAL FREE ENERGY PREDICTED BY IDOCK:   -4.35 KCAL/MOL
REMARK 923 INTER-LIGAND FREE ENERGY PREDICTED BY IDOCK:   -3.37 KCAL/MOL
REMARK 924 INTRA-LIGAND FREE ENERGY PREDICTED BY IDOCK:   -0.98 KCAL/MOL
REMARK 927      BINDING AFFINITY PREDICTED BY RF-SCORE:    0.00 PKD
ROOT
HETATM    1  C   UNL     1      -6.861   9.463  70.788  1.00  0.00    -0.109 C  
HETATM    2  N   UNL     1      -6.109   8.406  71.463  1.00  0.00    -0.039 NA 
HETATM    3  C   UNL     1      -6.828   7.965  72.657  1.00  0.00    -0.076 C  
ENDROOT
BRANCH   2   4
HETATM    4  C   UNL     1      -5.863   7.298  70.523  1.00  0.00    -0.027 C  
BRANCH   4   5
HETATM    5  C   UNL     1      -6.652   6.007  70.812  1.00  0.00    -0.048 C  
BRANCH   5   6
HETATM    6  O   UNL     1      -7.738   5.787  69.902  1.00  0.00    -0.083 OA 
BRANCH   6   7
HETATM    7  C   UNL     1      -8.717   4.811  70.313  1.00  0.00    -0.093 C  
BRANCH   7   8
HETATM    8  C   UNL     1     -10.010   5.491  70.753  1.00  0.00    -0.263 A  
HETATM    9  C   UNL     1     -10.177   5.862  72.100  1.00  0.00    -0.231 A  
HETATM   10  C   UNL     1     -10.982   5.896  69.824  1.00  0.00    -0.452 A  
HETATM   11  C   UNL     1     -11.255   6.657  72.494  1.00  0.00    -0.302 A  
HETATM   12  C   UNL     1     -12.066   6.679  70.224  1.00  0.00    -0.188 A  
HETATM   13  C   UNL     1     -12.193   7.073  71.554  1.00  0.00    -0.407 A  
ENDBRANCH   7   8
BRANCH   7  14
HETATM   14  C   UNL     1      -8.890   3.777  69.197  1.00  0.00    -0.152 A  
HETATM   15  C   UNL     1      -8.803   3.238  66.812  1.00  0.00    -0.150 A  
HETATM   16  C   UNL     1      -8.620   4.140  67.861  1.00  0.00    -0.107 A  
HETATM   17  C   UNL     1      -9.514   1.566  68.391  1.00  0.00    -0.239 A  
HETATM   18  C   UNL     1      -9.317   2.453  69.460  1.00  0.00    -0.164 A  
HETATM   19  C   UNL     1      -9.264   1.956  67.076  1.00  0.00    -0.057 A  
HETATM   20  C   UNL     1      -9.547   1.949  70.861  1.00  0.00    -0.182 C  
ENDBRANCH   7  14
ENDBRANCH   6   7
ENDBRANCH   5   6
ENDBRANCH   4   5
ENDBRANCH   2   4
TORSDOF 6
ENDMDL
MODEL      247
REMARK 921   NORMALIZED FREE ENERGY PREDICTED BY IDOCK:   -2.44 KCAL/MOL
REMARK 922        TOTAL FREE ENERGY PREDICTED BY IDOCK:   -4.35 KCAL/MOL
REMARK 923 INTER-LIGAND FREE ENERGY PREDICTED BY IDOCK:   -4.03 KCAL/MOL
REMARK 924 INTRA-LIGAND FREE ENERGY PREDICTED BY IDOCK:   -0.33 KCAL/MOL
REMARK 927      BINDING AFFINITY PREDICTED BY RF-SCORE:    0.00 PKD
ROOT
HETATM    1  C   UNL     1     -14.239   8.808  72.155  1.00  0.00    -0.426 C  
HETATM    2  N   UNL     1     -12.809   8.679  72.438  1.00  0.00    -0.381 NA 
HETATM    3  C   UNL     1     -12.358   7.325  72.124  1.00  0.00    -0.193 C  
ENDROOT
BRANCH   2   4
HETATM    4  C   UNL     1     -12.063   9.701  71.682  1.00  0.00    -0.402 C  
BRANCH   4   5
HETATM    5  C   UNL     1     -10.666   9.268  71.199  1.00  0.00    -0.333 C  
BRANCH   5   6
HETATM    6  O   UNL     1     -10.453   9.489  69.799  1.00  0.00    -0.204 OA 
BRANCH   6   7
HETATM    7  C   UNL     1      -9.511   8.606  69.158  1.00  0.00    -0.157 C  
BRANCH   7   8
HETATM    8  C   UNL     1      -8.188   9.320  68.893  1.00  0.00    -0.111 A  
HETATM    9  C   UNL     1      -7.278   8.777  67.969  1.00  0.00    -0.083 A  
HETATM   10  C   UNL     1      -7.915  10.587  69.433  1.00  0.00    -0.146 A  
HETATM   11  C   UNL     1      -6.157   9.501  67.558  1.00  0.00    -0.053 A  
HETATM   12  C   UNL     1      -6.786  11.304  69.031  1.00  0.00    -0.099 A  
HETATM   13  C   UNL     1      -5.917  10.768  68.082  1.00  0.00    -0.049 A  
ENDBRANCH   7   8
BRANCH   7  14
HETATM   14  C   UNL     1      -9.385   7.324  69.984  1.00  0.00    -0.154 A  
HETATM   15  C   UNL     1      -8.305   6.111  71.814  1.00  0.00    -0.125 A  
HETATM   16  C   UNL     1      -8.476   7.273  71.062  1.00  0.00    -0.127 A  
HETATM   17  C   UNL     1      -9.960   5.005  70.460  1.00  0.00    -0.312 A  
HETATM   18  C   UNL     1     -10.159   6.171  69.704  1.00  0.00    -0.226 A  
HETATM   19  C   UNL     1      -9.037   4.973  71.504  1.00  0.00    -0.169 A  
HETATM   20  C   UNL     1     -11.215   6.157  68.631  1.00  0.00    -0.275 C  
ENDBRANCH   7  14
ENDBRANCH   6   7
ENDBRANCH   5   6
ENDBRANCH   4   5
ENDBRANCH   2   4
TORSDOF 6
ENDMDL
MODEL      248
REMARK 921   NORMALIZED FREE ENERGY PREDICTED BY IDOCK:   -2.44 KCAL/MOL
REMARK 922        TOTAL FREE ENERGY PREDICTED BY IDOCK:   -4.35 KCAL/MOL
REMARK 923 INTER-LIGAND FREE ENERGY PREDICTED BY IDOCK:   -4.58 KCAL/MOL
REMARK 924 INTRA-LIGAND FREE ENERGY PREDICTED BY IDOCK:    0.24 KCAL/MOL
REMARK 927      BINDING AFFINITY PREDICTED BY RF-SCORE:    0.00 PKD
ROOT
HETATM    1  C   UNL     1      -7.355   8.314  70.735  1.00  0.00    -0.056 C  
HETATM    2  N   UNL     1      -6.549   8.110  69.531  1.00  0.00    -0.038 NA 
HETATM    3  C   UNL     1      -6.762   6.761  69.010  1.00  0.00    -0.059 C  
ENDROOT
BRANCH   2   4
HETATM    4  C   UNL     1      -6.876   9.147  68.536  1.00  0.00    -0.063 C  
BRANCH   4   5
HETATM    5  C   UNL     1      -7.791  10.277  69.046  1.00  0.00    -0.114 C  
BRANCH   5   6
HETATM    6  O   UNL     1      -8.409  11.028  67.995  1.00  0.00    -0.117 OA 
BRANCH   6   7
HETATM    7  C   UNL     1      -9.779  10.689  67.698  1.00  0.00    -0.165 C  
BRANCH   7   8
HETATM    8  C   UNL     1     -10.340   9.728  68.743  1.00  0.00    -0.227 A  
HETATM    9  C   UNL     1     -10.438   8.357  68.443  1.00  0.00    -0.208 A  
HETATM   10  C   UNL     1     -10.621  10.147  70.053  1.00  0.00    -0.338 A  
HETATM   11  C   UNL     1     -10.757   7.429  69.436  1.00  0.00    -0.220 A  
HETATM   12  C   UNL     1     -10.953   9.218  71.041  1.00  0.00    -0.390 A  
HETATM   13  C   UNL     1     -11.005   7.859  70.737  1.00  0.00    -0.259 A  
ENDBRANCH   7   8
BRANCH   7  14
HETATM   14  C   UNL     1     -10.586  11.978  67.524  1.00  0.00    -0.250 A  
HETATM   15  C   UNL     1     -11.908  13.772  68.534  1.00  0.00    -0.406 A  
HETATM   16  C   UNL     1     -11.135  12.618  68.655  1.00  0.00    -0.305 A  
HETATM   17  C   UNL     1     -11.603  13.712  66.147  1.00  0.00    -0.369 A  
HETATM   18  C   UNL     1     -10.806  12.560  66.252  1.00  0.00    -0.299 A  
HETATM   19  C   UNL     1     -12.154  14.311  67.279  1.00  0.00    -0.390 A  
HETATM   20  C   UNL     1     -10.190  11.999  64.997  1.00  0.00    -0.308 C  
ENDBRANCH   7  14
ENDBRANCH   6   7
ENDBRANCH   5   6
ENDBRANCH   4   5
ENDBRANCH   2   4
TORSDOF 6
ENDMDL
MODEL      249
REMARK 921   NORMALIZED FREE ENERGY PREDICTED BY IDOCK:   -2.43 KCAL/MOL
REMARK 922        TOTAL FREE ENERGY PREDICTED BY IDOCK:   -4.34 KCAL/MOL
REMARK 923 INTER-LIGAND FREE ENERGY PREDICTED BY IDOCK:   -3.39 KCAL/MOL
REMARK 924 INTRA-LIGAND FREE ENERGY PREDICTED BY IDOCK:   -0.96 KCAL/MOL
REMARK 927      BINDING AFFINITY PREDICTED BY RF-SCORE:    0.00 PKD
ROOT
HETATM    1  C   UNL     1     -10.866   6.820  73.257  1.00  0.00    -0.272 C  
HETATM    2  N   UNL     1     -10.003   8.002  73.297  1.00  0.00    -0.266 NA 
HETATM    3  C   UNL     1      -8.603   7.603  73.179  1.00  0.00    -0.165 C  
ENDROOT
BRANCH   2   4
HETATM    4  C   UNL     1     -10.404   8.940  72.234  1.00  0.00    -0.134 C  
BRANCH   4   5
HETATM    5  C   UNL     1     -10.878   8.282  70.924  1.00  0.00    -0.230 C  
BRANCH   5   6
HETATM    6  O   UNL     1     -10.503   9.012  69.750  1.00  0.00    -0.207 OA 
BRANCH   6   7
HETATM    7  C   UNL     1      -9.269   8.607  69.123  1.00  0.00    -0.152 C  
BRANCH   7   8
HETATM    8  C   UNL     1      -9.518   7.514  68.087  1.00  0.00    -0.147 A  
HETATM    9  C   UNL     1      -8.523   6.549  67.841  1.00  0.00    -0.118 A  
HETATM   10  C   UNL     1     -10.772   7.350  67.477  1.00  0.00    -0.310 A  
HETATM   11  C   UNL     1      -8.793   5.430  67.053  1.00  0.00    -0.110 A  
HETATM   12  C   UNL     1     -11.034   6.236  66.677  1.00  0.00    -0.213 A  
HETATM   13  C   UNL     1     -10.051   5.269  66.479  1.00  0.00    -0.260 A  
ENDBRANCH   7   8
BRANCH   7  14
HETATM   14  C   UNL     1      -8.554   9.847  68.579  1.00  0.00    -0.117 A  
HETATM   15  C   UNL     1      -8.529  11.730  67.017  1.00  0.00    -0.175 A  
HETATM   16  C   UNL     1      -9.165  10.616  67.566  1.00  0.00    -0.151 A  
HETATM   17  C   UNL     1      -6.655  11.367  68.483  1.00  0.00    -0.062 A  
HETATM   18  C   UNL     1      -7.287  10.255  69.060  1.00  0.00    -0.092 A  
HETATM   19  C   UNL     1      -7.268  12.097  67.466  1.00  0.00    -0.133 A  
HETATM   20  C   UNL     1      -6.597   9.548  70.198  1.00  0.00    -0.073 C  
ENDBRANCH   7  14
ENDBRANCH   6   7
ENDBRANCH   5   6
ENDBRANCH   4   5
ENDBRANCH   2   4
TORSDOF 6
ENDMDL
MODEL      250
REMARK 921   NORMALIZED FREE ENERGY PREDICTED BY IDOCK:   -2.43 KCAL/MOL
REMARK 922        TOTAL FREE ENERGY PREDICTED BY IDOCK:   -4.33 KCAL/MOL
REMARK 923 INTER-LIGAND FREE ENERGY PREDICTED BY IDOCK:   -3.28 KCAL/MOL
REMARK 924 INTRA-LIGAND FREE ENERGY PREDICTED BY IDOCK:   -1.05 KCAL/MOL
REMARK 927      BINDING AFFINITY PREDICTED BY RF-SCORE:    0.00 PKD
ROOT
HETATM    1  C   UNL     1     -10.578   5.022  66.413  1.00  0.00    -0.261 C  
HETATM    2  N   UNL     1     -10.054   5.980  67.388  1.00  0.00    -0.146 NA 
HETATM    3  C   UNL     1     -11.065   6.992  67.688  1.00  0.00    -0.119 C  
ENDROOT
BRANCH   2   4
HETATM    4  C   UNL     1      -9.614   5.261  68.597  1.00  0.00    -0.136 C  
BRANCH   4   5
HETATM    5  C   UNL     1      -8.287   5.754  69.205  1.00  0.00    -0.105 C  
BRANCH   5   6
HETATM    6  O   UNL     1      -7.951   5.110  70.440  1.00  0.00    -0.082 OA 
BRANCH   6   7
HETATM    7  C   UNL     1      -8.704   5.531  71.595  1.00  0.00    -0.136 C  
BRANCH   7   8
HETATM    8  C   UNL     1      -9.419   4.347  72.240  1.00  0.00    -0.183 A  
HETATM    9  C   UNL     1     -10.443   4.579  73.177  1.00  0.00    -0.259 A  
HETATM   10  C   UNL     1      -9.192   3.029  71.814  1.00  0.00    -0.181 A  
HETATM   11  C   UNL     1     -11.247   3.533  73.632  1.00  0.00    -0.278 A  
HETATM   12  C   UNL     1      -9.988   1.982  72.282  1.00  0.00    -0.220 A  
HETATM   13  C   UNL     1     -11.025   2.236  73.177  1.00  0.00    -0.243 A  
ENDBRANCH   7   8
BRANCH   7  14
HETATM   14  C   UNL     1      -7.779   6.304  72.540  1.00  0.00    -0.102 A  
HETATM   15  C   UNL     1      -5.880   6.292  74.082  1.00  0.00    -0.062 A  
HETATM   16  C   UNL     1      -6.720   5.632  73.185  1.00  0.00    -0.074 A  
HETATM   17  C   UNL     1      -7.107   8.330  73.712  1.00  0.00    -0.170 A  
HETATM   18  C   UNL     1      -7.950   7.687  72.792  1.00  0.00    -0.140 A  
HETATM   19  C   UNL     1      -6.083   7.638  74.356  1.00  0.00    -0.085 A  
HETATM   20  C   UNL     1      -8.997   8.506  72.085  1.00  0.00    -0.300 C  
ENDBRANCH   7  14
ENDBRANCH   6   7
ENDBRANCH   5   6
ENDBRANCH   4   5
ENDBRANCH   2   4
TORSDOF 6
ENDMDL
MODEL      251
REMARK 921   NORMALIZED FREE ENERGY PREDICTED BY IDOCK:   -2.42 KCAL/MOL
REMARK 922        TOTAL FREE ENERGY PREDICTED BY IDOCK:   -4.32 KCAL/MOL
REMARK 923 INTER-LIGAND FREE ENERGY PREDICTED BY IDOCK:   -3.18 KCAL/MOL
REMARK 924 INTRA-LIGAND FREE ENERGY PREDICTED BY IDOCK:   -1.14 KCAL/MOL
REMARK 927      BINDING AFFINITY PREDICTED BY RF-SCORE:    0.00 PKD
ROOT
HETATM    1  C   UNL     1      -7.577   2.668  65.266  1.00  0.00    -0.076 C  
HETATM    2  N   UNL     1      -8.357   3.808  64.783  1.00  0.00    -0.096 NA 
HETATM    3  C   UNL     1      -8.132   3.997  63.351  1.00  0.00    -0.089 C  
ENDROOT
BRANCH   2   4
HETATM    4  C   UNL     1      -9.781   3.600  65.098  1.00  0.00    -0.157 C  
BRANCH   4   5
HETATM    5  C   UNL     1     -10.435   4.714  65.937  1.00  0.00    -0.268 C  
BRANCH   5   6
HETATM    6  O   UNL     1      -9.667   5.923  65.978  1.00  0.00    -0.100 OA 
BRANCH   6   7
HETATM    7  C   UNL     1      -9.432   6.477  67.288  1.00  0.00    -0.125 C  
BRANCH   7   8
HETATM    8  C   UNL     1      -7.997   6.220  67.739  1.00  0.00    -0.114 A  
HETATM    9  C   UNL     1      -7.752   5.728  69.034  1.00  0.00    -0.090 A  
HETATM   10  C   UNL     1      -6.917   6.316  66.847  1.00  0.00    -0.071 A  
HETATM   11  C   UNL     1      -6.478   5.296  69.406  1.00  0.00    -0.035 A  
HETATM   12  C   UNL     1      -5.640   5.897  67.227  1.00  0.00    -0.016 A  
HETATM   13  C   UNL     1      -5.425   5.373  68.499  1.00  0.00    -0.007 A  
ENDBRANCH   7   8
BRANCH   7  14
HETATM   14  C   UNL     1      -9.843   7.952  67.288  1.00  0.00    -0.256 A  
HETATM   15  C   UNL     1     -10.012  10.077  66.087  1.00  0.00    -0.322 A  
HETATM   16  C   UNL     1      -9.686   8.721  66.116  1.00  0.00    -0.320 A  
HETATM   17  C   UNL     1     -10.687   9.951  68.394  1.00  0.00    -0.271 A  
HETATM   18  C   UNL     1     -10.382   8.581  68.436  1.00  0.00    -0.241 A  
HETATM   19  C   UNL     1     -10.499  10.695  67.230  1.00  0.00    -0.293 A  
HETATM   20  C   UNL     1     -10.667   7.823  69.706  1.00  0.00    -0.236 C  
ENDBRANCH   7  14
ENDBRANCH   6   7
ENDBRANCH   5   6
ENDBRANCH   4   5
ENDBRANCH   2   4
TORSDOF 6
ENDMDL
MODEL      252
REMARK 921   NORMALIZED FREE ENERGY PREDICTED BY IDOCK:   -2.42 KCAL/MOL
REMARK 922        TOTAL FREE ENERGY PREDICTED BY IDOCK:   -4.32 KCAL/MOL
REMARK 923 INTER-LIGAND FREE ENERGY PREDICTED BY IDOCK:   -4.59 KCAL/MOL
REMARK 924 INTRA-LIGAND FREE ENERGY PREDICTED BY IDOCK:    0.28 KCAL/MOL
REMARK 927      BINDING AFFINITY PREDICTED BY RF-SCORE:    0.00 PKD
ROOT
HETATM    1  C   UNL     1     -12.086  14.243  67.446  1.00  0.00    -0.336 C  
HETATM    2  N   UNL     1     -11.474  12.918  67.557  1.00  0.00    -0.314 NA 
HETATM    3  C   UNL     1     -10.197  12.897  66.847  1.00  0.00    -0.242 C  
ENDROOT
BRANCH   2   4
HETATM    4  C   UNL     1     -11.323  12.562  68.979  1.00  0.00    -0.290 C  
BRANCH   4   5
HETATM    5  C   UNL     1     -11.180  11.055  69.265  1.00  0.00    -0.257 C  
BRANCH   5   6
HETATM    6  O   UNL     1     -10.076  10.740  70.122  1.00  0.00     0.175 OA 
BRANCH   6   7
HETATM    7  C   UNL     1      -9.513   9.422  69.967  1.00  0.00    -0.228 C  
BRANCH   7   8
HETATM    8  C   UNL     1     -10.362   8.379  70.690  1.00  0.00    -0.224 A  
HETATM    9  C   UNL     1     -10.817   8.638  71.996  1.00  0.00    -0.430 A  
HETATM   10  C   UNL     1     -10.831   7.230  70.035  1.00  0.00    -0.271 A  
HETATM   11  C   UNL     1     -11.753   7.801  72.605  1.00  0.00    -0.364 A  
HETATM   12  C   UNL     1     -11.756   6.386  70.653  1.00  0.00    -0.377 A  
HETATM   13  C   UNL     1     -12.229   6.680  71.930  1.00  0.00    -0.381 A  
ENDBRANCH   7   8
BRANCH   7  14
HETATM   14  C   UNL     1      -9.298   9.143  68.477  1.00  0.00    -0.137 A  
HETATM   15  C   UNL     1     -10.255   8.619  66.287  1.00  0.00    -0.121 A  
HETATM   16  C   UNL     1     -10.411   8.915  67.641  1.00  0.00    -0.313 A  
HETATM   17  C   UNL     1      -7.867   8.788  66.539  1.00  0.00    -0.103 A  
HETATM   18  C   UNL     1      -8.006   9.105  67.899  1.00  0.00    -0.101 A  
HETATM   19  C   UNL     1      -8.981   8.542  65.739  1.00  0.00    -0.229 A  
HETATM   20  C   UNL     1      -6.764   9.421  68.692  1.00  0.00    -0.053 C  
ENDBRANCH   7  14
ENDBRANCH   6   7
ENDBRANCH   5   6
ENDBRANCH   4   5
ENDBRANCH   2   4
TORSDOF 6
ENDMDL
MODEL      253
REMARK 921   NORMALIZED FREE ENERGY PREDICTED BY IDOCK:   -2.40 KCAL/MOL
REMARK 922        TOTAL FREE ENERGY PREDICTED BY IDOCK:   -4.29 KCAL/MOL
REMARK 923 INTER-LIGAND FREE ENERGY PREDICTED BY IDOCK:   -4.64 KCAL/MOL
REMARK 924 INTRA-LIGAND FREE ENERGY PREDICTED BY IDOCK:    0.35 KCAL/MOL
REMARK 927      BINDING AFFINITY PREDICTED BY RF-SCORE:    0.00 PKD
ROOT
HETATM    1  C   UNL     1     -11.111  13.856  64.019  1.00  0.00     0.057 C  
HETATM    2  N   UNL     1     -12.324  13.057  63.842  1.00  0.00    -0.625 NA 
HETATM    3  C   UNL     1     -11.987  11.756  63.269  1.00  0.00    -0.248 C  
ENDROOT
BRANCH   2   4
HETATM    4  C   UNL     1     -13.023  12.930  65.134  1.00  0.00    -0.022 C  
BRANCH   4   5
HETATM    5  C   UNL     1     -12.230  13.425  66.358  1.00  0.00    -0.376 C  
BRANCH   5   6
HETATM    6  O   UNL     1     -11.983  12.402  67.330  1.00  0.00    -0.498 OA 
BRANCH   6   7
HETATM    7  C   UNL     1     -10.833  12.601  68.177  1.00  0.00    -0.227 C  
BRANCH   7   8
HETATM    8  C   UNL     1      -9.743  11.581  67.863  1.00  0.00    -0.187 A  
HETATM    9  C   UNL     1      -8.392  11.974  67.899  1.00  0.00    -0.155 A  
HETATM   10  C   UNL     1     -10.036  10.220  67.686  1.00  0.00    -0.229 A  
HETATM   11  C   UNL     1      -7.369  11.028  67.814  1.00  0.00    -0.093 A  
HETATM   12  C   UNL     1      -9.011   9.277  67.587  1.00  0.00    -0.126 A  
HETATM   13  C   UNL     1      -7.679   9.679  67.667  1.00  0.00    -0.095 A  
ENDBRANCH   7   8
BRANCH   7  14
HETATM   14  C   UNL     1     -10.385  14.061  68.076  1.00  0.00    -0.240 A  
HETATM   15  C   UNL     1      -8.989  15.750  66.988  1.00  0.00    -0.247 A  
HETATM   16  C   UNL     1      -9.451  14.438  67.088  1.00  0.00    -0.225 A  
HETATM   17  C   UNL     1     -10.389  16.372  68.845  1.00  0.00    -0.270 A  
HETATM   18  C   UNL     1     -10.879  15.061  68.949  1.00  0.00    -0.243 A  
HETATM   19  C   UNL     1      -9.447  16.714  67.876  1.00  0.00    -0.225 A  
HETATM   20  C   UNL     1     -11.941  14.772  69.977  1.00  0.00    -0.369 C  
ENDBRANCH   7  14
ENDBRANCH   6   7
ENDBRANCH   5   6
ENDBRANCH   4   5
ENDBRANCH   2   4
TORSDOF 6
ENDMDL
MODEL      254
REMARK 921   NORMALIZED FREE ENERGY PREDICTED BY IDOCK:   -2.40 KCAL/MOL
REMARK 922        TOTAL FREE ENERGY PREDICTED BY IDOCK:   -4.29 KCAL/MOL
REMARK 923 INTER-LIGAND FREE ENERGY PREDICTED BY IDOCK:   -4.05 KCAL/MOL
REMARK 924 INTRA-LIGAND FREE ENERGY PREDICTED BY IDOCK:   -0.24 KCAL/MOL
REMARK 927      BINDING AFFINITY PREDICTED BY RF-SCORE:    0.00 PKD
ROOT
HETATM    1  C   UNL     1     -12.570  14.711  68.885  1.00  0.00     0.298 C  
HETATM    2  N   UNL     1     -12.089  13.331  68.799  1.00  0.00    -0.290 NA 
HETATM    3  C   UNL     1     -10.740  13.308  68.235  1.00  0.00    -0.252 C  
ENDROOT
BRANCH   2   4
HETATM    4  C   UNL     1     -12.144  12.706  70.132  1.00  0.00    -0.294 C  
BRANCH   4   5
HETATM    5  C   UNL     1     -12.321  11.175  70.130  1.00  0.00    -0.295 C  
BRANCH   5   6
HETATM    6  O   UNL     1     -11.111  10.461  70.407  1.00  0.00    -0.301 OA 
BRANCH   6   7
HETATM    7  C   UNL     1     -10.436   9.895  69.266  1.00  0.00    -0.221 C  
BRANCH   7   8
HETATM    8  C   UNL     1      -9.022  10.453  69.137  1.00  0.00    -0.188 A  
HETATM    9  C   UNL     1      -8.009   9.984  69.995  1.00  0.00    -0.166 A  
HETATM   10  C   UNL     1      -8.662  11.312  68.087  1.00  0.00    -0.155 A  
HETATM   11  C   UNL     1      -6.673  10.323  69.775  1.00  0.00    -0.103 A  
HETATM   12  C   UNL     1      -7.326  11.660  67.878  1.00  0.00    -0.096 A  
HETATM   13  C   UNL     1      -6.331  11.153  68.711  1.00  0.00    -0.046 A  
ENDBRANCH   7   8
BRANCH   7  14
HETATM   14  C   UNL     1     -10.511   8.367  69.348  1.00  0.00    -0.222 A  
HETATM   15  C   UNL     1     -10.971   6.364  70.674  1.00  0.00    -0.355 A  
HETATM   16  C   UNL     1     -10.926   7.752  70.547  1.00  0.00    -0.251 A  
HETATM   17  C   UNL     1     -10.207   6.144  68.401  1.00  0.00    -0.208 A  
HETATM   18  C   UNL     1     -10.175   7.539  68.250  1.00  0.00    -0.218 A  
HETATM   19  C   UNL     1     -10.597   5.560  69.605  1.00  0.00    -0.375 A  
HETATM   20  C   UNL     1      -9.804   8.105  66.904  1.00  0.00    -0.316 C  
ENDBRANCH   7  14
ENDBRANCH   6   7
ENDBRANCH   5   6
ENDBRANCH   4   5
ENDBRANCH   2   4
TORSDOF 6
ENDMDL
MODEL      255
REMARK 921   NORMALIZED FREE ENERGY PREDICTED BY IDOCK:   -2.38 KCAL/MOL
REMARK 922        TOTAL FREE ENERGY PREDICTED BY IDOCK:   -4.26 KCAL/MOL
REMARK 923 INTER-LIGAND FREE ENERGY PREDICTED BY IDOCK:   -4.30 KCAL/MOL
REMARK 924 INTRA-LIGAND FREE ENERGY PREDICTED BY IDOCK:    0.03 KCAL/MOL
REMARK 927      BINDING AFFINITY PREDICTED BY RF-SCORE:    0.00 PKD
ROOT
HETATM    1  C   UNL     1      -6.171   6.224  70.545  1.00  0.00    -0.035 C  
HETATM    2  N   UNL     1      -5.976   7.604  70.095  1.00  0.00    -0.023 NA 
HETATM    3  C   UNL     1      -5.860   7.643  68.639  1.00  0.00    -0.027 C  
ENDROOT
BRANCH   2   4
HETATM    4  C   UNL     1      -7.083   8.443  70.587  1.00  0.00    -0.044 C  
BRANCH   4   5
HETATM    5  C   UNL     1      -8.342   8.451  69.699  1.00  0.00    -0.122 C  
BRANCH   5   6
HETATM    6  O   UNL     1      -8.792   9.768  69.359  1.00  0.00    -0.155 OA 
BRANCH   6   7
HETATM    7  C   UNL     1     -10.138   9.864  68.850  1.00  0.00    -0.184 C  
BRANCH   7   8
HETATM    8  C   UNL     1     -11.119  10.208  69.966  1.00  0.00    -0.368 A  
HETATM    9  C   UNL     1     -11.689  11.494  70.019  1.00  0.00    -0.414 A  
HETATM   10  C   UNL     1     -11.590   9.233  70.860  1.00  0.00    -0.364 A  
HETATM   11  C   UNL     1     -12.732  11.778  70.901  1.00  0.00    -0.328 A  
HETATM   12  C   UNL     1     -12.624   9.524  71.751  1.00  0.00    -0.490 A  
HETATM   13  C   UNL     1     -13.206  10.790  71.760  1.00  0.00    -0.523 A  
ENDBRANCH   7   8
BRANCH   7  14
HETATM   14  C   UNL     1     -10.156  10.835  67.666  1.00  0.00    -0.205 A  
HETATM   15  C   UNL     1     -11.185  11.555  65.566  1.00  0.00    -0.204 A  
HETATM   16  C   UNL     1     -11.156  10.714  66.679  1.00  0.00    -0.053 A  
HETATM   17  C   UNL     1      -9.228  12.689  66.389  1.00  0.00    -0.162 A  
HETATM   18  C   UNL     1      -9.194  11.865  67.525  1.00  0.00    -0.177 A  
HETATM   19  C   UNL     1     -10.212  12.533  65.414  1.00  0.00    -0.303 A  
HETATM   20  C   UNL     1      -8.142  12.127  68.570  1.00  0.00    -0.112 C  
ENDBRANCH   7  14
ENDBRANCH   6   7
ENDBRANCH   5   6
ENDBRANCH   4   5
ENDBRANCH   2   4
TORSDOF 6
ENDMDL
MODEL      256
REMARK 921   NORMALIZED FREE ENERGY PREDICTED BY IDOCK:   -2.35 KCAL/MOL
REMARK 922        TOTAL FREE ENERGY PREDICTED BY IDOCK:   -4.23 KCAL/MOL
REMARK 923 INTER-LIGAND FREE ENERGY PREDICTED BY IDOCK:   -3.94 KCAL/MOL
REMARK 924 INTRA-LIGAND FREE ENERGY PREDICTED BY IDOCK:   -0.29 KCAL/MOL
REMARK 927      BINDING AFFINITY PREDICTED BY RF-SCORE:    0.00 PKD
ROOT
HETATM    1  C   UNL     1      -9.256   1.663  71.935  1.00  0.00    -0.083 C  
HETATM    2  N   UNL     1     -10.133   2.472  72.782  1.00  0.00    -0.139 NA 
HETATM    3  C   UNL     1      -9.850   2.208  74.191  1.00  0.00    -0.096 C  
ENDROOT
BRANCH   2   4
HETATM    4  C   UNL     1      -9.971   3.897  72.441  1.00  0.00    -0.166 C  
BRANCH   4   5
HETATM    5  C   UNL     1      -9.926   4.207  70.932  1.00  0.00    -0.136 C  
BRANCH   5   6
HETATM    6  O   UNL     1      -9.657   5.585  70.642  1.00  0.00    -0.159 OA 
BRANCH   6   7
HETATM    7  C   UNL     1     -10.448   6.173  69.590  1.00  0.00    -0.252 C  
BRANCH   7   8
HETATM    8  C   UNL     1     -10.661   7.663  69.837  1.00  0.00    -0.253 A  
HETATM    9  C   UNL     1     -10.522   8.572  68.772  1.00  0.00    -0.208 A  
HETATM   10  C   UNL     1     -11.142   8.144  71.065  1.00  0.00    -0.281 A  
HETATM   11  C   UNL     1     -10.902   9.907  68.917  1.00  0.00    -0.239 A  
HETATM   12  C   UNL     1     -11.508   9.484  71.212  1.00  0.00    -0.447 A  
HETATM   13  C   UNL     1     -11.404  10.360  70.134  1.00  0.00    -0.397 A  
ENDBRANCH   7   8
BRANCH   7  14
HETATM   14  C   UNL     1      -9.809   5.839  68.238  1.00  0.00    -0.170 A  
HETATM   15  C   UNL     1     -10.078   5.087  65.926  1.00  0.00    -0.194 A  
HETATM   16  C   UNL     1     -10.625   5.436  67.161  1.00  0.00    -0.274 A  
HETATM   17  C   UNL     1      -7.877   5.548  66.785  1.00  0.00    -0.101 A  
HETATM   18  C   UNL     1      -8.411   5.921  68.028  1.00  0.00    -0.110 A  
HETATM   19  C   UNL     1      -8.703   5.130  65.743  1.00  0.00    -0.139 A  
HETATM   20  C   UNL     1      -7.470   6.424  69.091  1.00  0.00    -0.095 C  
ENDBRANCH   7  14
ENDBRANCH   6   7
ENDBRANCH   5   6
ENDBRANCH   4   5
ENDBRANCH   2   4
TORSDOF 6
ENDMDL
MODEL      257
REMARK 921   NORMALIZED FREE ENERGY PREDICTED BY IDOCK:   -2.34 KCAL/MOL
REMARK 922        TOTAL FREE ENERGY PREDICTED BY IDOCK:   -4.21 KCAL/MOL
REMARK 923 INTER-LIGAND FREE ENERGY PREDICTED BY IDOCK:   -3.52 KCAL/MOL
REMARK 924 INTRA-LIGAND FREE ENERGY PREDICTED BY IDOCK:   -0.70 KCAL/MOL
REMARK 927      BINDING AFFINITY PREDICTED BY RF-SCORE:    0.00 PKD
ROOT
HETATM    1  C   UNL     1     -10.511   5.160  66.162  1.00  0.00    -0.250 C  
HETATM    2  N   UNL     1      -9.730   5.888  67.164  1.00  0.00    -0.124 NA 
HETATM    3  C   UNL     1     -10.410   7.132  67.520  1.00  0.00    -0.236 C  
ENDROOT
BRANCH   2   4
HETATM    4  C   UNL     1      -9.505   5.024  68.336  1.00  0.00    -0.134 C  
BRANCH   4   5
HETATM    5  C   UNL     1      -8.193   5.286  69.100  1.00  0.00    -0.092 C  
BRANCH   5   6
HETATM    6  O   UNL     1      -8.175   4.716  70.415  1.00  0.00    -0.073 OA 
BRANCH   6   7
HETATM    7  C   UNL     1      -9.235   5.135  71.298  1.00  0.00    -0.145 C  
BRANCH   7   8
HETATM    8  C   UNL     1      -9.967   3.929  71.880  1.00  0.00    -0.238 A  
HETATM    9  C   UNL     1      -9.673   2.639  71.400  1.00  0.00    -0.217 A  
HETATM   10  C   UNL     1     -10.819   4.050  72.989  1.00  0.00    -0.234 A  
HETATM   11  C   UNL     1     -10.174   1.506  72.043  1.00  0.00    -0.223 A  
HETATM   12  C   UNL     1     -11.330   2.915  73.622  1.00  0.00    -0.256 A  
HETATM   13  C   UNL     1     -10.994   1.645  73.159  1.00  0.00    -0.250 A  
ENDBRANCH   7   8
BRANCH   7  14
HETATM   14  C   UNL     1      -8.663   6.096  72.344  1.00  0.00    -0.125 A  
HETATM   15  C   UNL     1      -8.691   8.307  73.390  1.00  0.00    -0.274 A  
HETATM   16  C   UNL     1      -9.208   7.390  72.476  1.00  0.00    -0.179 A  
HETATM   17  C   UNL     1      -7.072   6.671  74.096  1.00  0.00    -0.090 A  
HETATM   18  C   UNL     1      -7.593   5.729  73.195  1.00  0.00    -0.096 A  
HETATM   19  C   UNL     1      -7.613   7.952  74.190  1.00  0.00    -0.218 A  
HETATM   20  C   UNL     1      -7.003   4.343  73.188  1.00  0.00    -0.064 C  
ENDBRANCH   7  14
ENDBRANCH   6   7
ENDBRANCH   5   6
ENDBRANCH   4   5
ENDBRANCH   2   4
TORSDOF 6
ENDMDL
MODEL      258
REMARK 921   NORMALIZED FREE ENERGY PREDICTED BY IDOCK:   -2.34 KCAL/MOL
REMARK 922        TOTAL FREE ENERGY PREDICTED BY IDOCK:   -4.21 KCAL/MOL
REMARK 923 INTER-LIGAND FREE ENERGY PREDICTED BY IDOCK:   -3.72 KCAL/MOL
REMARK 924 INTRA-LIGAND FREE ENERGY PREDICTED BY IDOCK:   -0.49 KCAL/MOL
REMARK 927      BINDING AFFINITY PREDICTED BY RF-SCORE:    0.00 PKD
ROOT
HETATM    1  C   UNL     1      -8.961   2.228  68.380  1.00  0.00    -0.132 C  
HETATM    2  N   UNL     1      -9.319   3.042  69.542  1.00  0.00    -0.152 NA 
HETATM    3  C   UNL     1      -8.487   2.674  70.686  1.00  0.00    -0.053 C  
ENDROOT
BRANCH   2   4
HETATM    4  C   UNL     1      -9.193   4.471  69.201  1.00  0.00    -0.134 C  
BRANCH   4   5
HETATM    5  C   UNL     1     -10.521   5.195  68.913  1.00  0.00    -0.061 C  
BRANCH   5   6
HETATM    6  O   UNL     1     -10.368   6.366  68.101  1.00  0.00    -0.155 OA 
BRANCH   6   7
HETATM    7  C   UNL     1      -9.568   7.424  68.665  1.00  0.00    -0.146 C  
BRANCH   7   8
HETATM    8  C   UNL     1      -9.483   8.611  67.709  1.00  0.00    -0.165 A  
HETATM    9  C   UNL     1      -8.752   9.754  68.083  1.00  0.00    -0.119 A  
HETATM   10  C   UNL     1      -9.987   8.540  66.401  1.00  0.00    -0.314 A  
HETATM   11  C   UNL     1      -8.490  10.768  67.161  1.00  0.00    -0.126 A  
HETATM   12  C   UNL     1      -9.734   9.562  65.484  1.00  0.00    -0.344 A  
HETATM   13  C   UNL     1      -8.973  10.667  65.859  1.00  0.00    -0.192 A  
ENDBRANCH   7   8
BRANCH   7  14
HETATM   14  C   UNL     1     -10.104   7.768  70.058  1.00  0.00    -0.201 A  
HETATM   15  C   UNL     1     -12.024   8.149  71.525  1.00  0.00    -0.334 A  
HETATM   16  C   UNL     1     -11.496   7.803  70.281  1.00  0.00    -0.117 A  
HETATM   17  C   UNL     1      -9.791   8.420  72.383  1.00  0.00    -0.378 A  
HETATM   18  C   UNL     1      -9.242   8.056  71.144  1.00  0.00    -0.174 A  
HETATM   19  C   UNL     1     -11.171   8.472  72.572  1.00  0.00    -0.336 A  
HETATM   20  C   UNL     1      -7.744   7.959  71.024  1.00  0.00    -0.084 C  
ENDBRANCH   7  14
ENDBRANCH   6   7
ENDBRANCH   5   6
ENDBRANCH   4   5
ENDBRANCH   2   4
TORSDOF 6
ENDMDL
MODEL      259
REMARK 921   NORMALIZED FREE ENERGY PREDICTED BY IDOCK:   -2.33 KCAL/MOL
REMARK 922        TOTAL FREE ENERGY PREDICTED BY IDOCK:   -4.20 KCAL/MOL
REMARK 923 INTER-LIGAND FREE ENERGY PREDICTED BY IDOCK:   -3.52 KCAL/MOL
REMARK 924 INTRA-LIGAND FREE ENERGY PREDICTED BY IDOCK:   -0.68 KCAL/MOL
REMARK 927      BINDING AFFINITY PREDICTED BY RF-SCORE:    0.00 PKD
ROOT
HETATM    1  C   UNL     1      -5.541   9.499  71.933  1.00  0.00    -0.044 C  
HETATM    2  N   UNL     1      -5.562   8.493  70.871  1.00  0.00    -0.032 NA 
HETATM    3  C   UNL     1      -6.092   7.232  71.388  1.00  0.00    -0.036 C  
ENDROOT
BRANCH   2   4
HETATM    4  C   UNL     1      -6.346   8.997  69.730  1.00  0.00    -0.038 C  
BRANCH   4   5
HETATM    5  C   UNL     1      -7.489   9.963  70.096  1.00  0.00    -0.170 C  
BRANCH   5   6
HETATM    6  O   UNL     1      -7.844  10.857  69.034  1.00  0.00    -0.132 OA 
BRANCH   6   7
HETATM    7  C   UNL     1      -9.208  10.781  68.575  1.00  0.00    -0.174 C  
BRANCH   7   8
HETATM    8  C   UNL     1      -9.578  12.017  67.760  1.00  0.00    -0.193 A  
HETATM    9  C   UNL     1      -8.732  13.141  67.779  1.00  0.00    -0.188 A  
HETATM   10  C   UNL     1     -10.662  12.013  66.868  1.00  0.00    -0.282 A  
HETATM   11  C   UNL     1      -8.935  14.204  66.897  1.00  0.00    -0.247 A  
HETATM   12  C   UNL     1     -10.870  13.084  65.996  1.00  0.00    -0.290 A  
HETATM   13  C   UNL     1      -9.998  14.170  66.000  1.00  0.00    -0.340 A  
ENDBRANCH   7   8
BRANCH   7  14
HETATM   14  C   UNL     1      -9.416   9.452  67.842  1.00  0.00    -0.150 A  
HETATM   15  C   UNL     1     -10.604   7.320  67.673  1.00  0.00    -0.316 A  
HETATM   16  C   UNL     1     -10.409   8.556  68.289  1.00  0.00    -0.246 A  
HETATM   17  C   UNL     1      -8.834   7.829  66.123  1.00  0.00    -0.192 A  
HETATM   18  C   UNL     1      -8.637   9.085  66.718  1.00  0.00    -0.129 A  
HETATM   19  C   UNL     1      -9.806   6.951  66.599  1.00  0.00    -0.217 A  
HETATM   20  C   UNL     1      -7.613  10.011  66.116  1.00  0.00    -0.109 C  
ENDBRANCH   7  14
ENDBRANCH   6   7
ENDBRANCH   5   6
ENDBRANCH   4   5
ENDBRANCH   2   4
TORSDOF 6
ENDMDL
MODEL      260
REMARK 921   NORMALIZED FREE ENERGY PREDICTED BY IDOCK:   -2.31 KCAL/MOL
REMARK 922        TOTAL FREE ENERGY PREDICTED BY IDOCK:   -4.18 KCAL/MOL
REMARK 923 INTER-LIGAND FREE ENERGY PREDICTED BY IDOCK:   -4.58 KCAL/MOL
REMARK 924 INTRA-LIGAND FREE ENERGY PREDICTED BY IDOCK:    0.40 KCAL/MOL
REMARK 927      BINDING AFFINITY PREDICTED BY RF-SCORE:    0.00 PKD
ROOT
HETATM    1  C   UNL     1      -9.934   8.494  66.547  1.00  0.00    -0.280 C  
HETATM    2  N   UNL     1     -10.122   7.406  67.508  1.00  0.00    -0.174 NA 
HETATM    3  C   UNL     1     -11.007   6.389  66.943  1.00  0.00    -0.341 C  
ENDROOT
BRANCH   2   4
HETATM    4  C   UNL     1      -8.811   6.851  67.889  1.00  0.00    -0.123 C  
BRANCH   4   5
HETATM    5  C   UNL     1      -7.894   7.814  68.667  1.00  0.00    -0.120 C  
BRANCH   5   6
HETATM    6  O   UNL     1      -8.023   7.699  70.090  1.00  0.00    -0.105 OA 
BRANCH   6   7
HETATM    7  C   UNL     1      -8.239   8.931  70.806  1.00  0.00    -0.171 C  
BRANCH   7   8
HETATM    8  C   UNL     1      -7.627  10.111  70.055  1.00  0.00    -0.164 A  
HETATM    9  C   UNL     1      -8.426  10.865  69.176  1.00  0.00    -0.064 A  
HETATM   10  C   UNL     1      -6.327  10.564  70.330  1.00  0.00    -0.137 A  
HETATM   11  C   UNL     1      -7.956  12.061  68.630  1.00  0.00    -0.082 A  
HETATM   12  C   UNL     1      -5.855  11.753  69.771  1.00  0.00    -0.114 A  
HETATM   13  C   UNL     1      -6.674  12.509  68.936  1.00  0.00    -0.098 A  
ENDBRANCH   7   8
BRANCH   7  14
HETATM   14  C   UNL     1      -9.732   9.078  71.109  1.00  0.00    -0.369 A  
HETATM   15  C   UNL     1     -11.909  10.011  70.497  1.00  0.00    -0.387 A  
HETATM   16  C   UNL     1     -10.552   9.823  70.236  1.00  0.00    -0.348 A  
HETATM   17  C   UNL     1     -11.692   8.701  72.504  1.00  0.00    -0.330 A  
HETATM   18  C   UNL     1     -10.329   8.485  72.247  1.00  0.00    -0.402 A  
HETATM   19  C   UNL     1     -12.476   9.462  71.639  1.00  0.00    -0.460 A  
HETATM   20  C   UNL     1      -9.554   7.601  73.189  1.00  0.00    -0.314 C  
ENDBRANCH   7  14
ENDBRANCH   6   7
ENDBRANCH   5   6
ENDBRANCH   4   5
ENDBRANCH   2   4
TORSDOF 6
ENDMDL
MODEL      261
REMARK 921   NORMALIZED FREE ENERGY PREDICTED BY IDOCK:   -2.26 KCAL/MOL
REMARK 922        TOTAL FREE ENERGY PREDICTED BY IDOCK:   -4.10 KCAL/MOL
REMARK 923 INTER-LIGAND FREE ENERGY PREDICTED BY IDOCK:   -3.32 KCAL/MOL
REMARK 924 INTRA-LIGAND FREE ENERGY PREDICTED BY IDOCK:   -0.78 KCAL/MOL
REMARK 927      BINDING AFFINITY PREDICTED BY RF-SCORE:    0.00 PKD
ROOT
HETATM    1  C   UNL     1     -11.851  13.696  67.369  1.00  0.00    -0.393 C  
HETATM    2  N   UNL     1     -11.553  13.782  65.939  1.00  0.00    -0.323 NA 
HETATM    3  C   UNL     1     -10.318  14.535  65.730  1.00  0.00    -0.331 C  
ENDROOT
BRANCH   2   4
HETATM    4  C   UNL     1     -11.478  12.425  65.369  1.00  0.00    -0.358 C  
BRANCH   4   5
HETATM    5  C   UNL     1     -10.069  11.803  65.341  1.00  0.00    -0.254 C  
BRANCH   5   6
HETATM    6  O   UNL     1      -9.537  11.537  66.645  1.00  0.00    -0.190 OA 
BRANCH   6   7
HETATM    7  C   UNL     1      -8.174  11.069  66.686  1.00  0.00    -0.154 C  
BRANCH   7   8
HETATM    8  C   UNL     1      -7.325  11.946  67.601  1.00  0.00    -0.123 A  
HETATM    9  C   UNL     1      -7.099  13.293  67.259  1.00  0.00    -0.016 A  
HETATM   10  C   UNL     1      -6.885  11.494  68.855  1.00  0.00    -0.095 A  
HETATM   11  C   UNL     1      -6.500  14.169  68.164  1.00  0.00    -0.127 A  
HETATM   12  C   UNL     1      -6.273  12.370  69.753  1.00  0.00    -0.119 A  
HETATM   13  C   UNL     1      -6.095  13.710  69.415  1.00  0.00    -0.104 A  
ENDBRANCH   7   8
BRANCH   7  14
HETATM   14  C   UNL     1      -8.168   9.581  67.050  1.00  0.00    -0.113 A  
HETATM   15  C   UNL     1      -9.230   7.706  68.208  1.00  0.00    -0.139 A  
HETATM   16  C   UNL     1      -9.219   9.047  67.824  1.00  0.00    -0.152 A  
HETATM   17  C   UNL     1      -7.151   7.368  67.042  1.00  0.00    -0.084 A  
HETATM   18  C   UNL     1      -7.133   8.710  66.631  1.00  0.00    -0.080 A  
HETATM   19  C   UNL     1      -8.188   6.870  67.829  1.00  0.00    -0.117 A  
HETATM   20  C   UNL     1      -6.016   9.169  65.730  1.00  0.00    -0.051 C  
ENDBRANCH   7  14
ENDBRANCH   6   7
ENDBRANCH   5   6
ENDBRANCH   4   5
ENDBRANCH   2   4
TORSDOF 6
ENDMDL
MODEL      262
REMARK 921   NORMALIZED FREE ENERGY PREDICTED BY IDOCK:   -2.22 KCAL/MOL
REMARK 922        TOTAL FREE ENERGY PREDICTED BY IDOCK:   -4.05 KCAL/MOL
REMARK 923 INTER-LIGAND FREE ENERGY PREDICTED BY IDOCK:   -3.64 KCAL/MOL
REMARK 924 INTRA-LIGAND FREE ENERGY PREDICTED BY IDOCK:   -0.41 KCAL/MOL
REMARK 927      BINDING AFFINITY PREDICTED BY RF-SCORE:    0.00 PKD
ROOT
HETATM    1  C   UNL     1      -8.195   8.969  69.739  1.00  0.00    -0.122 C  
HETATM    2  N   UNL     1      -6.924   8.348  70.112  1.00  0.00    -0.042 NA 
HETATM    3  C   UNL     1      -6.412   8.956  71.339  1.00  0.00    -0.076 C  
ENDROOT
BRANCH   2   4
HETATM    4  C   UNL     1      -7.107   6.892  70.249  1.00  0.00    -0.067 C  
BRANCH   4   5
HETATM    5  C   UNL     1      -6.737   6.312  71.627  1.00  0.00    -0.063 C  
BRANCH   5   6
HETATM    6  O   UNL     1      -7.875   5.989  72.435  1.00  0.00    -0.100 OA 
BRANCH   6   7
HETATM    7  C   UNL     1      -8.906   5.214  71.790  1.00  0.00    -0.134 C  
BRANCH   7   8
HETATM    8  C   UNL     1      -9.134   3.895  72.523  1.00  0.00    -0.137 A  
HETATM    9  C   UNL     1      -8.029   3.161  72.994  1.00  0.00    -0.064 A  
HETATM   10  C   UNL     1     -10.421   3.462  72.877  1.00  0.00    -0.240 A  
HETATM   11  C   UNL     1      -8.206   2.062  73.835  1.00  0.00    -0.054 A  
HETATM   12  C   UNL     1     -10.596   2.353  73.708  1.00  0.00    -0.240 A  
HETATM   13  C   UNL     1      -9.490   1.664  74.199  1.00  0.00    -0.081 A  
ENDBRANCH   7   8
BRANCH   7  14
HETATM   14  C   UNL     1     -10.160   6.079  71.637  1.00  0.00    -0.227 A  
HETATM   15  C   UNL     1     -12.006   6.857  70.234  1.00  0.00    -0.257 A  
HETATM   16  C   UNL     1     -10.882   6.055  70.426  1.00  0.00    -0.386 A  
HETATM   17  C   UNL     1     -11.750   7.729  72.463  1.00  0.00    -0.393 A  
HETATM   18  C   UNL     1     -10.628   6.914  72.681  1.00  0.00    -0.262 A  
HETATM   19  C   UNL     1     -12.432   7.705  71.247  1.00  0.00    -0.324 A  
HETATM   20  C   UNL     1      -9.975   6.942  74.038  1.00  0.00    -0.371 C  
ENDBRANCH   7  14
ENDBRANCH   6   7
ENDBRANCH   5   6
ENDBRANCH   4   5
ENDBRANCH   2   4
TORSDOF 6
ENDMDL
MODEL      263
REMARK 921   NORMALIZED FREE ENERGY PREDICTED BY IDOCK:   -2.21 KCAL/MOL
REMARK 922        TOTAL FREE ENERGY PREDICTED BY IDOCK:   -4.04 KCAL/MOL
REMARK 923 INTER-LIGAND FREE ENERGY PREDICTED BY IDOCK:   -2.86 KCAL/MOL
REMARK 924 INTRA-LIGAND FREE ENERGY PREDICTED BY IDOCK:   -1.18 KCAL/MOL
REMARK 927      BINDING AFFINITY PREDICTED BY RF-SCORE:    0.00 PKD
ROOT
HETATM    1  C   UNL     1     -11.829   7.394  71.494  1.00  0.00    -0.297 C  
HETATM    2  N   UNL     1     -10.902   6.536  70.755  1.00  0.00    -0.247 NA 
HETATM    3  C   UNL     1     -10.514   5.393  71.579  1.00  0.00    -0.223 C  
ENDROOT
BRANCH   2   4
HETATM    4  C   UNL     1     -11.523   6.119  69.485  1.00  0.00    -0.229 C  
BRANCH   4   5
HETATM    5  C   UNL     1     -10.697   6.424  68.221  1.00  0.00    -0.285 C  
BRANCH   5   6
HETATM    6  O   UNL     1     -10.414   5.263  67.430  1.00  0.00    -0.199 OA 
BRANCH   6   7
HETATM    7  C   UNL     1      -9.024   4.898  67.321  1.00  0.00    -0.111 C  
BRANCH   7   8
HETATM    8  C   UNL     1      -8.599   4.018  68.493  1.00  0.00    -0.115 A  
HETATM    9  C   UNL     1      -7.591   4.466  69.368  1.00  0.00    -0.055 A  
HETATM   10  C   UNL     1      -9.288   2.839  68.817  1.00  0.00    -0.234 A  
HETATM   11  C   UNL     1      -7.320   3.783  70.555  1.00  0.00    -0.041 A  
HETATM   12  C   UNL     1      -9.005   2.150  69.998  1.00  0.00    -0.150 A  
HETATM   13  C   UNL     1      -8.033   2.630  70.873  1.00  0.00    -0.055 A  
ENDBRANCH   7   8
BRANCH   7  14
HETATM   14  C   UNL     1      -8.777   4.280  65.942  1.00  0.00    -0.115 A  
HETATM   15  C   UNL     1      -9.656   3.082  63.998  1.00  0.00    -0.140 A  
HETATM   16  C   UNL     1      -9.847   3.689  65.239  1.00  0.00    -0.106 A  
HETATM   17  C   UNL     1      -7.318   3.648  64.097  1.00  0.00    -0.059 A  
HETATM   18  C   UNL     1      -7.496   4.280  65.337  1.00  0.00    -0.077 A  
HETATM   19  C   UNL     1      -8.388   3.049  63.434  1.00  0.00    -0.086 A  
HETATM   20  C   UNL     1      -6.312   4.962  65.971  1.00  0.00    -0.039 C  
ENDBRANCH   7  14
ENDBRANCH   6   7
ENDBRANCH   5   6
ENDBRANCH   4   5
ENDBRANCH   2   4
TORSDOF 6
ENDMDL
MODEL      264
REMARK 921   NORMALIZED FREE ENERGY PREDICTED BY IDOCK:   -2.20 KCAL/MOL
REMARK 922        TOTAL FREE ENERGY PREDICTED BY IDOCK:   -4.02 KCAL/MOL
REMARK 923 INTER-LIGAND FREE ENERGY PREDICTED BY IDOCK:   -4.73 KCAL/MOL
REMARK 924 INTRA-LIGAND FREE ENERGY PREDICTED BY IDOCK:    0.71 KCAL/MOL
REMARK 927      BINDING AFFINITY PREDICTED BY RF-SCORE:    0.00 PKD
ROOT
HETATM    1  C   UNL     1     -12.350  15.636  71.178  1.00  0.00    -0.427 C  
HETATM    2  N   UNL     1     -12.093  14.950  72.445  1.00  0.00    -0.330 NA 
HETATM    3  C   UNL     1     -12.852  15.585  73.521  1.00  0.00    -0.560 C  
ENDROOT
BRANCH   2   4
HETATM    4  C   UNL     1     -12.420  13.520  72.306  1.00  0.00     0.172 C  
BRANCH   4   5
HETATM    5  C   UNL     1     -13.556  13.201  71.316  1.00  0.00     0.227 C  
BRANCH   5   6
HETATM    6  O   UNL     1     -13.136  12.403  70.203  1.00  0.00     0.493 OA 
BRANCH   6   7
HETATM    7  C   UNL     1     -11.757  11.982  70.213  1.00  0.00    -0.179 C  
BRANCH   7   8
HETATM    8  C   UNL     1     -11.594  10.669  70.973  1.00  0.00    -0.222 A  
HETATM    9  C   UNL     1     -12.690  10.129  71.671  1.00  0.00    -0.549 A  
HETATM   10  C   UNL     1     -10.423   9.901  70.873  1.00  0.00    -0.192 A  
HETATM   11  C   UNL     1     -12.633   8.841  72.206  1.00  0.00    -0.460 A  
HETATM   12  C   UNL     1     -10.363   8.619  71.421  1.00  0.00    -0.331 A  
HETATM   13  C   UNL     1     -11.472   8.083  72.072  1.00  0.00    -0.364 A  
ENDBRANCH   7   8
BRANCH   7  14
HETATM   14  C   UNL     1     -11.233  11.953  68.774  1.00  0.00    -0.314 A  
HETATM   15  C   UNL     1     -10.506  10.644  66.839  1.00  0.00    -0.304 A  
HETATM   16  C   UNL     1     -11.019  10.714  68.134  1.00  0.00    -0.321 A  
HETATM   17  C   UNL     1     -10.418  13.048  66.758  1.00  0.00    -0.264 A  
HETATM   18  C   UNL     1     -10.951  13.138  68.053  1.00  0.00    -0.270 A  
HETATM   19  C   UNL     1     -10.193  11.812  66.156  1.00  0.00    -0.255 A  
HETATM   20  C   UNL     1     -11.229  14.506  68.621  1.00  0.00    -0.281 C  
ENDBRANCH   7  14
ENDBRANCH   6   7
ENDBRANCH   5   6
ENDBRANCH   4   5
ENDBRANCH   2   4
TORSDOF 6
ENDMDL
MODEL      265
REMARK 921   NORMALIZED FREE ENERGY PREDICTED BY IDOCK:   -2.18 KCAL/MOL
REMARK 922        TOTAL FREE ENERGY PREDICTED BY IDOCK:   -4.00 KCAL/MOL
REMARK 923 INTER-LIGAND FREE ENERGY PREDICTED BY IDOCK:   -3.53 KCAL/MOL
REMARK 924 INTRA-LIGAND FREE ENERGY PREDICTED BY IDOCK:   -0.48 KCAL/MOL
REMARK 927      BINDING AFFINITY PREDICTED BY RF-SCORE:    0.00 PKD
ROOT
HETATM    1  C   UNL     1      -9.562   7.264  66.090  1.00  0.00     0.049 C  
HETATM    2  N   UNL     1      -9.120   6.039  66.757  1.00  0.00    -0.127 NA 
HETATM    3  C   UNL     1      -9.482   4.874  65.953  1.00  0.00    -0.164 C  
ENDROOT
BRANCH   2   4
HETATM    4  C   UNL     1      -7.670   6.111  67.009  1.00  0.00    -0.100 C  
BRANCH   4   5
HETATM    5  C   UNL     1      -7.259   6.949  68.235  1.00  0.00    -0.091 C  
BRANCH   5   6
HETATM    6  O   UNL     1      -8.245   6.959  69.275  1.00  0.00    -0.122 OA 
BRANCH   6   7
HETATM    7  C   UNL     1      -8.338   8.175  70.044  1.00  0.00    -0.122 C  
BRANCH   7   8
HETATM    8  C   UNL     1      -9.013   9.279  69.235  1.00  0.00    -0.147 A  
HETATM    9  C   UNL     1     -10.409   9.260  69.062  1.00  0.00    -0.228 A  
HETATM   10  C   UNL     1      -8.301  10.401  68.783  1.00  0.00    -0.134 A  
HETATM   11  C   UNL     1     -11.076  10.351  68.503  1.00  0.00    -0.318 A  
HETATM   12  C   UNL     1      -8.968  11.486  68.211  1.00  0.00    -0.177 A  
HETATM   13  C   UNL     1     -10.356  11.468  68.086  1.00  0.00    -0.211 A  
ENDBRANCH   7   8
BRANCH   7  14
HETATM   14  C   UNL     1      -9.012   7.868  71.384  1.00  0.00    -0.161 A  
HETATM   15  C   UNL     1     -11.045   7.310  72.625  1.00  0.00    -0.355 A  
HETATM   16  C   UNL     1     -10.387   7.558  71.420  1.00  0.00    -0.209 A  
HETATM   17  C   UNL     1      -8.978   7.652  73.810  1.00  0.00    -0.315 A  
HETATM   18  C   UNL     1      -8.295   7.885  72.606  1.00  0.00    -0.198 A  
HETATM   19  C   UNL     1     -10.343   7.372  73.821  1.00  0.00    -0.299 A  
HETATM   20  C   UNL     1      -6.808   8.120  72.659  1.00  0.00    -0.099 C  
ENDBRANCH   7  14
ENDBRANCH   6   7
ENDBRANCH   5   6
ENDBRANCH   4   5
ENDBRANCH   2   4
TORSDOF 6
ENDMDL
MODEL      266
REMARK 921   NORMALIZED FREE ENERGY PREDICTED BY IDOCK:   -2.18 KCAL/MOL
REMARK 922        TOTAL FREE ENERGY PREDICTED BY IDOCK:   -3.99 KCAL/MOL
REMARK 923 INTER-LIGAND FREE ENERGY PREDICTED BY IDOCK:   -3.24 KCAL/MOL
REMARK 924 INTRA-LIGAND FREE ENERGY PREDICTED BY IDOCK:   -0.76 KCAL/MOL
REMARK 927      BINDING AFFINITY PREDICTED BY RF-SCORE:    0.00 PKD
ROOT
HETATM    1  C   UNL     1      -7.938   8.578  67.966  1.00  0.00    -0.111 C  
HETATM    2  N   UNL     1      -7.781   9.671  68.927  1.00  0.00    -0.075 NA 
HETATM    3  C   UNL     1      -7.508  10.921  68.221  1.00  0.00    -0.093 C  
ENDROOT
BRANCH   2   4
HETATM    4  C   UNL     1      -8.986   9.762  69.771  1.00  0.00    -0.221 C  
BRANCH   4   5
HETATM    5  C   UNL     1      -9.029   8.783  70.959  1.00  0.00    -0.217 C  
BRANCH   5   6
HETATM    6  O   UNL     1      -9.956   7.705  70.776  1.00  0.00    -0.182 OA 
BRANCH   6   7
HETATM    7  C   UNL     1      -9.388   6.381  70.754  1.00  0.00    -0.158 C  
BRANCH   7   8
HETATM    8  C   UNL     1      -9.912   5.544  71.918  1.00  0.00    -0.227 A  
HETATM    9  C   UNL     1     -11.297   5.328  72.050  1.00  0.00    -0.019 A  
HETATM   10  C   UNL     1      -9.044   4.854  72.778  1.00  0.00    -0.135 A  
HETATM   11  C   UNL     1     -11.791   4.411  72.979  1.00  0.00     0.055 A  
HETATM   12  C   UNL     1      -9.543   3.947  73.716  1.00  0.00    -0.132 A  
HETATM   13  C   UNL     1     -10.914   3.714  73.805  1.00  0.00    -0.311 A  
ENDBRANCH   7   8
BRANCH   7  14
HETATM   14  C   UNL     1      -9.618   5.761  69.373  1.00  0.00    -0.179 A  
HETATM   15  C   UNL     1     -10.782   5.818  67.222  1.00  0.00    -0.345 A  
HETATM   16  C   UNL     1     -10.517   6.372  68.474  1.00  0.00    -0.265 A  
HETATM   17  C   UNL     1      -9.245   4.029  67.702  1.00  0.00    -0.193 A  
HETATM   18  C   UNL     1      -8.952   4.583  68.958  1.00  0.00    -0.151 A  
HETATM   19  C   UNL     1     -10.157   4.638  66.842  1.00  0.00    -0.227 A  
HETATM   20  C   UNL     1      -7.911   3.908  69.813  1.00  0.00    -0.051 C  
ENDBRANCH   7  14
ENDBRANCH   6   7
ENDBRANCH   5   6
ENDBRANCH   4   5
ENDBRANCH   2   4
TORSDOF 6
ENDMDL
MODEL      267
REMARK 921   NORMALIZED FREE ENERGY PREDICTED BY IDOCK:   -2.15 KCAL/MOL
REMARK 922        TOTAL FREE ENERGY PREDICTED BY IDOCK:   -3.96 KCAL/MOL
REMARK 923 INTER-LIGAND FREE ENERGY PREDICTED BY IDOCK:   -4.32 KCAL/MOL
REMARK 924 INTRA-LIGAND FREE ENERGY PREDICTED BY IDOCK:    0.36 KCAL/MOL
REMARK 927      BINDING AFFINITY PREDICTED BY RF-SCORE:    0.00 PKD
ROOT
HETATM    1  C   UNL     1      -6.091   8.545  71.304  1.00  0.00    -0.042 C  
HETATM    2  N   UNL     1      -6.060   8.785  69.860  1.00  0.00    -0.034 NA 
HETATM    3  C   UNL     1      -6.389   7.556  69.142  1.00  0.00    -0.035 C  
ENDROOT
BRANCH   2   4
HETATM    4  C   UNL     1      -6.978   9.887  69.524  1.00  0.00    -0.070 C  
BRANCH   4   5
HETATM    5  C   UNL     1      -8.368   9.805  70.183  1.00  0.00    -0.175 C  
BRANCH   5   6
HETATM    6  O   UNL     1      -9.345  10.651  69.563  1.00  0.00    -0.125 OA 
BRANCH   6   7
HETATM    7  C   UNL     1     -10.509   9.986  69.033  1.00  0.00    -0.214 C  
BRANCH   7   8
HETATM    8  C   UNL     1     -10.171   9.236  67.748  1.00  0.00    -0.271 A  
HETATM    9  C   UNL     1      -9.665   9.946  66.643  1.00  0.00    -0.252 A  
HETATM   10  C   UNL     1     -10.205   7.835  67.682  1.00  0.00    -0.282 A  
HETATM   11  C   UNL     1      -9.161   9.270  65.530  1.00  0.00    -0.292 A  
HETATM   12  C   UNL     1      -9.714   7.162  66.561  1.00  0.00    -0.199 A  
HETATM   13  C   UNL     1      -9.177   7.879  65.494  1.00  0.00     0.146 A  
ENDBRANCH   7   8
BRANCH   7  14
HETATM   14  C   UNL     1     -11.130   9.116  70.130  1.00  0.00    -0.248 A  
HETATM   15  C   UNL     1     -11.279   6.942  71.243  1.00  0.00    -0.306 A  
HETATM   16  C   UNL     1     -10.711   7.778  70.281  1.00  0.00    -0.237 A  
HETATM   17  C   UNL     1     -12.695   8.752  71.960  1.00  0.00    -0.444 A  
HETATM   18  C   UNL     1     -12.122   9.612  71.011  1.00  0.00    -0.421 A  
HETATM   19  C   UNL     1     -12.282   7.426  72.073  1.00  0.00    -0.315 A  
HETATM   20  C   UNL     1     -12.570  11.050  70.983  1.00  0.00    -0.512 C  
ENDBRANCH   7  14
ENDBRANCH   6   7
ENDBRANCH   5   6
ENDBRANCH   4   5
ENDBRANCH   2   4
TORSDOF 6
ENDMDL
MODEL      268
REMARK 921   NORMALIZED FREE ENERGY PREDICTED BY IDOCK:   -2.14 KCAL/MOL
REMARK 922        TOTAL FREE ENERGY PREDICTED BY IDOCK:   -3.95 KCAL/MOL
REMARK 923 INTER-LIGAND FREE ENERGY PREDICTED BY IDOCK:   -2.81 KCAL/MOL
REMARK 924 INTRA-LIGAND FREE ENERGY PREDICTED BY IDOCK:   -1.14 KCAL/MOL
REMARK 927      BINDING AFFINITY PREDICTED BY RF-SCORE:    0.00 PKD
ROOT
HETATM    1  C   UNL     1     -10.918   7.495  72.936  1.00  0.00    -0.383 C  
HETATM    2  N   UNL     1     -10.853   6.275  72.130  1.00  0.00    -0.231 NA 
HETATM    3  C   UNL     1     -11.264   5.124  72.932  1.00  0.00    -0.294 C  
ENDROOT
BRANCH   2   4
HETATM    4  C   UNL     1     -11.684   6.437  70.924  1.00  0.00    -0.303 C  
BRANCH   4   5
HETATM    5  C   UNL     1     -10.984   6.093  69.595  1.00  0.00    -0.389 C  
BRANCH   5   6
HETATM    6  O   UNL     1      -9.847   6.921  69.319  1.00  0.00    -0.155 OA 
BRANCH   6   7
HETATM    7  C   UNL     1      -8.571   6.250  69.290  1.00  0.00    -0.124 C  
BRANCH   7   8
HETATM    8  C   UNL     1      -7.794   6.614  68.028  1.00  0.00    -0.113 A  
HETATM    9  C   UNL     1      -8.277   7.631  67.183  1.00  0.00    -0.118 A  
HETATM   10  C   UNL     1      -6.528   6.070  67.760  1.00  0.00    -0.046 A  
HETATM   11  C   UNL     1      -7.496   8.122  66.136  1.00  0.00    -0.078 A  
HETATM   12  C   UNL     1      -5.754   6.554  66.703  1.00  0.00    -0.014 A  
HETATM   13  C   UNL     1      -6.230   7.590  65.903  1.00  0.00    -0.041 A  
ENDBRANCH   7   8
BRANCH   7  14
HETATM   14  C   UNL     1      -7.827   6.534  70.597  1.00  0.00    -0.106 A  
HETATM   15  C   UNL     1      -7.150   8.142  72.313  1.00  0.00    -0.102 A  
HETATM   16  C   UNL     1      -7.847   7.834  71.144  1.00  0.00    -0.089 A  
HETATM   17  C   UNL     1      -6.400   5.859  72.452  1.00  0.00    -0.053 A  
HETATM   18  C   UNL     1      -7.110   5.527  71.288  1.00  0.00    -0.071 A  
HETATM   19  C   UNL     1      -6.415   7.158  72.958  1.00  0.00    -0.064 A  
HETATM   20  C   UNL     1      -7.103   4.092  70.828  1.00  0.00    -0.033 C  
ENDBRANCH   7  14
ENDBRANCH   6   7
ENDBRANCH   5   6
ENDBRANCH   4   5
ENDBRANCH   2   4
TORSDOF 6
ENDMDL
MODEL      269
REMARK 921   NORMALIZED FREE ENERGY PREDICTED BY IDOCK:   -2.12 KCAL/MOL
REMARK 922        TOTAL FREE ENERGY PREDICTED BY IDOCK:   -3.92 KCAL/MOL
REMARK 923 INTER-LIGAND FREE ENERGY PREDICTED BY IDOCK:   -2.98 KCAL/MOL
REMARK 924 INTRA-LIGAND FREE ENERGY PREDICTED BY IDOCK:   -0.95 KCAL/MOL
REMARK 927      BINDING AFFINITY PREDICTED BY RF-SCORE:    0.00 PKD
ROOT
HETATM    1  C   UNL     1      -8.661   7.537  65.883  1.00  0.00    -0.151 C  
HETATM    2  N   UNL     1      -9.418   6.825  66.913  1.00  0.00    -0.150 NA 
HETATM    3  C   UNL     1     -10.443   5.989  66.292  1.00  0.00     0.032 C  
ENDROOT
BRANCH   2   4
HETATM    4  C   UNL     1      -8.493   6.039  67.750  1.00  0.00    -0.107 C  
BRANCH   4   5
HETATM    5  C   UNL     1      -7.534   6.871  68.622  1.00  0.00    -0.099 C  
BRANCH   5   6
HETATM    6  O   UNL     1      -7.701   6.646  70.028  1.00  0.00    -0.097 OA 
BRANCH   6   7
HETATM    7  C   UNL     1      -8.193   7.765  70.791  1.00  0.00    -0.107 C  
BRANCH   7   8
HETATM    8  C   UNL     1      -9.698   7.652  71.014  1.00  0.00    -0.169 A  
HETATM    9  C   UNL     1     -10.473   8.821  71.135  1.00  0.00    -0.315 A  
HETATM   10  C   UNL     1     -10.361   6.416  70.951  1.00  0.00    -0.246 A  
HETATM   11  C   UNL     1     -11.867   8.757  71.139  1.00  0.00    -0.345 A  
HETATM   12  C   UNL     1     -11.756   6.355  70.970  1.00  0.00    -0.358 A  
HETATM   13  C   UNL     1     -12.508   7.525  71.047  1.00  0.00    -0.243 A  
ENDBRANCH   7   8
BRANCH   7  14
HETATM   14  C   UNL     1      -7.369   7.895  72.076  1.00  0.00    -0.088 A  
HETATM   15  C   UNL     1      -7.081   7.340  74.441  1.00  0.00    -0.111 A  
HETATM   16  C   UNL     1      -7.782   7.217  73.242  1.00  0.00    -0.098 A  
HETATM   17  C   UNL     1      -5.510   8.807  73.357  1.00  0.00    -0.091 A  
HETATM   18  C   UNL     1      -6.193   8.680  72.137  1.00  0.00    -0.073 A  
HETATM   19  C   UNL     1      -5.953   8.147  74.502  1.00  0.00    -0.109 A  
HETATM   20  C   UNL     1      -5.626   9.370  70.924  1.00  0.00    -0.051 C  
ENDBRANCH   7  14
ENDBRANCH   6   7
ENDBRANCH   5   6
ENDBRANCH   4   5
ENDBRANCH   2   4
TORSDOF 6
ENDMDL
MODEL      270
REMARK 921   NORMALIZED FREE ENERGY PREDICTED BY IDOCK:   -2.09 KCAL/MOL
REMARK 922        TOTAL FREE ENERGY PREDICTED BY IDOCK:   -3.88 KCAL/MOL
REMARK 923 INTER-LIGAND FREE ENERGY PREDICTED BY IDOCK:   -3.59 KCAL/MOL
REMARK 924 INTRA-LIGAND FREE ENERGY PREDICTED BY IDOCK:   -0.30 KCAL/MOL
REMARK 927      BINDING AFFINITY PREDICTED BY RF-SCORE:    0.00 PKD
ROOT
HETATM    1  C   UNL     1     -14.297   8.978  71.980  1.00  0.00    -0.244 C  
HETATM    2  N   UNL     1     -12.899   8.560  72.090  1.00  0.00    -0.359 NA 
HETATM    3  C   UNL     1     -12.759   7.168  71.668  1.00  0.00    -0.379 C  
ENDROOT
BRANCH   2   4
HETATM    4  C   UNL     1     -12.049   9.468  71.300  1.00  0.00    -0.360 C  
BRANCH   4   5
HETATM    5  C   UNL     1     -10.873   8.793  70.569  1.00  0.00    -0.233 C  
BRANCH   5   6
HETATM    6  O   UNL     1     -10.949   8.903  69.142  1.00  0.00    -0.124 OA 
BRANCH   6   7
HETATM    7  C   UNL     1      -9.753   9.361  68.480  1.00  0.00    -0.149 C  
BRANCH   7   8
HETATM    8  C   UNL     1      -9.866  10.839  68.115  1.00  0.00    -0.171 A  
HETATM    9  C   UNL     1      -9.088  11.356  67.062  1.00  0.00    -0.169 A  
HETATM   10  C   UNL     1     -10.836  11.670  68.697  1.00  0.00    -0.253 A  
HETATM   11  C   UNL     1      -9.310  12.644  66.575  1.00  0.00    -0.228 A  
HETATM   12  C   UNL     1     -11.047  12.963  68.216  1.00  0.00    -0.294 A  
HETATM   13  C   UNL     1     -10.296  13.444  67.146  1.00  0.00    -0.246 A  
ENDBRANCH   7   8
BRANCH   7  14
HETATM   14  C   UNL     1      -8.539   9.013  69.345  1.00  0.00    -0.137 A  
HETATM   15  C   UNL     1      -6.975   9.657  71.113  1.00  0.00     0.097 A  
HETATM   16  C   UNL     1      -8.099   9.921  70.331  1.00  0.00    -0.026 A  
HETATM   17  C   UNL     1      -6.691   7.556  69.972  1.00  0.00    -0.046 A  
HETATM   18  C   UNL     1      -7.831   7.796  69.190  1.00  0.00    -0.114 A  
HETATM   19  C   UNL     1      -6.262   8.481  70.923  1.00  0.00    -0.036 A  
HETATM   20  C   UNL     1      -8.276   6.728  68.225  1.00  0.00    -0.115 C  
ENDBRANCH   7  14
ENDBRANCH   6   7
ENDBRANCH   5   6
ENDBRANCH   4   5
ENDBRANCH   2   4
TORSDOF 6
ENDMDL
MODEL      271
REMARK 921   NORMALIZED FREE ENERGY PREDICTED BY IDOCK:   -2.06 KCAL/MOL
REMARK 922        TOTAL FREE ENERGY PREDICTED BY IDOCK:   -3.83 KCAL/MOL
REMARK 923 INTER-LIGAND FREE ENERGY PREDICTED BY IDOCK:   -3.71 KCAL/MOL
REMARK 924 INTRA-LIGAND FREE ENERGY PREDICTED BY IDOCK:   -0.13 KCAL/MOL
REMARK 927      BINDING AFFINITY PREDICTED BY RF-SCORE:    0.00 PKD
ROOT
HETATM    1  C   UNL     1      -8.131  10.490  67.472  1.00  0.00    -0.107 C  
HETATM    2  N   UNL     1      -8.533   9.236  68.111  1.00  0.00    -0.120 NA 
HETATM    3  C   UNL     1      -9.297   8.419  67.169  1.00  0.00    -0.153 C  
ENDROOT
BRANCH   2   4
HETATM    4  C   UNL     1      -7.340   8.534  68.614  1.00  0.00    -0.088 C  
BRANCH   4   5
HETATM    5  C   UNL     1      -7.396   6.997  68.519  1.00  0.00    -0.100 C  
BRANCH   5   6
HETATM    6  O   UNL     1      -7.767   6.363  69.750  1.00  0.00    -0.103 OA 
BRANCH   6   7
HETATM    7  C   UNL     1      -9.110   5.841  69.810  1.00  0.00    -0.136 C  
BRANCH   7   8
HETATM    8  C   UNL     1      -9.097   4.335  70.058  1.00  0.00    -0.175 A  
HETATM    9  C   UNL     1      -8.314   3.502  69.238  1.00  0.00    -0.084 A  
HETATM   10  C   UNL     1      -9.726   3.768  71.178  1.00  0.00    -0.245 A  
HETATM   11  C   UNL     1      -8.124   2.157  69.559  1.00  0.00    -0.061 A  
HETATM   12  C   UNL     1      -9.545   2.419  71.488  1.00  0.00    -0.219 A  
HETATM   13  C   UNL     1      -8.732   1.618  70.689  1.00  0.00    -0.102 A  
ENDBRANCH   7   8
BRANCH   7  14
HETATM   14  C   UNL     1      -9.914   6.646  70.834  1.00  0.00    -0.204 A  
HETATM   15  C   UNL     1     -12.085   7.452  71.623  1.00  0.00    -0.349 A  
HETATM   16  C   UNL     1     -11.320   6.698  70.733  1.00  0.00    -0.389 A  
HETATM   17  C   UNL     1     -10.075   8.117  72.768  1.00  0.00    -0.367 A  
HETATM   18  C   UNL     1      -9.290   7.349  71.893  1.00  0.00    -0.157 A  
HETATM   19  C   UNL     1     -11.461   8.173  72.632  1.00  0.00    -0.454 A  
HETATM   20  C   UNL     1      -7.805   7.283  72.133  1.00  0.00    -0.092 C  
ENDBRANCH   7  14
ENDBRANCH   6   7
ENDBRANCH   5   6
ENDBRANCH   4   5
ENDBRANCH   2   4
TORSDOF 6
ENDMDL
MODEL      272
REMARK 921   NORMALIZED FREE ENERGY PREDICTED BY IDOCK:   -2.02 KCAL/MOL
REMARK 922        TOTAL FREE ENERGY PREDICTED BY IDOCK:   -3.78 KCAL/MOL
REMARK 923 INTER-LIGAND FREE ENERGY PREDICTED BY IDOCK:   -3.86 KCAL/MOL
REMARK 924 INTRA-LIGAND FREE ENERGY PREDICTED BY IDOCK:    0.08 KCAL/MOL
REMARK 927      BINDING AFFINITY PREDICTED BY RF-SCORE:    0.00 PKD
ROOT
HETATM    1  C   UNL     1      -5.915   6.539  71.298  1.00  0.00    -0.036 C  
HETATM    2  N   UNL     1      -5.671   7.785  70.570  1.00  0.00    -0.026 NA 
HETATM    3  C   UNL     1      -5.396   7.495  69.164  1.00  0.00    -0.015 C  
ENDROOT
BRANCH   2   4
HETATM    4  C   UNL     1      -6.825   8.687  70.735  1.00  0.00    -0.049 C  
BRANCH   4   5
HETATM    5  C   UNL     1      -8.180   8.103  70.294  1.00  0.00    -0.122 C  
BRANCH   5   6
HETATM    6  O   UNL     1      -8.532   8.435  68.945  1.00  0.00    -0.122 OA 
BRANCH   6   7
HETATM    7  C   UNL     1      -9.901   8.180  68.569  1.00  0.00    -0.179 C  
BRANCH   7   8
HETATM    8  C   UNL     1     -10.064   6.758  68.040  1.00  0.00    -0.183 A  
HETATM    9  C   UNL     1     -10.970   6.506  66.993  1.00  0.00    -0.466 A  
HETATM   10  C   UNL     1      -9.226   5.715  68.463  1.00  0.00    -0.131 A  
HETATM   11  C   UNL     1     -10.999   5.265  66.356  1.00  0.00    -0.059 A  
HETATM   12  C   UNL     1      -9.267   4.469  67.833  1.00  0.00    -0.162 A  
HETATM   13  C   UNL     1     -10.141   4.250  66.770  1.00  0.00    -0.116 A  
ENDBRANCH   7   8
BRANCH   7  14
HETATM   14  C   UNL     1     -10.815   8.528  69.747  1.00  0.00    -0.177 A  
HETATM   15  C   UNL     1     -11.908   7.835  71.823  1.00  0.00    -0.328 A  
HETATM   16  C   UNL     1     -11.052   7.570  70.754  1.00  0.00    -0.280 A  
HETATM   17  C   UNL     1     -12.313  10.036  70.937  1.00  0.00    -0.438 A  
HETATM   18  C   UNL     1     -11.440   9.793  69.864  1.00  0.00    -0.190 A  
HETATM   19  C   UNL     1     -12.550   9.063  71.906  1.00  0.00    -0.452 A  
HETATM   20  C   UNL     1     -11.180  10.909  68.886  1.00  0.00    -0.327 C  
ENDBRANCH   7  14
ENDBRANCH   6   7
ENDBRANCH   5   6
ENDBRANCH   4   5
ENDBRANCH   2   4
TORSDOF 6
ENDMDL
MODEL      273
REMARK 921   NORMALIZED FREE ENERGY PREDICTED BY IDOCK:   -1.94 KCAL/MOL
REMARK 922        TOTAL FREE ENERGY PREDICTED BY IDOCK:   -3.67 KCAL/MOL
REMARK 923 INTER-LIGAND FREE ENERGY PREDICTED BY IDOCK:   -3.00 KCAL/MOL
REMARK 924 INTRA-LIGAND FREE ENERGY PREDICTED BY IDOCK:   -0.67 KCAL/MOL
REMARK 927      BINDING AFFINITY PREDICTED BY RF-SCORE:    0.00 PKD
ROOT
HETATM    1  C   UNL     1      -8.309   3.916  72.467  1.00  0.00    -0.098 C  
HETATM    2  N   UNL     1      -8.694   4.521  71.191  1.00  0.00    -0.112 NA 
HETATM    3  C   UNL     1      -8.916   5.955  71.364  1.00  0.00    -0.140 C  
ENDROOT
BRANCH   2   4
HETATM    4  C   UNL     1      -7.660   4.238  70.179  1.00  0.00    -0.046 C  
BRANCH   4   5
HETATM    5  C   UNL     1      -8.194   3.895  68.776  1.00  0.00    -0.073 C  
BRANCH   5   6
HETATM    6  O   UNL     1      -8.044   4.963  67.832  1.00  0.00    -0.093 OA 
BRANCH   6   7
HETATM    7  C   UNL     1      -9.265   5.491  67.278  1.00  0.00    -0.110 C  
BRANCH   7   8
HETATM    8  C   UNL     1      -9.325   7.007  67.440  1.00  0.00    -0.141 A  
HETATM    9  C   UNL     1     -10.453   7.712  66.978  1.00  0.00    -0.419 A  
HETATM   10  C   UNL     1      -8.356   7.709  68.174  1.00  0.00    -0.124 A  
HETATM   11  C   UNL     1     -10.629   9.061  67.287  1.00  0.00    -0.301 A  
HETATM   12  C   UNL     1      -8.527   9.062  68.469  1.00  0.00    -0.128 A  
HETATM   13  C   UNL     1      -9.670   9.734  68.041  1.00  0.00    -0.165 A  
ENDBRANCH   7   8
BRANCH   7  14
HETATM   14  C   UNL     1      -9.412   5.001  65.834  1.00  0.00    -0.171 A  
HETATM   15  C   UNL     1     -10.737   3.822  64.150  1.00  0.00    -0.240 A  
HETATM   16  C   UNL     1     -10.582   4.317  65.444  1.00  0.00    -0.152 A  
HETATM   17  C   UNL     1      -8.568   4.690  63.571  1.00  0.00    -0.131 A  
HETATM   18  C   UNL     1      -8.403   5.212  64.864  1.00  0.00    -0.145 A  
HETATM   19  C   UNL     1      -9.724   3.996  63.217  1.00  0.00    -0.145 A  
HETATM   20  C   UNL     1      -7.157   6.005  65.162  1.00  0.00    -0.064 C  
ENDBRANCH   7  14
ENDBRANCH   6   7
ENDBRANCH   5   6
ENDBRANCH   4   5
ENDBRANCH   2   4
TORSDOF 6
ENDMDL
MODEL      274
REMARK 921   NORMALIZED FREE ENERGY PREDICTED BY IDOCK:   -1.92 KCAL/MOL
REMARK 922        TOTAL FREE ENERGY PREDICTED BY IDOCK:   -3.65 KCAL/MOL
REMARK 923 INTER-LIGAND FREE ENERGY PREDICTED BY IDOCK:   -2.93 KCAL/MOL
REMARK 924 INTRA-LIGAND FREE ENERGY PREDICTED BY IDOCK:   -0.72 KCAL/MOL
REMARK 927      BINDING AFFINITY PREDICTED BY RF-SCORE:    0.00 PKD
ROOT
HETATM    1  C   UNL     1      -9.161   4.311  68.049  1.00  0.00    -0.131 C  
HETATM    2  N   UNL     1     -10.165   5.009  68.854  1.00  0.00    -0.154 NA 
HETATM    3  C   UNL     1     -10.044   4.612  70.255  1.00  0.00    -0.206 C  
ENDROOT
BRANCH   2   4
HETATM    4  C   UNL     1     -10.017   6.464  68.674  1.00  0.00    -0.146 C  
BRANCH   4   5
HETATM    5  C   UNL     1     -10.931   7.086  67.601  1.00  0.00    -0.189 C  
BRANCH   5   6
HETATM    6  O   UNL     1     -10.212   7.632  66.487  1.00  0.00    -0.221 OA 
BRANCH   6   7
HETATM    7  C   UNL     1      -8.841   7.998  66.740  1.00  0.00    -0.140 C  
BRANCH   7   8
HETATM    8  C   UNL     1      -7.943   7.579  65.579  1.00  0.00    -0.121 A  
HETATM    9  C   UNL     1      -6.688   8.193  65.414  1.00  0.00    -0.052 A  
HETATM   10  C   UNL     1      -8.266   6.489  64.755  1.00  0.00    -0.073 A  
HETATM   11  C   UNL     1      -5.766   7.698  64.491  1.00  0.00    -0.037 A  
HETATM   12  C   UNL     1      -7.347   6.005  63.822  1.00  0.00    -0.066 A  
HETATM   13  C   UNL     1      -6.092   6.599  63.702  1.00  0.00    -0.034 A  
ENDBRANCH   7   8
BRANCH   7  14
HETATM   14  C   UNL     1      -8.777   9.489  67.085  1.00  0.00    -0.137 A  
HETATM   15  C   UNL     1      -8.130  11.245  68.660  1.00  0.00    -0.145 A  
HETATM   16  C   UNL     1      -8.174   9.901  68.292  1.00  0.00    -0.109 A  
HETATM   17  C   UNL     1      -9.272  11.828  66.622  1.00  0.00    -0.201 A  
HETATM   18  C   UNL     1      -9.308  10.482  66.226  1.00  0.00    -0.202 A  
HETATM   19  C   UNL     1      -8.692  12.207  67.832  1.00  0.00    -0.176 A  
HETATM   20  C   UNL     1      -9.893  10.146  64.879  1.00  0.00    -0.390 C  
ENDBRANCH   7  14
ENDBRANCH   6   7
ENDBRANCH   5   6
ENDBRANCH   4   5
ENDBRANCH   2   4
TORSDOF 6
ENDMDL
MODEL      275
REMARK 921   NORMALIZED FREE ENERGY PREDICTED BY IDOCK:   -1.91 KCAL/MOL
REMARK 922        TOTAL FREE ENERGY PREDICTED BY IDOCK:   -3.63 KCAL/MOL
REMARK 923 INTER-LIGAND FREE ENERGY PREDICTED BY IDOCK:   -2.56 KCAL/MOL
REMARK 924 INTRA-LIGAND FREE ENERGY PREDICTED BY IDOCK:   -1.07 KCAL/MOL
REMARK 927      BINDING AFFINITY PREDICTED BY RF-SCORE:    0.00 PKD
ROOT
HETATM    1  C   UNL     1      -8.695   3.689  71.780  1.00  0.00    -0.094 C  
HETATM    2  N   UNL     1      -9.262   4.067  70.485  1.00  0.00    -0.114 NA 
HETATM    3  C   UNL     1      -9.869   5.393  70.573  1.00  0.00    -0.203 C  
ENDROOT
BRANCH   2   4
HETATM    4  C   UNL     1      -8.215   4.004  69.450  1.00  0.00    -0.058 C  
BRANCH   4   5
HETATM    5  C   UNL     1      -8.454   2.963  68.340  1.00  0.00    -0.076 C  
BRANCH   5   6
HETATM    6  O   UNL     1      -9.355   3.413  67.321  1.00  0.00    -0.185 OA 
BRANCH   6   7
HETATM    7  C   UNL     1      -8.824   4.375  66.388  1.00  0.00    -0.114 C  
BRANCH   7   8
HETATM    8  C   UNL     1      -9.081   3.938  64.949  1.00  0.00    -0.141 A  
HETATM    9  C   UNL     1      -9.185   2.567  64.647  1.00  0.00    -0.136 A  
HETATM   10  C   UNL     1      -9.369   4.868  63.937  1.00  0.00     0.162 A  
HETATM   11  C   UNL     1      -9.615   2.144  63.388  1.00  0.00    -0.101 A  
HETATM   12  C   UNL     1      -9.785   4.441  62.675  1.00  0.00    -0.077 A  
HETATM   13  C   UNL     1      -9.924   3.081  62.406  1.00  0.00    -0.094 A  
ENDBRANCH   7   8
BRANCH   7  14
HETATM   14  C   UNL     1      -9.368   5.763  66.737  1.00  0.00    -0.140 A  
HETATM   15  C   UNL     1     -11.273   7.167  67.359  1.00  0.00    -0.057 A  
HETATM   16  C   UNL     1     -10.730   5.915  67.073  1.00  0.00    -0.396 A  
HETATM   17  C   UNL     1      -9.112   8.169  67.008  1.00  0.00    -0.170 A  
HETATM   18  C   UNL     1      -8.545   6.915  66.736  1.00  0.00    -0.120 A  
HETATM   19  C   UNL     1     -10.467   8.296  67.313  1.00  0.00    -0.373 A  
HETATM   20  C   UNL     1      -7.063   6.840  66.475  1.00  0.00    -0.071 C  
ENDBRANCH   7  14
ENDBRANCH   6   7
ENDBRANCH   5   6
ENDBRANCH   4   5
ENDBRANCH   2   4
TORSDOF 6
ENDMDL
MODEL      276
REMARK 921   NORMALIZED FREE ENERGY PREDICTED BY IDOCK:   -1.87 KCAL/MOL
REMARK 922        TOTAL FREE ENERGY PREDICTED BY IDOCK:   -3.58 KCAL/MOL
REMARK 923 INTER-LIGAND FREE ENERGY PREDICTED BY IDOCK:   -3.16 KCAL/MOL
REMARK 924 INTRA-LIGAND FREE ENERGY PREDICTED BY IDOCK:   -0.42 KCAL/MOL
REMARK 927      BINDING AFFINITY PREDICTED BY RF-SCORE:    0.00 PKD
ROOT
HETATM    1  C   UNL     1      -7.102   7.401  66.121  1.00  0.00    -0.069 C  
HETATM    2  N   UNL     1      -7.333   7.838  64.744  1.00  0.00    -0.071 NA 
HETATM    3  C   UNL     1      -7.773   6.708  63.928  1.00  0.00    -0.112 C  
ENDROOT
BRANCH   2   4
HETATM    4  C   UNL     1      -8.309   8.942  64.734  1.00  0.00    -0.175 C  
BRANCH   4   5
HETATM    5  C   UNL     1      -8.380   9.765  66.035  1.00  0.00    -0.120 C  
BRANCH   5   6
HETATM    6  O   UNL     1      -7.406  10.813  66.100  1.00  0.00    -0.134 OA 
BRANCH   6   7
HETATM    7  C   UNL     1      -7.693  11.884  67.021  1.00  0.00    -0.146 C  
BRANCH   7   8
HETATM    8  C   UNL     1      -9.192  11.985  67.289  1.00  0.00    -0.182 A  
HETATM    9  C   UNL     1      -9.722  11.464  68.484  1.00  0.00    -0.199 A  
HETATM   10  C   UNL     1     -10.042  12.719  66.446  1.00  0.00    -0.266 A  
HETATM   11  C   UNL     1     -11.045  11.715  68.848  1.00  0.00    -0.287 A  
HETATM   12  C   UNL     1     -11.370  12.956  66.807  1.00  0.00    -0.367 A  
HETATM   13  C   UNL     1     -11.866  12.469  68.014  1.00  0.00    -0.382 A  
ENDBRANCH   7   8
BRANCH   7  14
HETATM   14  C   UNL     1      -6.835  11.706  68.277  1.00  0.00    -0.067 A  
HETATM   15  C   UNL     1      -5.644  10.210  69.803  1.00  0.00    -0.038 A  
HETATM   16  C   UNL     1      -6.395  10.418  68.646  1.00  0.00    -0.051 A  
HETATM   17  C   UNL     1      -5.722  12.571  70.264  1.00  0.00    -0.165 A  
HETATM   18  C   UNL     1      -6.462  12.802  69.093  1.00  0.00    -0.109 A  
HETATM   19  C   UNL     1      -5.321  11.284  70.619  1.00  0.00    -0.124 A  
HETATM   20  C   UNL     1      -6.811  14.223  68.735  1.00  0.00    -0.099 C  
ENDBRANCH   7  14
ENDBRANCH   6   7
ENDBRANCH   5   6
ENDBRANCH   4   5
ENDBRANCH   2   4
TORSDOF 6
ENDMDL
MODEL      277
REMARK 921   NORMALIZED FREE ENERGY PREDICTED BY IDOCK:   -1.72 KCAL/MOL
REMARK 922        TOTAL FREE ENERGY PREDICTED BY IDOCK:   -3.38 KCAL/MOL
REMARK 923 INTER-LIGAND FREE ENERGY PREDICTED BY IDOCK:   -2.50 KCAL/MOL
REMARK 924 INTRA-LIGAND FREE ENERGY PREDICTED BY IDOCK:   -0.88 KCAL/MOL
REMARK 927      BINDING AFFINITY PREDICTED BY RF-SCORE:    0.00 PKD
ROOT
HETATM    1  C   UNL     1      -9.455   2.422  69.088  1.00  0.00    -0.074 C  
HETATM    2  N   UNL     1      -9.456   3.376  70.199  1.00  0.00    -0.178 NA 
HETATM    3  C   UNL     1      -8.395   3.040  71.146  1.00  0.00    -0.062 C  
ENDROOT
BRANCH   2   4
HETATM    4  C   UNL     1      -9.317   4.745  69.673  1.00  0.00    -0.133 C  
BRANCH   4   5
HETATM    5  C   UNL     1      -7.956   5.063  69.025  1.00  0.00    -0.080 C  
BRANCH   5   6
HETATM    6  O   UNL     1      -7.808   6.439  68.653  1.00  0.00    -0.099 OA 
BRANCH   6   7
HETATM    7  C   UNL     1      -8.508   6.849  67.461  1.00  0.00    -0.122 C  
BRANCH   7   8
HETATM    8  C   UNL     1      -8.200   8.305  67.123  1.00  0.00    -0.119 A  
HETATM    9  C   UNL     1      -8.919   8.947  66.097  1.00  0.00    -0.218 A  
HETATM   10  C   UNL     1      -7.325   9.073  67.905  1.00  0.00    -0.084 A  
HETATM   11  C   UNL     1      -8.804  10.323  65.897  1.00  0.00    -0.176 A  
HETATM   12  C   UNL     1      -7.201  10.448  67.694  1.00  0.00    -0.086 A  
HETATM   13  C   UNL     1      -7.952  11.075  66.702  1.00  0.00    -0.156 A  
ENDBRANCH   7   8
BRANCH   7  14
HETATM   14  C   UNL     1      -8.201   5.857  66.336  1.00  0.00    -0.112 A  
HETATM   15  C   UNL     1      -6.578   4.904  64.772  1.00  0.00    -0.043 A  
HETATM   16  C   UNL     1      -6.890   5.767  65.822  1.00  0.00    -0.060 A  
HETATM   17  C   UNL     1      -8.869   4.166  64.715  1.00  0.00    -0.135 A  
HETATM   18  C   UNL     1      -9.197   5.015  65.784  1.00  0.00    -0.159 A  
HETATM   19  C   UNL     1      -7.571   4.114  64.209  1.00  0.00    -0.072 A  
HETATM   20  C   UNL     1     -10.602   4.977  66.324  1.00  0.00    -0.332 C  
ENDBRANCH   7  14
ENDBRANCH   6   7
ENDBRANCH   5   6
ENDBRANCH   4   5
ENDBRANCH   2   4
TORSDOF 6
ENDMDL
MODEL      278
REMARK 921   NORMALIZED FREE ENERGY PREDICTED BY IDOCK:   -1.70 KCAL/MOL
REMARK 922        TOTAL FREE ENERGY PREDICTED BY IDOCK:   -3.35 KCAL/MOL
REMARK 923 INTER-LIGAND FREE ENERGY PREDICTED BY IDOCK:   -3.15 KCAL/MOL
REMARK 924 INTRA-LIGAND FREE ENERGY PREDICTED BY IDOCK:   -0.20 KCAL/MOL
REMARK 927      BINDING AFFINITY PREDICTED BY RF-SCORE:    0.00 PKD
ROOT
HETATM    1  C   UNL     1      -7.163   7.208  66.300  1.00  0.00    -0.075 C  
HETATM    2  N   UNL     1      -7.820   8.468  65.949  1.00  0.00    -0.096 NA 
HETATM    3  C   UNL     1      -8.904   8.220  65.001  1.00  0.00     0.070 C  
ENDROOT
BRANCH   2   4
HETATM    4  C   UNL     1      -8.296   9.133  67.175  1.00  0.00    -0.117 C  
BRANCH   4   5
HETATM    5  C   UNL     1      -8.427   8.218  68.408  1.00  0.00    -0.129 C  
BRANCH   5   6
HETATM    6  O   UNL     1      -9.524   8.565  69.262  1.00  0.00    -0.157 OA 
BRANCH   6   7
HETATM    7  C   UNL     1     -10.059   7.495  70.067  1.00  0.00    -0.199 C  
BRANCH   7   8
HETATM    8  C   UNL     1      -9.830   6.143  69.398  1.00  0.00    -0.191 A  
HETATM    9  C   UNL     1      -9.336   5.066  70.157  1.00  0.00    -0.215 A  
HETATM   10  C   UNL     1     -10.241   5.896  68.078  1.00  0.00    -0.224 A  
HETATM   11  C   UNL     1      -9.304   3.775  69.629  1.00  0.00    -0.245 A  
HETATM   12  C   UNL     1     -10.194   4.605  67.548  1.00  0.00    -0.068 A  
HETATM   13  C   UNL     1      -9.742   3.543  68.328  1.00  0.00    -0.061 A  
ENDBRANCH   7   8
BRANCH   7  14
HETATM   14  C   UNL     1      -9.492   7.605  71.485  1.00  0.00    -0.166 A  
HETATM   15  C   UNL     1      -7.557   7.942  72.944  1.00  0.00    -0.150 A  
HETATM   16  C   UNL     1      -8.119   7.872  71.670  1.00  0.00    -0.120 A  
HETATM   17  C   UNL     1      -9.719   7.502  73.908  1.00  0.00    -0.232 A  
HETATM   18  C   UNL     1     -10.305   7.447  72.633  1.00  0.00    -0.292 A  
HETATM   19  C   UNL     1      -8.355   7.743  74.063  1.00  0.00    -0.285 A  
HETATM   20  C   UNL     1     -11.795   7.246  72.538  1.00  0.00    -0.195 C  
ENDBRANCH   7  14
ENDBRANCH   6   7
ENDBRANCH   5   6
ENDBRANCH   4   5
ENDBRANCH   2   4
TORSDOF 6
ENDMDL
MODEL      279
REMARK 921   NORMALIZED FREE ENERGY PREDICTED BY IDOCK:   -1.67 KCAL/MOL
REMARK 922        TOTAL FREE ENERGY PREDICTED BY IDOCK:   -3.31 KCAL/MOL
REMARK 923 INTER-LIGAND FREE ENERGY PREDICTED BY IDOCK:   -3.75 KCAL/MOL
REMARK 924 INTRA-LIGAND FREE ENERGY PREDICTED BY IDOCK:    0.44 KCAL/MOL
REMARK 927      BINDING AFFINITY PREDICTED BY RF-SCORE:    0.00 PKD
ROOT
HETATM    1  C   UNL     1     -12.120  12.136  68.065  1.00  0.00     0.026 C  
HETATM    2  N   UNL     1     -11.265  12.537  66.948  1.00  0.00    -0.285 NA 
HETATM    3  C   UNL     1     -12.061  13.215  65.927  1.00  0.00    -0.444 C  
ENDROOT
BRANCH   2   4
HETATM    4  C   UNL     1     -10.167  13.384  67.447  1.00  0.00    -0.237 C  
BRANCH   4   5
HETATM    5  C   UNL     1      -8.749  12.847  67.172  1.00  0.00    -0.205 C  
BRANCH   5   6
HETATM    6  O   UNL     1      -8.467  11.612  67.841  1.00  0.00    -0.135 OA 
BRANCH   6   7
HETATM    7  C   UNL     1      -9.254  10.477  67.428  1.00  0.00    -0.142 C  
BRANCH   7   8
HETATM    8  C   UNL     1      -8.676   9.845  66.165  1.00  0.00    -0.150 A  
HETATM    9  C   UNL     1      -9.319  10.050  64.929  1.00  0.00    -0.324 A  
HETATM   10  C   UNL     1      -7.436   9.189  66.171  1.00  0.00    -0.095 A  
HETATM   11  C   UNL     1      -8.713   9.656  63.735  1.00  0.00    -0.241 A  
HETATM   12  C   UNL     1      -6.839   8.784  64.975  1.00  0.00    -0.072 A  
HETATM   13  C   UNL     1      -7.469   9.032  63.758  1.00  0.00    -0.107 A  
ENDBRANCH   7   8
BRANCH   7  14
HETATM   14  C   UNL     1      -9.400   9.514  68.609  1.00  0.00    -0.142 A  
HETATM   15  C   UNL     1     -10.594   7.652  69.655  1.00  0.00    -0.243 A  
HETATM   16  C   UNL     1     -10.404   8.523  68.583  1.00  0.00    -0.224 A  
HETATM   17  C   UNL     1      -8.772   8.709  70.821  1.00  0.00    -0.202 A  
HETATM   18  C   UNL     1      -8.554   9.581  69.743  1.00  0.00    -0.201 A  
HETATM   19  C   UNL     1      -9.787   7.754  70.780  1.00  0.00    -0.183 A  
HETATM   20  C   UNL     1      -7.401  10.548  69.825  1.00  0.00    -0.139 C  
ENDBRANCH   7  14
ENDBRANCH   6   7
ENDBRANCH   5   6
ENDBRANCH   4   5
ENDBRANCH   2   4
TORSDOF 6
ENDMDL
MODEL      280
REMARK 921   NORMALIZED FREE ENERGY PREDICTED BY IDOCK:   -1.56 KCAL/MOL
REMARK 922        TOTAL FREE ENERGY PREDICTED BY IDOCK:   -3.16 KCAL/MOL
REMARK 923 INTER-LIGAND FREE ENERGY PREDICTED BY IDOCK:   -2.98 KCAL/MOL
REMARK 924 INTRA-LIGAND FREE ENERGY PREDICTED BY IDOCK:   -0.18 KCAL/MOL
REMARK 927      BINDING AFFINITY PREDICTED BY RF-SCORE:    0.00 PKD
ROOT
HETATM    1  C   UNL     1     -11.783  12.217  68.255  1.00  0.00    -0.342 C  
HETATM    2  N   UNL     1     -11.141  12.959  67.168  1.00  0.00    -0.266 NA 
HETATM    3  C   UNL     1     -12.069  13.948  66.624  1.00  0.00    -0.448 C  
ENDROOT
BRANCH   2   4
HETATM    4  C   UNL     1      -9.897  13.577  67.660  1.00  0.00    -0.228 C  
BRANCH   4   5
HETATM    5  C   UNL     1      -8.615  13.138  66.929  1.00  0.00    -0.109 C  
BRANCH   5   6
HETATM    6  O   UNL     1      -8.444  11.716  66.880  1.00  0.00    -0.158 OA 
BRANCH   6   7
HETATM    7  C   UNL     1      -7.126  11.251  66.527  1.00  0.00    -0.097 C  
BRANCH   7   8
HETATM    8  C   UNL     1      -6.426  10.632  67.733  1.00  0.00    -0.060 A  
HETATM    9  C   UNL     1      -5.642  11.443  68.574  1.00  0.00    -0.042 A  
HETATM   10  C   UNL     1      -6.661   9.303  68.118  1.00  0.00    -0.059 A  
HETATM   11  C   UNL     1      -5.155  10.954  69.787  1.00  0.00    -0.042 A  
HETATM   12  C   UNL     1      -6.160   8.812  69.325  1.00  0.00    -0.042 A  
HETATM   13  C   UNL     1      -5.422   9.642  70.167  1.00  0.00    -0.040 A  
ENDBRANCH   7   8
BRANCH   7  14
HETATM   14  C   UNL     1      -7.232  10.327  65.310  1.00  0.00    -0.134 A  
HETATM   15  C   UNL     1      -6.189   9.361  63.319  1.00  0.00    -0.092 A  
HETATM   16  C   UNL     1      -6.120  10.164  64.458  1.00  0.00    -0.133 A  
HETATM   17  C   UNL     1      -8.477   8.833  63.845  1.00  0.00    -0.110 A  
HETATM   18  C   UNL     1      -8.421   9.621  65.006  1.00  0.00    -0.160 A  
HETATM   19  C   UNL     1      -7.372   8.707  63.006  1.00  0.00    -0.097 A  
HETATM   20  C   UNL     1      -9.630   9.664  65.902  1.00  0.00    -0.321 C  
ENDBRANCH   7  14
ENDBRANCH   6   7
ENDBRANCH   5   6
ENDBRANCH   4   5
ENDBRANCH   2   4
TORSDOF 6
ENDMDL
MODEL      281
REMARK 921   NORMALIZED FREE ENERGY PREDICTED BY IDOCK:   -1.53 KCAL/MOL
REMARK 922        TOTAL FREE ENERGY PREDICTED BY IDOCK:   -3.11 KCAL/MOL
REMARK 923 INTER-LIGAND FREE ENERGY PREDICTED BY IDOCK:   -2.43 KCAL/MOL
REMARK 924 INTRA-LIGAND FREE ENERGY PREDICTED BY IDOCK:   -0.68 KCAL/MOL
REMARK 927      BINDING AFFINITY PREDICTED BY RF-SCORE:    0.00 PKD
ROOT
HETATM    1  C   UNL     1      -6.541   6.285  64.133  1.00  0.00    -0.034 C  
HETATM    2  N   UNL     1      -6.802   7.403  63.224  1.00  0.00    -0.053 NA 
HETATM    3  C   UNL     1      -7.943   7.093  62.365  1.00  0.00    -0.131 C  
ENDROOT
BRANCH   2   4
HETATM    4  C   UNL     1      -7.014   8.634  64.006  1.00  0.00    -0.082 C  
BRANCH   4   5
HETATM    5  C   UNL     1      -7.159   8.428  65.526  1.00  0.00    -0.074 C  
BRANCH   5   6
HETATM    6  O   UNL     1      -6.932   9.621  66.287  1.00  0.00    -0.088 OA 
BRANCH   6   7
HETATM    7  C   UNL     1      -8.057  10.106  67.048  1.00  0.00    -0.117 C  
BRANCH   7   8
HETATM    8  C   UNL     1      -8.583   9.027  67.989  1.00  0.00    -0.129 A  
HETATM    9  C   UNL     1      -9.943   8.666  67.942  1.00  0.00    -0.232 A  
HETATM   10  C   UNL     1      -7.721   8.272  68.800  1.00  0.00    -0.114 A  
HETATM   11  C   UNL     1     -10.412   7.553  68.642  1.00  0.00    -0.207 A  
HETATM   12  C   UNL     1      -8.196   7.168  69.511  1.00  0.00    -0.132 A  
HETATM   13  C   UNL     1      -9.536   6.800  69.419  1.00  0.00    -0.146 A  
ENDBRANCH   7   8
BRANCH   7  14
HETATM   14  C   UNL     1      -7.664  11.415  67.739  1.00  0.00    -0.115 A  
HETATM   15  C   UNL     1      -6.050  12.669  69.082  1.00  0.00    -0.092 A  
HETATM   16  C   UNL     1      -6.427  11.508  68.408  1.00  0.00    -0.051 A  
HETATM   17  C   UNL     1      -8.123  13.705  68.430  1.00  0.00    -0.146 A  
HETATM   18  C   UNL     1      -8.510  12.551  67.730  1.00  0.00    -0.171 A  
HETATM   19  C   UNL     1      -6.905  13.763  69.105  1.00  0.00    -0.102 A  
HETATM   20  C   UNL     1      -9.810  12.576  66.970  1.00  0.00    -0.217 C  
ENDBRANCH   7  14
ENDBRANCH   6   7
ENDBRANCH   5   6
ENDBRANCH   4   5
ENDBRANCH   2   4
TORSDOF 6
ENDMDL
MODEL      282
REMARK 921   NORMALIZED FREE ENERGY PREDICTED BY IDOCK:   -1.46 KCAL/MOL
REMARK 922        TOTAL FREE ENERGY PREDICTED BY IDOCK:   -3.03 KCAL/MOL
REMARK 923 INTER-LIGAND FREE ENERGY PREDICTED BY IDOCK:   -3.71 KCAL/MOL
REMARK 924 INTRA-LIGAND FREE ENERGY PREDICTED BY IDOCK:    0.68 KCAL/MOL
REMARK 927      BINDING AFFINITY PREDICTED BY RF-SCORE:    0.00 PKD
ROOT
HETATM    1  C   UNL     1      -6.066   9.251  69.895  1.00  0.00    -0.038 C  
HETATM    2  N   UNL     1      -5.754   8.183  70.846  1.00  0.00    -0.033 NA 
HETATM    3  C   UNL     1      -6.579   8.325  72.044  1.00  0.00    -0.069 C  
ENDROOT
BRANCH   2   4
HETATM    4  C   UNL     1      -5.940   6.874  70.196  1.00  0.00    -0.024 C  
BRANCH   4   5
HETATM    5  C   UNL     1      -7.375   6.316  70.247  1.00  0.00    -0.089 C  
BRANCH   5   6
HETATM    6  O   UNL     1      -8.278   6.980  69.355  1.00  0.00    -0.128 OA 
BRANCH   6   7
HETATM    7  C   UNL     1      -9.627   6.474  69.331  1.00  0.00    -0.144 C  
BRANCH   7   8
HETATM    8  C   UNL     1      -9.639   4.966  69.100  1.00  0.00    -0.231 A  
HETATM    9  C   UNL     1      -9.632   4.464  67.785  1.00  0.00    -0.211 A  
HETATM   10  C   UNL     1      -9.505   4.057  70.161  1.00  0.00    -0.258 A  
HETATM   11  C   UNL     1      -9.442   3.103  67.540  1.00  0.00    -0.189 A  
HETATM   12  C   UNL     1      -9.329   2.694  69.914  1.00  0.00    -0.191 A  
HETATM   13  C   UNL     1      -9.282   2.220  68.605  1.00  0.00    -0.227 A  
ENDBRANCH   7   8
BRANCH   7  14
HETATM   14  C   UNL     1     -10.353   6.927  70.602  1.00  0.00    -0.220 A  
HETATM   15  C   UNL     1     -11.153   6.403  72.853  1.00  0.00    -0.259 A  
HETATM   16  C   UNL     1     -10.467   6.042  71.694  1.00  0.00    -0.276 A  
HETATM   17  C   UNL     1     -11.623   8.558  71.889  1.00  0.00    -0.410 A  
HETATM   18  C   UNL     1     -10.920   8.219  70.722  1.00  0.00    -0.266 A  
HETATM   19  C   UNL     1     -11.743   7.656  72.945  1.00  0.00    -0.204 A  
HETATM   20  C   UNL     1     -10.774   9.261  69.644  1.00  0.00    -0.244 C  
ENDBRANCH   7  14
ENDBRANCH   6   7
ENDBRANCH   5   6
ENDBRANCH   4   5
ENDBRANCH   2   4
TORSDOF 6
ENDMDL
MODEL      283
REMARK 921   NORMALIZED FREE ENERGY PREDICTED BY IDOCK:   -1.43 KCAL/MOL
REMARK 922        TOTAL FREE ENERGY PREDICTED BY IDOCK:   -2.99 KCAL/MOL
REMARK 923 INTER-LIGAND FREE ENERGY PREDICTED BY IDOCK:   -2.91 KCAL/MOL
REMARK 924 INTRA-LIGAND FREE ENERGY PREDICTED BY IDOCK:   -0.07 KCAL/MOL
REMARK 927      BINDING AFFINITY PREDICTED BY RF-SCORE:    0.00 PKD
ROOT
HETATM    1  C   UNL     1     -10.890  10.750  68.149  1.00  0.00    -0.236 C  
HETATM    2  N   UNL     1      -9.890  10.466  67.119  1.00  0.00    -0.175 NA 
HETATM    3  C   UNL     1      -8.857  11.501  67.127  1.00  0.00    -0.168 C  
ENDROOT
BRANCH   2   4
HETATM    4  C   UNL     1      -9.329   9.121  67.334  1.00  0.00    -0.134 C  
BRANCH   4   5
HETATM    5  C   UNL     1      -9.489   8.566  68.762  1.00  0.00    -0.143 C  
BRANCH   5   6
HETATM    6  O   UNL     1     -10.291   7.380  68.826  1.00  0.00    -0.191 OA 
BRANCH   6   7
HETATM    7  C   UNL     1      -9.804   6.335  69.692  1.00  0.00    -0.163 C  
BRANCH   7   8
HETATM    8  C   UNL     1      -8.314   6.092  69.466  1.00  0.00    -0.115 A  
HETATM    9  C   UNL     1      -7.853   5.746  68.183  1.00  0.00    -0.104 A  
HETATM   10  C   UNL     1      -7.366   6.351  70.468  1.00  0.00    -0.085 A  
HETATM   11  C   UNL     1      -6.487   5.712  67.899  1.00  0.00    -0.044 A  
HETATM   12  C   UNL     1      -6.000   6.302  70.185  1.00  0.00    -0.026 A  
HETATM   13  C   UNL     1      -5.561   5.999  68.898  1.00  0.00    -0.011 A  
ENDBRANCH   7   8
BRANCH   7  14
HETATM   14  C   UNL     1     -10.181   6.668  71.138  1.00  0.00    -0.216 A  
HETATM   15  C   UNL     1     -10.729   8.357  72.821  1.00  0.00    -0.201 A  
HETATM   16  C   UNL     1     -10.421   8.009  71.506  1.00  0.00    -0.265 A  
HETATM   17  C   UNL     1     -10.591   6.039  73.455  1.00  0.00    -0.277 A  
HETATM   18  C   UNL     1     -10.299   5.668  72.133  1.00  0.00    -0.256 A  
HETATM   19  C   UNL     1     -10.799   7.373  73.798  1.00  0.00     0.109 A  
HETATM   20  C   UNL     1     -10.146   4.203  71.817  1.00  0.00    -0.212 C  
ENDBRANCH   7  14
ENDBRANCH   6   7
ENDBRANCH   5   6
ENDBRANCH   4   5
ENDBRANCH   2   4
TORSDOF 6
ENDMDL
MODEL      284
REMARK 921   NORMALIZED FREE ENERGY PREDICTED BY IDOCK:   -1.38 KCAL/MOL
REMARK 922        TOTAL FREE ENERGY PREDICTED BY IDOCK:   -2.92 KCAL/MOL
REMARK 923 INTER-LIGAND FREE ENERGY PREDICTED BY IDOCK:   -2.05 KCAL/MOL
REMARK 924 INTRA-LIGAND FREE ENERGY PREDICTED BY IDOCK:   -0.87 KCAL/MOL
REMARK 927      BINDING AFFINITY PREDICTED BY RF-SCORE:    0.00 PKD
ROOT
HETATM    1  C   UNL     1      -9.031   4.711  68.929  1.00  0.00    -0.108 C  
HETATM    2  N   UNL     1      -9.710   5.410  70.022  1.00  0.00    -0.170 NA 
HETATM    3  C   UNL     1      -9.160   4.982  71.306  1.00  0.00    -0.143 C  
ENDROOT
BRANCH   2   4
HETATM    4  C   UNL     1      -9.591   6.866  69.825  1.00  0.00    -0.154 C  
BRANCH   4   5
HETATM    5  C   UNL     1     -10.145   7.393  68.488  1.00  0.00    -0.175 C  
BRANCH   5   6
HETATM    6  O   UNL     1      -9.595   8.658  68.101  1.00  0.00    -0.143 OA 
BRANCH   6   7
HETATM    7  C   UNL     1      -8.185   8.667  67.801  1.00  0.00    -0.118 C  
BRANCH   7   8
HETATM    8  C   UNL     1      -7.943   9.008  66.333  1.00  0.00    -0.103 A  
HETATM    9  C   UNL     1      -6.835   8.455  65.664  1.00  0.00    -0.066 A  
HETATM   10  C   UNL     1      -8.879   9.738  65.583  1.00  0.00    -0.182 A  
HETATM   11  C   UNL     1      -6.697   8.585  64.281  1.00  0.00    -0.071 A  
HETATM   12  C   UNL     1      -8.731   9.878  64.202  1.00  0.00    -0.224 A  
HETATM   13  C   UNL     1      -7.650   9.288  63.549  1.00  0.00    -0.107 A  
ENDBRANCH   7   8
BRANCH   7  14
HETATM   14  C   UNL     1      -7.468   9.588  68.792  1.00  0.00    -0.075 A  
HETATM   15  C   UNL     1      -7.025  11.856  69.596  1.00  0.00     0.132 A  
HETATM   16  C   UNL     1      -7.688  10.980  68.736  1.00  0.00    -0.135 A  
HETATM   17  C   UNL     1      -5.910   9.985  70.621  1.00  0.00    -0.087 A  
HETATM   18  C   UNL     1      -6.582   9.087  69.776  1.00  0.00    -0.045 A  
HETATM   19  C   UNL     1      -6.125  11.359  70.529  1.00  0.00    -0.045 A  
HETATM   20  C   UNL     1      -6.351   7.611  69.969  1.00  0.00    -0.034 C  
ENDBRANCH   7  14
ENDBRANCH   6   7
ENDBRANCH   5   6
ENDBRANCH   4   5
ENDBRANCH   2   4
TORSDOF 6
ENDMDL
MODEL      285
REMARK 921   NORMALIZED FREE ENERGY PREDICTED BY IDOCK:   -1.18 KCAL/MOL
REMARK 922        TOTAL FREE ENERGY PREDICTED BY IDOCK:   -2.65 KCAL/MOL
REMARK 923 INTER-LIGAND FREE ENERGY PREDICTED BY IDOCK:   -4.75 KCAL/MOL
REMARK 924 INTRA-LIGAND FREE ENERGY PREDICTED BY IDOCK:    2.10 KCAL/MOL
REMARK 927      BINDING AFFINITY PREDICTED BY RF-SCORE:    0.00 PKD
ROOT
HETATM    1  C   UNL     1     -13.287  13.715  71.392  1.00  0.00    -0.248 C  
HETATM    2  N   UNL     1     -12.461  14.482  70.458  1.00  0.00    -0.327 NA 
HETATM    3  C   UNL     1     -11.252  14.952  71.131  1.00  0.00    -0.143 C  
ENDROOT
BRANCH   2   4
HETATM    4  C   UNL     1     -12.154  13.655  69.278  1.00  0.00    -0.314 C  
BRANCH   4   5
HETATM    5  C   UNL     1     -11.198  12.474  69.536  1.00  0.00    -0.093 C  
BRANCH   5   6
HETATM    6  O   UNL     1     -10.054  12.467  68.673  1.00  0.00    -0.210 OA 
BRANCH   6   7
HETATM    7  C   UNL     1      -9.815  11.241  67.953  1.00  0.00    -0.176 C  
BRANCH   7   8
HETATM    8  C   UNL     1     -10.527  10.069  68.623  1.00  0.00    -0.228 A  
HETATM    9  C   UNL     1     -10.156   8.752  68.295  1.00  0.00    -0.220 A  
HETATM   10  C   UNL     1     -11.440  10.264  69.671  1.00  0.00    -0.297 A  
HETATM   11  C   UNL     1     -10.643   7.669  69.028  1.00  0.00    -0.186 A  
HETATM   12  C   UNL     1     -11.936   9.177  70.394  1.00  0.00     0.018 A  
HETATM   13  C   UNL     1     -11.526   7.883  70.083  1.00  0.00    -0.025 A  
ENDBRANCH   7   8
BRANCH   7  14
HETATM   14  C   UNL     1     -10.180  11.448  66.481  1.00  0.00    -0.259 A  
HETATM   15  C   UNL     1     -11.402  12.722  64.787  1.00  0.00    -0.346 A  
HETATM   16  C   UNL     1     -11.016  12.523  66.112  1.00  0.00    -0.318 A  
HETATM   17  C   UNL     1     -10.117  10.793  64.136  1.00  0.00    -0.418 A  
HETATM   18  C   UNL     1      -9.703  10.588  65.461  1.00  0.00    -0.298 A  
HETATM   19  C   UNL     1     -10.964  11.848  63.801  1.00  0.00    -0.494 A  
HETATM   20  C   UNL     1      -8.739   9.467  65.746  1.00  0.00    -0.170 C  
ENDBRANCH   7  14
ENDBRANCH   6   7
ENDBRANCH   5   6
ENDBRANCH   4   5
ENDBRANCH   2   4
TORSDOF 6
ENDMDL
MODEL      286
REMARK 921   NORMALIZED FREE ENERGY PREDICTED BY IDOCK:   -1.18 KCAL/MOL
REMARK 922        TOTAL FREE ENERGY PREDICTED BY IDOCK:   -2.64 KCAL/MOL
REMARK 923 INTER-LIGAND FREE ENERGY PREDICTED BY IDOCK:   -2.32 KCAL/MOL
REMARK 924 INTRA-LIGAND FREE ENERGY PREDICTED BY IDOCK:   -0.32 KCAL/MOL
REMARK 927      BINDING AFFINITY PREDICTED BY RF-SCORE:    0.00 PKD
ROOT
HETATM    1  C   UNL     1      -8.973   2.805  67.004  1.00  0.00    -0.156 C  
HETATM    2  N   UNL     1      -9.520   2.906  68.358  1.00  0.00    -0.185 NA 
HETATM    3  C   UNL     1      -9.030   1.800  69.178  1.00  0.00    -0.093 C  
ENDROOT
BRANCH   2   4
HETATM    4  C   UNL     1      -9.174   4.218  68.932  1.00  0.00    -0.145 C  
BRANCH   4   5
HETATM    5  C   UNL     1     -10.192   5.341  68.659  1.00  0.00    -0.153 C  
BRANCH   5   6
HETATM    6  O   UNL     1      -9.739   6.300  67.695  1.00  0.00    -0.117 OA 
BRANCH   6   7
HETATM    7  C   UNL     1      -8.317   6.536  67.661  1.00  0.00    -0.121 C  
BRANCH   7   8
HETATM    8  C   UNL     1      -7.766   6.341  66.252  1.00  0.00    -0.099 A  
HETATM    9  C   UNL     1      -8.312   7.079  65.184  1.00  0.00    -0.078 A  
HETATM   10  C   UNL     1      -6.627   5.558  66.008  1.00  0.00    -0.048 A  
HETATM   11  C   UNL     1      -7.704   7.073  63.928  1.00  0.00    -0.119 A  
HETATM   12  C   UNL     1      -6.030   5.544  64.746  1.00  0.00    -0.022 A  
HETATM   13  C   UNL     1      -6.558   6.313  63.712  1.00  0.00    -0.030 A  
ENDBRANCH   7   8
BRANCH   7  14
HETATM   14  C   UNL     1      -8.024   7.909  68.273  1.00  0.00    -0.122 A  
HETATM   15  C   UNL     1      -6.516   9.352  69.549  1.00  0.00    -0.043 A  
HETATM   16  C   UNL     1      -6.804   8.128  68.946  1.00  0.00    -0.061 A  
HETATM   17  C   UNL     1      -8.646  10.201  68.815  1.00  0.00    -0.133 A  
HETATM   18  C   UNL     1      -8.945   8.982  68.186  1.00  0.00    -0.133 A  
HETATM   19  C   UNL     1      -7.444  10.384  69.496  1.00  0.00    -0.148 A  
HETATM   20  C   UNL     1     -10.234   8.870  67.415  1.00  0.00    -0.313 C  
ENDBRANCH   7  14
ENDBRANCH   6   7
ENDBRANCH   5   6
ENDBRANCH   4   5
ENDBRANCH   2   4
TORSDOF 6
ENDMDL
MODEL      287
REMARK 921   NORMALIZED FREE ENERGY PREDICTED BY IDOCK:   -1.16 KCAL/MOL
REMARK 922        TOTAL FREE ENERGY PREDICTED BY IDOCK:   -2.62 KCAL/MOL
REMARK 923 INTER-LIGAND FREE ENERGY PREDICTED BY IDOCK:   -2.25 KCAL/MOL
REMARK 924 INTRA-LIGAND FREE ENERGY PREDICTED BY IDOCK:   -0.37 KCAL/MOL
REMARK 927      BINDING AFFINITY PREDICTED BY RF-SCORE:    0.00 PKD
ROOT
HETATM    1  C   UNL     1      -7.691   8.026  70.911  1.00  0.00    -0.084 C  
HETATM    2  N   UNL     1      -6.312   7.536  70.931  1.00  0.00    -0.038 NA 
HETATM    3  C   UNL     1      -6.267   6.193  71.506  1.00  0.00    -0.044 C  
ENDROOT
BRANCH   2   4
HETATM    4  C   UNL     1      -5.756   7.574  69.567  1.00  0.00    -0.023 C  
BRANCH   4   5
HETATM    5  C   UNL     1      -6.693   8.159  68.493  1.00  0.00    -0.063 C  
BRANCH   5   6
HETATM    6  O   UNL     1      -6.096   8.231  67.192  1.00  0.00    -0.052 OA 
BRANCH   6   7
HETATM    7  C   UNL     1      -6.803   7.551  66.136  1.00  0.00    -0.061 C  
BRANCH   7   8
HETATM    8  C   UNL     1      -8.274   7.364  66.497  1.00  0.00    -0.120 A  
HETATM    9  C   UNL     1      -8.741   6.090  66.871  1.00  0.00    -0.112 A  
HETATM   10  C   UNL     1      -9.147   8.456  66.615  1.00  0.00    -0.202 A  
HETATM   11  C   UNL     1     -10.024   5.925  67.396  1.00  0.00    -0.172 A  
HETATM   12  C   UNL     1     -10.435   8.285  67.127  1.00  0.00    -0.386 A  
HETATM   13  C   UNL     1     -10.867   7.024  67.532  1.00  0.00    -0.338 A  
ENDBRANCH   7   8
BRANCH   7  14
HETATM   14  C   UNL     1      -6.562   8.290  64.817  1.00  0.00    -0.067 A  
HETATM   15  C   UNL     1      -6.025  10.376  63.656  1.00  0.00    -0.113 A  
HETATM   16  C   UNL     1      -6.215   9.657  64.836  1.00  0.00    -0.085 A  
HETATM   17  C   UNL     1      -6.501   8.388  62.384  1.00  0.00    -0.088 A  
HETATM   18  C   UNL     1      -6.677   7.645  63.562  1.00  0.00    -0.058 A  
HETATM   19  C   UNL     1      -6.183   9.744  62.430  1.00  0.00    -0.099 A  
HETATM   20  C   UNL     1      -6.959   6.169  63.444  1.00  0.00    -0.046 C  
ENDBRANCH   7  14
ENDBRANCH   6   7
ENDBRANCH   5   6
ENDBRANCH   4   5
ENDBRANCH   2   4
TORSDOF 6
ENDMDL
MODEL      288
REMARK 921   NORMALIZED FREE ENERGY PREDICTED BY IDOCK:   -1.12 KCAL/MOL
REMARK 922        TOTAL FREE ENERGY PREDICTED BY IDOCK:   -2.57 KCAL/MOL
REMARK 923 INTER-LIGAND FREE ENERGY PREDICTED BY IDOCK:   -2.68 KCAL/MOL
REMARK 924 INTRA-LIGAND FREE ENERGY PREDICTED BY IDOCK:    0.11 KCAL/MOL
REMARK 927      BINDING AFFINITY PREDICTED BY RF-SCORE:    0.00 PKD
ROOT
HETATM    1  C   UNL     1      -7.986   7.569  70.839  1.00  0.00    -0.096 C  
HETATM    2  N   UNL     1      -6.719   6.837  70.818  1.00  0.00    -0.053 NA 
HETATM    3  C   UNL     1      -6.850   5.590  71.569  1.00  0.00    -0.062 C  
ENDROOT
BRANCH   2   4
HETATM    4  C   UNL     1      -6.308   6.603  69.422  1.00  0.00    -0.038 C  
BRANCH   4   5
HETATM    5  C   UNL     1      -7.097   7.400  68.365  1.00  0.00    -0.085 C  
BRANCH   5   6
HETATM    6  O   UNL     1      -6.839   6.975  67.021  1.00  0.00    -0.063 OA 
BRANCH   6   7
HETATM    7  C   UNL     1      -7.984   6.920  66.147  1.00  0.00    -0.110 C  
BRANCH   7   8
HETATM    8  C   UNL     1      -8.678   5.564  66.244  1.00  0.00    -0.128 A  
HETATM    9  C   UNL     1      -9.075   4.900  65.068  1.00  0.00    -0.133 A  
HETATM   10  C   UNL     1      -8.797   4.884  67.466  1.00  0.00    -0.105 A  
HETATM   11  C   UNL     1      -9.527   3.581  65.110  1.00  0.00    -0.158 A  
HETATM   12  C   UNL     1      -9.264   3.569  67.507  1.00  0.00    -0.224 A  
HETATM   13  C   UNL     1      -9.613   2.912  66.328  1.00  0.00     0.130 A  
ENDBRANCH   7   8
BRANCH   7  14
HETATM   14  C   UNL     1      -8.891   8.119  66.435  1.00  0.00    -0.182 A  
HETATM   15  C   UNL     1     -10.713   9.097  67.742  1.00  0.00    -0.243 A  
HETATM   16  C   UNL     1      -9.843   8.041  67.473  1.00  0.00    -0.224 A  
HETATM   17  C   UNL     1      -9.706  10.364  65.960  1.00  0.00    -0.265 A  
HETATM   18  C   UNL     1      -8.810   9.319  65.688  1.00  0.00    -0.216 A  
HETATM   19  C   UNL     1     -10.654  10.253  66.976  1.00  0.00    -0.302 A  
HETATM   20  C   UNL     1      -7.769   9.527  64.619  1.00  0.00    -0.120 C  
ENDBRANCH   7  14
ENDBRANCH   6   7
ENDBRANCH   5   6
ENDBRANCH   4   5
ENDBRANCH   2   4
TORSDOF 6
ENDMDL
MODEL      289
REMARK 921   NORMALIZED FREE ENERGY PREDICTED BY IDOCK:   -1.01 KCAL/MOL
REMARK 922        TOTAL FREE ENERGY PREDICTED BY IDOCK:   -2.41 KCAL/MOL
REMARK 923 INTER-LIGAND FREE ENERGY PREDICTED BY IDOCK:   -2.22 KCAL/MOL
REMARK 924 INTRA-LIGAND FREE ENERGY PREDICTED BY IDOCK:   -0.20 KCAL/MOL
REMARK 927      BINDING AFFINITY PREDICTED BY RF-SCORE:    0.00 PKD
ROOT
HETATM    1  C   UNL     1      -7.648   7.109  70.787  1.00  0.00    -0.089 C  
HETATM    2  N   UNL     1      -6.410   6.369  71.033  1.00  0.00    -0.046 NA 
HETATM    3  C   UNL     1      -6.662   5.266  71.957  1.00  0.00    -0.060 C  
ENDROOT
BRANCH   2   4
HETATM    4  C   UNL     1      -5.851   5.904  69.751  1.00  0.00    -0.024 C  
BRANCH   4   5
HETATM    5  C   UNL     1      -6.791   6.042  68.538  1.00  0.00    -0.070 C  
BRANCH   5   6
HETATM    6  O   UNL     1      -6.134   6.525  67.360  1.00  0.00    -0.025 OA 
BRANCH   6   7
HETATM    7  C   UNL     1      -6.897   6.453  66.139  1.00  0.00    -0.057 C  
BRANCH   7   8
HETATM    8  C   UNL     1      -6.546   5.193  65.352  1.00  0.00    -0.040 A  
HETATM    9  C   UNL     1      -5.949   4.104  66.014  1.00  0.00    -0.023 A  
HETATM   10  C   UNL     1      -6.939   5.027  64.015  1.00  0.00    -0.048 A  
HETATM   11  C   UNL     1      -5.800   2.873  65.374  1.00  0.00    -0.018 A  
HETATM   12  C   UNL     1      -6.774   3.798  63.372  1.00  0.00    -0.039 A  
HETATM   13  C   UNL     1      -6.221   2.718  64.056  1.00  0.00    -0.018 A  
ENDBRANCH   7   8
BRANCH   7  14
HETATM   14  C   UNL     1      -8.384   6.601  66.469  1.00  0.00    -0.117 A  
HETATM   15  C   UNL     1     -10.541   5.542  66.930  1.00  0.00    -0.348 A  
HETATM   16  C   UNL     1      -9.174   5.449  66.666  1.00  0.00    -0.132 A  
HETATM   17  C   UNL     1     -10.385   7.942  66.834  1.00  0.00    -0.400 A  
HETATM   18  C   UNL     1      -9.005   7.868  66.586  1.00  0.00    -0.179 A  
HETATM   19  C   UNL     1     -11.148   6.788  67.000  1.00  0.00    -0.369 A  
HETATM   20  C   UNL     1      -8.227   9.154  66.478  1.00  0.00    -0.111 C  
ENDBRANCH   7  14
ENDBRANCH   6   7
ENDBRANCH   5   6
ENDBRANCH   4   5
ENDBRANCH   2   4
TORSDOF 6
ENDMDL
MODEL      290
REMARK 921   NORMALIZED FREE ENERGY PREDICTED BY IDOCK:    5.26 KCAL/MOL
REMARK 922        TOTAL FREE ENERGY PREDICTED BY IDOCK:    6.05 KCAL/MOL
REMARK 923 INTER-LIGAND FREE ENERGY PREDICTED BY IDOCK:    5.83 KCAL/MOL
REMARK 924 INTRA-LIGAND FREE ENERGY PREDICTED BY IDOCK:    0.22 KCAL/MOL
REMARK 927      BINDING AFFINITY PREDICTED BY RF-SCORE:    0.00 PKD
ROOT
HETATM    1  C   UNL     1     -12.143  11.114  68.595  1.00  0.00    -0.110 C  
HETATM    2  N   UNL     1     -11.623  10.823  67.258  1.00  0.00    -0.373 NA 
HETATM    3  C   UNL     1     -12.644  10.148  66.460  1.00  0.00     8.456 C  
ENDROOT
BRANCH   2   4
HETATM    4  C   UNL     1     -11.162  12.072  66.626  1.00  0.00    -0.327 C  
BRANCH   4   5
HETATM    5  C   UNL     1      -9.639  12.174  66.413  1.00  0.00    -0.234 C  
BRANCH   5   6
HETATM    6  O   UNL     1      -8.905  12.374  67.627  1.00  0.00    -0.160 OA 
BRANCH   6   7
HETATM    7  C   UNL     1      -7.950  11.348  67.963  1.00  0.00    -0.127 C  
BRANCH   7   8
HETATM    8  C   UNL     1      -7.280  10.796  66.708  1.00  0.00    -0.128 A  
HETATM    9  C   UNL     1      -6.097  11.392  66.232  1.00  0.00    -0.028 A  
HETATM   10  C   UNL     1      -7.724   9.613  66.095  1.00  0.00    -0.102 A  
HETATM   11  C   UNL     1      -5.356  10.794  65.212  1.00  0.00    -0.137 A  
HETATM   12  C   UNL     1      -6.988   9.025  65.065  1.00  0.00    -0.080 A  
HETATM   13  C   UNL     1      -5.797   9.606  64.635  1.00  0.00    -0.082 A  
ENDBRANCH   7   8
BRANCH   7  14
HETATM   14  C   UNL     1      -6.978  11.894  69.013  1.00  0.00    -0.098 A  
HETATM   15  C   UNL     1      -5.683  11.528  71.055  1.00  0.00     0.055 A  
HETATM   16  C   UNL     1      -6.537  11.057  70.059  1.00  0.00    -0.134 A  
HETATM   17  C   UNL     1      -5.656  13.688  69.994  1.00  0.00    -0.115 A  
HETATM   18  C   UNL     1      -6.500  13.226  68.972  1.00  0.00    -0.102 A  
HETATM   19  C   UNL     1      -5.254  12.848  71.031  1.00  0.00    -0.168 A  
HETATM   20  C   UNL     1      -6.846  14.167  67.848  1.00  0.00    -0.173 C  
ENDBRANCH   7  14
ENDBRANCH   6   7
ENDBRANCH   5   6
ENDBRANCH   4   5
ENDBRANCH   2   4
TORSDOF 6
ENDMDL
MODEL      291
REMARK 921   NORMALIZED FREE ENERGY PREDICTED BY IDOCK:   12.66 KCAL/MOL
REMARK 922        TOTAL FREE ENERGY PREDICTED BY IDOCK:   16.05 KCAL/MOL
REMARK 923 INTER-LIGAND FREE ENERGY PREDICTED BY IDOCK:   14.50 KCAL/MOL
REMARK 924 INTRA-LIGAND FREE ENERGY PREDICTED BY IDOCK:    1.55 KCAL/MOL
REMARK 927      BINDING AFFINITY PREDICTED BY RF-SCORE:    0.00 PKD
ROOT
HETATM    1  C   UNL     1     -12.246  11.104  68.553  1.00  0.00     0.134 C  
HETATM    2  N   UNL     1     -12.020  10.933  67.117  1.00  0.00     0.193 NA 
HETATM    3  C   UNL     1     -13.064  10.085  66.545  1.00  0.00    13.968 C  
ENDROOT
BRANCH   2   4
HETATM    4  C   UNL     1     -11.959  12.254  66.466  1.00  0.00    -0.197 C  
BRANCH   4   5
HETATM    5  C   UNL     1     -10.563  12.675  65.969  1.00  0.00    -0.270 C  
BRANCH   5   6
HETATM    6  O   UNL     1      -9.659  13.016  67.027  1.00  0.00    -0.222 OA 
BRANCH   6   7
HETATM    7  C   UNL     1      -8.376  12.361  66.996  1.00  0.00    -0.157 C  
BRANCH   7   8
HETATM    8  C   UNL     1      -7.335  13.165  67.770  1.00  0.00    -0.143 A  
HETATM    9  C   UNL     1      -7.178  12.951  69.152  1.00  0.00     0.087 A  
HETATM   10  C   UNL     1      -6.421  14.007  67.117  1.00  0.00     0.627 A  
HETATM   11  C   UNL     1      -6.109  13.520  69.846  1.00  0.00    -0.127 A  
HETATM   12  C   UNL     1      -5.361  14.586  67.817  1.00  0.00    -0.007 A  
HETATM   13  C   UNL     1      -5.196  14.330  69.176  1.00  0.00    -0.078 A  
ENDBRANCH   7   8
BRANCH   7  14
HETATM   14  C   UNL     1      -8.542  10.914  67.472  1.00  0.00    -0.127 A  
HETATM   15  C   UNL     1      -8.311   8.522  67.014  1.00  0.00    -0.110 A  
HETATM   16  C   UNL     1      -8.141   9.853  66.634  1.00  0.00    -0.117 A  
HETATM   17  C   UNL     1      -9.271   9.254  69.097  1.00  0.00    -0.149 A  
HETATM   18  C   UNL     1      -9.090  10.599  68.738  1.00  0.00    -0.170 A  
HETATM   19  C   UNL     1      -8.890   8.223  68.240  1.00  0.00    -0.140 A  
HETATM   20  C   UNL     1      -9.467  11.663  69.736  1.00  0.00     1.506 C  
ENDBRANCH   7  14
ENDBRANCH   6   7
ENDBRANCH   5   6
ENDBRANCH   4   5
ENDBRANCH   2   4
TORSDOF 6
ENDMDL
MODEL      292
REMARK 921   NORMALIZED FREE ENERGY PREDICTED BY IDOCK:   12.95 KCAL/MOL
REMARK 922        TOTAL FREE ENERGY PREDICTED BY IDOCK:   16.44 KCAL/MOL
REMARK 923 INTER-LIGAND FREE ENERGY PREDICTED BY IDOCK:   11.51 KCAL/MOL
REMARK 924 INTRA-LIGAND FREE ENERGY PREDICTED BY IDOCK:    4.93 KCAL/MOL
REMARK 927      BINDING AFFINITY PREDICTED BY RF-SCORE:    0.00 PKD
ROOT
HETATM    1  C   UNL     1     -14.408  12.870  71.928  1.00  0.00     0.773 C  
HETATM    2  N   UNL     1     -13.257  13.730  72.211  1.00  0.00    -0.443 NA 
HETATM    3  C   UNL     1     -12.657  13.356  73.490  1.00  0.00     2.651 C  
ENDROOT
BRANCH   2   4
HETATM    4  C   UNL     1     -12.293  13.644  71.100  1.00  0.00    -0.318 C  
BRANCH   4   5
HETATM    5  C   UNL     1     -10.839  13.348  71.516  1.00  0.00     4.750 C  
BRANCH   5   6
HETATM    6  O   UNL     1      -9.871  14.123  70.798  1.00  0.00     2.170 OA 
BRANCH   6   7
HETATM    7  C   UNL     1     -10.110  14.277  69.385  1.00  0.00     0.130 C  
BRANCH   7   8
HETATM    8  C   UNL     1      -9.348  15.478  68.832  1.00  0.00    -0.222 A  
HETATM    9  C   UNL     1      -9.662  15.970  67.551  1.00  0.00    -0.228 A  
HETATM   10  C   UNL     1      -8.444  16.204  69.622  1.00  0.00     0.233 A  
HETATM   11  C   UNL     1      -9.129  17.179  67.100  1.00  0.00    -0.237 A  
HETATM   12  C   UNL     1      -7.901  17.405  69.162  1.00  0.00    -0.024 A  
HETATM   13  C   UNL     1      -8.256  17.900  67.909  1.00  0.00    -0.246 A  
ENDBRANCH   7   8
BRANCH   7  14
HETATM   14  C   UNL     1      -9.804  12.952  68.680  1.00  0.00    -0.074 A  
HETATM   15  C   UNL     1      -9.041  11.777  66.674  1.00  0.00    -0.194 A  
HETATM   16  C   UNL     1      -9.296  12.962  67.364  1.00  0.00    -0.194 A  
HETATM   17  C   UNL     1      -9.772  10.518  68.591  1.00  0.00    -0.175 A  
HETATM   18  C   UNL     1     -10.016  11.701  69.308  1.00  0.00     0.222 A  
HETATM   19  C   UNL     1      -9.293  10.555  67.283  1.00  0.00    -0.164 A  
HETATM   20  C   UNL     1     -10.474  11.590  70.738  1.00  0.00     3.101 C  
ENDBRANCH   7  14
ENDBRANCH   6   7
ENDBRANCH   5   6
ENDBRANCH   4   5
ENDBRANCH   2   4
TORSDOF 6
ENDMDL
