MODEL        1
REMARK 921   NORMALIZED FREE ENERGY PREDICTED BY IDOCK:   -6.25 KCAL/MOL
REMARK 922        TOTAL FREE ENERGY PREDICTED BY IDOCK:  -10.12 KCAL/MOL
REMARK 923 INTER-LIGAND FREE ENERGY PREDICTED BY IDOCK:   -9.18 KCAL/MOL
REMARK 924 INTRA-LIGAND FREE ENERGY PREDICTED BY IDOCK:   -0.94 KCAL/MOL
REMARK 927      BINDING AFFINITY PREDICTED BY RF-SCORE:    0.00 PKD
ROOT
HETATM    1  C   UNL     1     -12.345  12.168  63.639  1.00  0.00    -0.673 C  
HETATM    2  C   UNL     1     -12.404  12.900  64.968  1.00  0.00    -0.485 C  
ENDROOT
BRANCH   2   3
HETATM    3  O   UNL     1     -11.344  12.395  65.784  1.00  0.00    -0.320 OA 
BRANCH   3   4
HETATM    4  C   UNL     1     -11.591  12.411  67.118  1.00  0.00    -0.365 C  
HETATM    5  O   UNL     1     -12.003  11.468  67.778  1.00  0.00    -0.623 OA 
BRANCH   4   6
HETATM    6  C   UNL     1     -11.217  13.721  67.718  1.00  0.00    -0.312 C  
HETATM    7  C   UNL     1     -12.124  14.503  68.321  1.00  0.00    -0.234 C  
HETATM    8  C   UNL     1     -11.760  15.693  69.145  1.00  0.00    -0.390 C  
HETATM    9  H2  UNL     1      -8.698  14.833  70.124  1.00  0.00     0.000 HD 
HETATM   10  C   UNL     1     -10.426  16.367  68.718  1.00  0.00    -0.300 C  
HETATM   11  H1  UNL     1      -7.544  14.541  68.932  1.00  0.00     0.000 HD 
HETATM   12  C   UNL     1      -9.760  14.050  67.641  1.00  0.00    -0.228 C  
HETATM   13  C   UNL     1      -9.305  15.405  68.221  1.00  0.00    -0.193 C  
HETATM   14  N   UNL     1      -8.278  15.170  69.258  1.00  0.00    -0.217 NA 
BRANCH   8  15
HETATM   15  O   UNL     1     -11.799  15.147  70.463  1.00  0.00    -0.272 OA 
BRANCH  15  16
HETATM   16  C   UNL     1     -12.776  15.623  71.384  1.00  0.00    -0.471 C  
BRANCH  16  17
HETATM   17  C   UNL     1     -12.005  16.221  72.574  1.00  0.00    -0.648 C  
HETATM   18  C   UNL     1     -12.683  15.963  73.915  1.00  0.00    -0.727 C  
ENDBRANCH  16  17
BRANCH  16  19
HETATM   19  C   UNL     1     -13.750  14.522  71.840  1.00  0.00    -0.516 C  
HETATM   20  C   UNL     1     -13.188  13.108  71.756  1.00  0.00    -0.494 C  
ENDBRANCH  16  19
ENDBRANCH  15  16
ENDBRANCH   8  15
BRANCH  10  21
HETATM   21  N   UNL     1     -10.662  17.441  67.730  1.00  0.00    -0.365 N  
HETATM   22  H   UNL     1     -11.212  17.242  66.894  1.00  0.00     0.000 HD 
HETATM   23  C   UNL     1     -10.151  18.707  67.919  1.00  0.00    -0.369 C  
HETATM   24  C   UNL     1     -10.515  19.699  66.846  1.00  0.00    -0.606 C  
HETATM   25  O   UNL     1      -9.461  19.023  68.879  1.00  0.00    -0.367 OA 
ENDBRANCH  10  21
ENDBRANCH   4   6
ENDBRANCH   3   4
ENDBRANCH   2   3
TORSDOF 8
ENDMDL
MODEL        2
REMARK 921   NORMALIZED FREE ENERGY PREDICTED BY IDOCK:   -5.99 KCAL/MOL
REMARK 922        TOTAL FREE ENERGY PREDICTED BY IDOCK:   -9.73 KCAL/MOL
REMARK 923 INTER-LIGAND FREE ENERGY PREDICTED BY IDOCK:   -8.55 KCAL/MOL
REMARK 924 INTRA-LIGAND FREE ENERGY PREDICTED BY IDOCK:   -1.18 KCAL/MOL
REMARK 927      BINDING AFFINITY PREDICTED BY RF-SCORE:    0.00 PKD
ROOT
HETATM    1  C   UNL     1     -10.879  11.798  63.609  1.00  0.00    -0.508 C  
HETATM    2  C   UNL     1     -12.370  11.978  63.390  1.00  0.00    -0.523 C  
ENDROOT
BRANCH   2   3
HETATM    3  O   UNL     1     -12.914  12.541  64.588  1.00  0.00    -0.803 OA 
BRANCH   3   4
HETATM    4  C   UNL     1     -12.517  13.809  64.857  1.00  0.00    -0.386 C  
HETATM    5  O   UNL     1     -12.491  14.734  64.058  1.00  0.00    -0.803 OA 
BRANCH   4   6
HETATM    6  C   UNL     1     -12.180  13.972  66.298  1.00  0.00    -0.493 C  
HETATM    7  C   UNL     1     -12.406  12.995  67.189  1.00  0.00    -0.004 C  
HETATM    8  C   UNL     1     -11.865  13.016  68.580  1.00  0.00    -0.325 C  
HETATM    9  H2  UNL     1      -9.180  14.935  68.154  1.00  0.00     0.000 HD 
HETATM   10  C   UNL     1     -11.647  14.446  69.147  1.00  0.00    -0.307 C  
HETATM   11  H1  UNL     1      -9.414  16.497  67.569  1.00  0.00     0.000 HD 
HETATM   12  C   UNL     1     -11.527  15.273  66.643  1.00  0.00    -0.107 C  
HETATM   13  C   UNL     1     -11.173  15.521  68.124  1.00  0.00    -0.343 C  
HETATM   14  N   UNL     1      -9.725  15.793  68.239  1.00  0.00    -0.200 NA 
BRANCH   8  15
HETATM   15  O   UNL     1     -10.697  12.206  68.441  1.00  0.00    -0.211 OA 
BRANCH  15  16
HETATM   16  C   UNL     1     -10.600  10.994  69.183  1.00  0.00    -0.219 C  
BRANCH  16  17
HETATM   17  C   UNL     1     -10.665   9.846  68.158  1.00  0.00    -0.279 C  
HETATM   18  C   UNL     1      -9.997  10.193  66.832  1.00  0.00    -0.259 C  
ENDBRANCH  16  17
BRANCH  16  19
HETATM   19  C   UNL     1     -11.700  10.859  70.250  1.00  0.00    -0.437 C  
HETATM   20  C   UNL     1     -11.421   9.804  71.314  1.00  0.00    -0.457 C  
ENDBRANCH  16  19
ENDBRANCH  15  16
ENDBRANCH   8  15
BRANCH  10  21
HETATM   21  N   UNL     1     -12.844  14.919  69.878  1.00  0.00    -0.606 N  
HETATM   22  H   UNL     1     -13.605  15.359  69.360  1.00  0.00     0.000 HD 
HETATM   23  C   UNL     1     -12.946  14.776  71.244  1.00  0.00    -0.346 C  
HETATM   24  C   UNL     1     -14.242  15.267  71.833  1.00  0.00    -0.681 C  
HETATM   25  O   UNL     1     -12.069  14.283  71.942  1.00  0.00    -0.253 OA 
ENDBRANCH  10  21
ENDBRANCH   4   6
ENDBRANCH   3   4
ENDBRANCH   2   3
TORSDOF 8
ENDMDL
MODEL        3
REMARK 921   NORMALIZED FREE ENERGY PREDICTED BY IDOCK:   -5.92 KCAL/MOL
REMARK 922        TOTAL FREE ENERGY PREDICTED BY IDOCK:   -9.63 KCAL/MOL
REMARK 923 INTER-LIGAND FREE ENERGY PREDICTED BY IDOCK:   -8.59 KCAL/MOL
REMARK 924 INTRA-LIGAND FREE ENERGY PREDICTED BY IDOCK:   -1.04 KCAL/MOL
REMARK 927      BINDING AFFINITY PREDICTED BY RF-SCORE:    0.00 PKD
ROOT
HETATM    1  C   UNL     1     -10.390  18.008  67.545  1.00  0.00    -0.394 C  
HETATM    2  C   UNL     1     -10.361  17.936  66.029  1.00  0.00    -0.318 C  
ENDROOT
BRANCH   2   3
HETATM    3  O   UNL     1     -10.090  16.578  65.669  1.00  0.00    -0.483 OA 
BRANCH   3   4
HETATM    4  C   UNL     1     -10.940  16.048  64.755  1.00  0.00    -0.356 C  
HETATM    5  O   UNL     1     -11.514  16.666  63.870  1.00  0.00    -1.186 OA 
BRANCH   4   6
HETATM    6  C   UNL     1     -11.039  14.570  64.907  1.00  0.00    -0.401 C  
HETATM    7  C   UNL     1     -10.494  13.932  65.953  1.00  0.00    -0.309 C  
HETATM    8  C   UNL     1     -10.775  12.502  66.275  1.00  0.00    -0.260 C  
HETATM    9  H2  UNL     1     -13.782  12.152  64.894  1.00  0.00     0.000 HD 
HETATM   10  C   UNL     1     -11.131  11.637  65.034  1.00  0.00    -0.249 C  
HETATM   11  H1  UNL     1     -13.927  12.443  63.241  1.00  0.00     0.000 HD 
HETATM   12  C   UNL     1     -11.834  13.885  63.841  1.00  0.00    -0.315 C  
HETATM   13  C   UNL     1     -11.957  12.349  63.921  1.00  0.00    -0.486 C  
HETATM   14  N   UNL     1     -13.386  11.977  63.970  1.00  0.00    -0.625 NA 
BRANCH   8  15
HETATM   15  O   UNL     1     -11.792  12.630  67.268  1.00  0.00    -0.365 OA 
BRANCH  15  16
HETATM   16  C   UNL     1     -11.415  12.748  68.637  1.00  0.00    -0.303 C  
BRANCH  16  17
HETATM   17  C   UNL     1     -11.850  11.441  69.326  1.00  0.00    -0.417 C  
HETATM   18  C   UNL     1     -12.335  11.654  70.757  1.00  0.00    -0.454 C  
ENDBRANCH  16  17
BRANCH  16  19
HETATM   19  C   UNL     1     -12.035  13.978  69.322  1.00  0.00    -0.396 C  
HETATM   20  C   UNL     1     -11.034  15.064  69.697  1.00  0.00    -0.294 C  
ENDBRANCH  16  19
ENDBRANCH  15  16
ENDBRANCH   8  15
BRANCH  10  21
HETATM   21  N   UNL     1      -9.923  11.006  64.458  1.00  0.00    -0.282 N  
HETATM   22  H   UNL     1      -9.430  11.470  63.695  1.00  0.00     0.000 HD 
HETATM   23  C   UNL     1      -9.453   9.802  64.935  1.00  0.00    -0.265 C  
HETATM   24  C   UNL     1      -8.191   9.313  64.275  1.00  0.00    -0.153 C  
HETATM   25  O   UNL     1      -9.999   9.167  65.829  1.00  0.00    -0.277 OA 
ENDBRANCH  10  21
ENDBRANCH   4   6
ENDBRANCH   3   4
ENDBRANCH   2   3
TORSDOF 8
ENDMDL
MODEL        4
REMARK 921   NORMALIZED FREE ENERGY PREDICTED BY IDOCK:   -5.83 KCAL/MOL
REMARK 922        TOTAL FREE ENERGY PREDICTED BY IDOCK:   -9.49 KCAL/MOL
REMARK 923 INTER-LIGAND FREE ENERGY PREDICTED BY IDOCK:   -8.31 KCAL/MOL
REMARK 924 INTRA-LIGAND FREE ENERGY PREDICTED BY IDOCK:   -1.18 KCAL/MOL
REMARK 927      BINDING AFFINITY PREDICTED BY RF-SCORE:    0.00 PKD
ROOT
HETATM    1  C   UNL     1     -10.855  12.368  63.349  1.00  0.00    -0.417 C  
HETATM    2  C   UNL     1     -12.268  12.194  63.875  1.00  0.00    -0.489 C  
ENDROOT
BRANCH   2   3
HETATM    3  O   UNL     1     -12.449  13.132  64.939  1.00  0.00    -0.457 OA 
BRANCH   3   4
HETATM    4  C   UNL     1     -11.937  12.748  66.135  1.00  0.00    -0.414 C  
HETATM    5  O   UNL     1     -11.920  11.605  66.569  1.00  0.00    -0.474 OA 
BRANCH   4   6
HETATM    6  C   UNL     1     -11.311  13.896  66.846  1.00  0.00    -0.343 C  
HETATM    7  C   UNL     1     -12.025  14.708  67.638  1.00  0.00    -0.307 C  
HETATM    8  C   UNL     1     -11.404  15.709  68.555  1.00  0.00    -0.360 C  
HETATM    9  H2  UNL     1      -8.438  14.294  69.073  1.00  0.00     0.000 HD 
HETATM   10  C   UNL     1     -10.027  16.238  68.068  1.00  0.00    -0.240 C  
HETATM   11  H1  UNL     1      -7.458  14.008  67.733  1.00  0.00     0.000 HD 
HETATM   12  C   UNL     1      -9.833  14.021  66.648  1.00  0.00    -0.288 C  
HETATM   13  C   UNL     1      -9.120  15.204  67.334  1.00  0.00    -0.191 C  
HETATM   14  N   UNL     1      -8.052  14.684  68.213  1.00  0.00    -0.135 NA 
BRANCH   8  15
HETATM   15  O   UNL     1     -11.407  14.998  69.793  1.00  0.00    -0.254 OA 
BRANCH  15  16
HETATM   16  C   UNL     1     -12.646  14.548  70.334  1.00  0.00    -0.346 C  
BRANCH  16  17
HETATM   17  C   UNL     1     -13.127  15.646  71.300  1.00  0.00    -0.542 C  
HETATM   18  C   UNL     1     -14.115  15.131  72.342  1.00  0.00    -0.593 C  
ENDBRANCH  16  17
BRANCH  16  19
HETATM   19  C   UNL     1     -12.528  13.187  71.041  1.00  0.00    -0.406 C  
HETATM   20  C   UNL     1     -11.984  12.065  70.165  1.00  0.00    -0.401 C  
ENDBRANCH  16  19
ENDBRANCH  15  16
ENDBRANCH   8  15
BRANCH  10  21
HETATM   21  N   UNL     1     -10.182  17.461  67.251  1.00  0.00    -0.315 N  
HETATM   22  H   UNL     1     -10.207  17.385  66.234  1.00  0.00     0.000 HD 
HETATM   23  C   UNL     1     -10.294  18.701  67.841  1.00  0.00    -0.398 C  
HETATM   24  C   UNL     1     -10.490  19.841  66.877  1.00  0.00    -0.596 C  
HETATM   25  O   UNL     1     -10.249  18.883  69.051  1.00  0.00    -0.346 OA 
ENDBRANCH  10  21
ENDBRANCH   4   6
ENDBRANCH   3   4
ENDBRANCH   2   3
TORSDOF 8
ENDMDL
MODEL        5
REMARK 921   NORMALIZED FREE ENERGY PREDICTED BY IDOCK:   -5.82 KCAL/MOL
REMARK 922        TOTAL FREE ENERGY PREDICTED BY IDOCK:   -9.48 KCAL/MOL
REMARK 923 INTER-LIGAND FREE ENERGY PREDICTED BY IDOCK:   -8.56 KCAL/MOL
REMARK 924 INTRA-LIGAND FREE ENERGY PREDICTED BY IDOCK:   -0.92 KCAL/MOL
REMARK 927      BINDING AFFINITY PREDICTED BY RF-SCORE:    0.00 PKD
ROOT
HETATM    1  C   UNL     1     -10.835  19.415  67.462  1.00  0.00    -0.521 C  
HETATM    2  C   UNL     1     -10.291  19.293  66.049  1.00  0.00    -0.475 C  
ENDROOT
BRANCH   2   3
HETATM    3  O   UNL     1     -10.615  17.982  65.577  1.00  0.00    -0.639 OA 
BRANCH   3   4
HETATM    4  C   UNL     1      -9.715  17.019  65.896  1.00  0.00    -0.142 C  
HETATM    5  O   UNL     1      -8.499  17.138  65.854  1.00  0.00    -0.529 OA 
BRANCH   4   6
HETATM    6  C   UNL     1     -10.394  15.791  66.392  1.00  0.00    -0.306 C  
HETATM    7  C   UNL     1     -10.297  15.402  67.672  1.00  0.00    -0.262 C  
HETATM    8  C   UNL     1     -11.149  14.331  68.267  1.00  0.00    -0.258 C  
HETATM    9  H2  UNL     1     -13.821  14.518  66.292  1.00  0.00     0.000 HD 
HETATM   10  C   UNL     1     -11.622  13.262  67.243  1.00  0.00    -0.359 C  
HETATM   11  H1  UNL     1     -13.597  14.270  64.641  1.00  0.00     0.000 HD 
HETATM   12  C   UNL     1     -11.225  15.081  65.371  1.00  0.00    -0.356 C  
HETATM   13  C   UNL     1     -11.937  13.785  65.809  1.00  0.00    -0.399 C  
HETATM   14  N   UNL     1     -13.390  13.928  65.580  1.00  0.00    -0.615 NA 
BRANCH   8  15
HETATM   15  O   UNL     1     -12.174  15.101  68.895  1.00  0.00    -0.223 OA 
BRANCH  15  16
HETATM   16  C   UNL     1     -12.434  14.912  70.283  1.00  0.00    -0.336 C  
BRANCH  16  17
HETATM   17  C   UNL     1     -11.447  15.817  71.043  1.00  0.00    -0.451 C  
HETATM   18  C   UNL     1     -11.963  16.245  72.412  1.00  0.00    -0.630 C  
ENDBRANCH  16  17
BRANCH  16  19
HETATM   19  C   UNL     1     -12.301  13.443  70.719  1.00  0.00    -0.433 C  
HETATM   20  C   UNL     1     -13.300  13.007  71.785  1.00  0.00    -0.468 C  
ENDBRANCH  16  19
ENDBRANCH  15  16
ENDBRANCH   8  15
BRANCH  10  21
HETATM   21  N   UNL     1     -10.678  12.125  67.183  1.00  0.00    -0.226 N  
HETATM   22  H   UNL     1      -9.800  12.228  66.673  1.00  0.00     0.000 HD 
HETATM   23  C   UNL     1     -10.965  10.929  67.804  1.00  0.00    -0.283 C  
HETATM   24  C   UNL     1      -9.887   9.885  67.689  1.00  0.00    -0.198 C  
HETATM   25  O   UNL     1     -12.005  10.714  68.414  1.00  0.00    -0.448 OA 
ENDBRANCH  10  21
ENDBRANCH   4   6
ENDBRANCH   3   4
ENDBRANCH   2   3
TORSDOF 8
ENDMDL
MODEL        6
REMARK 921   NORMALIZED FREE ENERGY PREDICTED BY IDOCK:   -5.81 KCAL/MOL
REMARK 922        TOTAL FREE ENERGY PREDICTED BY IDOCK:   -9.47 KCAL/MOL
REMARK 923 INTER-LIGAND FREE ENERGY PREDICTED BY IDOCK:   -8.33 KCAL/MOL
REMARK 924 INTRA-LIGAND FREE ENERGY PREDICTED BY IDOCK:   -1.14 KCAL/MOL
REMARK 927      BINDING AFFINITY PREDICTED BY RF-SCORE:    0.00 PKD
ROOT
HETATM    1  C   UNL     1     -10.119  10.700  64.414  1.00  0.00    -0.418 C  
HETATM    2  C   UNL     1     -11.081  11.345  63.433  1.00  0.00    -0.219 C  
ENDROOT
BRANCH   2   3
HETATM    3  O   UNL     1     -11.168  12.733  63.765  1.00  0.00    -0.407 OA 
BRANCH   3   4
HETATM    4  C   UNL     1     -12.080  13.037  64.722  1.00  0.00    -0.415 C  
HETATM    5  O   UNL     1     -13.212  12.583  64.798  1.00  0.00    -0.839 OA 
BRANCH   4   6
HETATM    6  C   UNL     1     -11.503  13.955  65.742  1.00  0.00    -0.324 C  
HETATM    7  C   UNL     1     -12.204  14.341  66.818  1.00  0.00    -0.384 C  
HETATM    8  C   UNL     1     -11.594  15.051  67.981  1.00  0.00    -0.338 C  
HETATM    9  H2  UNL     1      -8.451  13.982  67.756  1.00  0.00     0.000 HD 
HETATM   10  C   UNL     1     -10.348  15.904  67.612  1.00  0.00    -0.281 C  
HETATM   11  H1  UNL     1      -7.609  14.308  66.334  1.00  0.00     0.000 HD 
HETATM   12  C   UNL     1     -10.082  14.348  65.495  1.00  0.00    -0.382 C  
HETATM   13  C   UNL     1      -9.426  15.319  66.500  1.00  0.00    -0.283 C  
HETATM   14  N   UNL     1      -8.213  14.690  67.062  1.00  0.00    -0.195 NA 
BRANCH   8  15
HETATM   15  O   UNL     1     -11.375  13.971  68.887  1.00  0.00    -0.248 OA 
BRANCH  15  16
HETATM   16  C   UNL     1     -11.685  14.147  70.267  1.00  0.00    -0.258 C  
BRANCH  16  17
HETATM   17  C   UNL     1     -12.452  12.887  70.708  1.00  0.00    -0.370 C  
HETATM   18  C   UNL     1     -12.121  11.661  69.864  1.00  0.00    -0.373 C  
ENDBRANCH  16  17
BRANCH  16  19
HETATM   19  C   UNL     1     -12.499  15.425  70.535  1.00  0.00    -0.468 C  
HETATM   20  C   UNL     1     -13.727  15.218  71.414  1.00  0.00    -0.602 C  
ENDBRANCH  16  19
ENDBRANCH  15  16
ENDBRANCH   8  15
BRANCH  10  21
HETATM   21  N   UNL     1     -10.730  17.296  67.288  1.00  0.00    -0.271 N  
HETATM   22  H   UNL     1     -11.491  17.467  66.631  1.00  0.00     0.000 HD 
HETATM   23  C   UNL     1     -10.075  18.364  67.860  1.00  0.00    -0.362 C  
HETATM   24  C   UNL     1     -10.608  19.715  67.463  1.00  0.00    -0.577 C  
HETATM   25  O   UNL     1      -9.136  18.247  68.637  1.00  0.00    -0.312 OA 
ENDBRANCH  10  21
ENDBRANCH   4   6
ENDBRANCH   3   4
ENDBRANCH   2   3
TORSDOF 8
ENDMDL
MODEL        7
REMARK 921   NORMALIZED FREE ENERGY PREDICTED BY IDOCK:   -5.80 KCAL/MOL
REMARK 922        TOTAL FREE ENERGY PREDICTED BY IDOCK:   -9.45 KCAL/MOL
REMARK 923 INTER-LIGAND FREE ENERGY PREDICTED BY IDOCK:   -8.41 KCAL/MOL
REMARK 924 INTRA-LIGAND FREE ENERGY PREDICTED BY IDOCK:   -1.04 KCAL/MOL
REMARK 927      BINDING AFFINITY PREDICTED BY RF-SCORE:    0.00 PKD
ROOT
HETATM    1  C   UNL     1     -10.742  11.500  63.914  1.00  0.00    -0.458 C  
HETATM    2  C   UNL     1     -11.979  12.174  63.347  1.00  0.00    -0.481 C  
ENDROOT
BRANCH   2   3
HETATM    3  O   UNL     1     -12.716  12.713  64.447  1.00  0.00    -0.656 OA 
BRANCH   3   4
HETATM    4  C   UNL     1     -12.413  13.996  64.767  1.00  0.00    -0.365 C  
HETATM    5  O   UNL     1     -12.483  14.955  64.012  1.00  0.00    -0.807 OA 
BRANCH   4   6
HETATM    6  C   UNL     1     -12.050  14.120  66.205  1.00  0.00    -0.463 C  
HETATM    7  C   UNL     1     -12.406  13.191  67.104  1.00  0.00    -0.091 C  
HETATM    8  C   UNL     1     -11.861  13.145  68.493  1.00  0.00    -0.342 C  
HETATM    9  H2  UNL     1      -8.937  14.669  68.043  1.00  0.00     0.000 HD 
HETATM   10  C   UNL     1     -11.443  14.535  69.049  1.00  0.00    -0.290 C  
HETATM   11  H1  UNL     1      -8.954  16.244  67.447  1.00  0.00     0.000 HD 
HETATM   12  C   UNL     1     -11.220  15.319  66.538  1.00  0.00    -0.228 C  
HETATM   13  C   UNL     1     -10.829  15.527  68.016  1.00  0.00    -0.300 C  
HETATM   14  N   UNL     1      -9.356  15.595  68.123  1.00  0.00    -0.193 NA 
BRANCH   8  15
HETATM   15  O   UNL     1     -10.818  12.180  68.356  1.00  0.00    -0.205 OA 
BRANCH  15  16
HETATM   16  C   UNL     1     -11.143  10.794  68.404  1.00  0.00    -0.266 C  
BRANCH  16  17
HETATM   17  C   UNL     1     -10.825  10.317  69.833  1.00  0.00    -0.355 C  
HETATM   18  C   UNL     1     -12.056  10.264  70.731  1.00  0.00    -0.451 C  
ENDBRANCH  16  17
BRANCH  16  19
HETATM   19  C   UNL     1     -10.383   9.968  67.352  1.00  0.00    -0.292 C  
HETATM   20  C   UNL     1     -10.359   8.468  67.624  1.00  0.00    -0.317 C  
ENDBRANCH  16  19
ENDBRANCH  15  16
ENDBRANCH   8  15
BRANCH  10  21
HETATM   21  N   UNL     1     -12.559  15.175  69.780  1.00  0.00    -0.601 N  
HETATM   22  H   UNL     1     -13.047  15.966  69.358  1.00  0.00     0.000 HD 
HETATM   23  C   UNL     1     -12.950  14.721  71.021  1.00  0.00    -0.363 C  
HETATM   24  C   UNL     1     -14.127  15.449  71.615  1.00  0.00    -0.618 C  
HETATM   25  O   UNL     1     -12.403  13.797  71.608  1.00  0.00    -0.269 OA 
ENDBRANCH  10  21
ENDBRANCH   4   6
ENDBRANCH   3   4
ENDBRANCH   2   3
TORSDOF 8
ENDMDL
MODEL        8
REMARK 921   NORMALIZED FREE ENERGY PREDICTED BY IDOCK:   -5.67 KCAL/MOL
REMARK 922        TOTAL FREE ENERGY PREDICTED BY IDOCK:   -9.26 KCAL/MOL
REMARK 923 INTER-LIGAND FREE ENERGY PREDICTED BY IDOCK:   -8.13 KCAL/MOL
REMARK 924 INTRA-LIGAND FREE ENERGY PREDICTED BY IDOCK:   -1.13 KCAL/MOL
REMARK 927      BINDING AFFINITY PREDICTED BY RF-SCORE:    0.00 PKD
ROOT
HETATM    1  C   UNL     1     -11.152  11.437  63.760  1.00  0.00    -0.417 C  
HETATM    2  C   UNL     1     -12.472  12.157  63.551  1.00  0.00    -0.555 C  
ENDROOT
BRANCH   2   3
HETATM    3  O   UNL     1     -12.786  12.839  64.769  1.00  0.00    -0.707 OA 
BRANCH   3   4
HETATM    4  C   UNL     1     -12.361  14.125  64.831  1.00  0.00    -0.430 C  
HETATM    5  O   UNL     1     -12.626  15.004  64.025  1.00  0.00    -0.817 OA 
BRANCH   4   6
HETATM    6  C   UNL     1     -11.576  14.372  66.072  1.00  0.00    -0.364 C  
HETATM    7  C   UNL     1     -10.627  15.317  66.128  1.00  0.00    -0.318 C  
HETATM    8  C   UNL     1      -9.993  15.765  67.403  1.00  0.00    -0.237 C  
HETATM    9  H2  UNL     1     -12.417  15.046  69.567  1.00  0.00     0.000 HD 
HETATM   10  C   UNL     1      -9.958  14.670  68.505  1.00  0.00    -0.235 C  
HETATM   11  H1  UNL     1     -12.929  13.445  69.670  1.00  0.00     0.000 HD 
HETATM   12  C   UNL     1     -11.975  13.529  67.241  1.00  0.00    -0.408 C  
HETATM   13  C   UNL     1     -11.187  13.712  68.554  1.00  0.00    -0.280 C  
HETATM   14  N   UNL     1     -12.124  14.072  69.638  1.00  0.00    -0.340 NA 
BRANCH   8  15
HETATM   15  O   UNL     1     -10.752  16.937  67.700  1.00  0.00    -0.333 OA 
BRANCH  15  16
HETATM   16  C   UNL     1     -10.072  18.126  68.089  1.00  0.00    -0.378 C  
BRANCH  16  17
HETATM   17  C   UNL     1     -10.783  19.292  67.378  1.00  0.00    -0.594 C  
HETATM   18  C   UNL     1     -10.574  19.285  65.867  1.00  0.00    -0.521 C  
ENDBRANCH  16  17
BRANCH  16  19
HETATM   19  C   UNL     1      -8.571  18.092  67.751  1.00  0.00    -0.244 C  
HETATM   20  C   UNL     1      -7.750  19.194  68.408  1.00  0.00    -0.359 C  
ENDBRANCH  16  19
ENDBRANCH  15  16
ENDBRANCH   8  15
BRANCH  10  21
HETATM   21  N   UNL     1      -8.700  13.894  68.449  1.00  0.00    -0.181 N  
HETATM   22  H   UNL     1      -8.691  12.986  67.983  1.00  0.00     0.000 HD 
HETATM   23  C   UNL     1      -7.540  14.378  69.014  1.00  0.00    -0.106 C  
HETATM   24  C   UNL     1      -6.336  13.492  68.835  1.00  0.00    -0.098 C  
HETATM   25  O   UNL     1      -7.470  15.444  69.612  1.00  0.00    -0.209 OA 
ENDBRANCH  10  21
ENDBRANCH   4   6
ENDBRANCH   3   4
ENDBRANCH   2   3
TORSDOF 8
ENDMDL
MODEL        9
REMARK 921   NORMALIZED FREE ENERGY PREDICTED BY IDOCK:   -5.65 KCAL/MOL
REMARK 922        TOTAL FREE ENERGY PREDICTED BY IDOCK:   -9.23 KCAL/MOL
REMARK 923 INTER-LIGAND FREE ENERGY PREDICTED BY IDOCK:   -7.99 KCAL/MOL
REMARK 924 INTRA-LIGAND FREE ENERGY PREDICTED BY IDOCK:   -1.24 KCAL/MOL
REMARK 927      BINDING AFFINITY PREDICTED BY RF-SCORE:    0.00 PKD
ROOT
HETATM    1  C   UNL     1     -10.072  19.635  68.324  1.00  0.00    -0.560 C  
HETATM    2  C   UNL     1     -10.340  19.584  66.830  1.00  0.00    -0.454 C  
ENDROOT
BRANCH   2   3
HETATM    3  O   UNL     1     -10.640  18.226  66.494  1.00  0.00    -0.362 OA 
BRANCH   3   4
HETATM    4  C   UNL     1      -9.604  17.522  65.977  1.00  0.00    -0.102 C  
HETATM    5  O   UNL     1      -8.486  17.960  65.748  1.00  0.00    -0.513 OA 
BRANCH   4   6
HETATM    6  C   UNL     1      -9.969  16.091  65.785  1.00  0.00    -0.382 C  
HETATM    7  C   UNL     1      -9.201  15.099  66.258  1.00  0.00    -0.336 C  
HETATM    8  C   UNL     1      -9.643  13.674  66.309  1.00  0.00    -0.239 C  
HETATM    9  H2  UNL     1     -12.943  14.074  66.462  1.00  0.00     0.000 HD 
HETATM   10  C   UNL     1     -10.675  13.299  65.210  1.00  0.00    -0.311 C  
HETATM   11  H1  UNL     1     -13.695  14.901  65.202  1.00  0.00     0.000 HD 
HETATM   12  C   UNL     1     -11.272  15.868  65.086  1.00  0.00    -0.228 C  
HETATM   13  C   UNL     1     -11.702  14.409  64.830  1.00  0.00    -0.408 C  
HETATM   14  N   UNL     1     -13.023  14.175  65.451  1.00  0.00    -0.709 NA 
BRANCH   8  15
HETATM   15  O   UNL     1     -10.091  13.565  67.660  1.00  0.00    -0.223 OA 
BRANCH  15  16
HETATM   16  C   UNL     1     -11.118  12.632  67.979  1.00  0.00    -0.251 C  
BRANCH  16  17
HETATM   17  C   UNL     1     -12.144  13.386  68.845  1.00  0.00    -0.289 C  
HETATM   18  C   UNL     1     -11.881  14.887  68.909  1.00  0.00    -0.334 C  
ENDBRANCH  16  17
BRANCH  16  19
HETATM   19  C   UNL     1     -10.585  11.381  68.699  1.00  0.00    -0.229 C  
HETATM   20  C   UNL     1     -11.426  10.930  69.887  1.00  0.00    -0.402 C  
ENDBRANCH  16  19
ENDBRANCH  15  16
ENDBRANCH   8  15
BRANCH  10  21
HETATM   21  N   UNL     1     -10.002  12.781  63.998  1.00  0.00    -0.603 N  
HETATM   22  H   UNL     1      -9.597  13.438  63.330  1.00  0.00     0.000 HD 
HETATM   23  C   UNL     1      -9.913  11.428  63.757  1.00  0.00    -0.341 C  
HETATM   24  C   UNL     1      -9.160  11.059  62.507  1.00  0.00    -0.362 C  
HETATM   25  O   UNL     1     -10.393  10.575  64.493  1.00  0.00    -0.348 OA 
ENDBRANCH  10  21
ENDBRANCH   4   6
ENDBRANCH   3   4
ENDBRANCH   2   3
TORSDOF 8
ENDMDL
MODEL       10
REMARK 921   NORMALIZED FREE ENERGY PREDICTED BY IDOCK:   -5.52 KCAL/MOL
REMARK 922        TOTAL FREE ENERGY PREDICTED BY IDOCK:   -9.04 KCAL/MOL
REMARK 923 INTER-LIGAND FREE ENERGY PREDICTED BY IDOCK:   -8.29 KCAL/MOL
REMARK 924 INTRA-LIGAND FREE ENERGY PREDICTED BY IDOCK:   -0.75 KCAL/MOL
REMARK 927      BINDING AFFINITY PREDICTED BY RF-SCORE:    0.00 PKD
ROOT
HETATM    1  C   UNL     1      -9.666  20.049  66.789  1.00  0.00    -0.563 C  
HETATM    2  C   UNL     1     -10.430  19.285  65.722  1.00  0.00    -0.359 C  
ENDROOT
BRANCH   2   3
HETATM    3  O   UNL     1      -9.848  17.982  65.627  1.00  0.00    -0.494 OA 
BRANCH   3   4
HETATM    4  C   UNL     1     -10.726  16.980  65.375  1.00  0.00    -0.116 C  
HETATM    5  O   UNL     1     -11.244  16.740  64.294  1.00  0.00    -1.163 OA 
BRANCH   4   6
HETATM    6  C   UNL     1     -10.934  16.132  66.580  1.00  0.00    -0.055 C  
HETATM    7  C   UNL     1     -11.657  15.004  66.532  1.00  0.00    -0.184 C  
HETATM    8  C   UNL     1     -11.688  14.003  67.639  1.00  0.00    -0.377 C  
HETATM    9  H2  UNL     1      -8.733  14.581  69.055  1.00  0.00     0.000 HD 
HETATM   10  C   UNL     1     -11.437  14.615  69.045  1.00  0.00    -0.291 C  
HETATM   11  H1  UNL     1      -8.432  16.130  69.643  1.00  0.00     0.000 HD 
HETATM   12  C   UNL     1     -10.228  16.610  67.809  1.00  0.00    -0.292 C  
HETATM   13  C   UNL     1     -10.419  15.794  69.104  1.00  0.00    -0.240 C  
HETATM   14  N   UNL     1      -9.098  15.359  69.604  1.00  0.00    -0.238 NA 
BRANCH   8  15
HETATM   15  O   UNL     1     -10.728  13.049  67.184  1.00  0.00    -0.251 OA 
BRANCH  15  16
HETATM   16  C   UNL     1     -11.169  11.752  66.792  1.00  0.00    -0.328 C  
BRANCH  16  17
HETATM   17  C   UNL     1     -10.823  10.801  67.952  1.00  0.00    -0.313 C  
HETATM   18  C   UNL     1     -11.796  10.910  69.122  1.00  0.00    -0.389 C  
ENDBRANCH  16  17
BRANCH  16  19
HETATM   19  C   UNL     1     -10.536  11.282  65.471  1.00  0.00    -0.323 C  
HETATM   20  C   UNL     1     -11.198  11.843  64.218  1.00  0.00    -0.424 C  
ENDBRANCH  16  19
ENDBRANCH  15  16
ENDBRANCH   8  15
BRANCH  10  21
HETATM   21  N   UNL     1     -12.709  14.996  69.697  1.00  0.00    -0.599 N  
HETATM   22  H   UNL     1     -13.392  15.549  69.178  1.00  0.00     0.000 HD 
HETATM   23  C   UNL     1     -12.986  14.618  70.992  1.00  0.00    -0.356 C  
HETATM   24  C   UNL     1     -14.338  15.046  71.497  1.00  0.00    -0.651 C  
HETATM   25  O   UNL     1     -12.212  13.976  71.691  1.00  0.00    -0.285 OA 
ENDBRANCH  10  21
ENDBRANCH   4   6
ENDBRANCH   3   4
ENDBRANCH   2   3
TORSDOF 8
ENDMDL
MODEL       11
REMARK 921   NORMALIZED FREE ENERGY PREDICTED BY IDOCK:   -5.50 KCAL/MOL
REMARK 922        TOTAL FREE ENERGY PREDICTED BY IDOCK:   -9.01 KCAL/MOL
REMARK 923 INTER-LIGAND FREE ENERGY PREDICTED BY IDOCK:   -8.13 KCAL/MOL
REMARK 924 INTRA-LIGAND FREE ENERGY PREDICTED BY IDOCK:   -0.87 KCAL/MOL
REMARK 927      BINDING AFFINITY PREDICTED BY RF-SCORE:    0.00 PKD
ROOT
HETATM    1  C   UNL     1     -10.523  18.716  67.409  1.00  0.00    -0.467 C  
HETATM    2  C   UNL     1     -10.323  18.168  66.008  1.00  0.00    -0.353 C  
ENDROOT
BRANCH   2   3
HETATM    3  O   UNL     1     -10.545  16.756  66.063  1.00  0.00    -0.307 OA 
BRANCH   3   4
HETATM    4  C   UNL     1     -11.065  16.213  64.934  1.00  0.00    -0.325 C  
HETATM    5  O   UNL     1     -11.479  16.836  63.968  1.00  0.00    -1.198 OA 
BRANCH   4   6
HETATM    6  C   UNL     1     -11.000  14.726  64.974  1.00  0.00    -0.426 C  
HETATM    7  C   UNL     1     -10.268  14.077  65.891  1.00  0.00    -0.332 C  
HETATM    8  C   UNL     1     -10.366  12.606  66.125  1.00  0.00    -0.256 C  
HETATM    9  H2  UNL     1     -13.477  12.038  65.090  1.00  0.00     0.000 HD 
HETATM   10  C   UNL     1     -10.792  11.798  64.868  1.00  0.00    -0.298 C  
HETATM   11  H1  UNL     1     -13.859  12.428  63.496  1.00  0.00     0.000 HD 
HETATM   12  C   UNL     1     -11.856  14.037  63.959  1.00  0.00    -0.339 C  
HETATM   13  C   UNL     1     -11.819  12.495  63.925  1.00  0.00    -0.463 C  
HETATM   14  N   UNL     1     -13.187  11.972  64.114  1.00  0.00    -0.682 NA 
BRANCH   8  15
HETATM   15  O   UNL     1     -11.256  12.556  67.241  1.00  0.00    -0.264 OA 
BRANCH  15  16
HETATM   16  C   UNL     1     -10.773  12.080  68.493  1.00  0.00    -0.234 C  
BRANCH  16  17
HETATM   17  C   UNL     1      -9.383  11.473  68.227  1.00  0.00    -0.190 C  
HETATM   18  C   UNL     1      -9.096  10.244  69.083  1.00  0.00    -0.199 C  
ENDBRANCH  16  17
BRANCH  16  19
HETATM   19  C   UNL     1     -11.719  11.056  69.145  1.00  0.00    -0.403 C  
HETATM   20  C   UNL     1     -12.255  11.471  70.510  1.00  0.00    -0.469 C  
ENDBRANCH  16  19
ENDBRANCH  15  16
ENDBRANCH   8  15
BRANCH  10  21
HETATM   21  N   UNL     1      -9.613  11.340  64.102  1.00  0.00    -0.293 N  
HETATM   22  H   UNL     1      -9.234  11.933  63.363  1.00  0.00     0.000 HD 
HETATM   23  C   UNL     1      -9.019  10.126  64.369  1.00  0.00    -0.233 C  
HETATM   24  C   UNL     1      -7.803   9.824  63.533  1.00  0.00    -0.140 C  
HETATM   25  O   UNL     1      -9.425   9.345  65.219  1.00  0.00    -0.265 OA 
ENDBRANCH  10  21
ENDBRANCH   4   6
ENDBRANCH   3   4
ENDBRANCH   2   3
TORSDOF 8
ENDMDL
MODEL       12
REMARK 921   NORMALIZED FREE ENERGY PREDICTED BY IDOCK:   -5.49 KCAL/MOL
REMARK 922        TOTAL FREE ENERGY PREDICTED BY IDOCK:   -9.00 KCAL/MOL
REMARK 923 INTER-LIGAND FREE ENERGY PREDICTED BY IDOCK:   -8.26 KCAL/MOL
REMARK 924 INTRA-LIGAND FREE ENERGY PREDICTED BY IDOCK:   -0.74 KCAL/MOL
REMARK 927      BINDING AFFINITY PREDICTED BY RF-SCORE:    0.00 PKD
ROOT
HETATM    1  C   UNL     1     -10.541  19.706  67.686  1.00  0.00    -0.556 C  
HETATM    2  C   UNL     1     -10.270  19.035  66.352  1.00  0.00    -0.437 C  
ENDROOT
BRANCH   2   3
HETATM    3  O   UNL     1     -10.345  17.622  66.559  1.00  0.00    -0.343 OA 
BRANCH   3   4
HETATM    4  C   UNL     1     -10.879  16.919  65.529  1.00  0.00    -0.096 C  
HETATM    5  O   UNL     1     -11.235  17.385  64.457  1.00  0.00    -1.018 OA 
BRANCH   4   6
HETATM    6  C   UNL     1     -10.910  15.462  65.832  1.00  0.00    -0.328 C  
HETATM    7  C   UNL     1     -10.476  14.977  67.004  1.00  0.00    -0.278 C  
HETATM    8  C   UNL     1     -10.713  13.570  67.445  1.00  0.00    -0.263 C  
HETATM    9  H2  UNL     1     -13.478  12.860  65.736  1.00  0.00     0.000 HD 
HETATM   10  C   UNL     1     -10.845  12.559  66.274  1.00  0.00    -0.268 C  
HETATM   11  H1  UNL     1     -13.413  12.968  64.057  1.00  0.00     0.000 HD 
HETATM   12  C   UNL     1     -11.511  14.614  64.756  1.00  0.00    -0.410 C  
HETATM   13  C   UNL     1     -11.552  13.090  64.991  1.00  0.00    -0.325 C  
HETATM   14  N   UNL     1     -12.950  12.621  64.897  1.00  0.00    -0.850 NA 
BRANCH   8  15
HETATM   15  O   UNL     1     -11.861  13.726  68.279  1.00  0.00    -0.344 OA 
BRANCH  15  16
HETATM   16  C   UNL     1     -11.686  14.109  69.640  1.00  0.00    -0.316 C  
BRANCH  16  17
HETATM   17  C   UNL     1     -12.343  13.009  70.494  1.00  0.00    -0.365 C  
HETATM   18  C   UNL     1     -12.168  11.613  69.906  1.00  0.00    -0.310 C  
ENDBRANCH  16  17
BRANCH  16  19
HETATM   19  C   UNL     1     -12.280  15.493  69.950  1.00  0.00    -0.351 C  
HETATM   20  C   UNL     1     -13.016  15.580  71.282  1.00  0.00    -0.565 C  
ENDBRANCH  16  19
ENDBRANCH  15  16
ENDBRANCH   8  15
BRANCH  10  21
HETATM   21  N   UNL     1      -9.535  11.962  65.933  1.00  0.00    -0.270 N  
HETATM   22  H   UNL     1      -8.784  12.562  65.589  1.00  0.00     0.000 HD 
HETATM   23  C   UNL     1      -9.312  10.609  66.071  1.00  0.00    -0.186 C  
HETATM   24  C   UNL     1      -7.916  10.163  65.725  1.00  0.00    -0.140 C  
HETATM   25  O   UNL     1     -10.164   9.817  66.452  1.00  0.00    -0.242 OA 
ENDBRANCH  10  21
ENDBRANCH   4   6
ENDBRANCH   3   4
ENDBRANCH   2   3
TORSDOF 8
ENDMDL
MODEL       13
REMARK 921   NORMALIZED FREE ENERGY PREDICTED BY IDOCK:   -5.47 KCAL/MOL
REMARK 922        TOTAL FREE ENERGY PREDICTED BY IDOCK:   -8.97 KCAL/MOL
REMARK 923 INTER-LIGAND FREE ENERGY PREDICTED BY IDOCK:   -7.92 KCAL/MOL
REMARK 924 INTRA-LIGAND FREE ENERGY PREDICTED BY IDOCK:   -1.05 KCAL/MOL
REMARK 927      BINDING AFFINITY PREDICTED BY RF-SCORE:    0.00 PKD
ROOT
HETATM    1  C   UNL     1     -10.962  11.596  63.361  1.00  0.00    -0.442 C  
HETATM    2  C   UNL     1     -12.402  11.993  63.632  1.00  0.00    -0.539 C  
ENDROOT
BRANCH   2   3
HETATM    3  O   UNL     1     -12.405  12.833  64.790  1.00  0.00    -0.433 OA 
BRANCH   3   4
HETATM    4  C   UNL     1     -12.188  14.149  64.543  1.00  0.00    -0.445 C  
HETATM    5  O   UNL     1     -12.630  14.779  63.592  1.00  0.00    -0.749 OA 
BRANCH   4   6
HETATM    6  C   UNL     1     -11.394  14.777  65.634  1.00  0.00    -0.343 C  
HETATM    7  C   UNL     1     -10.457  15.703  65.379  1.00  0.00    -0.435 C  
HETATM    8  C   UNL     1      -9.816  16.531  66.443  1.00  0.00    -0.293 C  
HETATM    9  H2  UNL     1     -12.206  16.496  68.758  1.00  0.00     0.000 HD 
HETATM   10  C   UNL     1      -9.754  15.834  67.830  1.00  0.00    -0.216 C  
HETATM   11  H1  UNL     1     -12.694  15.002  69.361  1.00  0.00     0.000 HD 
HETATM   12  C   UNL     1     -11.768  14.336  67.013  1.00  0.00    -0.427 C  
HETATM   13  C   UNL     1     -10.968  14.926  68.192  1.00  0.00    -0.272 C  
HETATM   14  N   UNL     1     -11.899  15.596  69.124  1.00  0.00    -0.377 NA 
BRANCH   8  15
HETATM   15  O   UNL     1     -10.588  17.729  66.372  1.00  0.00    -0.314 OA 
BRANCH  15  16
HETATM   16  C   UNL     1      -9.919  18.984  66.288  1.00  0.00    -0.398 C  
BRANCH  16  17
HETATM   17  C   UNL     1      -8.410  18.678  66.284  1.00  0.00    -0.249 C  
HETATM   18  C   UNL     1      -7.572  19.815  65.709  1.00  0.00    -0.301 C  
ENDBRANCH  16  17
BRANCH  16  19
HETATM   19  C   UNL     1     -10.296  19.938  67.435  1.00  0.00    -0.565 C  
HETATM   20  C   UNL     1     -10.000  19.397  68.829  1.00  0.00    -0.522 C  
ENDBRANCH  16  19
ENDBRANCH  15  16
ENDBRANCH   8  15
BRANCH  10  21
HETATM   21  N   UNL     1      -8.485  15.092  67.999  1.00  0.00    -0.145 N  
HETATM   22  H   UNL     1      -8.407  14.142  67.634  1.00  0.00     0.000 HD 
HETATM   23  C   UNL     1      -7.407  15.662  68.640  1.00  0.00    -0.127 C  
HETATM   24  C   UNL     1      -6.177  14.796  68.692  1.00  0.00    -0.086 C  
HETATM   25  O   UNL     1      -7.425  16.785  69.127  1.00  0.00    -0.239 OA 
ENDBRANCH  10  21
ENDBRANCH   4   6
ENDBRANCH   3   4
ENDBRANCH   2   3
TORSDOF 8
ENDMDL
MODEL       14
REMARK 921   NORMALIZED FREE ENERGY PREDICTED BY IDOCK:   -5.45 KCAL/MOL
REMARK 922        TOTAL FREE ENERGY PREDICTED BY IDOCK:   -8.94 KCAL/MOL
REMARK 923 INTER-LIGAND FREE ENERGY PREDICTED BY IDOCK:   -7.81 KCAL/MOL
REMARK 924 INTRA-LIGAND FREE ENERGY PREDICTED BY IDOCK:   -1.13 KCAL/MOL
REMARK 927      BINDING AFFINITY PREDICTED BY RF-SCORE:    0.00 PKD
ROOT
HETATM    1  C   UNL     1     -12.138  15.863  72.836  1.00  0.00    -0.612 C  
HETATM    2  C   UNL     1     -13.210  15.515  71.819  1.00  0.00    -0.481 C  
ENDROOT
BRANCH   2   3
HETATM    3  O   UNL     1     -12.558  15.301  70.564  1.00  0.00    -0.365 OA 
BRANCH   3   4
HETATM    4  C   UNL     1     -12.298  14.003  70.268  1.00  0.00    -0.358 C  
HETATM    5  O   UNL     1     -12.539  13.045  70.987  1.00  0.00    -0.364 OA 
BRANCH   4   6
HETATM    6  C   UNL     1     -11.741  13.867  68.894  1.00  0.00    -0.373 C  
HETATM    7  C   UNL     1     -11.897  14.828  67.972  1.00  0.00    -0.324 C  
HETATM    8  C   UNL     1     -11.156  14.848  66.677  1.00  0.00    -0.329 C  
HETATM    9  H2  UNL     1      -8.439  13.117  67.511  1.00  0.00     0.000 HD 
HETATM   10  C   UNL     1     -10.759  13.438  66.159  1.00  0.00    -0.284 C  
HETATM   11  H1  UNL     1      -8.651  11.541  68.067  1.00  0.00     0.000 HD 
HETATM   12  C   UNL     1     -10.956  12.615  68.660  1.00  0.00    -0.292 C  
HETATM   13  C   UNL     1     -10.370  12.395  67.250  1.00  0.00    -0.215 C  
HETATM   14  N   UNL     1      -8.906  12.224  67.353  1.00  0.00    -0.176 NA 
BRANCH   8  15
HETATM   15  O   UNL     1     -10.080  15.735  66.981  1.00  0.00    -0.251 OA 
BRANCH  15  16
HETATM   16  C   UNL     1     -10.359  16.966  67.641  1.00  0.00    -0.317 C  
BRANCH  16  17
HETATM   17  C   UNL     1     -10.214  18.075  66.583  1.00  0.00    -0.375 C  
HETATM   18  C   UNL     1     -10.557  19.461  67.121  1.00  0.00    -0.596 C  
ENDBRANCH  16  17
BRANCH  16  19
HETATM   19  C   UNL     1      -9.440  17.216  68.849  1.00  0.00    -0.217 C  
HETATM   20  C   UNL     1      -8.669  15.989  69.320  1.00  0.00    -0.224 C  
ENDBRANCH  16  19
ENDBRANCH  15  16
ENDBRANCH   8  15
BRANCH  10  21
HETATM   21  N   UNL     1     -11.799  12.885  65.263  1.00  0.00    -0.367 N  
HETATM   22  H   UNL     1     -12.775  12.895  65.561  1.00  0.00     0.000 HD 
HETATM   23  C   UNL     1     -11.471  12.358  64.033  1.00  0.00    -0.408 C  
HETATM   24  C   UNL     1     -12.645  11.877  63.222  1.00  0.00    -0.473 C  
HETATM   25  O   UNL     1     -10.324  12.285  63.611  1.00  0.00    -0.412 OA 
ENDBRANCH  10  21
ENDBRANCH   4   6
ENDBRANCH   3   4
ENDBRANCH   2   3
TORSDOF 8
ENDMDL
MODEL       15
REMARK 921   NORMALIZED FREE ENERGY PREDICTED BY IDOCK:   -5.45 KCAL/MOL
REMARK 922        TOTAL FREE ENERGY PREDICTED BY IDOCK:   -8.94 KCAL/MOL
REMARK 923 INTER-LIGAND FREE ENERGY PREDICTED BY IDOCK:   -8.11 KCAL/MOL
REMARK 924 INTRA-LIGAND FREE ENERGY PREDICTED BY IDOCK:   -0.83 KCAL/MOL
REMARK 927      BINDING AFFINITY PREDICTED BY RF-SCORE:    0.00 PKD
ROOT
HETATM    1  C   UNL     1     -11.290  11.614  63.436  1.00  0.00    -0.380 C  
HETATM    2  C   UNL     1     -12.766  11.827  63.721  1.00  0.00    -0.255 C  
ENDROOT
BRANCH   2   3
HETATM    3  O   UNL     1     -12.864  12.642  64.892  1.00  0.00    -0.763 OA 
BRANCH   3   4
HETATM    4  C   UNL     1     -12.387  13.904  64.753  1.00  0.00    -0.400 C  
HETATM    5  O   UNL     1     -12.624  14.657  63.820  1.00  0.00    -0.820 OA 
BRANCH   4   6
HETATM    6  C   UNL     1     -11.582  14.308  65.938  1.00  0.00    -0.358 C  
HETATM    7  C   UNL     1     -12.153  14.837  67.030  1.00  0.00    -0.120 C  
HETATM    8  C   UNL     1     -11.429  15.026  68.322  1.00  0.00    -0.332 C  
HETATM    9  H2  UNL     1      -9.110  12.653  68.065  1.00  0.00     0.000 HD 
HETATM   10  C   UNL     1      -9.898  15.238  68.158  1.00  0.00    -0.217 C  
HETATM   11  H1  UNL     1      -8.051  12.727  66.757  1.00  0.00     0.000 HD 
HETATM   12  C   UNL     1     -10.118  14.022  65.825  1.00  0.00    -0.345 C  
HETATM   13  C   UNL     1      -9.218  14.438  67.007  1.00  0.00    -0.234 C  
HETATM   14  N   UNL     1      -8.497  13.251  67.511  1.00  0.00    -0.189 NA 
BRANCH   8  15
HETATM   15  O   UNL     1     -11.832  13.862  69.044  1.00  0.00    -0.315 OA 
BRANCH  15  16
HETATM   16  C   UNL     1     -11.935  13.927  70.463  1.00  0.00    -0.314 C  
BRANCH  16  17
HETATM   17  C   UNL     1     -12.626  12.626  70.913  1.00  0.00    -0.338 C  
HETATM   18  C   UNL     1     -13.482  12.806  72.162  1.00  0.00    -0.591 C  
ENDBRANCH  16  17
BRANCH  16  19
HETATM   19  C   UNL     1     -12.703  15.168  70.949  1.00  0.00    -0.464 C  
HETATM   20  C   UNL     1     -11.937  16.037  71.939  1.00  0.00    -0.606 C  
ENDBRANCH  16  19
ENDBRANCH  15  16
ENDBRANCH   8  15
BRANCH  10  21
HETATM   21  N   UNL     1      -9.566  16.676  68.055  1.00  0.00    -0.223 N  
HETATM   22  H   UNL     1     -10.216  17.309  67.587  1.00  0.00     0.000 HD 
HETATM   23  C   UNL     1      -8.394  17.175  68.580  1.00  0.00    -0.257 C  
HETATM   24  C   UNL     1      -8.223  18.664  68.433  1.00  0.00    -0.361 C  
HETATM   25  O   UNL     1      -7.550  16.482  69.134  1.00  0.00    -0.232 OA 
ENDBRANCH  10  21
ENDBRANCH   4   6
ENDBRANCH   3   4
ENDBRANCH   2   3
TORSDOF 8
ENDMDL
MODEL       16
REMARK 921   NORMALIZED FREE ENERGY PREDICTED BY IDOCK:   -5.44 KCAL/MOL
REMARK 922        TOTAL FREE ENERGY PREDICTED BY IDOCK:   -8.93 KCAL/MOL
REMARK 923 INTER-LIGAND FREE ENERGY PREDICTED BY IDOCK:   -7.93 KCAL/MOL
REMARK 924 INTRA-LIGAND FREE ENERGY PREDICTED BY IDOCK:   -0.99 KCAL/MOL
REMARK 927      BINDING AFFINITY PREDICTED BY RF-SCORE:    0.00 PKD
ROOT
HETATM    1  C   UNL     1     -13.909  13.564  72.288  1.00  0.00    -0.680 C  
HETATM    2  C   UNL     1     -14.295  15.009  72.026  1.00  0.00    -0.573 C  
ENDROOT
BRANCH   2   3
HETATM    3  O   UNL     1     -13.778  15.365  70.741  1.00  0.00    -0.394 OA 
BRANCH   3   4
HETATM    4  C   UNL     1     -12.449  15.632  70.712  1.00  0.00    -0.435 C  
HETATM    5  O   UNL     1     -11.804  16.144  71.615  1.00  0.00    -0.466 OA 
BRANCH   4   6
HETATM    6  C   UNL     1     -11.830  15.147  69.448  1.00  0.00    -0.357 C  
HETATM    7  C   UNL     1     -11.657  15.956  68.392  1.00  0.00    -0.317 C  
HETATM    8  C   UNL     1     -10.828  15.588  67.207  1.00  0.00    -0.313 C  
HETATM    9  H2  UNL     1      -8.726  13.412  68.594  1.00  0.00     0.000 HD 
HETATM   10  C   UNL     1     -10.763  14.059  66.936  1.00  0.00    -0.285 C  
HETATM   11  H1  UNL     1      -9.381  12.044  69.327  1.00  0.00     0.000 HD 
HETATM   12  C   UNL     1     -11.376  13.722  69.482  1.00  0.00    -0.283 C  
HETATM   13  C   UNL     1     -10.748  13.143  68.198  1.00  0.00    -0.242 C  
HETATM   14  N   UNL     1      -9.391  12.644  68.501  1.00  0.00    -0.137 NA 
BRANCH   8  15
HETATM   15  O   UNL     1      -9.590  16.228  67.518  1.00  0.00    -0.227 OA 
BRANCH  15  16
HETATM   16  C   UNL     1      -9.179  17.356  66.752  1.00  0.00    -0.260 C  
BRANCH  16  17
HETATM   17  C   UNL     1      -7.714  17.105  66.351  1.00  0.00    -0.345 C  
HETATM   18  C   UNL     1      -7.019  18.354  65.820  1.00  0.00    -0.288 C  
ENDBRANCH  16  17
BRANCH  16  19
HETATM   19  C   UNL     1      -9.334  18.683  67.516  1.00  0.00    -0.301 C  
HETATM   20  C   UNL     1     -10.542  19.513  67.101  1.00  0.00    -0.605 C  
ENDBRANCH  16  19
ENDBRANCH  15  16
ENDBRANCH   8  15
BRANCH  10  21
HETATM   21  N   UNL     1     -11.829  13.636  66.002  1.00  0.00    -0.365 N  
HETATM   22  H   UNL     1     -12.755  14.060  66.072  1.00  0.00     0.000 HD 
HETATM   23  C   UNL     1     -11.593  12.679  65.040  1.00  0.00    -0.345 C  
HETATM   24  C   UNL     1     -12.765  12.390  64.140  1.00  0.00    -0.446 C  
HETATM   25  O   UNL     1     -10.521  12.104  64.904  1.00  0.00    -0.269 OA 
ENDBRANCH  10  21
ENDBRANCH   4   6
ENDBRANCH   3   4
ENDBRANCH   2   3
TORSDOF 8
ENDMDL
MODEL       17
REMARK 921   NORMALIZED FREE ENERGY PREDICTED BY IDOCK:   -5.44 KCAL/MOL
REMARK 922        TOTAL FREE ENERGY PREDICTED BY IDOCK:   -8.92 KCAL/MOL
REMARK 923 INTER-LIGAND FREE ENERGY PREDICTED BY IDOCK:   -8.04 KCAL/MOL
REMARK 924 INTRA-LIGAND FREE ENERGY PREDICTED BY IDOCK:   -0.88 KCAL/MOL
REMARK 927      BINDING AFFINITY PREDICTED BY RF-SCORE:    0.00 PKD
ROOT
HETATM    1  C   UNL     1     -10.409  18.578  67.476  1.00  0.00    -0.440 C  
HETATM    2  C   UNL     1     -10.364  18.131  66.026  1.00  0.00    -0.353 C  
ENDROOT
BRANCH   2   3
HETATM    3  O   UNL     1     -10.378  16.700  66.018  1.00  0.00    -0.330 OA 
BRANCH   3   4
HETATM    4  C   UNL     1     -11.024  16.140  64.965  1.00  0.00    -0.344 C  
HETATM    5  O   UNL     1     -11.466  16.742  63.997  1.00  0.00    -1.198 OA 
BRANCH   4   6
HETATM    6  C   UNL     1     -11.066  14.657  65.088  1.00  0.00    -0.382 C  
HETATM    7  C   UNL     1     -10.525  14.022  66.137  1.00  0.00    -0.297 C  
HETATM    8  C   UNL     1     -10.755  12.575  66.425  1.00  0.00    -0.249 C  
HETATM    9  H2  UNL     1     -13.706  12.130  64.954  1.00  0.00     0.000 HD 
HETATM   10  C   UNL     1     -11.041  11.721  65.160  1.00  0.00    -0.282 C  
HETATM   11  H1  UNL     1     -13.818  12.447  63.303  1.00  0.00     0.000 HD 
HETATM   12  C   UNL     1     -11.803  13.961  63.988  1.00  0.00    -0.372 C  
HETATM   13  C   UNL     1     -11.865  12.420  64.036  1.00  0.00    -0.439 C  
HETATM   14  N   UNL     1     -13.278  11.990  64.039  1.00  0.00    -0.677 NA 
BRANCH   8  15
HETATM   15  O   UNL     1     -11.803  12.644  67.392  1.00  0.00    -0.364 OA 
BRANCH  15  16
HETATM   16  C   UNL     1     -11.539  12.241  68.733  1.00  0.00    -0.330 C  
BRANCH  16  17
HETATM   17  C   UNL     1     -11.168  13.518  69.510  1.00  0.00    -0.194 C  
HETATM   18  C   UNL     1     -12.282  13.997  70.435  1.00  0.00    -0.433 C  
ENDBRANCH  16  17
BRANCH  16  19
HETATM   19  C   UNL     1     -10.428  11.181  68.829  1.00  0.00    -0.227 C  
HETATM   20  C   UNL     1     -10.931   9.757  69.029  1.00  0.00    -0.193 C  
ENDBRANCH  16  19
ENDBRANCH  15  16
ENDBRANCH   8  15
BRANCH  10  21
HETATM   21  N   UNL     1      -9.793  11.150  64.607  1.00  0.00    -0.261 N  
HETATM   22  H   UNL     1      -9.261  11.681  63.917  1.00  0.00     0.000 HD 
HETATM   23  C   UNL     1      -9.338   9.913  65.008  1.00  0.00    -0.264 C  
HETATM   24  C   UNL     1      -8.032   9.492  64.388  1.00  0.00    -0.135 C  
HETATM   25  O   UNL     1      -9.927   9.201  65.811  1.00  0.00    -0.277 OA 
ENDBRANCH  10  21
ENDBRANCH   4   6
ENDBRANCH   3   4
ENDBRANCH   2   3
TORSDOF 8
ENDMDL
MODEL       18
REMARK 921   NORMALIZED FREE ENERGY PREDICTED BY IDOCK:   -5.39 KCAL/MOL
REMARK 922        TOTAL FREE ENERGY PREDICTED BY IDOCK:   -8.85 KCAL/MOL
REMARK 923 INTER-LIGAND FREE ENERGY PREDICTED BY IDOCK:   -7.89 KCAL/MOL
REMARK 924 INTRA-LIGAND FREE ENERGY PREDICTED BY IDOCK:   -0.97 KCAL/MOL
REMARK 927      BINDING AFFINITY PREDICTED BY RF-SCORE:    0.00 PKD
ROOT
HETATM    1  C   UNL     1     -14.318   7.822  71.678  1.00  0.00    -0.607 C  
HETATM    2  C   UNL     1     -13.715   9.052  72.332  1.00  0.00    -0.479 C  
ENDROOT
BRANCH   2   3
HETATM    3  O   UNL     1     -13.262   9.916  71.286  1.00  0.00    -0.377 OA 
BRANCH   3   4
HETATM    4  C   UNL     1     -11.915   9.987  71.145  1.00  0.00    -0.392 C  
HETATM    5  O   UNL     1     -11.096   9.349  71.790  1.00  0.00    -0.370 OA 
BRANCH   4   6
HETATM    6  C   UNL     1     -11.538  10.898  70.030  1.00  0.00    -0.424 C  
HETATM    7  C   UNL     1     -12.272  11.978  69.725  1.00  0.00    -0.226 C  
HETATM    8  C   UNL     1     -11.808  13.044  68.789  1.00  0.00    -0.317 C  
HETATM    9  H2  UNL     1      -8.510  12.726  69.101  1.00  0.00     0.000 HD 
HETATM   10  C   UNL     1     -10.818  12.540  67.703  1.00  0.00    -0.225 C  
HETATM   11  H1  UNL     1      -7.824  11.237  68.716  1.00  0.00     0.000 HD 
HETATM   12  C   UNL     1     -10.263  10.540  69.336  1.00  0.00    -0.245 C  
HETATM   13  C   UNL     1      -9.824  11.426  68.152  1.00  0.00    -0.191 C  
HETATM   14  N   UNL     1      -8.475  11.966  68.422  1.00  0.00    -0.166 NA 
BRANCH   8  15
HETATM   15  O   UNL     1     -11.303  14.019  69.701  1.00  0.00    -0.252 OA 
BRANCH  15  16
HETATM   16  C   UNL     1     -11.978  15.267  69.829  1.00  0.00    -0.347 C  
BRANCH  16  17
HETATM   17  C   UNL     1     -10.972  16.355  69.408  1.00  0.00    -0.325 C  
HETATM   18  C   UNL     1     -10.847  16.498  67.895  1.00  0.00    -0.326 C  
ENDBRANCH  16  17
BRANCH  16  19
HETATM   19  C   UNL     1     -12.511  15.513  71.251  1.00  0.00    -0.486 C  
HETATM   20  C   UNL     1     -13.977  15.147  71.447  1.00  0.00    -0.595 C  
ENDBRANCH  16  19
ENDBRANCH  15  16
ENDBRANCH   8  15
BRANCH  10  21
HETATM   21  N   UNL     1     -11.534  12.130  66.476  1.00  0.00    -0.363 N  
HETATM   22  H   UNL     1     -12.082  11.269  66.479  1.00  0.00     0.000 HD 
HETATM   23  C   UNL     1     -11.473  12.891  65.329  1.00  0.00    -0.313 C  
HETATM   24  C   UNL     1     -12.291  12.364  64.180  1.00  0.00    -0.558 C  
HETATM   25  O   UNL     1     -10.819  13.921  65.233  1.00  0.00    -0.304 OA 
ENDBRANCH  10  21
ENDBRANCH   4   6
ENDBRANCH   3   4
ENDBRANCH   2   3
TORSDOF 8
ENDMDL
MODEL       19
REMARK 921   NORMALIZED FREE ENERGY PREDICTED BY IDOCK:   -5.37 KCAL/MOL
REMARK 922        TOTAL FREE ENERGY PREDICTED BY IDOCK:   -8.82 KCAL/MOL
REMARK 923 INTER-LIGAND FREE ENERGY PREDICTED BY IDOCK:   -8.10 KCAL/MOL
REMARK 924 INTRA-LIGAND FREE ENERGY PREDICTED BY IDOCK:   -0.72 KCAL/MOL
REMARK 927      BINDING AFFINITY PREDICTED BY RF-SCORE:    0.00 PKD
ROOT
HETATM    1  C   UNL     1     -10.769  18.967  67.290  1.00  0.00    -0.556 C  
HETATM    2  C   UNL     1     -10.418  18.589  65.863  1.00  0.00    -0.347 C  
ENDROOT
BRANCH   2   3
HETATM    3  O   UNL     1      -9.815  17.292  65.899  1.00  0.00    -0.494 OA 
BRANCH   3   4
HETATM    4  C   UNL     1     -10.628  16.271  65.532  1.00  0.00    -0.353 C  
HETATM    5  O   UNL     1     -11.128  16.119  64.427  1.00  0.00    -0.628 OA 
BRANCH   4   6
HETATM    6  C   UNL     1     -10.786  15.286  66.636  1.00  0.00    -0.309 C  
HETATM    7  C   UNL     1     -11.913  14.577  66.792  1.00  0.00    -0.364 C  
HETATM    8  C   UNL     1     -12.027  13.414  67.721  1.00  0.00    -0.324 C  
HETATM    9  H2  UNL     1      -8.852  12.424  67.836  1.00  0.00     0.000 HD 
HETATM   10  C   UNL     1     -11.074  13.494  68.946  1.00  0.00    -0.267 C  
HETATM   11  H1  UNL     1      -7.703  13.528  68.381  1.00  0.00     0.000 HD 
HETATM   12  C   UNL     1      -9.577  15.119  67.501  1.00  0.00    -0.207 C  
HETATM   13  C   UNL     1      -9.677  14.132  68.682  1.00  0.00    -0.196 C  
HETATM   14  N   UNL     1      -8.618  13.110  68.553  1.00  0.00    -0.110 NA 
BRANCH   8  15
HETATM   15  O   UNL     1     -11.819  12.319  66.829  1.00  0.00    -0.533 OA 
BRANCH  15  16
HETATM   16  C   UNL     1     -11.163  12.550  65.586  1.00  0.00    -0.317 C  
BRANCH  16  17
HETATM   17  C   UNL     1     -12.142  12.106  64.483  1.00  0.00    -0.416 C  
HETATM   18  C   UNL     1     -12.164  13.054  63.289  1.00  0.00    -0.464 C  
ENDBRANCH  16  17
BRANCH  16  19
HETATM   19  C   UNL     1      -9.819  11.809  65.476  1.00  0.00    -0.262 C  
HETATM   20  C   UNL     1      -9.874  10.517  64.670  1.00  0.00    -0.404 C  
ENDBRANCH  16  19
ENDBRANCH  15  16
ENDBRANCH   8  15
BRANCH  10  21
HETATM   21  N   UNL     1     -11.735  14.151  70.095  1.00  0.00    -0.362 N  
HETATM   22  H   UNL     1     -11.674  15.164  70.196  1.00  0.00     0.000 HD 
HETATM   23  C   UNL     1     -12.430  13.417  71.030  1.00  0.00    -0.353 C  
HETATM   24  C   UNL     1     -13.082  14.234  72.114  1.00  0.00    -0.469 C  
HETATM   25  O   UNL     1     -12.531  12.197  70.997  1.00  0.00    -0.370 OA 
ENDBRANCH  10  21
ENDBRANCH   4   6
ENDBRANCH   3   4
ENDBRANCH   2   3
TORSDOF 8
ENDMDL
MODEL       20
REMARK 921   NORMALIZED FREE ENERGY PREDICTED BY IDOCK:   -5.29 KCAL/MOL
REMARK 922        TOTAL FREE ENERGY PREDICTED BY IDOCK:   -8.71 KCAL/MOL
REMARK 923 INTER-LIGAND FREE ENERGY PREDICTED BY IDOCK:   -7.63 KCAL/MOL
REMARK 924 INTRA-LIGAND FREE ENERGY PREDICTED BY IDOCK:   -1.07 KCAL/MOL
REMARK 927      BINDING AFFINITY PREDICTED BY RF-SCORE:    0.00 PKD
ROOT
HETATM    1  C   UNL     1     -11.792  15.974  72.100  1.00  0.00    -0.623 C  
HETATM    2  C   UNL     1     -12.852  15.565  71.093  1.00  0.00    -0.489 C  
ENDROOT
BRANCH   2   3
HETATM    3  O   UNL     1     -12.300  15.754  69.787  1.00  0.00    -0.319 OA 
BRANCH   3   4
HETATM    4  C   UNL     1     -11.707  14.658  69.252  1.00  0.00    -0.312 C  
HETATM    5  O   UNL     1     -11.928  13.499  69.571  1.00  0.00    -0.311 OA 
BRANCH   4   6
HETATM    6  C   UNL     1     -10.786  15.032  68.144  1.00  0.00    -0.263 C  
HETATM    7  C   UNL     1      -9.968  14.135  67.574  1.00  0.00    -0.236 C  
HETATM    8  C   UNL     1      -9.216  14.399  66.312  1.00  0.00    -0.170 C  
HETATM    9  H2  UNL     1     -11.184  16.685  64.905  1.00  0.00     0.000 HD 
HETATM   10  C   UNL     1      -8.880  15.899  66.084  1.00  0.00    -0.328 C  
HETATM   11  H1  UNL     1     -11.465  18.111  65.756  1.00  0.00     0.000 HD 
HETATM   12  C   UNL     1     -10.898  16.454  67.693  1.00  0.00    -0.280 C  
HETATM   13  C   UNL     1      -9.955  16.920  66.564  1.00  0.00    -0.301 C  
HETATM   14  N   UNL     1     -10.761  17.442  65.442  1.00  0.00    -0.576 NA 
BRANCH   8  15
HETATM   15  O   UNL     1     -10.068  13.788  65.343  1.00  0.00    -0.313 OA 
BRANCH  15  16
HETATM   16  C   UNL     1     -10.679  12.537  65.646  1.00  0.00    -0.266 C  
BRANCH  16  17
HETATM   17  C   UNL     1      -9.867  11.460  64.903  1.00  0.00    -0.301 C  
HETATM   18  C   UNL     1     -10.342  11.237  63.471  1.00  0.00    -0.463 C  
ENDBRANCH  16  17
BRANCH  16  19
HETATM   19  C   UNL     1     -12.166  12.491  65.253  1.00  0.00    -0.493 C  
HETATM   20  C   UNL     1     -12.838  13.856  65.164  1.00  0.00    -0.383 C  
ENDBRANCH  16  19
ENDBRANCH  15  16
ENDBRANCH   8  15
BRANCH  10  21
HETATM   21  N   UNL     1      -7.555  16.241  66.645  1.00  0.00    -0.246 N  
HETATM   22  H   UNL     1      -7.150  15.650  67.373  1.00  0.00     0.000 HD 
HETATM   23  C   UNL     1      -6.857  17.343  66.201  1.00  0.00    -0.243 C  
HETATM   24  C   UNL     1      -5.506  17.531  66.838  1.00  0.00    -0.190 C  
HETATM   25  O   UNL     1      -7.280  18.116  65.352  1.00  0.00    -0.529 OA 
ENDBRANCH  10  21
ENDBRANCH   4   6
ENDBRANCH   3   4
ENDBRANCH   2   3
TORSDOF 8
ENDMDL
MODEL       21
REMARK 921   NORMALIZED FREE ENERGY PREDICTED BY IDOCK:   -5.23 KCAL/MOL
REMARK 922        TOTAL FREE ENERGY PREDICTED BY IDOCK:   -8.61 KCAL/MOL
REMARK 923 INTER-LIGAND FREE ENERGY PREDICTED BY IDOCK:   -7.67 KCAL/MOL
REMARK 924 INTRA-LIGAND FREE ENERGY PREDICTED BY IDOCK:   -0.95 KCAL/MOL
REMARK 927      BINDING AFFINITY PREDICTED BY RF-SCORE:    0.00 PKD
ROOT
HETATM    1  C   UNL     1     -11.316   7.758  71.110  1.00  0.00    -0.290 C  
HETATM    2  C   UNL     1     -10.929   9.225  71.170  1.00  0.00    -0.339 C  
ENDROOT
BRANCH   2   3
HETATM    3  O   UNL     1     -11.787   9.933  70.271  1.00  0.00    -0.249 OA 
BRANCH   3   4
HETATM    4  C   UNL     1     -12.426  11.000  70.811  1.00  0.00    -0.396 C  
HETATM    5  O   UNL     1     -13.224  10.961  71.736  1.00  0.00    -0.444 OA 
BRANCH   4   6
HETATM    6  C   UNL     1     -11.975  12.272  70.182  1.00  0.00    -0.377 C  
HETATM    7  C   UNL     1     -11.450  12.300  68.948  1.00  0.00    -0.355 C  
HETATM    8  C   UNL     1     -11.215  13.563  68.188  1.00  0.00    -0.272 C  
HETATM    9  H2  UNL     1     -13.506  15.537  69.576  1.00  0.00     0.000 HD 
HETATM   10  C   UNL     1     -10.950  14.799  69.091  1.00  0.00    -0.267 C  
HETATM   11  H1  UNL     1     -13.414  15.800  71.237  1.00  0.00     0.000 HD 
HETATM   12  C   UNL     1     -12.210  13.495  71.010  1.00  0.00    -0.348 C  
HETATM   13  C   UNL     1     -11.743  14.847  70.432  1.00  0.00    -0.297 C  
HETATM   14  N   UNL     1     -12.895  15.769  70.359  1.00  0.00    -0.367 NA 
BRANCH   8  15
HETATM   15  O   UNL     1     -12.381  13.618  67.366  1.00  0.00    -0.297 OA 
BRANCH  15  16
HETATM   16  C   UNL     1     -12.254  14.023  66.006  1.00  0.00    -0.458 C  
BRANCH  16  17
HETATM   17  C   UNL     1     -12.656  12.810  65.147  1.00  0.00    -0.513 C  
HETATM   18  C   UNL     1     -11.733  12.594  63.953  1.00  0.00    -0.532 C  
ENDBRANCH  16  17
BRANCH  16  19
HETATM   19  C   UNL     1     -10.837  14.513  65.660  1.00  0.00    -0.329 C  
HETATM   20  C   UNL     1     -10.767  15.960  65.187  1.00  0.00    -0.449 C  
ENDBRANCH  16  19
ENDBRANCH  15  16
ENDBRANCH   8  15
BRANCH  10  21
HETATM   21  N   UNL     1      -9.502  14.979  69.339  1.00  0.00    -0.385 N  
HETATM   22  H   UNL     1      -8.989  14.263  69.856  1.00  0.00     0.000 HD 
HETATM   23  C   UNL     1      -8.836  16.096  68.885  1.00  0.00    -0.248 C  
HETATM   24  C   UNL     1      -7.360  16.111  69.179  1.00  0.00    -0.215 C  
HETATM   25  O   UNL     1      -9.381  17.011  68.281  1.00  0.00    -0.239 OA 
ENDBRANCH  10  21
ENDBRANCH   4   6
ENDBRANCH   3   4
ENDBRANCH   2   3
TORSDOF 8
ENDMDL
MODEL       22
REMARK 921   NORMALIZED FREE ENERGY PREDICTED BY IDOCK:   -5.21 KCAL/MOL
REMARK 922        TOTAL FREE ENERGY PREDICTED BY IDOCK:   -8.59 KCAL/MOL
REMARK 923 INTER-LIGAND FREE ENERGY PREDICTED BY IDOCK:   -7.76 KCAL/MOL
REMARK 924 INTRA-LIGAND FREE ENERGY PREDICTED BY IDOCK:   -0.83 KCAL/MOL
REMARK 927      BINDING AFFINITY PREDICTED BY RF-SCORE:    0.00 PKD
ROOT
HETATM    1  C   UNL     1     -10.436  18.998  66.269  1.00  0.00    -0.534 C  
HETATM    2  C   UNL     1     -10.635  18.092  67.471  1.00  0.00    -0.401 C  
ENDROOT
BRANCH   2   3
HETATM    3  O   UNL     1     -10.595  16.742  67.001  1.00  0.00    -0.305 OA 
BRANCH   3   4
HETATM    4  C   UNL     1     -11.162  15.830  67.830  1.00  0.00    -0.286 C  
HETATM    5  O   UNL     1     -11.706  16.077  68.896  1.00  0.00    -0.381 OA 
BRANCH   4   6
HETATM    6  C   UNL     1     -11.116  14.465  67.239  1.00  0.00    -0.318 C  
HETATM    7  C   UNL     1     -10.630  13.418  67.922  1.00  0.00    -0.253 C  
HETATM    8  C   UNL     1     -10.788  12.003  67.473  1.00  0.00    -0.241 C  
HETATM    9  H2  UNL     1     -13.557  12.257  65.645  1.00  0.00     0.000 HD 
HETATM   10  C   UNL     1     -10.900  11.843  65.932  1.00  0.00    -0.297 C  
HETATM   11  H1  UNL     1     -13.540  13.314  64.334  1.00  0.00     0.000 HD 
HETATM   12  C   UNL     1     -11.702  14.358  65.867  1.00  0.00    -0.371 C  
HETATM   13  C   UNL     1     -11.664  12.976  65.182  1.00  0.00    -0.343 C  
HETATM   14  N   UNL     1     -13.040  12.572  64.825  1.00  0.00    -0.814 NA 
BRANCH   8  15
HETATM   15  O   UNL     1     -11.922  11.590  68.236  1.00  0.00    -0.544 OA 
BRANCH  15  16
HETATM   16  C   UNL     1     -11.730  10.729  69.355  1.00  0.00    -0.306 C  
BRANCH  16  17
HETATM   17  C   UNL     1     -12.287  11.474  70.582  1.00  0.00    -0.457 C  
HETATM   18  C   UNL     1     -13.022  10.557  71.553  1.00  0.00    -0.565 C  
ENDBRANCH  16  17
BRANCH  16  19
HETATM   19  C   UNL     1     -10.257  10.335  69.558  1.00  0.00    -0.261 C  
HETATM   20  C   UNL     1      -9.994   8.834  69.518  1.00  0.00    -0.195 C  
ENDBRANCH  16  19
ENDBRANCH  15  16
ENDBRANCH   8  15
BRANCH  10  21
HETATM   21  N   UNL     1      -9.572  11.622  65.319  1.00  0.00    -0.304 N  
HETATM   22  H   UNL     1      -9.032  12.422  64.989  1.00  0.00     0.000 HD 
HETATM   23  C   UNL     1      -9.052  10.353  65.187  1.00  0.00    -0.198 C  
HETATM   24  C   UNL     1      -7.673  10.297  64.585  1.00  0.00    -0.114 C  
HETATM   25  O   UNL     1      -9.643   9.338  65.534  1.00  0.00    -0.269 OA 
ENDBRANCH  10  21
ENDBRANCH   4   6
ENDBRANCH   3   4
ENDBRANCH   2   3
TORSDOF 8
ENDMDL
MODEL       23
REMARK 921   NORMALIZED FREE ENERGY PREDICTED BY IDOCK:   -5.20 KCAL/MOL
REMARK 922        TOTAL FREE ENERGY PREDICTED BY IDOCK:   -8.57 KCAL/MOL
REMARK 923 INTER-LIGAND FREE ENERGY PREDICTED BY IDOCK:   -7.55 KCAL/MOL
REMARK 924 INTRA-LIGAND FREE ENERGY PREDICTED BY IDOCK:   -1.02 KCAL/MOL
REMARK 927      BINDING AFFINITY PREDICTED BY RF-SCORE:    0.00 PKD
ROOT
HETATM    1  C   UNL     1      -9.876  20.126  66.681  1.00  0.00    -0.588 C  
HETATM    2  C   UNL     1     -10.755  19.103  65.985  1.00  0.00    -0.364 C  
ENDROOT
BRANCH   2   3
HETATM    3  O   UNL     1      -9.949  17.950  65.725  1.00  0.00    -0.551 OA 
BRANCH   3   4
HETATM    4  C   UNL     1     -10.639  16.831  65.392  1.00  0.00    -0.203 C  
HETATM    5  O   UNL     1     -10.960  16.502  64.259  1.00  0.00    -0.848 OA 
BRANCH   4   6
HETATM    6  C   UNL     1     -10.903  15.986  66.588  1.00  0.00    -0.179 C  
HETATM    7  C   UNL     1     -11.642  14.870  66.513  1.00  0.00    -0.254 C  
HETATM    8  C   UNL     1     -11.727  13.869  67.617  1.00  0.00    -0.368 C  
HETATM    9  H2  UNL     1      -8.815  14.398  69.137  1.00  0.00     0.000 HD 
HETATM   10  C   UNL     1     -11.516  14.476  69.032  1.00  0.00    -0.290 C  
HETATM   11  H1  UNL     1      -8.510  15.943  69.737  1.00  0.00     0.000 HD 
HETATM   12  C   UNL     1     -10.232  16.452  67.842  1.00  0.00    -0.268 C  
HETATM   13  C   UNL     1     -10.482  15.638  69.128  1.00  0.00    -0.236 C  
HETATM   14  N   UNL     1      -9.187  15.182  69.674  1.00  0.00    -0.143 NA 
BRANCH   8  15
HETATM   15  O   UNL     1     -10.768  12.900  67.195  1.00  0.00    -0.249 OA 
BRANCH  15  16
HETATM   16  C   UNL     1     -10.266  11.961  68.141  1.00  0.00    -0.199 C  
BRANCH  16  17
HETATM   17  C   UNL     1      -8.759  11.815  67.858  1.00  0.00    -0.164 C  
HETATM   18  C   UNL     1      -8.175  13.009  67.109  1.00  0.00    -0.132 C  
ENDBRANCH  16  17
BRANCH  16  19
HETATM   19  C   UNL     1     -10.985  10.603  68.071  1.00  0.00    -0.336 C  
HETATM   20  C   UNL     1     -10.311   9.577  67.169  1.00  0.00    -0.320 C  
ENDBRANCH  16  19
ENDBRANCH  15  16
ENDBRANCH   8  15
BRANCH  10  21
HETATM   21  N   UNL     1     -12.804  14.877  69.639  1.00  0.00    -0.526 N  
HETATM   22  H   UNL     1     -13.563  15.200  69.038  1.00  0.00     0.000 HD 
HETATM   23  C   UNL     1     -12.995  14.823  71.003  1.00  0.00    -0.363 C  
HETATM   24  C   UNL     1     -14.372  15.222  71.461  1.00  0.00    -0.633 C  
HETATM   25  O   UNL     1     -12.130  14.473  71.795  1.00  0.00    -0.340 OA 
ENDBRANCH  10  21
ENDBRANCH   4   6
ENDBRANCH   3   4
ENDBRANCH   2   3
TORSDOF 8
ENDMDL
MODEL       24
REMARK 921   NORMALIZED FREE ENERGY PREDICTED BY IDOCK:   -5.19 KCAL/MOL
REMARK 922        TOTAL FREE ENERGY PREDICTED BY IDOCK:   -8.56 KCAL/MOL
REMARK 923 INTER-LIGAND FREE ENERGY PREDICTED BY IDOCK:   -7.47 KCAL/MOL
REMARK 924 INTRA-LIGAND FREE ENERGY PREDICTED BY IDOCK:   -1.08 KCAL/MOL
REMARK 927      BINDING AFFINITY PREDICTED BY RF-SCORE:    0.00 PKD
ROOT
HETATM    1  C   UNL     1      -5.636  12.717  67.722  1.00  0.00    -0.128 C  
HETATM    2  C   UNL     1      -5.254  14.140  68.088  1.00  0.00    -0.118 C  
ENDROOT
BRANCH   2   3
HETATM    3  O   UNL     1      -6.132  15.017  67.377  1.00  0.00    -0.331 OA 
BRANCH   3   4
HETATM    4  C   UNL     1      -7.089  15.608  68.135  1.00  0.00    -0.118 C  
HETATM    5  O   UNL     1      -6.896  16.235  69.167  1.00  0.00    -0.176 OA 
BRANCH   4   6
HETATM    6  C   UNL     1      -8.432  15.468  67.509  1.00  0.00    -0.188 C  
HETATM    7  C   UNL     1      -9.374  14.669  68.033  1.00  0.00    -0.198 C  
HETATM    8  C   UNL     1     -10.799  14.686  67.590  1.00  0.00    -0.284 C  
HETATM    9  H2  UNL     1     -11.041  17.803  66.450  1.00  0.00     0.000 HD 
HETATM   10  C   UNL     1     -10.991  15.120  66.110  1.00  0.00    -0.331 C  
HETATM   11  H1  UNL     1     -10.009  18.265  65.201  1.00  0.00     0.000 HD 
HETATM   12  C   UNL     1      -8.651  16.327  66.305  1.00  0.00    -0.374 C  
HETATM   13  C   UNL     1     -10.013  16.216  65.588  1.00  0.00    -0.297 C  
HETATM   14  N   UNL     1     -10.650  17.548  65.543  1.00  0.00    -0.610 NA 
BRANCH   8  15
HETATM   15  O   UNL     1     -11.392  15.527  68.578  1.00  0.00    -0.313 OA 
BRANCH  15  16
HETATM   16  C   UNL     1     -11.378  15.115  69.942  1.00  0.00    -0.284 C  
BRANCH  16  17
HETATM   17  C   UNL     1     -12.592  14.188  70.133  1.00  0.00    -0.325 C  
HETATM   18  C   UNL     1     -12.205  12.719  70.268  1.00  0.00    -0.351 C  
ENDBRANCH  16  17
BRANCH  16  19
HETATM   19  C   UNL     1     -11.415  16.300  70.922  1.00  0.00    -0.336 C  
HETATM   20  C   UNL     1     -12.006  15.971  72.288  1.00  0.00    -0.633 C  
ENDBRANCH  16  19
ENDBRANCH  15  16
ENDBRANCH   8  15
BRANCH  10  21
HETATM   21  N   UNL     1     -10.989  13.950  65.205  1.00  0.00    -0.332 N  
HETATM   22  H   UNL     1     -10.314  13.200  65.357  1.00  0.00     0.000 HD 
HETATM   23  C   UNL     1     -11.882  13.857  64.160  1.00  0.00    -0.385 C  
HETATM   24  C   UNL     1     -11.782  12.587  63.358  1.00  0.00    -0.567 C  
HETATM   25  O   UNL     1     -12.706  14.723  63.893  1.00  0.00    -0.794 OA 
ENDBRANCH  10  21
ENDBRANCH   4   6
ENDBRANCH   3   4
ENDBRANCH   2   3
TORSDOF 8
ENDMDL
MODEL       25
REMARK 921   NORMALIZED FREE ENERGY PREDICTED BY IDOCK:   -5.18 KCAL/MOL
REMARK 922        TOTAL FREE ENERGY PREDICTED BY IDOCK:   -8.54 KCAL/MOL
REMARK 923 INTER-LIGAND FREE ENERGY PREDICTED BY IDOCK:   -7.99 KCAL/MOL
REMARK 924 INTRA-LIGAND FREE ENERGY PREDICTED BY IDOCK:   -0.56 KCAL/MOL
REMARK 927      BINDING AFFINITY PREDICTED BY RF-SCORE:    0.00 PKD
ROOT
HETATM    1  C   UNL     1     -10.692   8.040  72.594  1.00  0.00    -0.426 C  
HETATM    2  C   UNL     1     -11.690   8.638  71.620  1.00  0.00    -0.313 C  
ENDROOT
BRANCH   2   3
HETATM    3  O   UNL     1     -11.142   9.872  71.147  1.00  0.00    -0.350 OA 
BRANCH   3   4
HETATM    4  C   UNL     1     -10.847   9.898  69.824  1.00  0.00    -0.269 C  
HETATM    5  O   UNL     1     -10.598   8.924  69.129  1.00  0.00    -0.227 OA 
BRANCH   4   6
HETATM    6  C   UNL     1     -10.942  11.280  69.279  1.00  0.00    -0.297 C  
HETATM    7  C   UNL     1     -12.029  12.041  69.474  1.00  0.00    -0.346 C  
HETATM    8  C   UNL     1     -12.071  13.501  69.165  1.00  0.00    -0.288 C  
HETATM    9  H2  UNL     1      -8.848  14.273  69.458  1.00  0.00     0.000 HD 
HETATM   10  C   UNL     1     -11.112  13.929  68.020  1.00  0.00    -0.259 C  
HETATM   11  H1  UNL     1      -7.753  13.472  68.460  1.00  0.00     0.000 HD 
HETATM   12  C   UNL     1      -9.717  11.754  68.563  1.00  0.00    -0.181 C  
HETATM   13  C   UNL     1      -9.753  13.169  67.949  1.00  0.00    -0.221 C  
HETATM   14  N   UNL     1      -8.643  13.969  68.507  1.00  0.00    -0.167 NA 
BRANCH   8  15
HETATM   15  O   UNL     1     -11.815  14.069  70.450  1.00  0.00    -0.302 OA 
BRANCH  15  16
HETATM   16  C   UNL     1     -12.695  15.068  70.956  1.00  0.00    -0.366 C  
BRANCH  16  17
HETATM   17  C   UNL     1     -11.852  15.972  71.873  1.00  0.00    -0.619 C  
HETATM   18  C   UNL     1     -12.395  16.050  73.296  1.00  0.00    -0.644 C  
ENDBRANCH  16  17
BRANCH  16  19
HETATM   19  C   UNL     1     -13.901  14.475  71.705  1.00  0.00    -0.513 C  
HETATM   20  C   UNL     1     -13.654  13.100  72.312  1.00  0.00    -0.677 C  
ENDBRANCH  16  19
ENDBRANCH  15  16
ENDBRANCH   8  15
BRANCH  10  21
HETATM   21  N   UNL     1     -11.795  13.891  66.709  1.00  0.00    -0.400 N  
HETATM   22  H   UNL     1     -12.535  13.207  66.548  1.00  0.00     0.000 HD 
HETATM   23  C   UNL     1     -11.448  14.764  65.701  1.00  0.00    -0.327 C  
HETATM   24  C   UNL     1     -12.264  14.628  64.443  1.00  0.00    -0.473 C  
HETATM   25  O   UNL     1     -10.557  15.597  65.802  1.00  0.00    -0.324 OA 
ENDBRANCH  10  21
ENDBRANCH   4   6
ENDBRANCH   3   4
ENDBRANCH   2   3
TORSDOF 8
ENDMDL
MODEL       26
REMARK 921   NORMALIZED FREE ENERGY PREDICTED BY IDOCK:   -5.15 KCAL/MOL
REMARK 922        TOTAL FREE ENERGY PREDICTED BY IDOCK:   -8.50 KCAL/MOL
REMARK 923 INTER-LIGAND FREE ENERGY PREDICTED BY IDOCK:   -7.65 KCAL/MOL
REMARK 924 INTRA-LIGAND FREE ENERGY PREDICTED BY IDOCK:   -0.85 KCAL/MOL
REMARK 927      BINDING AFFINITY PREDICTED BY RF-SCORE:    0.00 PKD
ROOT
HETATM    1  C   UNL     1     -14.356   8.287  71.610  1.00  0.00    -0.561 C  
HETATM    2  C   UNL     1     -13.198   9.170  72.038  1.00  0.00    -0.441 C  
ENDROOT
BRANCH   2   3
HETATM    3  O   UNL     1     -12.884  10.028  70.938  1.00  0.00    -0.344 OA 
BRANCH   3   4
HETATM    4  C   UNL     1     -12.911  11.354  71.220  1.00  0.00    -0.379 C  
HETATM    5  O   UNL     1     -13.424  11.864  72.205  1.00  0.00    -0.458 OA 
BRANCH   4   6
HETATM    6  C   UNL     1     -12.155  12.136  70.203  1.00  0.00    -0.368 C  
HETATM    7  C   UNL     1     -11.587  11.546  69.141  1.00  0.00    -0.382 C  
HETATM    8  C   UNL     1     -11.038  12.305  67.979  1.00  0.00    -0.239 C  
HETATM    9  H2  UNL     1     -12.873  15.076  68.150  1.00  0.00     0.000 HD 
HETATM   10  C   UNL     1     -10.535  13.730  68.342  1.00  0.00    -0.252 C  
HETATM   11  H1  UNL     1     -12.793  15.986  69.565  1.00  0.00     0.000 HD 
HETATM   12  C   UNL     1     -12.139  13.613  70.436  1.00  0.00    -0.421 C  
HETATM   13  C   UNL     1     -11.351  14.484  69.435  1.00  0.00    -0.279 C  
HETATM   14  N   UNL     1     -12.259  15.492  68.850  1.00  0.00    -0.178 NA 
BRANCH   8  15
HETATM   15  O   UNL     1     -12.125  12.234  67.056  1.00  0.00    -0.575 OA 
BRANCH  15  16
HETATM   16  C   UNL     1     -11.849  12.162  65.661  1.00  0.00    -0.276 C  
BRANCH  16  17
HETATM   17  C   UNL     1     -10.358  11.801  65.526  1.00  0.00    -0.304 C  
HETATM   18  C   UNL     1     -10.119  10.570  64.658  1.00  0.00    -0.408 C  
ENDBRANCH  16  17
BRANCH  16  19
HETATM   19  C   UNL     1     -12.181  13.469  64.920  1.00  0.00    -0.447 C  
HETATM   20  C   UNL     1     -12.259  13.332  63.404  1.00  0.00    -0.476 C  
ENDBRANCH  16  19
ENDBRANCH  15  16
ENDBRANCH   8  15
BRANCH  10  21
HETATM   21  N   UNL     1      -9.097  13.717  68.687  1.00  0.00    -0.360 N  
HETATM   22  H   UNL     1      -8.799  13.324  69.580  1.00  0.00     0.000 HD 
HETATM   23  C   UNL     1      -8.153  14.228  67.822  1.00  0.00    -0.170 C  
HETATM   24  C   UNL     1      -6.730  14.101  68.299  1.00  0.00    -0.108 C  
HETATM   25  O   UNL     1      -8.428  14.739  66.745  1.00  0.00    -0.222 OA 
ENDBRANCH  10  21
ENDBRANCH   4   6
ENDBRANCH   3   4
ENDBRANCH   2   3
TORSDOF 8
ENDMDL
MODEL       27
REMARK 921   NORMALIZED FREE ENERGY PREDICTED BY IDOCK:   -5.13 KCAL/MOL
REMARK 922        TOTAL FREE ENERGY PREDICTED BY IDOCK:   -8.47 KCAL/MOL
REMARK 923 INTER-LIGAND FREE ENERGY PREDICTED BY IDOCK:   -7.58 KCAL/MOL
REMARK 924 INTRA-LIGAND FREE ENERGY PREDICTED BY IDOCK:   -0.89 KCAL/MOL
REMARK 927      BINDING AFFINITY PREDICTED BY RF-SCORE:    0.00 PKD
ROOT
HETATM    1  C   UNL     1      -7.393  20.019  67.397  1.00  0.00    -0.305 C  
HETATM    2  C   UNL     1      -7.891  19.713  65.996  1.00  0.00    -0.326 C  
ENDROOT
BRANCH   2   3
HETATM    3  O   UNL     1      -8.533  18.435  66.038  1.00  0.00    -0.494 OA 
BRANCH   3   4
HETATM    4  C   UNL     1      -9.865  18.471  66.291  1.00  0.00    -0.337 C  
HETATM    5  O   UNL     1     -10.649  19.309  65.869  1.00  0.00    -0.485 OA 
BRANCH   4   6
HETATM    6  C   UNL     1     -10.290  17.296  67.099  1.00  0.00    -0.321 C  
HETATM    7  C   UNL     1     -11.157  16.390  66.623  1.00  0.00     0.156 C  
HETATM    8  C   UNL     1     -11.421  15.081  67.290  1.00  0.00    -0.304 C  
HETATM    9  H2  UNL     1      -8.545  14.636  68.904  1.00  0.00     0.000 HD 
HETATM   10  C   UNL     1     -11.208  15.106  68.829  1.00  0.00    -0.284 C  
HETATM   11  H1  UNL     1      -8.083  15.807  70.023  1.00  0.00     0.000 HD 
HETATM   12  C   UNL     1      -9.631  17.188  68.438  1.00  0.00    -0.281 C  
HETATM   13  C   UNL     1     -10.044  16.007  69.341  1.00  0.00    -0.271 C  
HETATM   14  N   UNL     1      -8.844  15.217  69.687  1.00  0.00    -0.190 NA 
BRANCH   8  15
HETATM   15  O   UNL     1     -10.569  14.209  66.548  1.00  0.00    -0.278 OA 
BRANCH  15  16
HETATM   16  C   UNL     1     -11.082  12.964  66.084  1.00  0.00    -0.286 C  
BRANCH  16  17
HETATM   17  C   UNL     1     -12.350  13.286  65.272  1.00  0.00    -0.525 C  
HETATM   18  C   UNL     1     -12.132  13.196  63.765  1.00  0.00    -0.563 C  
ENDBRANCH  16  17
BRANCH  16  19
HETATM   19  C   UNL     1     -11.382  11.980  67.228  1.00  0.00    -0.394 C  
HETATM   20  C   UNL     1     -10.840  10.573  67.009  1.00  0.00    -0.288 C  
ENDBRANCH  16  19
ENDBRANCH  15  16
ENDBRANCH   8  15
BRANCH  10  21
HETATM   21  N   UNL     1     -12.465  15.431  69.538  1.00  0.00    -0.603 N  
HETATM   22  H   UNL     1     -13.076  16.159  69.167  1.00  0.00     0.000 HD 
HETATM   23  C   UNL     1     -12.823  14.767  70.690  1.00  0.00    -0.343 C  
HETATM   24  C   UNL     1     -14.151  15.181  71.268  1.00  0.00    -0.537 C  
HETATM   25  O   UNL     1     -12.137  13.900  71.215  1.00  0.00    -0.319 OA 
ENDBRANCH  10  21
ENDBRANCH   4   6
ENDBRANCH   3   4
ENDBRANCH   2   3
TORSDOF 8
ENDMDL
MODEL       28
REMARK 921   NORMALIZED FREE ENERGY PREDICTED BY IDOCK:   -5.12 KCAL/MOL
REMARK 922        TOTAL FREE ENERGY PREDICTED BY IDOCK:   -8.45 KCAL/MOL
REMARK 923 INTER-LIGAND FREE ENERGY PREDICTED BY IDOCK:   -7.45 KCAL/MOL
REMARK 924 INTRA-LIGAND FREE ENERGY PREDICTED BY IDOCK:   -1.00 KCAL/MOL
REMARK 927      BINDING AFFINITY PREDICTED BY RF-SCORE:    0.00 PKD
ROOT
HETATM    1  C   UNL     1     -10.697  19.475  67.445  1.00  0.00    -0.589 C  
HETATM    2  C   UNL     1     -10.479  19.362  65.947  1.00  0.00    -0.472 C  
ENDROOT
BRANCH   2   3
HETATM    3  O   UNL     1     -10.417  17.970  65.626  1.00  0.00    -0.619 OA 
BRANCH   3   4
HETATM    4  C   UNL     1      -9.253  17.357  65.955  1.00  0.00    -0.061 C  
HETATM    5  O   UNL     1      -8.132  17.793  65.738  1.00  0.00    -0.541 OA 
BRANCH   4   6
HETATM    6  C   UNL     1      -9.502  16.094  66.703  1.00  0.00    -0.269 C  
HETATM    7  C   UNL     1     -10.533  15.291  66.403  1.00  0.00    -0.307 C  
HETATM    8  C   UNL     1     -10.680  13.910  66.951  1.00  0.00    -0.284 C  
HETATM    9  H2  UNL     1      -7.494  13.157  67.550  1.00  0.00     0.000 HD 
HETATM   10  C   UNL     1     -10.019  13.714  68.344  1.00  0.00    -0.235 C  
HETATM   11  H1  UNL     1      -6.639  14.146  68.612  1.00  0.00     0.000 HD 
HETATM   12  C   UNL     1      -8.486  15.780  67.754  1.00  0.00    -0.162 C  
HETATM   13  C   UNL     1      -8.695  14.499  68.587  1.00  0.00    -0.172 C  
HETATM   14  N   UNL     1      -7.506  13.632  68.453  1.00  0.00    -0.115 NA 
BRANCH   8  15
HETATM   15  O   UNL     1     -10.150  13.125  65.883  1.00  0.00    -0.283 OA 
BRANCH  15  16
HETATM   16  C   UNL     1     -10.968  12.125  65.283  1.00  0.00    -0.304 C  
BRANCH  16  17
HETATM   17  C   UNL     1     -10.178  10.805  65.363  1.00  0.00    -0.341 C  
HETATM   18  C   UNL     1     -10.276  10.134  66.729  1.00  0.00    -0.289 C  
ENDBRANCH  16  17
BRANCH  16  19
HETATM   19  C   UNL     1     -11.354  12.462  63.833  1.00  0.00    -0.502 C  
HETATM   20  C   UNL     1     -12.740  11.982  63.420  1.00  0.00    -0.527 C  
ENDBRANCH  16  19
ENDBRANCH  15  16
ENDBRANCH   8  15
BRANCH  10  21
HETATM   21  N   UNL     1     -10.983  13.975  69.435  1.00  0.00    -0.392 N  
HETATM   22  H   UNL     1     -11.043  14.910  69.838  1.00  0.00     0.000 HD 
HETATM   23  C   UNL     1     -11.802  12.976  69.914  1.00  0.00    -0.307 C  
HETATM   24  C   UNL     1     -12.758  13.410  70.994  1.00  0.00    -0.387 C  
HETATM   25  O   UNL     1     -11.777  11.823  69.504  1.00  0.00    -0.292 OA 
ENDBRANCH  10  21
ENDBRANCH   4   6
ENDBRANCH   3   4
ENDBRANCH   2   3
TORSDOF 8
ENDMDL
MODEL       29
REMARK 921   NORMALIZED FREE ENERGY PREDICTED BY IDOCK:   -5.10 KCAL/MOL
REMARK 922        TOTAL FREE ENERGY PREDICTED BY IDOCK:   -8.42 KCAL/MOL
REMARK 923 INTER-LIGAND FREE ENERGY PREDICTED BY IDOCK:   -7.44 KCAL/MOL
REMARK 924 INTRA-LIGAND FREE ENERGY PREDICTED BY IDOCK:   -0.99 KCAL/MOL
REMARK 927      BINDING AFFINITY PREDICTED BY RF-SCORE:    0.00 PKD
ROOT
HETATM    1  C   UNL     1     -11.872   6.999  71.096  1.00  0.00    -0.380 C  
HETATM    2  C   UNL     1     -11.890   7.946  72.283  1.00  0.00    -0.352 C  
ENDROOT
BRANCH   2   3
HETATM    3  O   UNL     1     -11.313   9.182  71.855  1.00  0.00    -0.365 OA 
BRANCH   3   4
HETATM    4  C   UNL     1     -12.206  10.143  71.512  1.00  0.00    -0.380 C  
HETATM    5  O   UNL     1     -13.273  10.357  72.070  1.00  0.00    -0.456 OA 
BRANCH   4   6
HETATM    6  C   UNL     1     -11.691  10.984  70.397  1.00  0.00    -0.437 C  
HETATM    7  C   UNL     1     -12.241  12.168  70.095  1.00  0.00    -0.308 C  
HETATM    8  C   UNL     1     -11.614  13.148  69.160  1.00  0.00    -0.316 C  
HETATM    9  H2  UNL     1      -8.410  12.301  69.462  1.00  0.00     0.000 HD 
HETATM   10  C   UNL     1     -10.721  12.492  68.070  1.00  0.00    -0.221 C  
HETATM   11  H1  UNL     1      -7.974  10.722  69.072  1.00  0.00     0.000 HD 
HETATM   12  C   UNL     1     -10.491  10.426  69.698  1.00  0.00    -0.279 C  
HETATM   13  C   UNL     1      -9.918  11.232  68.514  1.00  0.00    -0.202 C  
HETATM   14  N   UNL     1      -8.499  11.547  68.782  1.00  0.00    -0.105 NA 
BRANCH   8  15
HETATM   15  O   UNL     1     -10.955  14.027  70.072  1.00  0.00    -0.013 OA 
BRANCH  15  16
HETATM   16  C   UNL     1     -11.294  15.411  70.071  1.00  0.00    -0.306 C  
BRANCH  16  17
HETATM   17  C   UNL     1     -12.423  15.587  71.102  1.00  0.00    -0.491 C  
HETATM   18  C   UNL     1     -11.916  16.028  72.471  1.00  0.00    -0.649 C  
ENDBRANCH  16  17
BRANCH  16  19
HETATM   19  C   UNL     1     -11.717  15.919  68.681  1.00  0.00    -0.328 C  
HETATM   20  C   UNL     1     -10.871  17.068  68.145  1.00  0.00    -0.338 C  
ENDBRANCH  16  19
ENDBRANCH  15  16
ENDBRANCH   8  15
BRANCH  10  21
HETATM   21  N   UNL     1     -11.497  12.205  66.844  1.00  0.00    -0.345 N  
HETATM   22  H   UNL     1     -12.099  11.382  66.812  1.00  0.00     0.000 HD 
HETATM   23  C   UNL     1     -11.422  13.032  65.745  1.00  0.00    -0.332 C  
HETATM   24  C   UNL     1     -12.304  12.630  64.593  1.00  0.00    -0.546 C  
HETATM   25  O   UNL     1     -10.707  14.025  65.691  1.00  0.00    -0.287 OA 
ENDBRANCH  10  21
ENDBRANCH   4   6
ENDBRANCH   3   4
ENDBRANCH   2   3
TORSDOF 8
ENDMDL
MODEL       30
REMARK 921   NORMALIZED FREE ENERGY PREDICTED BY IDOCK:   -5.10 KCAL/MOL
REMARK 922        TOTAL FREE ENERGY PREDICTED BY IDOCK:   -8.42 KCAL/MOL
REMARK 923 INTER-LIGAND FREE ENERGY PREDICTED BY IDOCK:   -7.47 KCAL/MOL
REMARK 924 INTRA-LIGAND FREE ENERGY PREDICTED BY IDOCK:   -0.95 KCAL/MOL
REMARK 927      BINDING AFFINITY PREDICTED BY RF-SCORE:    0.00 PKD
ROOT
HETATM    1  C   UNL     1     -13.954  13.911  72.386  1.00  0.00    -0.633 C  
HETATM    2  C   UNL     1     -14.325  15.249  71.771  1.00  0.00    -0.574 C  
ENDROOT
BRANCH   2   3
HETATM    3  O   UNL     1     -13.555  15.400  70.575  1.00  0.00    -0.264 OA 
BRANCH   3   4
HETATM    4  C   UNL     1     -12.235  15.640  70.771  1.00  0.00    -0.418 C  
HETATM    5  O   UNL     1     -11.755  16.274  71.699  1.00  0.00    -0.480 OA 
BRANCH   4   6
HETATM    6  C   UNL     1     -11.406  14.957  69.740  1.00  0.00    -0.314 C  
HETATM    7  C   UNL     1     -11.898  13.961  68.988  1.00  0.00    -0.397 C  
HETATM    8  C   UNL     1     -11.195  13.419  67.787  1.00  0.00    -0.279 C  
HETATM    9  H2  UNL     1      -9.386  16.068  66.901  1.00  0.00     0.000 HD 
HETATM   10  C   UNL     1      -9.648  13.550  67.853  1.00  0.00    -0.218 C  
HETATM   11  H1  UNL     1      -8.290  16.682  68.023  1.00  0.00     0.000 HD 
HETATM   12  C   UNL     1     -10.026  15.510  69.582  1.00  0.00    -0.287 C  
HETATM   13  C   UNL     1      -9.101  14.834  68.548  1.00  0.00    -0.187 C  
HETATM   14  N   UNL     1      -8.648  15.842  67.568  1.00  0.00    -0.164 NA 
BRANCH   8  15
HETATM   15  O   UNL     1     -11.845  14.130  66.734  1.00  0.00    -0.386 OA 
BRANCH  15  16
HETATM   16  C   UNL     1     -11.612  13.740  65.384  1.00  0.00    -0.320 C  
BRANCH  16  17
HETATM   17  C   UNL     1     -11.808  15.001  64.523  1.00  0.00    -0.377 C  
HETATM   18  C   UNL     1     -11.020  16.202  65.035  1.00  0.00    -0.357 C  
ENDBRANCH  16  17
BRANCH  16  19
HETATM   19  C   UNL     1     -12.534  12.597  64.927  1.00  0.00    -0.564 C  
HETATM   20  C   UNL     1     -12.128  11.947  63.609  1.00  0.00    -0.580 C  
ENDBRANCH  16  19
ENDBRANCH  15  16
ENDBRANCH   8  15
BRANCH  10  21
HETATM   21  N   UNL     1      -9.034  12.341  68.444  1.00  0.00    -0.296 N  
HETATM   22  H   UNL     1      -9.524  11.841  69.186  1.00  0.00     0.000 HD 
HETATM   23  C   UNL     1      -7.811  11.879  68.008  1.00  0.00    -0.140 C  
HETATM   24  C   UNL     1      -7.342  10.614  68.676  1.00  0.00    -0.094 C  
HETATM   25  O   UNL     1      -7.147  12.433  67.141  1.00  0.00    -0.142 OA 
ENDBRANCH  10  21
ENDBRANCH   4   6
ENDBRANCH   3   4
ENDBRANCH   2   3
TORSDOF 8
ENDMDL
MODEL       31
REMARK 921   NORMALIZED FREE ENERGY PREDICTED BY IDOCK:   -5.08 KCAL/MOL
REMARK 922        TOTAL FREE ENERGY PREDICTED BY IDOCK:   -8.39 KCAL/MOL
REMARK 923 INTER-LIGAND FREE ENERGY PREDICTED BY IDOCK:   -7.49 KCAL/MOL
REMARK 924 INTRA-LIGAND FREE ENERGY PREDICTED BY IDOCK:   -0.90 KCAL/MOL
REMARK 927      BINDING AFFINITY PREDICTED BY RF-SCORE:    0.00 PKD
ROOT
HETATM    1  C   UNL     1     -12.558  11.655  63.583  1.00  0.00    -0.309 C  
HETATM    2  C   UNL     1     -11.891  12.992  63.310  1.00  0.00    -0.364 C  
ENDROOT
BRANCH   2   3
HETATM    3  O   UNL     1     -12.763  14.014  63.798  1.00  0.00    -0.734 OA 
BRANCH   3   4
HETATM    4  C   UNL     1     -12.140  15.121  64.272  1.00  0.00    -0.261 C  
HETATM    5  O   UNL     1     -12.259  16.253  63.826  1.00  0.00    -0.923 OA 
BRANCH   4   6
HETATM    6  C   UNL     1     -11.330  14.807  65.481  1.00  0.00    -0.343 C  
HETATM    7  C   UNL     1     -10.094  15.299  65.649  1.00  0.00    -0.401 C  
HETATM    8  C   UNL     1      -9.349  15.216  66.939  1.00  0.00    -0.234 C  
HETATM    9  H2  UNL     1     -11.882  15.036  69.089  1.00  0.00     0.000 HD 
HETATM   10  C   UNL     1      -9.740  13.991  67.812  1.00  0.00    -0.228 C  
HETATM   11  H1  UNL     1     -12.962  13.754  68.925  1.00  0.00     0.000 HD 
HETATM   12  C   UNL     1     -12.028  13.958  66.496  1.00  0.00    -0.470 C  
HETATM   13  C   UNL     1     -11.240  13.571  67.764  1.00  0.00    -0.282 C  
HETATM   14  N   UNL     1     -11.981  14.030  68.957  1.00  0.00    -0.350 NA 
BRANCH   8  15
HETATM   15  O   UNL     1      -9.611  16.502  67.500  1.00  0.00    -0.228 OA 
BRANCH  15  16
HETATM   16  C   UNL     1      -9.326  17.667  66.732  1.00  0.00    -0.278 C  
BRANCH  16  17
HETATM   17  C   UNL     1      -7.876  18.066  67.060  1.00  0.00    -0.236 C  
HETATM   18  C   UNL     1      -6.940  17.951  65.860  1.00  0.00    -0.313 C  
ENDBRANCH  16  17
BRANCH  16  19
HETATM   19  C   UNL     1     -10.305  18.820  67.014  1.00  0.00    -0.454 C  
HETATM   20  C   UNL     1     -10.089  20.057  66.150  1.00  0.00    -0.588 C  
ENDBRANCH  16  19
ENDBRANCH  15  16
ENDBRANCH   8  15
BRANCH  10  21
HETATM   21  N   UNL     1      -8.868  12.831  67.526  1.00  0.00    -0.176 N  
HETATM   22  H   UNL     1      -9.204  12.090  66.910  1.00  0.00     0.000 HD 
HETATM   23  C   UNL     1      -7.609  12.734  68.078  1.00  0.00    -0.131 C  
HETATM   24  C   UNL     1      -6.829  11.517  67.657  1.00  0.00    -0.083 C  
HETATM   25  O   UNL     1      -7.140  13.565  68.846  1.00  0.00    -0.105 OA 
ENDBRANCH  10  21
ENDBRANCH   4   6
ENDBRANCH   3   4
ENDBRANCH   2   3
TORSDOF 8
ENDMDL
MODEL       32
REMARK 921   NORMALIZED FREE ENERGY PREDICTED BY IDOCK:   -5.07 KCAL/MOL
REMARK 922        TOTAL FREE ENERGY PREDICTED BY IDOCK:   -8.38 KCAL/MOL
REMARK 923 INTER-LIGAND FREE ENERGY PREDICTED BY IDOCK:   -7.41 KCAL/MOL
REMARK 924 INTRA-LIGAND FREE ENERGY PREDICTED BY IDOCK:   -0.97 KCAL/MOL
REMARK 927      BINDING AFFINITY PREDICTED BY RF-SCORE:    0.00 PKD
ROOT
HETATM    1  C   UNL     1     -11.036  15.671  65.054  1.00  0.00    -0.445 C  
HETATM    2  C   UNL     1     -11.999  14.879  64.188  1.00  0.00    -0.235 C  
ENDROOT
BRANCH   2   3
HETATM    3  O   UNL     1     -11.525  13.530  64.142  1.00  0.00    -0.384 OA 
BRANCH   3   4
HETATM    4  C   UNL     1     -12.270  12.637  64.839  1.00  0.00    -0.471 C  
HETATM    5  O   UNL     1     -13.393  12.257  64.540  1.00  0.00    -0.769 OA 
BRANCH   4   6
HETATM    6  C   UNL     1     -11.512  12.096  66.001  1.00  0.00    -0.427 C  
HETATM    7  C   UNL     1     -11.745  12.519  67.252  1.00  0.00    -0.431 C  
HETATM    8  C   UNL     1     -11.195  11.839  68.461  1.00  0.00    -0.252 C  
HETATM    9  H2  UNL     1     -10.812   8.747  67.292  1.00  0.00     0.000 HD 
HETATM   10  C   UNL     1      -9.850  11.102  68.209  1.00  0.00    -0.189 C  
HETATM   11  H1  UNL     1      -9.805   8.529  65.960  1.00  0.00     0.000 HD 
HETATM   12  C   UNL     1     -10.532  11.019  65.660  1.00  0.00    -0.293 C  
HETATM   13  C   UNL     1      -9.692  10.430  66.812  1.00  0.00    -0.181 C  
HETATM   14  N   UNL     1      -9.909   8.969  66.874  1.00  0.00    -0.203 NA 
BRANCH   8  15
HETATM   15  O   UNL     1     -12.298  11.023  68.854  1.00  0.00    -0.516 OA 
BRANCH  15  16
HETATM   16  C   UNL     1     -12.660  10.958  70.230  1.00  0.00    -0.265 C  
BRANCH  16  17
HETATM   17  C   UNL     1     -12.337  12.337  70.835  1.00  0.00    -0.363 C  
HETATM   18  C   UNL     1     -13.364  12.790  71.868  1.00  0.00    -0.510 C  
ENDBRANCH  16  17
BRANCH  16  19
HETATM   19  C   UNL     1     -11.934   9.830  70.984  1.00  0.00    -0.440 C  
HETATM   20  C   UNL     1     -12.840   8.966  71.852  1.00  0.00    -0.437 C  
ENDBRANCH  16  19
ENDBRANCH  15  16
ENDBRANCH   8  15
BRANCH  10  21
HETATM   21  N   UNL     1      -8.696  11.984  68.492  1.00  0.00    -0.311 N  
HETATM   22  H   UNL     1      -8.787  12.990  68.349  1.00  0.00     0.000 HD 
HETATM   23  C   UNL     1      -7.502  11.468  68.947  1.00  0.00    -0.106 C  
HETATM   24  C   UNL     1      -6.440  12.497  69.230  1.00  0.00    -0.104 C  
HETATM   25  O   UNL     1      -7.302  10.273  69.121  1.00  0.00    -0.077 OA 
ENDBRANCH  10  21
ENDBRANCH   4   6
ENDBRANCH   3   4
ENDBRANCH   2   3
TORSDOF 8
ENDMDL
MODEL       33
REMARK 921   NORMALIZED FREE ENERGY PREDICTED BY IDOCK:   -5.07 KCAL/MOL
REMARK 922        TOTAL FREE ENERGY PREDICTED BY IDOCK:   -8.38 KCAL/MOL
REMARK 923 INTER-LIGAND FREE ENERGY PREDICTED BY IDOCK:   -7.16 KCAL/MOL
REMARK 924 INTRA-LIGAND FREE ENERGY PREDICTED BY IDOCK:   -1.22 KCAL/MOL
REMARK 927      BINDING AFFINITY PREDICTED BY RF-SCORE:    0.00 PKD
ROOT
HETATM    1  C   UNL     1     -12.760   9.111  72.043  1.00  0.00    -0.473 C  
HETATM    2  C   UNL     1     -13.073  10.593  71.945  1.00  0.00    -0.458 C  
ENDROOT
BRANCH   2   3
HETATM    3  O   UNL     1     -12.179  11.159  70.983  1.00  0.00    -0.356 OA 
BRANCH   3   4
HETATM    4  C   UNL     1     -12.299  12.498  70.807  1.00  0.00    -0.286 C  
HETATM    5  O   UNL     1     -12.683  13.297  71.649  1.00  0.00    -0.306 OA 
BRANCH   4   6
HETATM    6  C   UNL     1     -11.822  12.908  69.458  1.00  0.00    -0.383 C  
HETATM    7  C   UNL     1     -12.230  14.049  68.883  1.00  0.00    -0.261 C  
HETATM    8  C   UNL     1     -11.598  14.618  67.656  1.00  0.00    -0.361 C  
HETATM    9  H2  UNL     1      -8.541  13.326  67.897  1.00  0.00     0.000 HD 
HETATM   10  C   UNL     1     -10.967  13.549  66.722  1.00  0.00    -0.292 C  
HETATM   11  H1  UNL     1      -8.398  11.648  67.933  1.00  0.00     0.000 HD 
HETATM   12  C   UNL     1     -10.823  11.981  68.841  1.00  0.00    -0.252 C  
HETATM   13  C   UNL     1     -10.304  12.330  67.431  1.00  0.00    -0.206 C  
HETATM   14  N   UNL     1      -8.832  12.446  67.469  1.00  0.00    -0.172 NA 
BRANCH   8  15
HETATM   15  O   UNL     1     -10.701  15.575  68.218  1.00  0.00    -0.254 OA 
BRANCH  15  16
HETATM   16  C   UNL     1      -9.710  16.171  67.387  1.00  0.00    -0.233 C  
BRANCH  16  17
HETATM   17  C   UNL     1      -8.430  16.277  68.236  1.00  0.00    -0.187 C  
HETATM   18  C   UNL     1      -8.509  15.482  69.536  1.00  0.00    -0.211 C  
ENDBRANCH  16  17
BRANCH  16  19
HETATM   19  C   UNL     1     -10.138  17.545  66.841  1.00  0.00    -0.324 C  
HETATM   20  C   UNL     1     -10.536  18.554  67.912  1.00  0.00    -0.419 C  
ENDBRANCH  16  19
ENDBRANCH  15  16
ENDBRANCH   8  15
BRANCH  10  21
HETATM   21  N   UNL     1     -11.936  13.091  65.702  1.00  0.00    -0.405 N  
HETATM   22  H   UNL     1     -12.910  12.944  65.966  1.00  0.00     0.000 HD 
HETATM   23  C   UNL     1     -11.544  12.860  64.402  1.00  0.00    -0.363 C  
HETATM   24  C   UNL     1     -12.654  12.441  63.475  1.00  0.00    -0.535 C  
HETATM   25  O   UNL     1     -10.392  12.988  64.008  1.00  0.00    -0.419 OA 
ENDBRANCH  10  21
ENDBRANCH   4   6
ENDBRANCH   3   4
ENDBRANCH   2   3
TORSDOF 8
ENDMDL
MODEL       34
REMARK 921   NORMALIZED FREE ENERGY PREDICTED BY IDOCK:   -5.06 KCAL/MOL
REMARK 922        TOTAL FREE ENERGY PREDICTED BY IDOCK:   -8.37 KCAL/MOL
REMARK 923 INTER-LIGAND FREE ENERGY PREDICTED BY IDOCK:   -7.42 KCAL/MOL
REMARK 924 INTRA-LIGAND FREE ENERGY PREDICTED BY IDOCK:   -0.95 KCAL/MOL
REMARK 927      BINDING AFFINITY PREDICTED BY RF-SCORE:    0.00 PKD
ROOT
HETATM    1  C   UNL     1     -13.899  14.756  71.891  1.00  0.00    -0.541 C  
HETATM    2  C   UNL     1     -13.776  13.286  72.253  1.00  0.00    -0.589 C  
ENDROOT
BRANCH   2   3
HETATM    3  O   UNL     1     -12.895  12.682  71.302  1.00  0.00    -0.355 OA 
BRANCH   3   4
HETATM    4  C   UNL     1     -12.829  11.329  71.361  1.00  0.00    -0.410 C  
HETATM    5  O   UNL     1     -13.451  10.618  72.137  1.00  0.00    -0.373 OA 
BRANCH   4   6
HETATM    6  C   UNL     1     -11.947  10.786  70.292  1.00  0.00    -0.438 C  
HETATM    7  C   UNL     1     -12.122  11.112  69.003  1.00  0.00    -0.315 C  
HETATM    8  C   UNL     1     -11.126  10.796  67.936  1.00  0.00    -0.308 C  
HETATM    9  H2  UNL     1      -8.334  10.661  69.741  1.00  0.00     0.000 HD 
HETATM   10  C   UNL     1     -10.272   9.532  68.231  1.00  0.00    -0.193 C  
HETATM   11  H1  UNL     1      -8.261   9.538  70.995  1.00  0.00     0.000 HD 
HETATM   12  C   UNL     1     -10.837   9.913  70.782  1.00  0.00    -0.387 C  
HETATM   13  C   UNL     1      -9.898   9.294  69.725  1.00  0.00    -0.188 C  
HETATM   14  N   UNL     1      -8.506   9.695  70.017  1.00  0.00    -0.190 NA 
BRANCH   8  15
HETATM   15  O   UNL     1     -10.416  12.030  67.839  1.00  0.00    -0.193 OA 
BRANCH  15  16
HETATM   16  C   UNL     1     -10.601  12.849  66.688  1.00  0.00    -0.261 C  
BRANCH  16  17
HETATM   17  C   UNL     1     -11.459  14.047  67.134  1.00  0.00    -0.373 C  
HETATM   18  C   UNL     1     -10.740  14.960  68.122  1.00  0.00    -0.251 C  
ENDBRANCH  16  17
BRANCH  16  19
HETATM   19  C   UNL     1     -11.254  12.093  65.518  1.00  0.00    -0.381 C  
HETATM   20  C   UNL     1     -12.544  12.721  65.002  1.00  0.00    -0.538 C  
ENDBRANCH  16  19
ENDBRANCH  15  16
ENDBRANCH   8  15
BRANCH  10  21
HETATM   21  N   UNL     1     -10.894   8.320  67.654  1.00  0.00    -0.506 N  
HETATM   22  H   UNL     1     -11.910   8.267  67.574  1.00  0.00     0.000 HD 
HETATM   23  C   UNL     1     -10.124   7.262  67.222  1.00  0.00    -0.225 C  
HETATM   24  C   UNL     1     -10.902   6.122  66.620  1.00  0.00    -0.279 C  
HETATM   25  O   UNL     1      -8.903   7.234  67.304  1.00  0.00    -0.122 OA 
ENDBRANCH  10  21
ENDBRANCH   4   6
ENDBRANCH   3   4
ENDBRANCH   2   3
TORSDOF 8
ENDMDL
MODEL       35
REMARK 921   NORMALIZED FREE ENERGY PREDICTED BY IDOCK:   -5.03 KCAL/MOL
REMARK 922        TOTAL FREE ENERGY PREDICTED BY IDOCK:   -8.33 KCAL/MOL
REMARK 923 INTER-LIGAND FREE ENERGY PREDICTED BY IDOCK:   -7.23 KCAL/MOL
REMARK 924 INTRA-LIGAND FREE ENERGY PREDICTED BY IDOCK:   -1.10 KCAL/MOL
REMARK 927      BINDING AFFINITY PREDICTED BY RF-SCORE:    0.00 PKD
ROOT
HETATM    1  C   UNL     1     -10.656   7.736  66.892  1.00  0.00    -0.347 C  
HETATM    2  C   UNL     1      -9.223   8.144  67.183  1.00  0.00    -0.145 C  
ENDROOT
BRANCH   2   3
HETATM    3  O   UNL     1      -9.151   8.499  68.567  1.00  0.00    -0.136 OA 
BRANCH   3   4
HETATM    4  C   UNL     1      -8.691   9.751  68.814  1.00  0.00    -0.128 C  
HETATM    5  O   UNL     1      -7.518  10.095  68.803  1.00  0.00    -0.079 OA 
BRANCH   4   6
HETATM    6  C   UNL     1      -9.814  10.704  69.029  1.00  0.00    -0.218 C  
HETATM    7  C   UNL     1      -9.989  11.775  68.242  1.00  0.00    -0.200 C  
HETATM    8  C   UNL     1     -11.225  12.612  68.263  1.00  0.00    -0.272 C  
HETATM    9  H2  UNL     1     -13.442  10.385  69.356  1.00  0.00     0.000 HD 
HETATM   10  C   UNL     1     -11.952  12.624  69.636  1.00  0.00    -0.286 C  
HETATM   11  H1  UNL     1     -13.166   9.671  70.856  1.00  0.00     0.000 HD 
HETATM   12  C   UNL     1     -10.743  10.332  70.141  1.00  0.00    -0.334 C  
HETATM   13  C   UNL     1     -11.916  11.288  70.438  1.00  0.00    -0.380 C  
HETATM   14  N   UNL     1     -13.189  10.545  70.331  1.00  0.00    -0.110 NA 
BRANCH   8  15
HETATM   15  O   UNL     1     -11.955  12.064  67.165  1.00  0.00    -0.601 OA 
BRANCH  15  16
HETATM   16  C   UNL     1     -12.203  12.874  66.021  1.00  0.00    -0.366 C  
BRANCH  16  17
HETATM   17  C   UNL     1     -11.484  12.198  64.839  1.00  0.00    -0.379 C  
HETATM   18  C   UNL     1     -12.349  12.108  63.587  1.00  0.00    -0.673 C  
ENDBRANCH  16  17
BRANCH  16  19
HETATM   19  C   UNL     1     -11.734  14.328  66.207  1.00  0.00    -0.404 C  
HETATM   20  C   UNL     1     -10.608  14.753  65.272  1.00  0.00    -0.414 C  
ENDBRANCH  16  19
ENDBRANCH  15  16
ENDBRANCH   8  15
BRANCH  10  21
HETATM   21  N   UNL     1     -11.485  13.747  70.478  1.00  0.00    -0.502 N  
HETATM   22  H   UNL     1     -10.494  13.991  70.483  1.00  0.00     0.000 HD 
HETATM   23  C   UNL     1     -12.365  14.467  71.256  1.00  0.00    -0.359 C  
HETATM   24  C   UNL     1     -11.743  15.604  72.021  1.00  0.00    -0.551 C  
HETATM   25  O   UNL     1     -13.563  14.223  71.327  1.00  0.00    -0.349 OA 
ENDBRANCH  10  21
ENDBRANCH   4   6
ENDBRANCH   3   4
ENDBRANCH   2   3
TORSDOF 8
ENDMDL
MODEL       36
REMARK 921   NORMALIZED FREE ENERGY PREDICTED BY IDOCK:   -4.96 KCAL/MOL
REMARK 922        TOTAL FREE ENERGY PREDICTED BY IDOCK:   -8.22 KCAL/MOL
REMARK 923 INTER-LIGAND FREE ENERGY PREDICTED BY IDOCK:   -7.29 KCAL/MOL
REMARK 924 INTRA-LIGAND FREE ENERGY PREDICTED BY IDOCK:   -0.93 KCAL/MOL
REMARK 927      BINDING AFFINITY PREDICTED BY RF-SCORE:    0.00 PKD
ROOT
HETATM    1  C   UNL     1     -11.990  12.435  63.433  1.00  0.00    -0.595 C  
HETATM    2  C   UNL     1     -12.733  12.796  64.707  1.00  0.00    -0.393 C  
ENDROOT
BRANCH   2   3
HETATM    3  O   UNL     1     -11.852  13.588  65.508  1.00  0.00    -0.334 OA 
BRANCH   3   4
HETATM    4  C   UNL     1     -11.627  13.110  66.757  1.00  0.00    -0.366 C  
HETATM    5  O   UNL     1     -11.987  12.020  67.179  1.00  0.00    -0.601 OA 
BRANCH   4   6
HETATM    6  C   UNL     1     -10.802  14.057  67.555  1.00  0.00    -0.277 C  
HETATM    7  C   UNL     1      -9.775  14.726  67.012  1.00  0.00    -0.242 C  
HETATM    8  C   UNL     1      -9.082  15.858  67.696  1.00  0.00    -0.198 C  
HETATM    9  H2  UNL     1     -11.519  16.942  69.686  1.00  0.00     0.000 HD 
HETATM   10  C   UNL     1      -9.121  15.771  69.247  1.00  0.00    -0.263 C  
HETATM   11  H1  UNL     1     -12.163  15.857  70.802  1.00  0.00     0.000 HD 
HETATM   12  C   UNL     1     -11.251  14.236  68.971  1.00  0.00    -0.294 C  
HETATM   13  C   UNL     1     -10.426  15.184  69.865  1.00  0.00    -0.216 C  
HETATM   14  N   UNL     1     -11.309  16.242  70.397  1.00  0.00    -0.357 NA 
BRANCH   8  15
HETATM   15  O   UNL     1      -9.733  16.984  67.109  1.00  0.00    -0.247 OA 
BRANCH  15  16
HETATM   16  C   UNL     1      -9.485  18.284  67.637  1.00  0.00    -0.272 C  
BRANCH  16  17
HETATM   17  C   UNL     1     -10.696  19.153  67.252  1.00  0.00    -0.585 C  
HETATM   18  C   UNL     1     -10.558  19.791  65.873  1.00  0.00    -0.557 C  
ENDBRANCH  16  17
BRANCH  16  19
HETATM   19  C   UNL     1      -8.169  18.893  67.124  1.00  0.00    -0.283 C  
HETATM   20  C   UNL     1      -7.482  19.833  68.107  1.00  0.00    -0.343 C  
ENDBRANCH  16  19
ENDBRANCH  15  16
ENDBRANCH   8  15
BRANCH  10  21
HETATM   21  N   UNL     1      -7.934  15.061  69.773  1.00  0.00    -0.396 N  
HETATM   22  H   UNL     1      -8.019  14.084  70.056  1.00  0.00     0.000 HD 
HETATM   23  C   UNL     1      -6.717  15.697  69.887  1.00  0.00    -0.096 C  
HETATM   24  C   UNL     1      -5.599  14.828  70.397  1.00  0.00    -0.139 C  
HETATM   25  O   UNL     1      -6.536  16.872  69.594  1.00  0.00    -0.234 OA 
ENDBRANCH  10  21
ENDBRANCH   4   6
ENDBRANCH   3   4
ENDBRANCH   2   3
TORSDOF 8
ENDMDL
MODEL       37
REMARK 921   NORMALIZED FREE ENERGY PREDICTED BY IDOCK:   -4.95 KCAL/MOL
REMARK 922        TOTAL FREE ENERGY PREDICTED BY IDOCK:   -8.21 KCAL/MOL
REMARK 923 INTER-LIGAND FREE ENERGY PREDICTED BY IDOCK:   -7.14 KCAL/MOL
REMARK 924 INTRA-LIGAND FREE ENERGY PREDICTED BY IDOCK:   -1.07 KCAL/MOL
REMARK 927      BINDING AFFINITY PREDICTED BY RF-SCORE:    0.00 PKD
ROOT
HETATM    1  C   UNL     1     -13.230  14.586  72.785  1.00  0.00    -0.600 C  
HETATM    2  C   UNL     1     -13.779  13.235  72.364  1.00  0.00    -0.578 C  
ENDROOT
BRANCH   2   3
HETATM    3  O   UNL     1     -12.811  12.626  71.506  1.00  0.00    -0.357 OA 
BRANCH   3   4
HETATM    4  C   UNL     1     -12.805  11.270  71.520  1.00  0.00    -0.414 C  
HETATM    5  O   UNL     1     -13.458  10.561  72.271  1.00  0.00    -0.340 OA 
BRANCH   4   6
HETATM    6  C   UNL     1     -11.946  10.726  70.432  1.00  0.00    -0.448 C  
HETATM    7  C   UNL     1     -12.214  10.960  69.140  1.00  0.00    -0.181 C  
HETATM    8  C   UNL     1     -11.257  10.649  68.036  1.00  0.00    -0.307 C  
HETATM    9  H2  UNL     1      -8.368  10.815  69.679  1.00  0.00     0.000 HD 
HETATM   10  C   UNL     1     -10.300   9.466  68.351  1.00  0.00    -0.205 C  
HETATM   11  H1  UNL     1      -8.147   9.778  70.988  1.00  0.00     0.000 HD 
HETATM   12  C   UNL     1     -10.750   9.961  70.905  1.00  0.00    -0.305 C  
HETATM   13  C   UNL     1      -9.829   9.346  69.832  1.00  0.00    -0.210 C  
HETATM   14  N   UNL     1      -8.455   9.858  70.019  1.00  0.00    -0.194 NA 
BRANCH   8  15
HETATM   15  O   UNL     1     -10.644  11.921  67.827  1.00  0.00    -0.195 OA 
BRANCH  15  16
HETATM   16  C   UNL     1     -11.311  12.890  67.025  1.00  0.00    -0.309 C  
BRANCH  16  17
HETATM   17  C   UNL     1     -10.646  12.844  65.637  1.00  0.00    -0.295 C  
HETATM   18  C   UNL     1     -11.525  12.190  64.576  1.00  0.00    -0.397 C  
ENDBRANCH  16  17
BRANCH  16  19
HETATM   19  C   UNL     1     -11.254  14.304  67.629  1.00  0.00    -0.321 C  
HETATM   20  C   UNL     1     -10.835  14.349  69.093  1.00  0.00    -0.275 C  
ENDBRANCH  16  19
ENDBRANCH  15  16
ENDBRANCH   8  15
BRANCH  10  21
HETATM   21  N   UNL     1     -10.863   8.182  67.881  1.00  0.00    -0.479 N  
HETATM   22  H   UNL     1     -11.865   8.009  67.976  1.00  0.00     0.000 HD 
HETATM   23  C   UNL     1     -10.059   7.216  67.317  1.00  0.00    -0.215 C  
HETATM   24  C   UNL     1     -10.788   5.985  66.849  1.00  0.00    -0.396 C  
HETATM   25  O   UNL     1      -8.847   7.333  67.189  1.00  0.00    -0.122 OA 
ENDBRANCH  10  21
ENDBRANCH   4   6
ENDBRANCH   3   4
ENDBRANCH   2   3
TORSDOF 8
ENDMDL
MODEL       38
REMARK 921   NORMALIZED FREE ENERGY PREDICTED BY IDOCK:   -4.92 KCAL/MOL
REMARK 922        TOTAL FREE ENERGY PREDICTED BY IDOCK:   -8.16 KCAL/MOL
REMARK 923 INTER-LIGAND FREE ENERGY PREDICTED BY IDOCK:   -7.17 KCAL/MOL
REMARK 924 INTRA-LIGAND FREE ENERGY PREDICTED BY IDOCK:   -0.99 KCAL/MOL
REMARK 927      BINDING AFFINITY PREDICTED BY RF-SCORE:    0.00 PKD
ROOT
HETATM    1  C   UNL     1     -10.502   8.185  66.928  1.00  0.00    -0.379 C  
HETATM    2  C   UNL     1      -9.304   8.613  66.099  1.00  0.00    -0.226 C  
ENDROOT
BRANCH   2   3
HETATM    3  O   UNL     1      -9.187  10.034  66.215  1.00  0.00    -0.153 OA 
BRANCH   3   4
HETATM    4  C   UNL     1      -9.766  10.740  65.213  1.00  0.00    -0.255 C  
HETATM    5  O   UNL     1      -9.881  10.371  64.053  1.00  0.00    -0.313 OA 
BRANCH   4   6
HETATM    6  C   UNL     1     -10.331  12.022  65.716  1.00  0.00    -0.289 C  
HETATM    7  C   UNL     1      -9.615  12.852  66.490  1.00  0.00    -0.259 C  
HETATM    8  C   UNL     1     -10.044  14.245  66.810  1.00  0.00    -0.264 C  
HETATM    9  H2  UNL     1     -11.954  14.911  64.168  1.00  0.00     0.000 HD 
HETATM   10  C   UNL     1     -11.585  14.444  66.806  1.00  0.00    -0.385 C  
HETATM   11  H1  UNL     1     -13.283  13.914  63.887  1.00  0.00     0.000 HD 
HETATM   12  C   UNL     1     -11.717  12.323  65.240  1.00  0.00    -0.413 C  
HETATM   13  C   UNL     1     -12.376  13.624  65.743  1.00  0.00    -0.482 C  
HETATM   14  N   UNL     1     -12.765  14.452  64.583  1.00  0.00    -0.643 NA 
BRANCH   8  15
HETATM   15  O   UNL     1      -9.307  14.996  65.846  1.00  0.00    -0.303 OA 
BRANCH  15  16
HETATM   16  C   UNL     1      -8.615  16.170  66.260  1.00  0.00    -0.338 C  
BRANCH  16  17
HETATM   17  C   UNL     1      -7.983  15.848  67.627  1.00  0.00    -0.163 C  
HETATM   18  C   UNL     1      -6.500  15.503  67.532  1.00  0.00    -0.186 C  
ENDBRANCH  16  17
BRANCH  16  19
HETATM   19  C   UNL     1      -9.530  17.404  66.340  1.00  0.00    -0.279 C  
HETATM   20  C   UNL     1      -9.122  18.425  67.395  1.00  0.00    -0.268 C  
ENDBRANCH  16  19
ENDBRANCH  15  16
ENDBRANCH   8  15
BRANCH  10  21
HETATM   21  N   UNL     1     -12.155  14.231  68.154  1.00  0.00    -0.551 N  
HETATM   22  H   UNL     1     -12.646  13.359  68.359  1.00  0.00     0.000 HD 
HETATM   23  C   UNL     1     -12.035  15.188  69.138  1.00  0.00    -0.274 C  
HETATM   24  C   UNL     1     -12.629  14.803  70.466  1.00  0.00    -0.416 C  
HETATM   25  O   UNL     1     -11.485  16.269  68.968  1.00  0.00    -0.328 OA 
ENDBRANCH  10  21
ENDBRANCH   4   6
ENDBRANCH   3   4
ENDBRANCH   2   3
TORSDOF 8
ENDMDL
MODEL       39
REMARK 921   NORMALIZED FREE ENERGY PREDICTED BY IDOCK:   -4.84 KCAL/MOL
REMARK 922        TOTAL FREE ENERGY PREDICTED BY IDOCK:   -8.05 KCAL/MOL
REMARK 923 INTER-LIGAND FREE ENERGY PREDICTED BY IDOCK:   -6.95 KCAL/MOL
REMARK 924 INTRA-LIGAND FREE ENERGY PREDICTED BY IDOCK:   -1.09 KCAL/MOL
REMARK 927      BINDING AFFINITY PREDICTED BY RF-SCORE:    0.00 PKD
ROOT
HETATM    1  C   UNL     1     -11.031  15.551  65.067  1.00  0.00    -0.454 C  
HETATM    2  C   UNL     1     -12.226  14.932  64.365  1.00  0.00    -0.381 C  
ENDROOT
BRANCH   2   3
HETATM    3  O   UNL     1     -12.782  13.953  65.247  1.00  0.00    -0.597 OA 
BRANCH   3   4
HETATM    4  C   UNL     1     -12.655  12.669  64.830  1.00  0.00    -0.454 C  
HETATM    5  O   UNL     1     -13.395  12.098  64.042  1.00  0.00    -0.706 OA 
BRANCH   4   6
HETATM    6  C   UNL     1     -11.432  12.037  65.397  1.00  0.00    -0.361 C  
HETATM    7  C   UNL     1     -11.271  11.875  66.718  1.00  0.00    -0.384 C  
HETATM    8  C   UNL     1     -10.190  11.036  67.314  1.00  0.00    -0.199 C  
HETATM    9  H2  UNL     1      -9.645   8.899  64.822  1.00  0.00     0.000 HD 
HETATM   10  C   UNL     1      -8.912  10.942  66.435  1.00  0.00    -0.175 C  
HETATM   11  H1  UNL     1      -9.175   9.530  63.333  1.00  0.00     0.000 HD 
HETATM   12  C   UNL     1     -10.449  11.556  64.378  1.00  0.00    -0.380 C  
HETATM   13  C   UNL     1      -9.145  10.914  64.894  1.00  0.00    -0.182 C  
HETATM   14  N   UNL     1      -9.023   9.549  64.341  1.00  0.00    -0.228 NA 
BRANCH   8  15
HETATM   15  O   UNL     1     -10.883   9.811  67.554  1.00  0.00    -0.283 OA 
BRANCH  15  16
HETATM   16  C   UNL     1     -10.153   8.676  68.009  1.00  0.00    -0.196 C  
BRANCH  16  17
HETATM   17  C   UNL     1     -10.531   7.508  67.080  1.00  0.00    -0.409 C  
HETATM   18  C   UNL     1     -10.986   6.266  67.839  1.00  0.00    -0.421 C  
ENDBRANCH  16  17
BRANCH  16  19
HETATM   19  C   UNL     1     -10.436   8.338  69.483  1.00  0.00    -0.228 C  
HETATM   20  C   UNL     1      -9.828   9.313  70.483  1.00  0.00    -0.310 C  
ENDBRANCH  16  19
ENDBRANCH  15  16
ENDBRANCH   8  15
BRANCH  10  21
HETATM   21  N   UNL     1      -7.939  11.997  66.792  1.00  0.00    -0.339 N  
HETATM   22  H   UNL     1      -7.992  12.906  66.330  1.00  0.00     0.000 HD 
HETATM   23  C   UNL     1      -6.962  11.774  67.738  1.00  0.00    -0.094 C  
HETATM   24  C   UNL     1      -6.078  12.959  68.021  1.00  0.00    -0.107 C  
HETATM   25  O   UNL     1      -6.814  10.707  68.320  1.00  0.00    -0.066 OA 
ENDBRANCH  10  21
ENDBRANCH   4   6
ENDBRANCH   3   4
ENDBRANCH   2   3
TORSDOF 8
ENDMDL
MODEL       40
REMARK 921   NORMALIZED FREE ENERGY PREDICTED BY IDOCK:   -4.84 KCAL/MOL
REMARK 922        TOTAL FREE ENERGY PREDICTED BY IDOCK:   -8.04 KCAL/MOL
REMARK 923 INTER-LIGAND FREE ENERGY PREDICTED BY IDOCK:   -7.26 KCAL/MOL
REMARK 924 INTRA-LIGAND FREE ENERGY PREDICTED BY IDOCK:   -0.78 KCAL/MOL
REMARK 927      BINDING AFFINITY PREDICTED BY RF-SCORE:    0.00 PKD
ROOT
HETATM    1  C   UNL     1     -12.050  12.337  63.463  1.00  0.00    -0.649 C  
HETATM    2  C   UNL     1     -12.160  13.847  63.569  1.00  0.00    -0.086 C  
ENDROOT
BRANCH   2   3
HETATM    3  O   UNL     1     -10.945  14.326  64.153  1.00  0.00    -0.137 OA 
BRANCH   3   4
HETATM    4  C   UNL     1     -11.055  15.501  64.822  1.00  0.00    -0.407 C  
HETATM    5  O   UNL     1     -11.254  16.595  64.314  1.00  0.00    -1.098 OA 
BRANCH   4   6
HETATM    6  C   UNL     1     -10.982  15.290  66.294  1.00  0.00    -0.300 C  
HETATM    7  C   UNL     1     -11.077  14.067  66.835  1.00  0.00    -0.310 C  
HETATM    8  C   UNL     1     -10.766  13.780  68.267  1.00  0.00    -0.253 C  
HETATM    9  H2  UNL     1      -8.625  16.241  68.923  1.00  0.00     0.000 HD 
HETATM   10  C   UNL     1     -11.003  14.987  69.215  1.00  0.00    -0.264 C  
HETATM   11  H1  UNL     1      -9.162  17.825  68.723  1.00  0.00     0.000 HD 
HETATM   12  C   UNL     1     -10.737  16.532  67.090  1.00  0.00    -0.220 C  
HETATM   13  C   UNL     1     -10.675  16.392  68.626  1.00  0.00    -0.317 C  
HETATM   14  N   UNL     1      -9.376  16.905  69.108  1.00  0.00    -0.183 NA 
BRANCH   8  15
HETATM   15  O   UNL     1      -9.423  13.303  68.173  1.00  0.00    -0.212 OA 
BRANCH  15  16
HETATM   16  C   UNL     1      -9.188  11.902  68.065  1.00  0.00    -0.190 C  
BRANCH  16  17
HETATM   17  C   UNL     1      -7.876  11.617  68.819  1.00  0.00    -0.096 C  
HETATM   18  C   UNL     1      -7.031  10.536  68.154  1.00  0.00    -0.073 C  
ENDBRANCH  16  17
BRANCH  16  19
HETATM   19  C   UNL     1      -9.115  11.422  66.605  1.00  0.00    -0.187 C  
HETATM   20  C   UNL     1     -10.271  10.527  66.176  1.00  0.00    -0.299 C  
ENDBRANCH  16  19
ENDBRANCH  15  16
ENDBRANCH   8  15
BRANCH  10  21
HETATM   21  N   UNL     1     -12.372  14.967  69.774  1.00  0.00    -0.512 N  
HETATM   22  H   UNL     1     -13.138  14.593  69.212  1.00  0.00     0.000 HD 
HETATM   23  C   UNL     1     -12.631  15.444  71.040  1.00  0.00    -0.431 C  
HETATM   24  C   UNL     1     -14.065  15.314  71.480  1.00  0.00    -0.625 C  
HETATM   25  O   UNL     1     -11.777  15.931  71.769  1.00  0.00    -0.414 OA 
ENDBRANCH  10  21
ENDBRANCH   4   6
ENDBRANCH   3   4
ENDBRANCH   2   3
TORSDOF 8
ENDMDL
MODEL       41
REMARK 921   NORMALIZED FREE ENERGY PREDICTED BY IDOCK:   -4.79 KCAL/MOL
REMARK 922        TOTAL FREE ENERGY PREDICTED BY IDOCK:   -7.97 KCAL/MOL
REMARK 923 INTER-LIGAND FREE ENERGY PREDICTED BY IDOCK:   -7.52 KCAL/MOL
REMARK 924 INTRA-LIGAND FREE ENERGY PREDICTED BY IDOCK:   -0.46 KCAL/MOL
REMARK 927      BINDING AFFINITY PREDICTED BY RF-SCORE:    0.00 PKD
ROOT
HETATM    1  C   UNL     1      -8.668  20.028  67.328  1.00  0.00    -0.417 C  
HETATM    2  C   UNL     1      -9.278  19.242  66.182  1.00  0.00    -0.260 C  
ENDROOT
BRANCH   2   3
HETATM    3  O   UNL     1     -10.256  18.359  66.740  1.00  0.00    -0.346 OA 
BRANCH   3   4
HETATM    4  C   UNL     1     -10.608  17.318  65.945  1.00  0.00    -0.204 C  
HETATM    5  O   UNL     1     -10.983  17.402  64.784  1.00  0.00    -0.964 OA 
BRANCH   4   6
HETATM    6  C   UNL     1     -10.405  16.018  66.640  1.00  0.00    -0.299 C  
HETATM    7  C   UNL     1     -11.143  14.938  66.344  1.00  0.00    -0.342 C  
HETATM    8  C   UNL     1     -10.816  13.565  66.830  1.00  0.00    -0.282 C  
HETATM    9  H2  UNL     1      -7.529  13.846  67.263  1.00  0.00     0.000 HD 
HETATM   10  C   UNL     1     -10.054  13.543  68.183  1.00  0.00    -0.250 C  
HETATM   11  H1  UNL     1      -6.975  15.019  68.336  1.00  0.00     0.000 HD 
HETATM   12  C   UNL     1      -9.286  16.009  67.633  1.00  0.00    -0.214 C  
HETATM   13  C   UNL     1      -9.035  14.701  68.411  1.00  0.00    -0.180 C  
HETATM   14  N   UNL     1      -7.642  14.262  68.187  1.00  0.00    -0.121 NA 
BRANCH   8  15
HETATM   15  O   UNL     1     -10.123  13.025  65.705  1.00  0.00    -0.286 OA 
BRANCH  15  16
HETATM   16  C   UNL     1     -10.777  12.984  64.440  1.00  0.00    -0.394 C  
BRANCH  16  17
HETATM   17  C   UNL     1     -12.220  12.517  64.706  1.00  0.00    -0.532 C  
HETATM   18  C   UNL     1     -12.879  11.892  63.481  1.00  0.00    -0.435 C  
ENDBRANCH  16  17
BRANCH  16  19
HETATM   19  C   UNL     1     -10.065  12.066  63.431  1.00  0.00    -0.437 C  
HETATM   20  C   UNL     1      -9.385  10.852  64.053  1.00  0.00    -0.266 C  
ENDBRANCH  16  19
ENDBRANCH  15  16
ENDBRANCH   8  15
BRANCH  10  21
HETATM   21  N   UNL     1     -10.991  13.448  69.324  1.00  0.00    -0.429 N  
HETATM   22  H   UNL     1     -11.217  14.287  69.859  1.00  0.00     0.000 HD 
HETATM   23  C   UNL     1     -11.564  12.245  69.676  1.00  0.00    -0.278 C  
HETATM   24  C   UNL     1     -12.528  12.321  70.829  1.00  0.00    -0.356 C  
HETATM   25  O   UNL     1     -11.328  11.189  69.103  1.00  0.00    -0.223 OA 
ENDBRANCH  10  21
ENDBRANCH   4   6
ENDBRANCH   3   4
ENDBRANCH   2   3
TORSDOF 8
ENDMDL
MODEL       42
REMARK 921   NORMALIZED FREE ENERGY PREDICTED BY IDOCK:   -4.76 KCAL/MOL
REMARK 922        TOTAL FREE ENERGY PREDICTED BY IDOCK:   -7.92 KCAL/MOL
REMARK 923 INTER-LIGAND FREE ENERGY PREDICTED BY IDOCK:   -6.88 KCAL/MOL
REMARK 924 INTRA-LIGAND FREE ENERGY PREDICTED BY IDOCK:   -1.04 KCAL/MOL
REMARK 927      BINDING AFFINITY PREDICTED BY RF-SCORE:    0.00 PKD
ROOT
HETATM    1  C   UNL     1     -10.513  19.683  65.936  1.00  0.00    -0.591 C  
HETATM    2  C   UNL     1     -10.824  19.148  67.323  1.00  0.00    -0.431 C  
ENDROOT
BRANCH   2   3
HETATM    3  O   UNL     1     -10.365  17.795  67.373  1.00  0.00    -0.341 OA 
BRANCH   3   4
HETATM    4  C   UNL     1     -10.465  17.201  68.589  1.00  0.00    -0.366 C  
HETATM    5  O   UNL     1     -10.535  17.781  69.662  1.00  0.00    -0.022 OA 
BRANCH   4   6
HETATM    6  C   UNL     1     -10.563  15.721  68.457  1.00  0.00    -0.253 C  
HETATM    7  C   UNL     1     -11.657  15.130  67.955  1.00  0.00    -0.345 C  
HETATM    8  C   UNL     1     -11.705  13.686  67.578  1.00  0.00    -0.371 C  
HETATM    9  H2  UNL     1      -8.490  13.123  66.932  1.00  0.00     0.000 HD 
HETATM   10  C   UNL     1     -10.738  12.790  68.399  1.00  0.00    -0.250 C  
HETATM   11  H1  UNL     1      -7.381  13.391  68.170  1.00  0.00     0.000 HD 
HETATM   12  C   UNL     1      -9.334  14.975  68.871  1.00  0.00    -0.208 C  
HETATM   13  C   UNL     1      -9.373  13.436  68.786  1.00  0.00     0.096 C  
HETATM   14  N   UNL     1      -8.274  12.969  67.916  1.00  0.00    -0.152 NA 
BRANCH   8  15
HETATM   15  O   UNL     1     -11.466  13.754  66.172  1.00  0.00    -0.322 OA 
BRANCH  15  16
HETATM   16  C   UNL     1     -12.575  13.776  65.278  1.00  0.00    -0.473 C  
BRANCH  16  17
HETATM   17  C   UNL     1     -12.762  12.333  64.775  1.00  0.00    -0.198 C  
HETATM   18  C   UNL     1     -12.187  12.109  63.380  1.00  0.00    -0.635 C  
ENDBRANCH  16  17
BRANCH  16  19
HETATM   19  C   UNL     1     -12.379  14.758  64.111  1.00  0.00    -0.259 C  
HETATM   20  C   UNL     1     -11.515  15.969  64.442  1.00  0.00    -0.246 C  
ENDBRANCH  16  19
ENDBRANCH  15  16
ENDBRANCH   8  15
BRANCH  10  21
HETATM   21  N   UNL     1     -11.407  12.237  69.596  1.00  0.00    -0.471 N  
HETATM   22  H   UNL     1     -11.788  12.874  70.297  1.00  0.00     0.000 HD 
HETATM   23  C   UNL     1     -11.525  10.877  69.781  1.00  0.00    -0.313 C  
HETATM   24  C   UNL     1     -12.270  10.473  71.026  1.00  0.00    -0.505 C  
HETATM   25  O   UNL     1     -11.075  10.045  69.003  1.00  0.00    -0.223 OA 
ENDBRANCH  10  21
ENDBRANCH   4   6
ENDBRANCH   3   4
ENDBRANCH   2   3
TORSDOF 8
ENDMDL
MODEL       43
REMARK 921   NORMALIZED FREE ENERGY PREDICTED BY IDOCK:   -4.74 KCAL/MOL
REMARK 922        TOTAL FREE ENERGY PREDICTED BY IDOCK:   -7.89 KCAL/MOL
REMARK 923 INTER-LIGAND FREE ENERGY PREDICTED BY IDOCK:   -7.04 KCAL/MOL
REMARK 924 INTRA-LIGAND FREE ENERGY PREDICTED BY IDOCK:   -0.85 KCAL/MOL
REMARK 927      BINDING AFFINITY PREDICTED BY RF-SCORE:    0.00 PKD
ROOT
HETATM    1  C   UNL     1     -11.943  12.354  63.401  1.00  0.00    -0.595 C  
HETATM    2  C   UNL     1     -12.123  13.226  64.631  1.00  0.00    -0.408 C  
ENDROOT
BRANCH   2   3
HETATM    3  O   UNL     1     -12.409  12.360  65.733  1.00  0.00    -0.644 OA 
BRANCH   3   4
HETATM    4  C   UNL     1     -11.960  12.796  66.936  1.00  0.00    -0.310 C  
HETATM    5  O   UNL     1     -12.219  13.876  67.445  1.00  0.00    -0.378 OA 
BRANCH   4   6
HETATM    6  C   UNL     1     -11.155  11.748  67.621  1.00  0.00    -0.312 C  
HETATM    7  C   UNL     1     -11.032  11.715  68.956  1.00  0.00    -0.283 C  
HETATM    8  C   UNL     1     -10.449  10.557  69.696  1.00  0.00    -0.219 C  
HETATM    9  H2  UNL     1     -11.083   8.092  67.552  1.00  0.00     0.000 HD 
HETATM   10  C   UNL     1      -9.405   9.749  68.876  1.00  0.00    -0.158 C  
HETATM   11  H1  UNL     1     -10.435   8.213  66.002  1.00  0.00     0.000 HD 
HETATM   12  C   UNL     1     -10.559  10.723  66.710  1.00  0.00    -0.307 C  
HETATM   13  C   UNL     1      -9.690   9.620  67.349  1.00  0.00    -0.156 C  
HETATM   14  N   UNL     1     -10.249   8.297  67.001  1.00  0.00    -0.282 NA 
BRANCH   8  15
HETATM   15  O   UNL     1     -11.626   9.852  70.089  1.00  0.00    -0.253 OA 
BRANCH  15  16
HETATM   16  C   UNL     1     -11.969   9.786  71.471  1.00  0.00    -0.407 C  
BRANCH  16  17
HETATM   17  C   UNL     1     -12.048   8.292  71.834  1.00  0.00    -0.382 C  
HETATM   18  C   UNL     1     -11.695   7.376  70.667  1.00  0.00    -0.270 C  
ENDBRANCH  16  17
BRANCH  16  19
HETATM   19  C   UNL     1     -13.286  10.514  71.793  1.00  0.00    -0.522 C  
HETATM   20  C   UNL     1     -13.158  12.027  71.915  1.00  0.00    -0.475 C  
ENDBRANCH  16  19
ENDBRANCH  15  16
ENDBRANCH   8  15
BRANCH  10  21
HETATM   21  N   UNL     1      -8.035  10.258  69.106  1.00  0.00    -0.123 N  
HETATM   22  H   UNL     1      -7.590  10.839  68.394  1.00  0.00     0.000 HD 
HETATM   23  C   UNL     1      -7.351   9.962  70.264  1.00  0.00    -0.157 C  
HETATM   24  C   UNL     1      -5.987  10.590  70.367  1.00  0.00    -0.112 C  
HETATM   25  O   UNL     1      -7.801   9.253  71.155  1.00  0.00    -0.289 OA 
ENDBRANCH  10  21
ENDBRANCH   4   6
ENDBRANCH   3   4
ENDBRANCH   2   3
TORSDOF 8
ENDMDL
MODEL       44
REMARK 921   NORMALIZED FREE ENERGY PREDICTED BY IDOCK:   -4.72 KCAL/MOL
REMARK 922        TOTAL FREE ENERGY PREDICTED BY IDOCK:   -7.87 KCAL/MOL
REMARK 923 INTER-LIGAND FREE ENERGY PREDICTED BY IDOCK:   -6.90 KCAL/MOL
REMARK 924 INTRA-LIGAND FREE ENERGY PREDICTED BY IDOCK:   -0.98 KCAL/MOL
REMARK 927      BINDING AFFINITY PREDICTED BY RF-SCORE:    0.00 PKD
ROOT
HETATM    1  C   UNL     1     -13.608   7.253  71.548  1.00  0.00    -0.442 C  
HETATM    2  C   UNL     1     -14.140   8.634  71.887  1.00  0.00    -0.443 C  
ENDROOT
BRANCH   2   3
HETATM    3  O   UNL     1     -13.040   9.413  72.365  1.00  0.00    -0.416 OA 
BRANCH   3   4
HETATM    4  C   UNL     1     -12.921  10.641  71.804  1.00  0.00    -0.472 C  
HETATM    5  O   UNL     1     -13.505  11.651  72.166  1.00  0.00    -0.423 OA 
BRANCH   4   6
HETATM    6  C   UNL     1     -11.908  10.637  70.713  1.00  0.00    -0.459 C  
HETATM    7  C   UNL     1     -10.967   9.685  70.628  1.00  0.00    -0.386 C  
HETATM    8  C   UNL     1     -10.096   9.500  69.431  1.00  0.00    -0.198 C  
HETATM    9  H2  UNL     1     -12.047  10.785  67.061  1.00  0.00     0.000 HD 
HETATM   10  C   UNL     1      -9.844  10.807  68.630  1.00  0.00    -0.184 C  
HETATM   11  H1  UNL     1     -12.526  12.391  67.223  1.00  0.00     0.000 HD 
HETATM   12  C   UNL     1     -12.069  11.733  69.708  1.00  0.00    -0.338 C  
HETATM   13  C   UNL     1     -11.038  11.806  68.562  1.00  0.00    -0.239 C  
HETATM   14  N   UNL     1     -11.745  11.737  67.267  1.00  0.00    -0.597 NA 
BRANCH   8  15
HETATM   15  O   UNL     1     -10.784   8.457  68.740  1.00  0.00    -0.168 OA 
BRANCH  15  16
HETATM   16  C   UNL     1     -10.113   7.225  68.495  1.00  0.00    -0.172 C  
BRANCH  16  17
HETATM   17  C   UNL     1     -11.131   6.300  67.803  1.00  0.00    -0.361 C  
HETATM   18  C   UNL     1     -10.615   5.721  66.490  1.00  0.00    -0.294 C  
ENDBRANCH  16  17
BRANCH  16  19
HETATM   19  C   UNL     1      -9.554   6.586  69.778  1.00  0.00    -0.161 C  
HETATM   20  C   UNL     1     -10.381   5.425  70.318  1.00  0.00    -0.357 C  
ENDBRANCH  16  19
ENDBRANCH  15  16
ENDBRANCH   8  15
BRANCH  10  21
HETATM   21  N   UNL     1      -8.620  11.493  69.097  1.00  0.00    -0.367 N  
HETATM   22  H   UNL     1      -8.352  11.427  70.080  1.00  0.00     0.000 HD 
HETATM   23  C   UNL     1      -7.836  12.220  68.229  1.00  0.00    -0.153 C  
HETATM   24  C   UNL     1      -6.602  12.821  68.848  1.00  0.00    -0.095 C  
HETATM   25  O   UNL     1      -8.098  12.371  67.043  1.00  0.00    -0.174 OA 
ENDBRANCH  10  21
ENDBRANCH   4   6
ENDBRANCH   3   4
ENDBRANCH   2   3
TORSDOF 8
ENDMDL
MODEL       45
REMARK 921   NORMALIZED FREE ENERGY PREDICTED BY IDOCK:   -4.71 KCAL/MOL
REMARK 922        TOTAL FREE ENERGY PREDICTED BY IDOCK:   -7.85 KCAL/MOL
REMARK 923 INTER-LIGAND FREE ENERGY PREDICTED BY IDOCK:   -6.72 KCAL/MOL
REMARK 924 INTRA-LIGAND FREE ENERGY PREDICTED BY IDOCK:   -1.13 KCAL/MOL
REMARK 927      BINDING AFFINITY PREDICTED BY RF-SCORE:    0.00 PKD
ROOT
HETATM    1  C   UNL     1      -5.731  11.828  70.089  1.00  0.00    -0.145 C  
HETATM    2  C   UNL     1      -6.012  12.637  68.836  1.00  0.00    -0.074 C  
ENDROOT
BRANCH   2   3
HETATM    3  O   UNL     1      -6.816  13.756  69.218  1.00  0.00    -0.112 OA 
BRANCH   3   4
HETATM    4  C   UNL     1      -7.532  14.317  68.213  1.00  0.00    -0.125 C  
HETATM    5  O   UNL     1      -7.092  14.646  67.121  1.00  0.00    -0.180 OA 
BRANCH   4   6
HETATM    6  C   UNL     1      -8.973  14.420  68.571  1.00  0.00    -0.187 C  
HETATM    7  C   UNL     1      -9.505  15.563  69.028  1.00  0.00    -0.242 C  
HETATM    8  C   UNL     1     -10.975  15.784  69.164  1.00  0.00    -0.265 C  
HETATM    9  H2  UNL     1     -12.118  13.672  66.861  1.00  0.00     0.000 HD 
HETATM   10  C   UNL     1     -11.785  14.483  69.419  1.00  0.00    -0.318 C  
HETATM   11  H1  UNL     1     -11.730  12.042  67.028  1.00  0.00     0.000 HD 
HETATM   12  C   UNL     1      -9.768  13.178  68.324  1.00  0.00    -0.223 C  
HETATM   13  C   UNL     1     -11.265  13.204  68.697  1.00  0.00    -0.276 C  
HETATM   14  N   UNL     1     -12.070  12.879  67.501  1.00  0.00    -0.333 NA 
BRANCH   8  15
HETATM   15  O   UNL     1     -11.268  16.485  67.956  1.00  0.00    -0.314 OA 
BRANCH  15  16
HETATM   16  C   UNL     1     -10.242  17.248  67.328  1.00  0.00    -0.320 C  
BRANCH  16  17
HETATM   17  C   UNL     1     -10.634  18.728  67.490  1.00  0.00    -0.497 C  
HETATM   18  C   UNL     1     -10.020  19.375  68.727  1.00  0.00    -0.522 C  
ENDBRANCH  16  17
BRANCH  16  19
HETATM   19  C   UNL     1     -10.045  16.877  65.848  1.00  0.00    -0.302 C  
HETATM   20  C   UNL     1     -10.695  15.562  65.434  1.00  0.00    -0.422 C  
ENDBRANCH  16  19
ENDBRANCH  15  16
ENDBRANCH   8  15
BRANCH  10  21
HETATM   21  N   UNL     1     -11.947  14.229  70.868  1.00  0.00    -0.409 N  
HETATM   22  H   UNL     1     -11.271  13.637  71.352  1.00  0.00     0.000 HD 
HETATM   23  C   UNL     1     -12.995  14.779  71.574  1.00  0.00    -0.336 C  
HETATM   24  C   UNL     1     -12.996  14.463  73.046  1.00  0.00    -0.571 C  
HETATM   25  O   UNL     1     -13.862  15.478  71.065  1.00  0.00    -0.545 OA 
ENDBRANCH  10  21
ENDBRANCH   4   6
ENDBRANCH   3   4
ENDBRANCH   2   3
TORSDOF 8
ENDMDL
MODEL       46
REMARK 921   NORMALIZED FREE ENERGY PREDICTED BY IDOCK:   -4.70 KCAL/MOL
REMARK 922        TOTAL FREE ENERGY PREDICTED BY IDOCK:   -7.83 KCAL/MOL
REMARK 923 INTER-LIGAND FREE ENERGY PREDICTED BY IDOCK:   -7.03 KCAL/MOL
REMARK 924 INTRA-LIGAND FREE ENERGY PREDICTED BY IDOCK:   -0.80 KCAL/MOL
REMARK 927      BINDING AFFINITY PREDICTED BY RF-SCORE:    0.00 PKD
ROOT
HETATM    1  C   UNL     1     -10.920   9.106  71.571  1.00  0.00    -0.434 C  
HETATM    2  C   UNL     1     -12.053  10.001  71.102  1.00  0.00    -0.380 C  
ENDROOT
BRANCH   2   3
HETATM    3  O   UNL     1     -11.599  10.693  69.935  1.00  0.00    -0.265 OA 
BRANCH   3   4
HETATM    4  C   UNL     1     -11.849  12.026  69.927  1.00  0.00    -0.331 C  
HETATM    5  O   UNL     1     -12.359  12.662  70.838  1.00  0.00    -0.374 OA 
BRANCH   4   6
HETATM    6  C   UNL     1     -11.346  12.659  68.677  1.00  0.00    -0.331 C  
HETATM    7  C   UNL     1     -10.187  12.285  68.115  1.00  0.00    -0.212 C  
HETATM    8  C   UNL     1      -9.767  12.709  66.747  1.00  0.00    -0.240 C  
HETATM    9  H2  UNL     1     -12.736  13.259  65.348  1.00  0.00     0.000 HD 
HETATM   10  C   UNL     1     -10.346  14.083  66.310  1.00  0.00    -0.293 C  
HETATM   11  H1  UNL     1     -13.740  14.408  66.060  1.00  0.00     0.000 HD 
HETATM   12  C   UNL     1     -12.260  13.685  68.086  1.00  0.00    -0.164 C  
HETATM   13  C   UNL     1     -11.790  14.402  66.803  1.00  0.00    -0.410 C  
HETATM   14  N   UNL     1     -12.795  14.199  65.738  1.00  0.00    -0.468 NA 
BRANCH   8  15
HETATM   15  O   UNL     1     -10.161  11.580  65.967  1.00  0.00    -0.226 OA 
BRANCH  15  16
HETATM   16  C   UNL     1      -9.265  11.065  64.987  1.00  0.00    -0.197 C  
BRANCH  16  17
HETATM   17  C   UNL     1      -9.897  11.365  63.615  1.00  0.00    -0.380 C  
HETATM   18  C   UNL     1      -9.473  10.376  62.534  1.00  0.00    -0.292 C  
ENDBRANCH  16  17
BRANCH  16  19
HETATM   19  C   UNL     1      -8.990   9.562  65.163  1.00  0.00    -0.253 C  
HETATM   20  C   UNL     1      -9.550   8.963  66.447  1.00  0.00    -0.304 C  
ENDBRANCH  16  19
ENDBRANCH  15  16
ENDBRANCH   8  15
BRANCH  10  21
HETATM   21  N   UNL     1      -9.426  15.187  66.659  1.00  0.00    -0.247 N  
HETATM   22  H   UNL     1      -8.730  15.047  67.393  1.00  0.00     0.000 HD 
HETATM   23  C   UNL     1      -9.491  16.400  66.009  1.00  0.00    -0.310 C  
HETATM   24  C   UNL     1      -8.459  17.405  66.447  1.00  0.00    -0.292 C  
HETATM   25  O   UNL     1     -10.310  16.658  65.136  1.00  0.00    -0.630 OA 
ENDBRANCH  10  21
ENDBRANCH   4   6
ENDBRANCH   3   4
ENDBRANCH   2   3
TORSDOF 8
ENDMDL
MODEL       47
REMARK 921   NORMALIZED FREE ENERGY PREDICTED BY IDOCK:   -4.69 KCAL/MOL
REMARK 922        TOTAL FREE ENERGY PREDICTED BY IDOCK:   -7.82 KCAL/MOL
REMARK 923 INTER-LIGAND FREE ENERGY PREDICTED BY IDOCK:   -6.91 KCAL/MOL
REMARK 924 INTRA-LIGAND FREE ENERGY PREDICTED BY IDOCK:   -0.91 KCAL/MOL
REMARK 927      BINDING AFFINITY PREDICTED BY RF-SCORE:    0.00 PKD
ROOT
HETATM    1  C   UNL     1      -6.221  10.974  66.339  1.00  0.00    -0.136 C  
HETATM    2  C   UNL     1      -5.457  11.880  67.287  1.00  0.00    -0.121 C  
ENDROOT
BRANCH   2   3
HETATM    3  O   UNL     1      -6.134  13.139  67.317  1.00  0.00    -0.320 OA 
BRANCH   3   4
HETATM    4  C   UNL     1      -6.977  13.313  68.365  1.00  0.00    -0.105 C  
HETATM    5  O   UNL     1      -6.648  13.386  69.540  1.00  0.00    -0.105 OA 
BRANCH   4   6
HETATM    6  C   UNL     1      -8.381  13.487  67.902  1.00  0.00    -0.175 C  
HETATM    7  C   UNL     1      -9.373  12.707  68.355  1.00  0.00    -0.148 C  
HETATM    8  C   UNL     1     -10.818  12.998  68.114  1.00  0.00    -0.247 C  
HETATM    9  H2  UNL     1     -10.709  16.301  67.726  1.00  0.00     0.000 HD 
HETATM   10  C   UNL     1     -11.088  13.788  66.804  1.00  0.00    -0.308 C  
HETATM   11  H1  UNL     1      -9.749  16.916  66.486  1.00  0.00     0.000 HD 
HETATM   12  C   UNL     1      -8.589  14.624  66.954  1.00  0.00    -0.233 C  
HETATM   13  C   UNL     1     -10.016  14.849  66.412  1.00  0.00    -0.275 C  
HETATM   14  N   UNL     1     -10.451  16.222  66.743  1.00  0.00    -0.298 NA 
BRANCH   8  15
HETATM   15  O   UNL     1     -11.181  13.650  69.331  1.00  0.00    -0.249 OA 
BRANCH  15  16
HETATM   16  C   UNL     1     -12.238  13.111  70.119  1.00  0.00    -0.290 C  
BRANCH  16  17
HETATM   17  C   UNL     1     -12.395  14.039  71.338  1.00  0.00    -0.410 C  
HETATM   18  C   UNL     1     -13.323  15.220  71.073  1.00  0.00    -0.537 C  
ENDBRANCH  16  17
BRANCH  16  19
HETATM   19  C   UNL     1     -11.979  11.657  70.549  1.00  0.00    -0.413 C  
HETATM   20  C   UNL     1     -13.045  11.070  71.467  1.00  0.00    -0.500 C  
ENDBRANCH  16  19
ENDBRANCH  15  16
ENDBRANCH   8  15
BRANCH  10  21
HETATM   21  N   UNL     1     -11.347  12.871  65.671  1.00  0.00    -0.301 N  
HETATM   22  H   UNL     1     -10.784  12.026  65.572  1.00  0.00     0.000 HD 
HETATM   23  C   UNL     1     -12.334  13.141  64.749  1.00  0.00    -0.423 C  
HETATM   24  C   UNL     1     -12.502  12.091  63.683  1.00  0.00    -0.637 C  
HETATM   25  O   UNL     1     -13.036  14.143  64.780  1.00  0.00    -0.674 OA 
ENDBRANCH  10  21
ENDBRANCH   4   6
ENDBRANCH   3   4
ENDBRANCH   2   3
TORSDOF 8
ENDMDL
MODEL       48
REMARK 921   NORMALIZED FREE ENERGY PREDICTED BY IDOCK:   -4.66 KCAL/MOL
REMARK 922        TOTAL FREE ENERGY PREDICTED BY IDOCK:   -7.78 KCAL/MOL
REMARK 923 INTER-LIGAND FREE ENERGY PREDICTED BY IDOCK:   -6.96 KCAL/MOL
REMARK 924 INTRA-LIGAND FREE ENERGY PREDICTED BY IDOCK:   -0.83 KCAL/MOL
REMARK 927      BINDING AFFINITY PREDICTED BY RF-SCORE:    0.00 PKD
ROOT
HETATM    1  C   UNL     1     -10.488   8.245  66.947  1.00  0.00    -0.365 C  
HETATM    2  C   UNL     1      -9.506   8.774  65.917  1.00  0.00    -0.208 C  
ENDROOT
BRANCH   2   3
HETATM    3  O   UNL     1      -9.957  10.072  65.521  1.00  0.00    -0.289 OA 
BRANCH   3   4
HETATM    4  C   UNL     1      -9.183  11.102  65.945  1.00  0.00    -0.206 C  
HETATM    5  O   UNL     1      -7.966  11.162  65.860  1.00  0.00    -0.107 OA 
BRANCH   4   6
HETATM    6  C   UNL     1     -10.016  12.218  66.472  1.00  0.00    -0.234 C  
HETATM    7  C   UNL     1      -9.514  13.135  67.311  1.00  0.00    -0.225 C  
HETATM    8  C   UNL     1     -10.230  14.397  67.667  1.00  0.00    -0.229 C  
HETATM    9  H2  UNL     1     -12.134  14.791  64.967  1.00  0.00     0.000 HD 
HETATM   10  C   UNL     1     -11.778  14.281  67.598  1.00  0.00    -0.389 C  
HETATM   11  H1  UNL     1     -13.221  13.562  64.585  1.00  0.00     0.000 HD 
HETATM   12  C   UNL     1     -11.416  12.255  65.945  1.00  0.00    -0.428 C  
HETATM   13  C   UNL     1     -12.344  13.370  66.468  1.00  0.00    -0.295 C  
HETATM   14  N   UNL     1     -12.850  14.158  65.324  1.00  0.00    -0.710 NA 
BRANCH   8  15
HETATM   15  O   UNL     1      -9.625  15.327  66.768  1.00  0.00    -0.223 OA 
BRANCH  15  16
HETATM   16  C   UNL     1      -9.627  16.713  67.098  1.00  0.00    -0.241 C  
BRANCH  16  17
HETATM   17  C   UNL     1     -10.211  17.453  65.880  1.00  0.00    -0.266 C  
HETATM   18  C   UNL     1     -10.581  18.901  66.184  1.00  0.00    -0.476 C  
ENDBRANCH  16  17
BRANCH  16  19
HETATM   19  C   UNL     1      -8.228  17.241  67.459  1.00  0.00    -0.204 C  
HETATM   20  C   UNL     1      -7.253  17.298  66.289  1.00  0.00    -0.335 C  
ENDBRANCH  16  19
ENDBRANCH  15  16
ENDBRANCH   8  15
BRANCH  10  21
HETATM   21  N   UNL     1     -12.343  13.891  68.909  1.00  0.00    -0.454 N  
HETATM   22  H   UNL     1     -12.711  12.948  69.036  1.00  0.00     0.000 HD 
HETATM   23  C   UNL     1     -12.380  14.781  69.960  1.00  0.00    -0.316 C  
HETATM   24  C   UNL     1     -12.944  14.220  71.239  1.00  0.00    -0.422 C  
HETATM   25  O   UNL     1     -11.982  15.936  69.885  1.00  0.00    -0.334 OA 
ENDBRANCH  10  21
ENDBRANCH   4   6
ENDBRANCH   3   4
ENDBRANCH   2   3
TORSDOF 8
ENDMDL
MODEL       49
REMARK 921   NORMALIZED FREE ENERGY PREDICTED BY IDOCK:   -4.64 KCAL/MOL
REMARK 922        TOTAL FREE ENERGY PREDICTED BY IDOCK:   -7.75 KCAL/MOL
REMARK 923 INTER-LIGAND FREE ENERGY PREDICTED BY IDOCK:   -6.42 KCAL/MOL
REMARK 924 INTRA-LIGAND FREE ENERGY PREDICTED BY IDOCK:   -1.32 KCAL/MOL
REMARK 927      BINDING AFFINITY PREDICTED BY RF-SCORE:    0.00 PKD
ROOT
HETATM    1  C   UNL     1      -6.957   5.360  73.684  1.00  0.00    -0.085 C  
HETATM    2  C   UNL     1      -8.349   5.602  73.129  1.00  0.00    -0.118 C  
ENDROOT
BRANCH   2   3
HETATM    3  O   UNL     1      -8.996   6.544  73.989  1.00  0.00    -0.138 OA 
BRANCH   3   4
HETATM    4  C   UNL     1      -8.749   7.846  73.701  1.00  0.00    -0.269 C  
HETATM    5  O   UNL     1      -7.905   8.548  74.238  1.00  0.00    -0.346 OA 
BRANCH   4   6
HETATM    6  C   UNL     1      -9.594   8.316  72.569  1.00  0.00    -0.365 C  
HETATM    7  C   UNL     1      -9.055   8.775  71.430  1.00  0.00    -0.313 C  
HETATM    8  C   UNL     1      -9.848   9.021  70.190  1.00  0.00    -0.187 C  
HETATM    9  H2  UNL     1     -12.364   6.892  70.651  1.00  0.00     0.000 HD 
HETATM   10  C   UNL     1     -11.335   9.385  70.458  1.00  0.00    -0.274 C  
HETATM   11  H1  UNL     1     -13.313   7.082  72.029  1.00  0.00     0.000 HD 
HETATM   12  C   UNL     1     -11.067   8.176  72.790  1.00  0.00    -0.407 C  
HETATM   13  C   UNL     1     -12.005   8.667  71.668  1.00  0.00    -0.326 C  
HETATM   14  N   UNL     1     -12.874   7.552  71.237  1.00  0.00    -0.319 NA 
BRANCH   8  15
HETATM   15  O   UNL     1      -9.614   7.816  69.461  1.00  0.00    -0.160 OA 
BRANCH  15  16
HETATM   16  C   UNL     1     -10.588   7.371  68.522  1.00  0.00    -0.153 C  
BRANCH  16  17
HETATM   17  C   UNL     1     -10.703   5.846  68.698  1.00  0.00    -0.339 C  
HETATM   18  C   UNL     1     -10.149   5.356  70.031  1.00  0.00    -0.324 C  
ENDBRANCH  16  17
BRANCH  16  19
HETATM   19  C   UNL     1     -10.233   7.746  67.073  1.00  0.00    -0.375 C  
HETATM   20  C   UNL     1      -9.173   6.857  66.433  1.00  0.00    -0.186 C  
ENDBRANCH  16  19
ENDBRANCH  15  16
ENDBRANCH   8  15
BRANCH  10  21
HETATM   21  N   UNL     1     -11.516  10.850  70.560  1.00  0.00    -0.433 N  
HETATM   22  H   UNL     1     -11.337  11.317  71.449  1.00  0.00     0.000 HD 
HETATM   23  C   UNL     1     -11.924  11.593  69.474  1.00  0.00    -0.317 C  
HETATM   24  C   UNL     1     -12.020  13.074  69.726  1.00  0.00    -0.377 C  
HETATM   25  O   UNL     1     -12.185  11.109  68.380  1.00  0.00    -0.610 OA 
ENDBRANCH  10  21
ENDBRANCH   4   6
ENDBRANCH   3   4
ENDBRANCH   2   3
TORSDOF 8
ENDMDL
MODEL       50
REMARK 921   NORMALIZED FREE ENERGY PREDICTED BY IDOCK:   -4.62 KCAL/MOL
REMARK 922        TOTAL FREE ENERGY PREDICTED BY IDOCK:   -7.72 KCAL/MOL
REMARK 923 INTER-LIGAND FREE ENERGY PREDICTED BY IDOCK:   -6.58 KCAL/MOL
REMARK 924 INTRA-LIGAND FREE ENERGY PREDICTED BY IDOCK:   -1.14 KCAL/MOL
REMARK 927      BINDING AFFINITY PREDICTED BY RF-SCORE:    0.00 PKD
ROOT
HETATM    1  C   UNL     1     -13.081  12.218  71.754  1.00  0.00    -0.449 C  
HETATM    2  C   UNL     1     -12.701  10.915  71.073  1.00  0.00    -0.407 C  
ENDROOT
BRANCH   2   3
HETATM    3  O   UNL     1     -12.452  11.208  69.695  1.00  0.00    -0.259 OA 
BRANCH   3   4
HETATM    4  C   UNL     1     -11.144  11.223  69.340  1.00  0.00    -0.257 C  
HETATM    5  O   UNL     1     -10.255  10.565  69.862  1.00  0.00    -0.197 OA 
BRANCH   4   6
HETATM    6  C   UNL     1     -10.918  12.097  68.156  1.00  0.00    -0.271 C  
HETATM    7  C   UNL     1      -9.698  12.262  67.625  1.00  0.00    -0.194 C  
HETATM    8  C   UNL     1      -9.462  12.922  66.307  1.00  0.00    -0.200 C  
HETATM    9  H2  UNL     1     -12.376  12.339  64.811  1.00  0.00     0.000 HD 
HETATM   10  C   UNL     1     -10.539  13.976  65.931  1.00  0.00    -0.301 C  
HETATM   11  H1  UNL     1     -13.770  12.931  65.547  1.00  0.00     0.000 HD 
HETATM   12  C   UNL     1     -12.158  12.712  67.589  1.00  0.00    -0.166 C  
HETATM   13  C   UNL     1     -11.997  13.651  66.376  1.00  0.00    -0.426 C  
HETATM   14  N   UNL     1     -12.816  13.144  65.256  1.00  0.00    -0.684 NA 
BRANCH   8  15
HETATM   15  O   UNL     1      -9.354  11.791  65.441  1.00  0.00    -0.190 OA 
BRANCH  15  16
HETATM   16  C   UNL     1      -8.843  10.566  65.958  1.00  0.00    -0.165 C  
BRANCH  16  17
HETATM   17  C   UNL     1      -7.394  10.446  65.451  1.00  0.00    -0.124 C  
HETATM   18  C   UNL     1      -6.569   9.434  66.239  1.00  0.00    -0.070 C  
ENDBRANCH  16  17
BRANCH  16  19
HETATM   19  C   UNL     1      -9.687   9.348  65.544  1.00  0.00    -0.300 C  
HETATM   20  C   UNL     1     -10.352   8.618  66.705  1.00  0.00    -0.303 C  
ENDBRANCH  16  19
ENDBRANCH  15  16
ENDBRANCH   8  15
BRANCH  10  21
HETATM   21  N   UNL     1     -10.147  15.327  66.389  1.00  0.00    -0.262 N  
HETATM   22  H   UNL     1      -9.689  15.436  67.294  1.00  0.00     0.000 HD 
HETATM   23  C   UNL     1     -10.391  16.440  65.614  1.00  0.00    -0.350 C  
HETATM   24  C   UNL     1      -9.894  17.735  66.199  1.00  0.00    -0.254 C  
HETATM   25  O   UNL     1     -10.957  16.400  64.530  1.00  0.00    -0.750 OA 
ENDBRANCH  10  21
ENDBRANCH   4   6
ENDBRANCH   3   4
ENDBRANCH   2   3
TORSDOF 8
ENDMDL
MODEL       51
REMARK 921   NORMALIZED FREE ENERGY PREDICTED BY IDOCK:   -4.60 KCAL/MOL
REMARK 922        TOTAL FREE ENERGY PREDICTED BY IDOCK:   -7.69 KCAL/MOL
REMARK 923 INTER-LIGAND FREE ENERGY PREDICTED BY IDOCK:   -6.53 KCAL/MOL
REMARK 924 INTRA-LIGAND FREE ENERGY PREDICTED BY IDOCK:   -1.16 KCAL/MOL
REMARK 927      BINDING AFFINITY PREDICTED BY RF-SCORE:    0.00 PKD
ROOT
HETATM    1  C   UNL     1     -13.830   8.657  71.786  1.00  0.00    -0.472 C  
HETATM    2  C   UNL     1     -12.327   8.808  71.937  1.00  0.00    -0.363 C  
ENDROOT
BRANCH   2   3
HETATM    3  O   UNL     1     -11.871   9.650  70.874  1.00  0.00    -0.287 OA 
BRANCH   3   4
HETATM    4  C   UNL     1     -10.532   9.628  70.661  1.00  0.00    -0.312 C  
HETATM    5  O   UNL     1      -9.690   9.231  71.452  1.00  0.00    -0.284 OA 
BRANCH   4   6
HETATM    6  C   UNL     1     -10.200  10.084  69.283  1.00  0.00    -0.229 C  
HETATM    7  C   UNL     1     -11.008   9.831  68.243  1.00  0.00    -0.215 C  
HETATM    8  C   UNL     1     -10.845  10.472  66.905  1.00  0.00    -0.187 C  
HETATM    9  H2  UNL     1      -9.308  13.293  67.771  1.00  0.00     0.000 HD 
HETATM   10  C   UNL     1      -9.380  10.869  66.574  1.00  0.00    -0.173 C  
HETATM   11  H1  UNL     1      -7.831  13.170  68.571  1.00  0.00     0.000 HD 
HETATM   12  C   UNL     1      -8.941  10.886  69.177  1.00  0.00    -0.052 C  
HETATM   13  C   UNL     1      -8.521  11.370  67.774  1.00  0.00    -0.128 C  
HETATM   14  N   UNL     1      -8.393  12.842  67.786  1.00  0.00    -0.163 NA 
BRANCH   8  15
HETATM   15  O   UNL     1     -11.787  11.541  66.988  1.00  0.00    -0.568 OA 
BRANCH  15  16
HETATM   16  C   UNL     1     -11.694  12.622  66.065  1.00  0.00    -0.417 C  
BRANCH  16  17
HETATM   17  C   UNL     1     -12.157  13.883  66.818  1.00  0.00    -0.476 C  
HETATM   18  C   UNL     1     -11.929  13.796  68.324  1.00  0.00    -0.392 C  
ENDBRANCH  16  17
BRANCH  16  19
HETATM   19  C   UNL     1     -12.523  12.391  64.790  1.00  0.00    -0.480 C  
HETATM   20  C   UNL     1     -12.121  13.265  63.609  1.00  0.00    -0.551 C  
ENDBRANCH  16  19
ENDBRANCH  15  16
ENDBRANCH   8  15
BRANCH  10  21
HETATM   21  N   UNL     1      -8.681   9.782  65.855  1.00  0.00    -0.135 N  
HETATM   22  H   UNL     1      -8.040   9.174  66.366  1.00  0.00     0.000 HD 
HETATM   23  C   UNL     1      -8.880   9.576  64.508  1.00  0.00    -0.213 C  
HETATM   24  C   UNL     1      -8.130   8.404  63.932  1.00  0.00    -0.143 C  
HETATM   25  O   UNL     1      -9.611  10.274  63.816  1.00  0.00    -0.288 OA 
ENDBRANCH  10  21
ENDBRANCH   4   6
ENDBRANCH   3   4
ENDBRANCH   2   3
TORSDOF 8
ENDMDL
MODEL       52
REMARK 921   NORMALIZED FREE ENERGY PREDICTED BY IDOCK:   -4.55 KCAL/MOL
REMARK 922        TOTAL FREE ENERGY PREDICTED BY IDOCK:   -7.62 KCAL/MOL
REMARK 923 INTER-LIGAND FREE ENERGY PREDICTED BY IDOCK:   -6.75 KCAL/MOL
REMARK 924 INTRA-LIGAND FREE ENERGY PREDICTED BY IDOCK:   -0.87 KCAL/MOL
REMARK 927      BINDING AFFINITY PREDICTED BY RF-SCORE:    0.00 PKD
ROOT
HETATM    1  C   UNL     1      -7.210  20.550  67.244  1.00  0.00    -0.367 C  
HETATM    2  C   UNL     1      -8.520  19.946  66.773  1.00  0.00    -0.328 C  
ENDROOT
BRANCH   2   3
HETATM    3  O   UNL     1      -8.857  18.891  67.679  1.00  0.00    -0.283 OA 
BRANCH   3   4
HETATM    4  C   UNL     1     -10.115  18.401  67.546  1.00  0.00    -0.357 C  
HETATM    5  O   UNL     1     -11.141  19.064  67.536  1.00  0.00    -0.381 OA 
BRANCH   4   6
HETATM    6  C   UNL     1     -10.097  16.929  67.327  1.00  0.00    -0.286 C  
HETATM    7  C   UNL     1     -10.132  16.064  68.352  1.00  0.00    -0.229 C  
HETATM    8  C   UNL     1     -10.364  14.600  68.179  1.00  0.00    -0.230 C  
HETATM    9  H2  UNL     1     -12.075  14.593  65.325  1.00  0.00     0.000 HD 
HETATM   10  C   UNL     1      -9.882  14.045  66.810  1.00  0.00    -0.273 C  
HETATM   11  H1  UNL     1     -11.337  15.257  63.965  1.00  0.00     0.000 HD 
HETATM   12  C   UNL     1     -10.098  16.511  65.891  1.00  0.00    -0.359 C  
HETATM   13  C   UNL     1     -10.054  14.999  65.589  1.00  0.00    -0.362 C  
HETATM   14  N   UNL     1     -11.224  14.633  64.764  1.00  0.00    -0.392 NA 
BRANCH   8  15
HETATM   15  O   UNL     1     -11.763  14.503  68.444  1.00  0.00    -0.308 OA 
BRANCH  15  16
HETATM   16  C   UNL     1     -12.211  13.706  69.537  1.00  0.00    -0.264 C  
BRANCH  16  17
HETATM   17  C   UNL     1     -12.051  14.567  70.803  1.00  0.00    -0.398 C  
HETATM   18  C   UNL     1     -13.236  15.496  71.045  1.00  0.00    -0.539 C  
ENDBRANCH  16  17
BRANCH  16  19
HETATM   19  C   UNL     1     -11.443  12.378  69.659  1.00  0.00    -0.264 C  
HETATM   20  C   UNL     1     -11.924  11.282  68.716  1.00  0.00    -0.350 C  
ENDBRANCH  16  19
ENDBRANCH  15  16
ENDBRANCH   8  15
BRANCH  10  21
HETATM   21  N   UNL     1      -8.488  13.556  66.892  1.00  0.00    -0.407 N  
HETATM   22  H   UNL     1      -7.727  14.227  67.006  1.00  0.00     0.000 HD 
HETATM   23  C   UNL     1      -8.201  12.211  66.818  1.00  0.00    -0.085 C  
HETATM   24  C   UNL     1      -6.741  11.871  66.961  1.00  0.00    -0.119 C  
HETATM   25  O   UNL     1      -9.050  11.344  66.657  1.00  0.00    -0.170 OA 
ENDBRANCH  10  21
ENDBRANCH   4   6
ENDBRANCH   3   4
ENDBRANCH   2   3
TORSDOF 8
ENDMDL
MODEL       53
REMARK 921   NORMALIZED FREE ENERGY PREDICTED BY IDOCK:   -4.54 KCAL/MOL
REMARK 922        TOTAL FREE ENERGY PREDICTED BY IDOCK:   -7.61 KCAL/MOL
REMARK 923 INTER-LIGAND FREE ENERGY PREDICTED BY IDOCK:   -6.85 KCAL/MOL
REMARK 924 INTRA-LIGAND FREE ENERGY PREDICTED BY IDOCK:   -0.76 KCAL/MOL
REMARK 927      BINDING AFFINITY PREDICTED BY RF-SCORE:    0.00 PKD
ROOT
HETATM    1  C   UNL     1      -6.504  18.018  67.368  1.00  0.00    -0.182 C  
HETATM    2  C   UNL     1      -7.813  18.116  66.604  1.00  0.00    -0.242 C  
ENDROOT
BRANCH   2   3
HETATM    3  O   UNL     1      -8.017  16.865  65.941  1.00  0.00    -0.427 OA 
BRANCH   3   4
HETATM    4  C   UNL     1      -9.288  16.393  65.987  1.00  0.00    -0.300 C  
HETATM    5  O   UNL     1     -10.278  16.968  65.560  1.00  0.00    -0.589 OA 
BRANCH   4   6
HETATM    6  C   UNL     1      -9.331  15.022  66.565  1.00  0.00    -0.309 C  
HETATM    7  C   UNL     1     -10.278  14.140  66.215  1.00  0.00    -0.301 C  
HETATM    8  C   UNL     1     -10.220  12.692  66.573  1.00  0.00    -0.243 C  
HETATM    9  H2  UNL     1      -6.933  12.279  66.882  1.00  0.00     0.000 HD 
HETATM   10  C   UNL     1      -9.441  12.400  67.885  1.00  0.00    -0.198 C  
HETATM   11  H1  UNL     1      -6.126  13.221  68.022  1.00  0.00     0.000 HD 
HETATM   12  C   UNL     1      -8.211  14.705  67.504  1.00  0.00    -0.203 C  
HETATM   13  C   UNL     1      -8.205  13.309  68.161  1.00  0.00    -0.160 C  
HETATM   14  N   UNL     1      -6.935  12.626  67.841  1.00  0.00    -0.096 NA 
BRANCH   8  15
HETATM   15  O   UNL     1      -9.679  12.127  65.378  1.00  0.00    -0.235 OA 
BRANCH  15  16
HETATM   16  C   UNL     1     -10.457  11.191  64.638  1.00  0.00    -0.335 C  
BRANCH  16  17
HETATM   17  C   UNL     1      -9.507  10.046  64.242  1.00  0.00    -0.336 C  
HETATM   18  C   UNL     1      -8.775  10.306  62.929  1.00  0.00    -0.212 C  
ENDBRANCH  16  17
BRANCH  16  19
HETATM   19  C   UNL     1     -11.127  11.818  63.403  1.00  0.00    -0.448 C  
HETATM   20  C   UNL     1     -12.575  12.244  63.618  1.00  0.00    -0.599 C  
ENDBRANCH  16  19
ENDBRANCH  15  16
ENDBRANCH   8  15
BRANCH  10  21
HETATM   21  N   UNL     1     -10.348  12.391  69.054  1.00  0.00    -0.427 N  
HETATM   22  H   UNL     1     -10.291  13.145  69.739  1.00  0.00     0.000 HD 
HETATM   23  C   UNL     1     -11.269  11.382  69.232  1.00  0.00    -0.277 C  
HETATM   24  C   UNL     1     -12.147  11.538  70.445  1.00  0.00    -0.471 C  
HETATM   25  O   UNL     1     -11.386  10.429  68.473  1.00  0.00    -0.264 OA 
ENDBRANCH  10  21
ENDBRANCH   4   6
ENDBRANCH   3   4
ENDBRANCH   2   3
TORSDOF 8
ENDMDL
MODEL       54
REMARK 921   NORMALIZED FREE ENERGY PREDICTED BY IDOCK:   -4.53 KCAL/MOL
REMARK 922        TOTAL FREE ENERGY PREDICTED BY IDOCK:   -7.58 KCAL/MOL
REMARK 923 INTER-LIGAND FREE ENERGY PREDICTED BY IDOCK:   -6.79 KCAL/MOL
REMARK 924 INTRA-LIGAND FREE ENERGY PREDICTED BY IDOCK:   -0.79 KCAL/MOL
REMARK 927      BINDING AFFINITY PREDICTED BY RF-SCORE:    0.00 PKD
ROOT
HETATM    1  C   UNL     1      -8.490   9.035  62.748  1.00  0.00    -0.206 C  
HETATM    2  C   UNL     1      -8.715  10.378  63.419  1.00  0.00    -0.200 C  
ENDROOT
BRANCH   2   3
HETATM    3  O   UNL     1      -9.854  10.245  64.275  1.00  0.00    -0.329 OA 
BRANCH   3   4
HETATM    4  C   UNL     1     -10.675  11.323  64.306  1.00  0.00    -0.349 C  
HETATM    5  O   UNL     1     -11.405  11.691  63.398  1.00  0.00    -0.395 OA 
BRANCH   4   6
HETATM    6  C   UNL     1     -10.645  11.983  65.641  1.00  0.00    -0.303 C  
HETATM    7  C   UNL     1     -11.768  12.221  66.334  1.00  0.00    -0.431 C  
HETATM    8  C   UNL     1     -11.771  12.648  67.764  1.00  0.00    -0.356 C  
HETATM    9  H2  UNL     1      -8.867  11.379  68.778  1.00  0.00     0.000 HD 
HETATM   10  C   UNL     1     -10.505  13.446  68.184  1.00  0.00    -0.245 C  
HETATM   11  H1  UNL     1      -7.468  11.891  67.993  1.00  0.00     0.000 HD 
HETATM   12  C   UNL     1      -9.274  12.295  66.152  1.00  0.00    -0.132 C  
HETATM   13  C   UNL     1      -9.168  13.003  67.518  1.00  0.00    -0.195 C  
HETATM   14  N   UNL     1      -8.343  12.181  68.429  1.00  0.00    -0.161 NA 
BRANCH   8  15
HETATM   15  O   UNL     1     -11.982  11.403  68.430  1.00  0.00    -0.539 OA 
BRANCH  15  16
HETATM   16  C   UNL     1     -11.525  11.245  69.770  1.00  0.00    -0.310 C  
BRANCH  16  17
HETATM   17  C   UNL     1     -11.151   9.761  69.935  1.00  0.00    -0.293 C  
HETATM   18  C   UNL     1      -9.708   9.556  70.384  1.00  0.00    -0.328 C  
ENDBRANCH  16  17
BRANCH  16  19
HETATM   19  C   UNL     1     -12.571  11.680  70.812  1.00  0.00    -0.365 C  
HETATM   20  C   UNL     1     -13.147  10.540  71.643  1.00  0.00    -0.551 C  
ENDBRANCH  16  19
ENDBRANCH  15  16
ENDBRANCH   8  15
BRANCH  10  21
HETATM   21  N   UNL     1     -10.710  14.901  68.013  1.00  0.00    -0.248 N  
HETATM   22  H   UNL     1     -11.289  15.240  67.244  1.00  0.00     0.000 HD 
HETATM   23  C   UNL     1     -10.133  15.807  68.876  1.00  0.00    -0.222 C  
HETATM   24  C   UNL     1     -10.472  17.247  68.596  1.00  0.00    -0.356 C  
HETATM   25  O   UNL     1      -9.405  15.487  69.808  1.00  0.00    -0.274 OA 
ENDBRANCH  10  21
ENDBRANCH   4   6
ENDBRANCH   3   4
ENDBRANCH   2   3
TORSDOF 8
ENDMDL
MODEL       55
REMARK 921   NORMALIZED FREE ENERGY PREDICTED BY IDOCK:   -4.52 KCAL/MOL
REMARK 922        TOTAL FREE ENERGY PREDICTED BY IDOCK:   -7.58 KCAL/MOL
REMARK 923 INTER-LIGAND FREE ENERGY PREDICTED BY IDOCK:   -6.49 KCAL/MOL
REMARK 924 INTRA-LIGAND FREE ENERGY PREDICTED BY IDOCK:   -1.09 KCAL/MOL
REMARK 927      BINDING AFFINITY PREDICTED BY RF-SCORE:    0.00 PKD
ROOT
HETATM    1  C   UNL     1     -11.006  16.140  64.942  1.00  0.00    -0.364 C  
HETATM    2  C   UNL     1     -11.875  15.080  64.288  1.00  0.00    -0.275 C  
ENDROOT
BRANCH   2   3
HETATM    3  O   UNL     1     -11.339  13.804  64.649  1.00  0.00    -0.345 OA 
BRANCH   3   4
HETATM    4  C   UNL     1     -12.237  12.935  65.177  1.00  0.00    -0.470 C  
HETATM    5  O   UNL     1     -13.197  12.456  64.590  1.00  0.00    -0.822 OA 
BRANCH   4   6
HETATM    6  C   UNL     1     -11.866  12.557  66.568  1.00  0.00    -0.434 C  
HETATM    7  C   UNL     1     -11.366  11.348  66.860  1.00  0.00    -0.284 C  
HETATM    8  C   UNL     1     -10.755  11.012  68.180  1.00  0.00    -0.205 C  
HETATM    9  H2  UNL     1      -9.751  14.028  69.164  1.00  0.00     0.000 HD 
HETATM   10  C   UNL     1     -11.326  11.839  69.365  1.00  0.00    -0.272 C  
HETATM   11  H1  UNL     1     -10.918  15.232  69.323  1.00  0.00     0.000 HD 
HETATM   12  C   UNL     1     -12.041  13.646  67.578  1.00  0.00    -0.352 C  
HETATM   13  C   UNL     1     -11.700  13.318  69.047  1.00  0.00    -0.322 C  
HETATM   14  N   UNL     1     -10.673  14.264  69.531  1.00  0.00    -0.132 NA 
BRANCH   8  15
HETATM   15  O   UNL     1      -9.366  11.184  67.900  1.00  0.00    -0.154 OA 
BRANCH  15  16
HETATM   16  C   UNL     1      -8.444  10.177  68.306  1.00  0.00    -0.115 C  
BRANCH  16  17
HETATM   17  C   UNL     1      -7.502   9.937  67.112  1.00  0.00    -0.091 C  
HETATM   18  C   UNL     1      -7.955  10.651  65.843  1.00  0.00    -0.157 C  
ENDBRANCH  16  17
BRANCH  16  19
HETATM   19  C   UNL     1      -9.139   8.876  68.744  1.00  0.00    -0.134 C  
HETATM   20  C   UNL     1      -8.614   7.619  68.062  1.00  0.00    -0.123 C  
ENDBRANCH  16  19
ENDBRANCH  15  16
ENDBRANCH   8  15
BRANCH  10  21
HETATM   21  N   UNL     1     -12.466  11.143  70.002  1.00  0.00    -0.260 N  
HETATM   22  H   UNL     1     -13.416  11.351  69.694  1.00  0.00     0.000 HD 
HETATM   23  C   UNL     1     -12.265  10.218  71.004  1.00  0.00    -0.384 C  
HETATM   24  C   UNL     1     -13.520   9.566  71.519  1.00  0.00    -0.444 C  
HETATM   25  O   UNL     1     -11.161   9.930  71.448  1.00  0.00    -0.348 OA 
ENDBRANCH  10  21
ENDBRANCH   4   6
ENDBRANCH   3   4
ENDBRANCH   2   3
TORSDOF 8
ENDMDL
MODEL       56
REMARK 921   NORMALIZED FREE ENERGY PREDICTED BY IDOCK:   -4.50 KCAL/MOL
REMARK 922        TOTAL FREE ENERGY PREDICTED BY IDOCK:   -7.55 KCAL/MOL
REMARK 923 INTER-LIGAND FREE ENERGY PREDICTED BY IDOCK:   -6.41 KCAL/MOL
REMARK 924 INTRA-LIGAND FREE ENERGY PREDICTED BY IDOCK:   -1.14 KCAL/MOL
REMARK 927      BINDING AFFINITY PREDICTED BY RF-SCORE:    0.00 PKD
ROOT
HETATM    1  C   UNL     1      -5.805  15.343  68.450  1.00  0.00    -0.107 C  
HETATM    2  C   UNL     1      -7.123  14.641  68.726  1.00  0.00    -0.113 C  
ENDROOT
BRANCH   2   3
HETATM    3  O   UNL     1      -7.584  14.092  67.488  1.00  0.00    -0.166 OA 
BRANCH   3   4
HETATM    4  C   UNL     1      -7.614  12.737  67.438  1.00  0.00    -0.152 C  
HETATM    5  O   UNL     1      -6.684  12.014  67.109  1.00  0.00    -0.137 OA 
BRANCH   4   6
HETATM    6  C   UNL     1      -8.921  12.210  67.918  1.00  0.00    -0.184 C  
HETATM    7  C   UNL     1     -10.085  12.727  67.499  1.00  0.00    -0.213 C  
HETATM    8  C   UNL     1     -11.406  12.081  67.756  1.00  0.00    -0.303 C  
HETATM    9  H2  UNL     1     -10.473   8.902  68.066  1.00  0.00     0.000 HD 
HETATM   10  C   UNL     1     -11.445  11.225  69.052  1.00  0.00    -0.302 C  
HETATM   11  H1  UNL     1      -9.364   8.523  69.276  1.00  0.00     0.000 HD 
HETATM   12  C   UNL     1      -8.820  11.039  68.844  1.00  0.00    -0.120 C  
HETATM   13  C   UNL     1     -10.135  10.457  69.402  1.00  0.00    -0.229 C  
HETATM   14  N   UNL     1     -10.222   9.025  69.047  1.00  0.00    -0.200 NA 
BRANCH   8  15
HETATM   15  O   UNL     1     -11.622  11.382  66.530  1.00  0.00    -0.408 OA 
BRANCH  15  16
HETATM   16  C   UNL     1     -11.181  11.968  65.309  1.00  0.00    -0.322 C  
BRANCH  16  17
HETATM   17  C   UNL     1     -12.433  12.539  64.618  1.00  0.00    -0.539 C  
HETATM   18  C   UNL     1     -12.128  13.179  63.268  1.00  0.00    -0.460 C  
ENDBRANCH  16  17
BRANCH  16  19
HETATM   19  C   UNL     1     -10.444  10.968  64.401  1.00  0.00    -0.422 C  
HETATM   20  C   UNL     1      -9.592   9.948  65.146  1.00  0.00    -0.367 C  
ENDBRANCH  16  19
ENDBRANCH  15  16
ENDBRANCH   8  15
BRANCH  10  21
HETATM   21  N   UNL     1     -11.899  12.027  70.209  1.00  0.00    -0.502 N  
HETATM   22  H   UNL     1     -11.518  12.963  70.351  1.00  0.00     0.000 HD 
HETATM   23  C   UNL     1     -12.827  11.532  71.098  1.00  0.00    -0.315 C  
HETATM   24  C   UNL     1     -13.218  12.485  72.196  1.00  0.00    -0.508 C  
HETATM   25  O   UNL     1     -13.314  10.411  71.016  1.00  0.00    -0.342 OA 
ENDBRANCH  10  21
ENDBRANCH   4   6
ENDBRANCH   3   4
ENDBRANCH   2   3
TORSDOF 8
ENDMDL
MODEL       57
REMARK 921   NORMALIZED FREE ENERGY PREDICTED BY IDOCK:   -4.49 KCAL/MOL
REMARK 922        TOTAL FREE ENERGY PREDICTED BY IDOCK:   -7.54 KCAL/MOL
REMARK 923 INTER-LIGAND FREE ENERGY PREDICTED BY IDOCK:   -6.51 KCAL/MOL
REMARK 924 INTRA-LIGAND FREE ENERGY PREDICTED BY IDOCK:   -1.03 KCAL/MOL
REMARK 927      BINDING AFFINITY PREDICTED BY RF-SCORE:    0.00 PKD
ROOT
HETATM    1  C   UNL     1     -14.026  15.467  72.289  1.00  0.00    -0.661 C  
HETATM    2  C   UNL     1     -12.838  14.534  72.435  1.00  0.00    -0.360 C  
ENDROOT
BRANCH   2   3
HETATM    3  O   UNL     1     -12.445  14.129  71.121  1.00  0.00    -0.330 OA 
BRANCH   3   4
HETATM    4  C   UNL     1     -12.358  12.789  70.936  1.00  0.00    -0.265 C  
HETATM    5  O   UNL     1     -12.788  11.934  71.697  1.00  0.00    -0.374 OA 
BRANCH   4   6
HETATM    6  C   UNL     1     -11.730  12.467  69.625  1.00  0.00    -0.377 C  
HETATM    7  C   UNL     1     -11.091  13.398  68.903  1.00  0.00    -0.307 C  
HETATM    8  C   UNL     1     -10.243  13.074  67.717  1.00  0.00    -0.228 C  
HETATM    9  H2  UNL     1      -9.341   9.958  68.455  1.00  0.00     0.000 HD 
HETATM   10  C   UNL     1     -10.675  11.782  66.971  1.00  0.00    -0.246 C  
HETATM   11  H1  UNL     1     -10.560   8.814  68.661  1.00  0.00     0.000 HD 
HETATM   12  C   UNL     1     -11.824  11.028  69.225  1.00  0.00    -0.411 C  
HETATM   13  C   UNL     1     -11.217  10.627  67.865  1.00  0.00    -0.308 C  
HETATM   14  N   UNL     1     -10.205   9.571  68.076  1.00  0.00    -0.189 NA 
BRANCH   8  15
HETATM   15  O   UNL     1      -8.939  13.063  68.298  1.00  0.00    -0.194 OA 
BRANCH  15  16
HETATM   16  C   UNL     1      -7.832  13.527  67.530  1.00  0.00    -0.178 C  
BRANCH  16  17
HETATM   17  C   UNL     1      -6.799  12.385  67.514  1.00  0.00    -0.143 C  
HETATM   18  C   UNL     1      -6.771  11.589  68.815  1.00  0.00    -0.079 C  
ENDBRANCH  16  17
BRANCH  16  19
HETATM   19  C   UNL     1      -7.225  14.827  68.085  1.00  0.00    -0.125 C  
HETATM   20  C   UNL     1      -7.677  15.182  69.497  1.00  0.00    -0.197 C  
ENDBRANCH  16  19
ENDBRANCH  15  16
ENDBRANCH   8  15
BRANCH  10  21
HETATM   21  N   UNL     1     -11.631  12.088  65.884  1.00  0.00    -0.348 N  
HETATM   22  H   UNL     1     -12.633  12.073  66.078  1.00  0.00     0.000 HD 
HETATM   23  C   UNL     1     -11.192  12.391  64.614  1.00  0.00    -0.312 C  
HETATM   24  C   UNL     1     -12.284  12.720  63.632  1.00  0.00    -0.597 C  
HETATM   25  O   UNL     1     -10.011  12.405  64.290  1.00  0.00    -0.280 OA 
ENDBRANCH  10  21
ENDBRANCH   4   6
ENDBRANCH   3   4
ENDBRANCH   2   3
TORSDOF 8
ENDMDL
MODEL       58
REMARK 921   NORMALIZED FREE ENERGY PREDICTED BY IDOCK:   -4.48 KCAL/MOL
REMARK 922        TOTAL FREE ENERGY PREDICTED BY IDOCK:   -7.52 KCAL/MOL
REMARK 923 INTER-LIGAND FREE ENERGY PREDICTED BY IDOCK:   -6.94 KCAL/MOL
REMARK 924 INTRA-LIGAND FREE ENERGY PREDICTED BY IDOCK:   -0.58 KCAL/MOL
REMARK 927      BINDING AFFINITY PREDICTED BY RF-SCORE:    0.00 PKD
ROOT
HETATM    1  C   UNL     1      -8.930  17.994  67.878  1.00  0.00    -0.265 C  
HETATM    2  C   UNL     1     -10.446  17.980  67.801  1.00  0.00    -0.408 C  
ENDROOT
BRANCH   2   3
HETATM    3  O   UNL     1     -10.852  16.624  67.593  1.00  0.00    -0.324 OA 
BRANCH   3   4
HETATM    4  C   UNL     1     -11.098  15.919  68.725  1.00  0.00    -0.328 C  
HETATM    5  O   UNL     1     -11.527  16.380  69.773  1.00  0.00    -0.253 OA 
BRANCH   4   6
HETATM    6  C   UNL     1     -10.854  14.466  68.517  1.00  0.00    -0.260 C  
HETATM    7  C   UNL     1     -11.857  13.612  68.266  1.00  0.00    -0.404 C  
HETATM    8  C   UNL     1     -11.641  12.207  67.810  1.00  0.00    -0.342 C  
HETATM    9  H2  UNL     1      -8.673  12.502  66.335  1.00  0.00     0.000 HD 
HETATM   10  C   UNL     1     -10.300  11.590  68.294  1.00  0.00    -0.197 C  
HETATM   11  H1  UNL     1      -7.381  13.044  67.270  1.00  0.00     0.000 HD 
HETATM   12  C   UNL     1      -9.414  14.063  68.553  1.00  0.00    -0.191 C  
HETATM   13  C   UNL     1      -9.088  12.567  68.370  1.00  0.00    -0.135 C  
HETATM   14  N   UNL     1      -8.174  12.405  67.220  1.00  0.00    -0.177 NA 
BRANCH   8  15
HETATM   15  O   UNL     1     -11.803  12.340  66.398  1.00  0.00    -0.529 OA 
BRANCH  15  16
HETATM   16  C   UNL     1     -10.647  12.404  65.569  1.00  0.00    -0.275 C  
BRANCH  16  17
HETATM   17  C   UNL     1     -10.712  13.753  64.828  1.00  0.00    -0.429 C  
HETATM   18  C   UNL     1     -12.136  14.170  64.474  1.00  0.00    -0.489 C  
ENDBRANCH  16  17
BRANCH  16  19
HETATM   19  C   UNL     1     -10.554  11.226  64.584  1.00  0.00    -0.392 C  
HETATM   20  C   UNL     1      -9.701  10.061  65.072  1.00  0.00    -0.386 C  
ENDBRANCH  16  19
ENDBRANCH  15  16
ENDBRANCH   8  15
BRANCH  10  21
HETATM   21  N   UNL     1     -10.472  10.877  69.579  1.00  0.00    -0.398 N  
HETATM   22  H   UNL     1     -11.155  11.220  70.255  1.00  0.00     0.000 HD 
HETATM   23  C   UNL     1      -9.725   9.759  69.877  1.00  0.00    -0.238 C  
HETATM   24  C   UNL     1     -10.047   9.123  71.203  1.00  0.00    -0.384 C  
HETATM   25  O   UNL     1      -8.868   9.298  69.135  1.00  0.00    -0.134 OA 
ENDBRANCH  10  21
ENDBRANCH   4   6
ENDBRANCH   3   4
ENDBRANCH   2   3
TORSDOF 8
ENDMDL
MODEL       59
REMARK 921   NORMALIZED FREE ENERGY PREDICTED BY IDOCK:   -4.47 KCAL/MOL
REMARK 922        TOTAL FREE ENERGY PREDICTED BY IDOCK:   -7.50 KCAL/MOL
REMARK 923 INTER-LIGAND FREE ENERGY PREDICTED BY IDOCK:   -6.52 KCAL/MOL
REMARK 924 INTRA-LIGAND FREE ENERGY PREDICTED BY IDOCK:   -0.98 KCAL/MOL
REMARK 927      BINDING AFFINITY PREDICTED BY RF-SCORE:    0.00 PKD
ROOT
HETATM    1  C   UNL     1     -11.200  11.444  63.221  1.00  0.00    -0.152 C  
HETATM    2  C   UNL     1     -12.549  12.140  63.228  1.00  0.00    -0.368 C  
ENDROOT
BRANCH   2   3
HETATM    3  O   UNL     1     -13.010  12.168  64.582  1.00  0.00    -0.651 OA 
BRANCH   3   4
HETATM    4  C   UNL     1     -12.635  13.261  65.293  1.00  0.00    -0.470 C  
HETATM    5  O   UNL     1     -13.284  14.289  65.416  1.00  0.00    -0.688 OA 
BRANCH   4   6
HETATM    6  C   UNL     1     -11.340  13.030  65.990  1.00  0.00    -0.343 C  
HETATM    7  C   UNL     1     -10.318  13.890  65.880  1.00  0.00    -0.318 C  
HETATM    8  C   UNL     1      -9.103  13.832  66.745  1.00  0.00    -0.221 C  
HETATM    9  H2  UNL     1     -10.356  12.344  69.445  1.00  0.00     0.000 HD 
HETATM   10  C   UNL     1      -8.765  12.405  67.258  1.00  0.00    -0.191 C  
HETATM   11  H1  UNL     1     -11.041  10.817  69.254  1.00  0.00     0.000 HD 
HETATM   12  C   UNL     1     -11.305  11.808  66.853  1.00  0.00    -0.386 C  
HETATM   13  C   UNL     1      -9.985  11.492  67.586  1.00  0.00    -0.184 C  
HETATM   14  N   UNL     1     -10.243  11.415  69.039  1.00  0.00    -0.164 NA 
BRANCH   8  15
HETATM   15  O   UNL     1      -9.419  14.804  67.742  1.00  0.00    -0.200 OA 
BRANCH  15  16
HETATM   16  C   UNL     1      -9.866  16.095  67.337  1.00  0.00    -0.238 C  
BRANCH  16  17
HETATM   17  C   UNL     1      -8.612  16.982  67.237  1.00  0.00    -0.209 C  
HETATM   18  C   UNL     1      -8.206  17.595  68.573  1.00  0.00    -0.292 C  
ENDBRANCH  16  17
BRANCH  16  19
HETATM   19  C   UNL     1     -10.904  16.695  68.301  1.00  0.00    -0.356 C  
HETATM   20  C   UNL     1     -11.752  15.664  69.036  1.00  0.00    -0.408 C  
ENDBRANCH  16  19
ENDBRANCH  15  16
ENDBRANCH   8  15
BRANCH  10  21
HETATM   21  N   UNL     1      -7.834  11.713  66.341  1.00  0.00    -0.370 N  
HETATM   22  H   UNL     1      -8.140  11.482  65.395  1.00  0.00     0.000 HD 
HETATM   23  C   UNL     1      -6.559  11.377  66.742  1.00  0.00    -0.136 C  
HETATM   24  C   UNL     1      -5.719  10.718  65.680  1.00  0.00    -0.128 C  
HETATM   25  O   UNL     1      -6.122  11.596  67.864  1.00  0.00    -0.046 OA 
ENDBRANCH  10  21
ENDBRANCH   4   6
ENDBRANCH   3   4
ENDBRANCH   2   3
TORSDOF 8
ENDMDL
MODEL       60
REMARK 921   NORMALIZED FREE ENERGY PREDICTED BY IDOCK:   -4.46 KCAL/MOL
REMARK 922        TOTAL FREE ENERGY PREDICTED BY IDOCK:   -7.48 KCAL/MOL
REMARK 923 INTER-LIGAND FREE ENERGY PREDICTED BY IDOCK:   -6.22 KCAL/MOL
REMARK 924 INTRA-LIGAND FREE ENERGY PREDICTED BY IDOCK:   -1.26 KCAL/MOL
REMARK 927      BINDING AFFINITY PREDICTED BY RF-SCORE:    0.00 PKD
ROOT
HETATM    1  C   UNL     1     -11.241  12.780  63.847  1.00  0.00    -0.491 C  
HETATM    2  C   UNL     1     -12.338  13.482  64.628  1.00  0.00    -0.372 C  
ENDROOT
BRANCH   2   3
HETATM    3  O   UNL     1     -12.532  12.755  65.844  1.00  0.00    -0.560 OA 
BRANCH   3   4
HETATM    4  C   UNL     1     -11.794  13.190  66.895  1.00  0.00    -0.386 C  
HETATM    5  O   UNL     1     -11.825  14.316  67.371  1.00  0.00    -0.379 OA 
BRANCH   4   6
HETATM    6  C   UNL     1     -10.977  12.088  67.472  1.00  0.00    -0.303 C  
HETATM    7  C   UNL     1     -11.462  10.845  67.601  1.00  0.00    -0.281 C  
HETATM    8  C   UNL     1     -10.611   9.665  67.938  1.00  0.00    -0.255 C  
HETATM    9  H2  UNL     1      -7.667  10.695  66.778  1.00  0.00     0.000 HD 
HETATM   10  C   UNL     1      -9.354  10.018  68.780  1.00  0.00    -0.162 C  
HETATM   11  H1  UNL     1      -7.023  12.113  67.417  1.00  0.00     0.000 HD 
HETATM   12  C   UNL     1      -9.576  12.471  67.830  1.00  0.00    -0.203 C  
HETATM   13  C   UNL     1      -8.678  11.385  68.457  1.00  0.00    -0.149 C  
HETATM   14  N   UNL     1      -7.465  11.219  67.629  1.00  0.00    -0.097 NA 
BRANCH   8  15
HETATM   15  O   UNL     1     -10.371   9.112  66.644  1.00  0.00    -0.259 OA 
BRANCH  15  16
HETATM   16  C   UNL     1      -9.228   8.286  66.443  1.00  0.00    -0.195 C  
BRANCH  16  17
HETATM   17  C   UNL     1      -8.646   8.667  65.069  1.00  0.00    -0.185 C  
HETATM   18  C   UNL     1      -9.163  10.006  64.554  1.00  0.00    -0.313 C  
ENDBRANCH  16  17
BRANCH  16  19
HETATM   19  C   UNL     1      -9.557   6.785  66.517  1.00  0.00    -0.191 C  
HETATM   20  C   UNL     1     -10.955   6.470  67.036  1.00  0.00    -0.466 C  
ENDBRANCH  16  19
ENDBRANCH  15  16
ENDBRANCH   8  15
BRANCH  10  21
HETATM   21  N   UNL     1      -9.634   9.909  70.229  1.00  0.00    -0.377 N  
HETATM   22  H   UNL     1      -9.964  10.729  70.739  1.00  0.00     0.000 HD 
HETATM   23  C   UNL     1      -9.456   8.720  70.900  1.00  0.00    -0.216 C  
HETATM   24  C   UNL     1      -9.825   8.760  72.359  1.00  0.00    -0.226 C  
HETATM   25  O   UNL     1      -9.041   7.697  70.370  1.00  0.00    -0.151 OA 
ENDBRANCH  10  21
ENDBRANCH   4   6
ENDBRANCH   3   4
ENDBRANCH   2   3
TORSDOF 8
ENDMDL
MODEL       61
REMARK 921   NORMALIZED FREE ENERGY PREDICTED BY IDOCK:   -4.45 KCAL/MOL
REMARK 922        TOTAL FREE ENERGY PREDICTED BY IDOCK:   -7.48 KCAL/MOL
REMARK 923 INTER-LIGAND FREE ENERGY PREDICTED BY IDOCK:   -6.44 KCAL/MOL
REMARK 924 INTRA-LIGAND FREE ENERGY PREDICTED BY IDOCK:   -1.03 KCAL/MOL
REMARK 927      BINDING AFFINITY PREDICTED BY RF-SCORE:    0.00 PKD
ROOT
HETATM    1  C   UNL     1      -6.939   8.165  65.994  1.00  0.00    -0.058 C  
HETATM    2  C   UNL     1      -8.104   7.379  66.568  1.00  0.00    -0.117 C  
ENDROOT
BRANCH   2   3
HETATM    3  O   UNL     1      -9.299   7.877  65.960  1.00  0.00    -0.155 OA 
BRANCH   3   4
HETATM    4  C   UNL     1     -10.345   8.045  66.806  1.00  0.00    -0.290 C  
HETATM    5  O   UNL     1     -11.104   7.166  67.185  1.00  0.00    -0.326 OA 
BRANCH   4   6
HETATM    6  C   UNL     1     -10.419   9.449  67.296  1.00  0.00    -0.332 C  
HETATM    7  C   UNL     1     -10.340  10.493  66.459  1.00  0.00    -0.294 C  
HETATM    8  C   UNL     1     -10.654  11.894  66.866  1.00  0.00    -0.230 C  
HETATM    9  H2  UNL     1     -12.760  11.334  69.380  1.00  0.00     0.000 HD 
HETATM   10  C   UNL     1     -10.399  12.182  68.371  1.00  0.00    -0.229 C  
HETATM   11  H1  UNL     1     -12.202  10.430  70.687  1.00  0.00     0.000 HD 
HETATM   12  C   UNL     1     -10.646   9.584  68.769  1.00  0.00    -0.240 C  
HETATM   13  C   UNL     1     -10.708  11.011  69.352  1.00  0.00    -0.205 C  
HETATM   14  N   UNL     1     -12.000  11.197  70.045  1.00  0.00    -0.335 NA 
BRANCH   8  15
HETATM   15  O   UNL     1     -12.003  12.023  66.417  1.00  0.00    -0.611 OA 
BRANCH  15  16
HETATM   16  C   UNL     1     -12.344  13.093  65.540  1.00  0.00    -0.474 C  
BRANCH  16  17
HETATM   17  C   UNL     1     -11.674  12.784  64.189  1.00  0.00    -0.465 C  
HETATM   18  C   UNL     1     -12.531  11.901  63.287  1.00  0.00    -0.506 C  
ENDBRANCH  16  17
BRANCH  16  19
HETATM   19  C   UNL     1     -11.913  14.467  66.081  1.00  0.00    -0.323 C  
HETATM   20  C   UNL     1     -10.976  15.242  65.163  1.00  0.00    -0.428 C  
ENDBRANCH  16  19
ENDBRANCH  15  16
ENDBRANCH   8  15
BRANCH  10  21
HETATM   21  N   UNL     1      -9.029  12.695  68.593  1.00  0.00    -0.392 N  
HETATM   22  H   UNL     1      -8.263  12.035  68.729  1.00  0.00     0.000 HD 
HETATM   23  C   UNL     1      -8.772  14.048  68.620  1.00  0.00    -0.103 C  
HETATM   24  C   UNL     1      -7.323  14.409  68.811  1.00  0.00    -0.131 C  
HETATM   25  O   UNL     1      -9.636  14.905  68.491  1.00  0.00    -0.201 OA 
ENDBRANCH  10  21
ENDBRANCH   4   6
ENDBRANCH   3   4
ENDBRANCH   2   3
TORSDOF 8
ENDMDL
MODEL       62
REMARK 921   NORMALIZED FREE ENERGY PREDICTED BY IDOCK:   -4.45 KCAL/MOL
REMARK 922        TOTAL FREE ENERGY PREDICTED BY IDOCK:   -7.48 KCAL/MOL
REMARK 923 INTER-LIGAND FREE ENERGY PREDICTED BY IDOCK:   -6.64 KCAL/MOL
REMARK 924 INTRA-LIGAND FREE ENERGY PREDICTED BY IDOCK:   -0.84 KCAL/MOL
REMARK 927      BINDING AFFINITY PREDICTED BY RF-SCORE:    0.00 PKD
ROOT
HETATM    1  C   UNL     1     -10.431  11.719  63.174  1.00  0.00    -0.359 C  
HETATM    2  C   UNL     1     -10.205  12.927  64.065  1.00  0.00    -0.231 C  
ENDROOT
BRANCH   2   3
HETATM    3  O   UNL     1     -11.484  13.507  64.335  1.00  0.00    -0.368 OA 
BRANCH   3   4
HETATM    4  C   UNL     1     -12.341  12.712  65.022  1.00  0.00    -0.497 C  
HETATM    5  O   UNL     1     -13.325  12.155  64.558  1.00  0.00    -0.691 OA 
BRANCH   4   6
HETATM    6  C   UNL     1     -11.890  12.524  66.428  1.00  0.00    -0.445 C  
HETATM    7  C   UNL     1     -11.406  11.351  66.862  1.00  0.00    -0.284 C  
HETATM    8  C   UNL     1     -10.720  11.186  68.177  1.00  0.00    -0.204 C  
HETATM    9  H2  UNL     1      -9.568  14.272  68.649  1.00  0.00     0.000 HD 
HETATM   10  C   UNL     1     -11.188  12.195  69.261  1.00  0.00    -0.226 C  
HETATM   11  H1  UNL     1     -10.688  15.530  68.700  1.00  0.00     0.000 HD 
HETATM   12  C   UNL     1     -11.967  13.753  67.277  1.00  0.00    -0.436 C  
HETATM   13  C   UNL     1     -11.540  13.627  68.754  1.00  0.00    -0.324 C  
HETATM   14  N   UNL     1     -10.457  14.593  69.032  1.00  0.00    -0.244 NA 
BRANCH   8  15
HETATM   15  O   UNL     1      -9.348  11.264  67.791  1.00  0.00    -0.157 OA 
BRANCH  15  16
HETATM   16  C   UNL     1      -8.877  10.444  66.726  1.00  0.00    -0.130 C  
BRANCH  16  17
HETATM   17  C   UNL     1      -8.719   9.025  67.301  1.00  0.00    -0.122 C  
HETATM   18  C   UNL     1      -9.629   8.004  66.625  1.00  0.00    -0.297 C  
ENDBRANCH  16  17
BRANCH  16  19
HETATM   19  C   UNL     1      -7.559  10.955  66.119  1.00  0.00    -0.119 C  
HETATM   20  C   UNL     1      -6.842   9.948  65.228  1.00  0.00    -0.114 C  
ENDBRANCH  16  19
ENDBRANCH  15  16
ENDBRANCH   8  15
BRANCH  10  21
HETATM   21  N   UNL     1     -12.303  11.642  70.061  1.00  0.00    -0.226 N  
HETATM   22  H   UNL     1     -13.230  12.062  69.988  1.00  0.00     0.000 HD 
HETATM   23  C   UNL     1     -12.110  10.568  70.903  1.00  0.00    -0.383 C  
HETATM   24  C   UNL     1     -13.350  10.095  71.614  1.00  0.00    -0.463 C  
HETATM   25  O   UNL     1     -11.026  10.023  71.068  1.00  0.00    -0.322 OA 
ENDBRANCH  10  21
ENDBRANCH   4   6
ENDBRANCH   3   4
ENDBRANCH   2   3
TORSDOF 8
ENDMDL
MODEL       63
REMARK 921   NORMALIZED FREE ENERGY PREDICTED BY IDOCK:   -4.42 KCAL/MOL
REMARK 922        TOTAL FREE ENERGY PREDICTED BY IDOCK:   -7.43 KCAL/MOL
REMARK 923 INTER-LIGAND FREE ENERGY PREDICTED BY IDOCK:   -6.51 KCAL/MOL
REMARK 924 INTRA-LIGAND FREE ENERGY PREDICTED BY IDOCK:   -0.92 KCAL/MOL
REMARK 927      BINDING AFFINITY PREDICTED BY RF-SCORE:    0.00 PKD
ROOT
HETATM    1  C   UNL     1     -12.702  15.215  71.070  1.00  0.00    -0.458 C  
HETATM    2  C   UNL     1     -11.595  15.940  70.325  1.00  0.00    -0.354 C  
ENDROOT
BRANCH   2   3
HETATM    3  O   UNL     1     -11.953  15.962  68.940  1.00  0.00    -0.370 OA 
BRANCH   3   4
HETATM    4  C   UNL     1     -10.912  15.853  68.078  1.00  0.00    -0.336 C  
HETATM    5  O   UNL     1     -10.113  16.738  67.808  1.00  0.00    -0.264 OA 
BRANCH   4   6
HETATM    6  C   UNL     1     -10.801  14.469  67.541  1.00  0.00    -0.289 C  
HETATM    7  C   UNL     1     -10.237  13.481  68.250  1.00  0.00    -0.250 C  
HETATM    8  C   UNL     1     -10.324  12.042  67.863  1.00  0.00    -0.197 C  
HETATM    9  H2  UNL     1     -13.153  12.061  66.110  1.00  0.00     0.000 HD 
HETATM   10  C   UNL     1     -10.469  11.812  66.333  1.00  0.00    -0.235 C  
HETATM   11  H1  UNL     1     -13.233  13.062  64.757  1.00  0.00     0.000 HD 
HETATM   12  C   UNL     1     -11.418  14.272  66.192  1.00  0.00    -0.357 C  
HETATM   13  C   UNL     1     -11.318  12.868  65.562  1.00  0.00    -0.307 C  
HETATM   14  N   UNL     1     -12.677  12.371  65.262  1.00  0.00    -0.512 NA 
BRANCH   8  15
HETATM   15  O   UNL     1     -11.410  11.596  68.675  1.00  0.00    -0.219 OA 
BRANCH  15  16
HETATM   16  C   UNL     1     -11.152  10.696  69.748  1.00  0.00    -0.295 C  
BRANCH  16  17
HETATM   17  C   UNL     1     -10.567   9.418  69.119  1.00  0.00    -0.234 C  
HETATM   18  C   UNL     1     -10.709   8.193  70.016  1.00  0.00    -0.243 C  
ENDBRANCH  16  17
BRANCH  16  19
HETATM   19  C   UNL     1     -12.407  10.388  70.582  1.00  0.00    -0.438 C  
HETATM   20  C   UNL     1     -13.028  11.603  71.262  1.00  0.00    -0.368 C  
ENDBRANCH  16  19
ENDBRANCH  15  16
ENDBRANCH   8  15
BRANCH  10  21
HETATM   21  N   UNL     1      -9.147  11.642  65.690  1.00  0.00    -0.383 N  
HETATM   22  H   UNL     1      -8.631  12.465  65.379  1.00  0.00     0.000 HD 
HETATM   23  C   UNL     1      -8.602  10.390  65.506  1.00  0.00    -0.169 C  
HETATM   24  C   UNL     1      -7.233  10.387  64.879  1.00  0.00    -0.051 C  
HETATM   25  O   UNL     1      -9.165   9.352  65.827  1.00  0.00    -0.184 OA 
ENDBRANCH  10  21
ENDBRANCH   4   6
ENDBRANCH   3   4
ENDBRANCH   2   3
TORSDOF 8
ENDMDL
MODEL       64
REMARK 921   NORMALIZED FREE ENERGY PREDICTED BY IDOCK:   -4.42 KCAL/MOL
REMARK 922        TOTAL FREE ENERGY PREDICTED BY IDOCK:   -7.42 KCAL/MOL
REMARK 923 INTER-LIGAND FREE ENERGY PREDICTED BY IDOCK:   -6.17 KCAL/MOL
REMARK 924 INTRA-LIGAND FREE ENERGY PREDICTED BY IDOCK:   -1.26 KCAL/MOL
REMARK 927      BINDING AFFINITY PREDICTED BY RF-SCORE:    0.00 PKD
ROOT
HETATM    1  C   UNL     1      -7.193  10.935  66.733  1.00  0.00    -0.134 C  
HETATM    2  C   UNL     1      -5.994  11.744  67.191  1.00  0.00    -0.140 C  
ENDROOT
BRANCH   2   3
HETATM    3  O   UNL     1      -6.400  13.114  67.260  1.00  0.00    -0.270 OA 
BRANCH   3   4
HETATM    4  C   UNL     1      -7.069  13.456  68.389  1.00  0.00    -0.108 C  
HETATM    5  O   UNL     1      -6.788  13.094  69.522  1.00  0.00    -0.037 OA 
BRANCH   4   6
HETATM    6  C   UNL     1      -8.168  14.415  68.093  1.00  0.00    -0.149 C  
HETATM    7  C   UNL     1      -8.841  14.379  66.933  1.00  0.00    -0.246 C  
HETATM    8  C   UNL     1     -10.098  15.147  66.692  1.00  0.00    -0.264 C  
HETATM    9  H2  UNL     1     -11.233  15.438  69.806  1.00  0.00     0.000 HD 
HETATM   10  C   UNL     1     -10.202  16.456  67.523  1.00  0.00    -0.273 C  
HETATM   11  H1  UNL     1     -10.251  16.216  70.932  1.00  0.00     0.000 HD 
HETATM   12  C   UNL     1      -8.487  15.362  69.206  1.00  0.00    -0.258 C  
HETATM   13  C   UNL     1      -9.599  16.402  68.959  1.00  0.00    -0.264 C  
HETATM   14  N   UNL     1     -10.645  16.250  69.992  1.00  0.00    -0.278 NA 
BRANCH   8  15
HETATM   15  O   UNL     1     -11.089  14.154  66.950  1.00  0.00    -0.296 OA 
BRANCH  15  16
HETATM   16  C   UNL     1     -11.163  13.009  66.105  1.00  0.00    -0.291 C  
BRANCH  16  17
HETATM   17  C   UNL     1     -12.300  13.276  65.101  1.00  0.00    -0.516 C  
HETATM   18  C   UNL     1     -12.415  12.196  64.030  1.00  0.00    -0.541 C  
ENDBRANCH  16  17
BRANCH  16  19
HETATM   19  C   UNL     1     -11.398  11.705  66.887  1.00  0.00    -0.364 C  
HETATM   20  C   UNL     1     -10.991  11.767  68.355  1.00  0.00    -0.274 C  
ENDBRANCH  16  19
ENDBRANCH  15  16
ENDBRANCH   8  15
BRANCH  10  21
HETATM   21  N   UNL     1      -9.656  17.609  66.775  1.00  0.00    -0.283 N  
HETATM   22  H   UNL     1      -8.868  17.468  66.141  1.00  0.00     0.000 HD 
HETATM   23  C   UNL     1     -10.192  18.870  66.920  1.00  0.00    -0.386 C  
HETATM   24  C   UNL     1      -9.554  19.928  66.059  1.00  0.00    -0.435 C  
HETATM   25  O   UNL     1     -11.118  19.130  67.677  1.00  0.00    -0.362 OA 
ENDBRANCH  10  21
ENDBRANCH   4   6
ENDBRANCH   3   4
ENDBRANCH   2   3
TORSDOF 8
ENDMDL
MODEL       65
REMARK 921   NORMALIZED FREE ENERGY PREDICTED BY IDOCK:   -4.42 KCAL/MOL
REMARK 922        TOTAL FREE ENERGY PREDICTED BY IDOCK:   -7.42 KCAL/MOL
REMARK 923 INTER-LIGAND FREE ENERGY PREDICTED BY IDOCK:   -6.41 KCAL/MOL
REMARK 924 INTRA-LIGAND FREE ENERGY PREDICTED BY IDOCK:   -1.02 KCAL/MOL
REMARK 927      BINDING AFFINITY PREDICTED BY RF-SCORE:    0.00 PKD
ROOT
HETATM    1  C   UNL     1     -13.836   7.339  71.509  1.00  0.00    -0.463 C  
HETATM    2  C   UNL     1     -14.299   8.589  72.235  1.00  0.00    -0.390 C  
ENDROOT
BRANCH   2   3
HETATM    3  O   UNL     1     -13.132   9.337  72.588  1.00  0.00    -0.390 OA 
BRANCH   3   4
HETATM    4  C   UNL     1     -12.852  10.382  71.770  1.00  0.00    -0.456 C  
HETATM    5  O   UNL     1     -13.333  11.502  71.854  1.00  0.00    -0.443 OA 
BRANCH   4   6
HETATM    6  C   UNL     1     -11.803  10.021  70.778  1.00  0.00    -0.435 C  
HETATM    7  C   UNL     1     -11.884  10.407  69.496  1.00  0.00    -0.218 C  
HETATM    8  C   UNL     1     -10.751  10.284  68.532  1.00  0.00    -0.227 C  
HETATM    9  H2  UNL     1      -8.166  10.369  70.626  1.00  0.00     0.000 HD 
HETATM   10  C   UNL     1      -9.778   9.116  68.853  1.00  0.00    -0.162 C  
HETATM   11  H1  UNL     1      -8.081   9.184  71.819  1.00  0.00     0.000 HD 
HETATM   12  C   UNL     1     -10.647   9.258  71.342  1.00  0.00    -0.417 C  
HETATM   13  C   UNL     1      -9.533   8.827  70.365  1.00  0.00    -0.179 C  
HETATM   14  N   UNL     1      -8.241   9.373  70.829  1.00  0.00    -0.267 NA 
BRANCH   8  15
HETATM   15  O   UNL     1     -10.197  11.599  68.578  1.00  0.00    -0.200 OA 
BRANCH  15  16
HETATM   16  C   UNL     1     -10.147  12.375  67.384  1.00  0.00    -0.201 C  
BRANCH  16  17
HETATM   17  C   UNL     1     -10.745  13.751  67.730  1.00  0.00    -0.254 C  
HETATM   18  C   UNL     1     -12.099  13.994  67.072  1.00  0.00    -0.455 C  
ENDBRANCH  16  17
BRANCH  16  19
HETATM   19  C   UNL     1     -10.895  11.714  66.213  1.00  0.00    -0.333 C  
HETATM   20  C   UNL     1     -10.171  11.798  64.875  1.00  0.00    -0.315 C  
ENDBRANCH  16  19
ENDBRANCH  15  16
ENDBRANCH   8  15
BRANCH  10  21
HETATM   21  N   UNL     1     -10.177   7.879  68.148  1.00  0.00    -0.199 N  
HETATM   22  H   UNL     1     -10.909   7.289  68.545  1.00  0.00     0.000 HD 
HETATM   23  C   UNL     1      -9.578   7.509  66.963  1.00  0.00    -0.170 C  
HETATM   24  C   UNL     1     -10.125   6.249  66.348  1.00  0.00    -0.097 C  
HETATM   25  O   UNL     1      -8.677   8.145  66.432  1.00  0.00    -0.133 OA 
ENDBRANCH  10  21
ENDBRANCH   4   6
ENDBRANCH   3   4
ENDBRANCH   2   3
TORSDOF 8
ENDMDL
MODEL       66
REMARK 921   NORMALIZED FREE ENERGY PREDICTED BY IDOCK:   -4.40 KCAL/MOL
REMARK 922        TOTAL FREE ENERGY PREDICTED BY IDOCK:   -7.40 KCAL/MOL
REMARK 923 INTER-LIGAND FREE ENERGY PREDICTED BY IDOCK:   -6.40 KCAL/MOL
REMARK 924 INTRA-LIGAND FREE ENERGY PREDICTED BY IDOCK:   -1.00 KCAL/MOL
REMARK 927      BINDING AFFINITY PREDICTED BY RF-SCORE:    0.00 PKD
ROOT
HETATM    1  C   UNL     1     -12.326  15.389  70.540  1.00  0.00    -0.452 C  
HETATM    2  C   UNL     1     -11.268  16.330  69.993  1.00  0.00    -0.319 C  
ENDROOT
BRANCH   2   3
HETATM    3  O   UNL     1     -11.382  16.323  68.567  1.00  0.00    -0.367 OA 
BRANCH   3   4
HETATM    4  C   UNL     1     -10.226  16.083  67.901  1.00  0.00    -0.258 C  
HETATM    5  O   UNL     1      -9.446  16.933  67.496  1.00  0.00    -0.237 OA 
BRANCH   4   6
HETATM    6  C   UNL     1      -9.966  14.622  67.784  1.00  0.00    -0.224 C  
HETATM    7  C   UNL     1     -10.893  13.778  67.309  1.00  0.00    -0.292 C  
HETATM    8  C   UNL     1     -10.599  12.360  66.944  1.00  0.00    -0.229 C  
HETATM    9  H2  UNL     1      -7.355  12.580  66.237  1.00  0.00     0.000 HD 
HETATM   10  C   UNL     1      -9.429  11.734  67.752  1.00  0.00    -0.181 C  
HETATM   11  H1  UNL     1      -6.321  13.124  67.450  1.00  0.00     0.000 HD 
HETATM   12  C   UNL     1      -8.586  14.199  68.178  1.00  0.00    -0.175 C  
HETATM   13  C   UNL     1      -8.254  12.695  68.106  1.00  0.00    -0.170 C  
HETATM   14  N   UNL     1      -7.091  12.495  67.218  1.00  0.00    -0.140 NA 
BRANCH   8  15
HETATM   15  O   UNL     1     -10.409  12.466  65.534  1.00  0.00    -0.260 OA 
BRANCH  15  16
HETATM   16  C   UNL     1     -11.124  11.589  64.668  1.00  0.00    -0.250 C  
BRANCH  16  17
HETATM   17  C   UNL     1     -10.082  10.649  64.035  1.00  0.00    -0.378 C  
HETATM   18  C   UNL     1      -9.340  11.284  62.864  1.00  0.00    -0.376 C  
ENDBRANCH  16  17
BRANCH  16  19
HETATM   19  C   UNL     1     -11.930  12.341  63.594  1.00  0.00    -0.633 C  
HETATM   20  C   UNL     1     -12.204  13.804  63.918  1.00  0.00    -0.402 C  
ENDBRANCH  16  19
ENDBRANCH  15  16
ENDBRANCH   8  15
BRANCH  10  21
HETATM   21  N   UNL     1      -9.924  11.051  68.968  1.00  0.00    -0.311 N  
HETATM   22  H   UNL     1      -9.789  11.490  69.879  1.00  0.00     0.000 HD 
HETATM   23  C   UNL     1     -10.563   9.833  68.889  1.00  0.00    -0.218 C  
HETATM   24  C   UNL     1     -11.045   9.290  70.208  1.00  0.00    -0.289 C  
HETATM   25  O   UNL     1     -10.743   9.228  67.840  1.00  0.00    -0.242 OA 
ENDBRANCH  10  21
ENDBRANCH   4   6
ENDBRANCH   3   4
ENDBRANCH   2   3
TORSDOF 8
ENDMDL
MODEL       67
REMARK 921   NORMALIZED FREE ENERGY PREDICTED BY IDOCK:   -4.39 KCAL/MOL
REMARK 922        TOTAL FREE ENERGY PREDICTED BY IDOCK:   -7.38 KCAL/MOL
REMARK 923 INTER-LIGAND FREE ENERGY PREDICTED BY IDOCK:   -6.05 KCAL/MOL
REMARK 924 INTRA-LIGAND FREE ENERGY PREDICTED BY IDOCK:   -1.33 KCAL/MOL
REMARK 927      BINDING AFFINITY PREDICTED BY RF-SCORE:    0.00 PKD
ROOT
HETATM    1  C   UNL     1     -10.900  15.802  65.059  1.00  0.00    -0.461 C  
HETATM    2  C   UNL     1     -11.972  14.907  64.464  1.00  0.00    -0.410 C  
ENDROOT
BRANCH   2   3
HETATM    3  O   UNL     1     -11.325  13.724  63.985  1.00  0.00    -0.310 OA 
BRANCH   3   4
HETATM    4  C   UNL     1     -11.992  12.568  64.229  1.00  0.00    -0.408 C  
HETATM    5  O   UNL     1     -12.964  12.161  63.610  1.00  0.00    -0.780 OA 
BRANCH   4   6
HETATM    6  C   UNL     1     -11.339  11.791  65.317  1.00  0.00    -0.284 C  
HETATM    7  C   UNL     1     -10.294  10.985  65.078  1.00  0.00    -0.360 C  
HETATM    8  C   UNL     1      -9.459  10.384  66.160  1.00  0.00    -0.181 C  
HETATM    9  H2  UNL     1      -9.919  12.616  68.585  1.00  0.00     0.000 HD 
HETATM   10  C   UNL     1     -10.226  10.161  67.493  1.00  0.00    -0.211 C  
HETATM   11  H1  UNL     1     -11.495  12.890  69.113  1.00  0.00     0.000 HD 
HETATM   12  C   UNL     1     -11.904  12.031  66.681  1.00  0.00    -0.239 C  
HETATM   13  C   UNL     1     -11.292  11.239  67.855  1.00  0.00    -0.299 C  
HETATM   14  N   UNL     1     -10.797  12.186  68.875  1.00  0.00    -0.218 NA 
BRANCH   8  15
HETATM   15  O   UNL     1      -8.361  11.294  66.207  1.00  0.00    -0.170 OA 
BRANCH  15  16
HETATM   16  C   UNL     1      -7.660  11.475  67.434  1.00  0.00    -0.135 C  
BRANCH  16  17
HETATM   17  C   UNL     1      -7.478  12.993  67.617  1.00  0.00    -0.156 C  
HETATM   18  C   UNL     1      -8.541  13.812  66.892  1.00  0.00    -0.128 C  
ENDBRANCH  16  17
BRANCH  16  19
HETATM   19  C   UNL     1      -6.309  10.739  67.463  1.00  0.00    -0.057 C  
HETATM   20  C   UNL     1      -6.396   9.275  67.878  1.00  0.00    -0.058 C  
ENDBRANCH  16  19
ENDBRANCH  15  16
ENDBRANCH   8  15
BRANCH  10  21
HETATM   21  N   UNL     1     -10.819   8.807  67.549  1.00  0.00    -0.475 N  
HETATM   22  H   UNL     1     -11.590   8.571  66.923  1.00  0.00     0.000 HD 
HETATM   23  C   UNL     1     -10.347   7.860  68.431  1.00  0.00    -0.199 C  
HETATM   24  C   UNL     1     -11.025   6.518  68.335  1.00  0.00    -0.358 C  
HETATM   25  O   UNL     1      -9.444   8.068  69.231  1.00  0.00    -0.155 OA 
ENDBRANCH  10  21
ENDBRANCH   4   6
ENDBRANCH   3   4
ENDBRANCH   2   3
TORSDOF 8
ENDMDL
MODEL       68
REMARK 921   NORMALIZED FREE ENERGY PREDICTED BY IDOCK:   -4.37 KCAL/MOL
REMARK 922        TOTAL FREE ENERGY PREDICTED BY IDOCK:   -7.36 KCAL/MOL
REMARK 923 INTER-LIGAND FREE ENERGY PREDICTED BY IDOCK:   -6.34 KCAL/MOL
REMARK 924 INTRA-LIGAND FREE ENERGY PREDICTED BY IDOCK:   -1.02 KCAL/MOL
REMARK 927      BINDING AFFINITY PREDICTED BY RF-SCORE:    0.00 PKD
ROOT
HETATM    1  C   UNL     1      -5.923  10.984  70.531  1.00  0.00    -0.116 C  
HETATM    2  C   UNL     1      -5.357  11.355  69.172  1.00  0.00    -0.043 C  
ENDROOT
BRANCH   2   3
HETATM    3  O   UNL     1      -6.420  11.251  68.221  1.00  0.00    -0.055 OA 
BRANCH   3   4
HETATM    4  C   UNL     1      -6.770  12.416  67.622  1.00  0.00    -0.132 C  
HETATM    5  O   UNL     1      -5.998  13.293  67.262  1.00  0.00    -0.341 OA 
BRANCH   4   6
HETATM    6  C   UNL     1      -8.237  12.475  67.377  1.00  0.00    -0.183 C  
HETATM    7  C   UNL     1      -9.030  11.416  67.597  1.00  0.00    -0.140 C  
HETATM    8  C   UNL     1     -10.521  11.498  67.602  1.00  0.00    -0.189 C  
HETATM    9  H2  UNL     1     -10.945  14.691  68.437  1.00  0.00     0.000 HD 
HETATM   10  C   UNL     1     -11.091  12.626  66.698  1.00  0.00    -0.274 C  
HETATM   11  H1  UNL     1     -10.275  15.863  67.431  1.00  0.00     0.000 HD 
HETATM   12  C   UNL     1      -8.742  13.810  66.930  1.00  0.00    -0.172 C  
HETATM   13  C   UNL     1     -10.250  13.937  66.631  1.00  0.00    -0.276 C  
HETATM   14  N   UNL     1     -10.825  15.005  67.475  1.00  0.00    -0.289 NA 
BRANCH   8  15
HETATM   15  O   UNL     1     -10.792  11.611  68.999  1.00  0.00    -0.209 OA 
BRANCH  15  16
HETATM   16  C   UNL     1     -11.774  10.763  69.587  1.00  0.00    -0.323 C  
BRANCH  16  17
HETATM   17  C   UNL     1     -12.328  11.515  70.811  1.00  0.00    -0.472 C  
HETATM   18  C   UNL     1     -13.130  10.618  71.749  1.00  0.00    -0.571 C  
ENDBRANCH  16  17
BRANCH  16  19
HETATM   19  C   UNL     1     -11.214   9.385  69.979  1.00  0.00    -0.217 C  
HETATM   20  C   UNL     1      -9.864   9.429  70.684  1.00  0.00    -0.340 C  
ENDBRANCH  16  19
ENDBRANCH  15  16
ENDBRANCH   8  15
BRANCH  10  21
HETATM   21  N   UNL     1     -11.378  12.125  65.336  1.00  0.00    -0.335 N  
HETATM   22  H   UNL     1     -10.771  11.415  64.924  1.00  0.00     0.000 HD 
HETATM   23  C   UNL     1     -12.450  12.601  64.614  1.00  0.00    -0.466 C  
HETATM   24  C   UNL     1     -12.634  11.961  63.264  1.00  0.00    -0.473 C  
HETATM   25  O   UNL     1     -13.211  13.469  65.023  1.00  0.00    -0.721 OA 
ENDBRANCH  10  21
ENDBRANCH   4   6
ENDBRANCH   3   4
ENDBRANCH   2   3
TORSDOF 8
ENDMDL
MODEL       69
REMARK 921   NORMALIZED FREE ENERGY PREDICTED BY IDOCK:   -4.36 KCAL/MOL
REMARK 922        TOTAL FREE ENERGY PREDICTED BY IDOCK:   -7.35 KCAL/MOL
REMARK 923 INTER-LIGAND FREE ENERGY PREDICTED BY IDOCK:   -6.83 KCAL/MOL
REMARK 924 INTRA-LIGAND FREE ENERGY PREDICTED BY IDOCK:   -0.52 KCAL/MOL
REMARK 927      BINDING AFFINITY PREDICTED BY RF-SCORE:    0.00 PKD
ROOT
HETATM    1  C   UNL     1     -14.307  15.398  72.089  1.00  0.00    -0.642 C  
HETATM    2  C   UNL     1     -12.875  15.383  71.585  1.00  0.00    -0.419 C  
ENDROOT
BRANCH   2   3
HETATM    3  O   UNL     1     -12.883  14.789  70.285  1.00  0.00    -0.310 OA 
BRANCH   3   4
HETATM    4  C   UNL     1     -12.248  13.594  70.197  1.00  0.00    -0.342 C  
HETATM    5  O   UNL     1     -12.485  12.607  70.877  1.00  0.00    -0.369 OA 
BRANCH   4   6
HETATM    6  C   UNL     1     -11.250  13.596  69.091  1.00  0.00    -0.309 C  
HETATM    7  C   UNL     1     -10.866  12.463  68.488  1.00  0.00    -0.270 C  
HETATM    8  C   UNL     1     -10.067  12.437  67.227  1.00  0.00    -0.208 C  
HETATM    9  H2  UNL     1     -10.931  15.367  65.907  1.00  0.00     0.000 HD 
HETATM   10  C   UNL     1      -9.149  13.677  67.040  1.00  0.00    -0.248 C  
HETATM   11  H1  UNL     1     -10.611  16.758  66.803  1.00  0.00     0.000 HD 
HETATM   12  C   UNL     1     -10.773  14.954  68.684  1.00  0.00    -0.250 C  
HETATM   13  C   UNL     1      -9.718  15.031  67.561  1.00  0.00    -0.215 C  
HETATM   14  N   UNL     1     -10.239  15.871  66.462  1.00  0.00    -0.279 NA 
BRANCH   8  15
HETATM   15  O   UNL     1     -11.090  12.255  66.248  1.00  0.00    -0.274 OA 
BRANCH  15  16
HETATM   16  C   UNL     1     -10.796  12.512  64.878  1.00  0.00    -0.293 C  
BRANCH  16  17
HETATM   17  C   UNL     1     -11.938  13.393  64.341  1.00  0.00    -0.460 C  
HETATM   18  C   UNL     1     -12.899  13.853  65.433  1.00  0.00    -0.466 C  
ENDBRANCH  16  17
BRANCH  16  19
HETATM   19  C   UNL     1     -10.642  11.224  64.051  1.00  0.00    -0.450 C  
HETATM   20  C   UNL     1      -9.608  11.311  62.934  1.00  0.00    -0.377 C  
ENDBRANCH  16  19
ENDBRANCH  15  16
ENDBRANCH   8  15
BRANCH  10  21
HETATM   21  N   UNL     1      -7.801  13.433  67.598  1.00  0.00    -0.159 N  
HETATM   22  H   UNL     1      -7.564  12.505  67.950  1.00  0.00     0.000 HD 
HETATM   23  C   UNL     1      -6.861  14.439  67.651  1.00  0.00    -0.182 C  
HETATM   24  C   UNL     1      -5.525  14.022  68.206  1.00  0.00    -0.112 C  
HETATM   25  O   UNL     1      -7.071  15.585  67.275  1.00  0.00    -0.195 OA 
ENDBRANCH  10  21
ENDBRANCH   4   6
ENDBRANCH   3   4
ENDBRANCH   2   3
TORSDOF 8
ENDMDL
MODEL       70
REMARK 921   NORMALIZED FREE ENERGY PREDICTED BY IDOCK:   -4.36 KCAL/MOL
REMARK 922        TOTAL FREE ENERGY PREDICTED BY IDOCK:   -7.34 KCAL/MOL
REMARK 923 INTER-LIGAND FREE ENERGY PREDICTED BY IDOCK:   -6.35 KCAL/MOL
REMARK 924 INTRA-LIGAND FREE ENERGY PREDICTED BY IDOCK:   -0.98 KCAL/MOL
REMARK 927      BINDING AFFINITY PREDICTED BY RF-SCORE:    0.00 PKD
ROOT
HETATM    1  C   UNL     1     -11.147  15.723  64.819  1.00  0.00    -0.413 C  
HETATM    2  C   UNL     1     -12.122  14.816  64.090  1.00  0.00    -0.299 C  
ENDROOT
BRANCH   2   3
HETATM    3  O   UNL     1     -12.811  14.044  65.077  1.00  0.00    -0.695 OA 
BRANCH   3   4
HETATM    4  C   UNL     1     -12.420  12.748  65.166  1.00  0.00    -0.501 C  
HETATM    5  O   UNL     1     -12.390  11.947  64.243  1.00  0.00    -0.303 OA 
BRANCH   4   6
HETATM    6  C   UNL     1     -11.944  12.423  66.538  1.00  0.00    -0.325 C  
HETATM    7  C   UNL     1     -11.401  11.233  66.832  1.00  0.00    -0.231 C  
HETATM    8  C   UNL     1     -10.692  10.951  68.115  1.00  0.00    -0.214 C  
HETATM    9  H2  UNL     1      -9.681  14.015  68.929  1.00  0.00     0.000 HD 
HETATM   10  C   UNL     1     -11.194  11.806  69.311  1.00  0.00    -0.256 C  
HETATM   11  H1  UNL     1     -10.857  15.203  69.132  1.00  0.00     0.000 HD 
HETATM   12  C   UNL     1     -12.069  13.542  67.524  1.00  0.00    -0.340 C  
HETATM   13  C   UNL     1     -11.619  13.268  68.973  1.00  0.00    -0.312 C  
HETATM   14  N   UNL     1     -10.579  14.247  69.353  1.00  0.00    -0.144 NA 
BRANCH   8  15
HETATM   15  O   UNL     1      -9.330  11.139  67.731  1.00  0.00    -0.159 OA 
BRANCH  15  16
HETATM   16  C   UNL     1      -8.371  10.138  68.059  1.00  0.00    -0.117 C  
BRANCH  16  17
HETATM   17  C   UNL     1      -9.154   8.826  68.251  1.00  0.00    -0.141 C  
HETATM   18  C   UNL     1      -8.534   7.910  69.301  1.00  0.00    -0.137 C  
ENDBRANCH  16  17
BRANCH  16  19
HETATM   19  C   UNL     1      -7.547  10.489  69.310  1.00  0.00    -0.134 C  
HETATM   20  C   UNL     1      -6.693  11.744  69.172  1.00  0.00    -0.110 C  
ENDBRANCH  16  19
ENDBRANCH  15  16
ENDBRANCH   8  15
BRANCH  10  21
HETATM   21  N   UNL     1     -12.272  11.112  70.049  1.00  0.00    -0.326 N  
HETATM   22  H   UNL     1     -13.244  11.374  69.882  1.00  0.00     0.000 HD 
HETATM   23  C   UNL     1     -11.984  10.117  70.958  1.00  0.00    -0.378 C  
HETATM   24  C   UNL     1     -13.191   9.479  71.594  1.00  0.00    -0.486 C  
HETATM   25  O   UNL     1     -10.847   9.760  71.235  1.00  0.00    -0.334 OA 
ENDBRANCH  10  21
ENDBRANCH   4   6
ENDBRANCH   3   4
ENDBRANCH   2   3
TORSDOF 8
ENDMDL
MODEL       71
REMARK 921   NORMALIZED FREE ENERGY PREDICTED BY IDOCK:   -4.34 KCAL/MOL
REMARK 922        TOTAL FREE ENERGY PREDICTED BY IDOCK:   -7.31 KCAL/MOL
REMARK 923 INTER-LIGAND FREE ENERGY PREDICTED BY IDOCK:   -6.69 KCAL/MOL
REMARK 924 INTRA-LIGAND FREE ENERGY PREDICTED BY IDOCK:   -0.62 KCAL/MOL
REMARK 927      BINDING AFFINITY PREDICTED BY RF-SCORE:    0.00 PKD
ROOT
HETATM    1  C   UNL     1      -9.889  20.221  67.207  1.00  0.00    -0.593 C  
HETATM    2  C   UNL     1     -10.777  19.774  66.060  1.00  0.00    -0.388 C  
ENDROOT
BRANCH   2   3
HETATM    3  O   UNL     1     -10.068  18.765  65.335  1.00  0.00    -0.284 OA 
BRANCH   3   4
HETATM    4  C   UNL     1     -10.654  17.542  65.332  1.00  0.00     0.003 C  
HETATM    5  O   UNL     1     -11.448  17.135  64.497  1.00  0.00    -0.907 OA 
BRANCH   4   6
HETATM    6  C   UNL     1     -10.147  16.700  66.449  1.00  0.00    -0.325 C  
HETATM    7  C   UNL     1     -10.624  16.823  67.696  1.00  0.00    -0.325 C  
HETATM    8  C   UNL     1     -10.329  15.844  68.785  1.00  0.00    -0.228 C  
HETATM    9  H2  UNL     1      -9.735  13.106  66.990  1.00  0.00     0.000 HD 
HETATM   10  C   UNL     1      -8.965  15.119  68.624  1.00  0.00    -0.191 C  
HETATM   11  H1  UNL     1      -8.483  13.160  65.864  1.00  0.00     0.000 HD 
HETATM   12  C   UNL     1      -9.123  15.684  66.050  1.00  0.00    -0.346 C  
HETATM   13  C   UNL     1      -8.534  14.792  67.162  1.00  0.00    -0.223 C  
HETATM   14  N   UNL     1      -8.766  13.373  66.821  1.00  0.00    -0.139 NA 
BRANCH   8  15
HETATM   15  O   UNL     1     -11.493  15.019  68.745  1.00  0.00    -0.286 OA 
BRANCH  15  16
HETATM   16  C   UNL     1     -11.401  13.666  69.180  1.00  0.00    -0.285 C  
BRANCH  16  17
HETATM   17  C   UNL     1     -11.908  12.795  68.016  1.00  0.00    -0.386 C  
HETATM   18  C   UNL     1     -11.398  11.359  68.080  1.00  0.00    -0.374 C  
ENDBRANCH  16  17
BRANCH  16  19
HETATM   19  C   UNL     1     -12.195  13.399  70.470  1.00  0.00    -0.425 C  
HETATM   20  C   UNL     1     -12.317  14.603  71.397  1.00  0.00    -0.411 C  
ENDBRANCH  16  19
ENDBRANCH  15  16
ENDBRANCH   8  15
BRANCH  10  21
HETATM   21  N   UNL     1      -7.887  15.843  69.332  1.00  0.00    -0.227 N  
HETATM   22  H   UNL     1      -7.994  16.840  69.524  1.00  0.00     0.000 HD 
HETATM   23  C   UNL     1      -6.740  15.195  69.735  1.00  0.00    -0.180 C  
HETATM   24  C   UNL     1      -5.758  16.060  70.481  1.00  0.00    -0.054 C  
HETATM   25  O   UNL     1      -6.520  14.010  69.523  1.00  0.00    -0.114 OA 
ENDBRANCH  10  21
ENDBRANCH   4   6
ENDBRANCH   3   4
ENDBRANCH   2   3
TORSDOF 8
ENDMDL
MODEL       72
REMARK 921   NORMALIZED FREE ENERGY PREDICTED BY IDOCK:   -4.34 KCAL/MOL
REMARK 922        TOTAL FREE ENERGY PREDICTED BY IDOCK:   -7.30 KCAL/MOL
REMARK 923 INTER-LIGAND FREE ENERGY PREDICTED BY IDOCK:   -6.15 KCAL/MOL
REMARK 924 INTRA-LIGAND FREE ENERGY PREDICTED BY IDOCK:   -1.16 KCAL/MOL
REMARK 927      BINDING AFFINITY PREDICTED BY RF-SCORE:    0.00 PKD
ROOT
HETATM    1  C   UNL     1     -12.399  12.327  63.358  1.00  0.00    -0.624 C  
HETATM    2  C   UNL     1     -10.895  12.311  63.564  1.00  0.00    -0.454 C  
ENDROOT
BRANCH   2   3
HETATM    3  O   UNL     1     -10.616  13.052  64.755  1.00  0.00    -0.323 OA 
BRANCH   3   4
HETATM    4  C   UNL     1     -10.705  12.341  65.907  1.00  0.00    -0.258 C  
HETATM    5  O   UNL     1     -10.778  11.123  65.989  1.00  0.00    -0.259 OA 
BRANCH   4   6
HETATM    6  C   UNL     1     -10.623  13.232  67.096  1.00  0.00    -0.259 C  
HETATM    7  C   UNL     1      -9.707  13.040  68.057  1.00  0.00    -0.224 C  
HETATM    8  C   UNL     1      -9.427  14.038  69.131  1.00  0.00     0.236 C  
HETATM    9  H2  UNL     1     -10.358  16.844  67.603  1.00  0.00     0.000 HD 
HETATM   10  C   UNL     1     -10.646  14.931  69.492  1.00  0.00    -0.229 C  
HETATM   11  H1  UNL     1     -11.951  16.956  67.068  1.00  0.00     0.000 HD 
HETATM   12  C   UNL     1     -11.593  14.370  67.092  1.00  0.00    -0.406 C  
HETATM   13  C   UNL     1     -11.581  15.320  68.308  1.00  0.00    -0.341 C  
HETATM   14  N   UNL     1     -11.339  16.701  67.843  1.00  0.00    -0.115 NA 
BRANCH   8  15
HETATM   15  O   UNL     1      -8.286  14.712  68.599  1.00  0.00    -0.148 OA 
BRANCH  15  16
HETATM   16  C   UNL     1      -7.788  15.869  69.265  1.00  0.00    -0.226 C  
BRANCH  16  17
HETATM   17  C   UNL     1      -7.938  17.042  68.279  1.00  0.00    -0.222 C  
HETATM   18  C   UNL     1      -7.818  16.613  66.820  1.00  0.00    -0.290 C  
ENDBRANCH  16  17
BRANCH  16  19
HETATM   19  C   UNL     1      -6.331  15.707  69.730  1.00  0.00    -0.170 C  
HETATM   20  C   UNL     1      -5.736  14.328  69.474  1.00  0.00    -0.096 C  
ENDBRANCH  16  19
ENDBRANCH  15  16
ENDBRANCH   8  15
BRANCH  10  21
HETATM   21  N   UNL     1     -11.431  14.341  70.599  1.00  0.00    -0.515 N  
HETATM   22  H   UNL     1     -11.625  13.339  70.598  1.00  0.00     0.000 HD 
HETATM   23  C   UNL     1     -11.904  15.122  71.631  1.00  0.00    -0.387 C  
HETATM   24  C   UNL     1     -12.646  14.367  72.702  1.00  0.00    -0.354 C  
HETATM   25  O   UNL     1     -11.738  16.333  71.696  1.00  0.00    -0.480 OA 
ENDBRANCH  10  21
ENDBRANCH   4   6
ENDBRANCH   3   4
ENDBRANCH   2   3
TORSDOF 8
ENDMDL
MODEL       73
REMARK 921   NORMALIZED FREE ENERGY PREDICTED BY IDOCK:   -4.33 KCAL/MOL
REMARK 922        TOTAL FREE ENERGY PREDICTED BY IDOCK:   -7.30 KCAL/MOL
REMARK 923 INTER-LIGAND FREE ENERGY PREDICTED BY IDOCK:   -6.28 KCAL/MOL
REMARK 924 INTRA-LIGAND FREE ENERGY PREDICTED BY IDOCK:   -1.02 KCAL/MOL
REMARK 927      BINDING AFFINITY PREDICTED BY RF-SCORE:    0.00 PKD
ROOT
HETATM    1  C   UNL     1      -6.545  19.372  68.977  1.00  0.00    -0.347 C  
HETATM    2  C   UNL     1      -7.187  19.094  67.630  1.00  0.00    -0.223 C  
ENDROOT
BRANCH   2   3
HETATM    3  O   UNL     1      -8.600  19.005  67.838  1.00  0.00    -0.287 OA 
BRANCH   3   4
HETATM    4  C   UNL     1      -9.312  18.592  66.760  1.00  0.00    -0.297 C  
HETATM    5  O   UNL     1      -9.629  19.286  65.805  1.00  0.00    -0.402 OA 
BRANCH   4   6
HETATM    6  C   UNL     1      -9.608  17.135  66.838  1.00  0.00    -0.268 C  
HETATM    7  C   UNL     1      -8.839  16.226  66.220  1.00  0.00    -0.367 C  
HETATM    8  C   UNL     1      -8.947  14.758  66.468  1.00  0.00    -0.233 C  
HETATM    9  H2  UNL     1     -10.178  14.759  69.559  1.00  0.00     0.000 HD 
HETATM   10  C   UNL     1     -10.366  14.298  66.901  1.00  0.00    -0.268 C  
HETATM   11  H1  UNL     1     -11.653  15.530  69.818  1.00  0.00     0.000 HD 
HETATM   12  C   UNL     1     -10.778  16.780  67.700  1.00  0.00    -0.305 C  
HETATM   13  C   UNL     1     -11.158  15.289  67.806  1.00  0.00    -0.318 C  
HETATM   14  N   UNL     1     -11.134  14.881  69.226  1.00  0.00    -0.258 NA 
BRANCH   8  15
HETATM   15  O   UNL     1      -7.899  14.555  67.415  1.00  0.00    -0.180 OA 
BRANCH  15  16
HETATM   16  C   UNL     1      -7.793  13.297  68.075  1.00  0.00    -0.148 C  
BRANCH  16  17
HETATM   17  C   UNL     1      -6.670  13.441  69.118  1.00  0.00    -0.099 C  
HETATM   18  C   UNL     1      -6.689  14.788  69.832  1.00  0.00    -0.172 C  
ENDBRANCH  16  17
BRANCH  16  19
HETATM   19  C   UNL     1      -7.513  12.137  67.104  1.00  0.00    -0.129 C  
HETATM   20  C   UNL     1      -8.579  11.047  67.098  1.00  0.00    -0.136 C  
ENDBRANCH  16  19
ENDBRANCH  15  16
ENDBRANCH   8  15
BRANCH  10  21
HETATM   21  N   UNL     1     -11.180  13.902  65.731  1.00  0.00    -0.300 N  
HETATM   22  H   UNL     1     -11.198  14.502  64.906  1.00  0.00     0.000 HD 
HETATM   23  C   UNL     1     -11.914  12.736  65.737  1.00  0.00    -0.449 C  
HETATM   24  C   UNL     1     -12.654  12.451  64.457  1.00  0.00    -0.477 C  
HETATM   25  O   UNL     1     -11.967  11.973  66.693  1.00  0.00    -0.614 OA 
ENDBRANCH  10  21
ENDBRANCH   4   6
ENDBRANCH   3   4
ENDBRANCH   2   3
TORSDOF 8
ENDMDL
MODEL       74
REMARK 921   NORMALIZED FREE ENERGY PREDICTED BY IDOCK:   -4.31 KCAL/MOL
REMARK 922        TOTAL FREE ENERGY PREDICTED BY IDOCK:   -7.27 KCAL/MOL
REMARK 923 INTER-LIGAND FREE ENERGY PREDICTED BY IDOCK:   -6.22 KCAL/MOL
REMARK 924 INTRA-LIGAND FREE ENERGY PREDICTED BY IDOCK:   -1.05 KCAL/MOL
REMARK 927      BINDING AFFINITY PREDICTED BY RF-SCORE:    0.00 PKD
ROOT
HETATM    1  C   UNL     1     -11.370  13.169  64.128  1.00  0.00    -0.440 C  
HETATM    2  C   UNL     1     -12.118  13.454  65.418  1.00  0.00    -0.421 C  
ENDROOT
BRANCH   2   3
HETATM    3  O   UNL     1     -12.115  12.251  66.191  1.00  0.00    -0.625 OA 
BRANCH   3   4
HETATM    4  C   UNL     1     -11.739  12.403  67.485  1.00  0.00    -0.357 C  
HETATM    5  O   UNL     1     -11.977  13.375  68.188  1.00  0.00    -0.349 OA 
BRANCH   4   6
HETATM    6  C   UNL     1     -11.051  11.184  67.992  1.00  0.00    -0.334 C  
HETATM    7  C   UNL     1     -10.878  10.967  69.304  1.00  0.00    -0.285 C  
HETATM    8  C   UNL     1     -10.422   9.661  69.864  1.00  0.00    -0.253 C  
HETATM    9  H2  UNL     1     -11.464   7.587  67.479  1.00  0.00     0.000 HD 
HETATM   10  C   UNL     1      -9.529   8.839  68.894  1.00  0.00    -0.145 C  
HETATM   11  H1  UNL     1     -10.871   7.821  65.920  1.00  0.00     0.000 HD 
HETATM   12  C   UNL     1     -10.634  10.216  66.931  1.00  0.00    -0.267 C  
HETATM   13  C   UNL     1      -9.892   8.941  67.381  1.00  0.00    -0.193 C  
HETATM   14  N   UNL     1     -10.634   7.754  66.910  1.00  0.00    -0.338 NA 
BRANCH   8  15
HETATM   15  O   UNL     1     -11.665   9.065  70.237  1.00  0.00    -0.147 OA 
BRANCH  15  16
HETATM   16  C   UNL     1     -11.720   8.240  71.397  1.00  0.00    -0.287 C  
BRANCH  16  17
HETATM   17  C   UNL     1     -13.004   8.629  72.152  1.00  0.00    -0.432 C  
HETATM   18  C   UNL     1     -13.238  10.135  72.195  1.00  0.00    -0.463 C  
ENDBRANCH  16  17
BRANCH  16  19
HETATM   19  C   UNL     1     -10.476   8.385  72.291  1.00  0.00    -0.407 C  
HETATM   20  C   UNL     1      -9.777   7.071  72.620  1.00  0.00    -0.173 C  
ENDBRANCH  16  19
ENDBRANCH  15  16
ENDBRANCH   8  15
BRANCH  10  21
HETATM   21  N   UNL     1      -8.096   9.139  69.104  1.00  0.00    -0.102 N  
HETATM   22  H   UNL     1      -7.750  10.084  68.929  1.00  0.00     0.000 HD 
HETATM   23  C   UNL     1      -7.220   8.165  69.530  1.00  0.00    -0.073 C  
HETATM   24  C   UNL     1      -5.806   8.638  69.739  1.00  0.00    -0.029 C  
HETATM   25  O   UNL     1      -7.547   7.004  69.738  1.00  0.00    -0.098 OA 
ENDBRANCH  10  21
ENDBRANCH   4   6
ENDBRANCH   3   4
ENDBRANCH   2   3
TORSDOF 8
ENDMDL
MODEL       75
REMARK 921   NORMALIZED FREE ENERGY PREDICTED BY IDOCK:   -4.31 KCAL/MOL
REMARK 922        TOTAL FREE ENERGY PREDICTED BY IDOCK:   -7.27 KCAL/MOL
REMARK 923 INTER-LIGAND FREE ENERGY PREDICTED BY IDOCK:   -6.35 KCAL/MOL
REMARK 924 INTRA-LIGAND FREE ENERGY PREDICTED BY IDOCK:   -0.92 KCAL/MOL
REMARK 927      BINDING AFFINITY PREDICTED BY RF-SCORE:    0.00 PKD
ROOT
HETATM    1  C   UNL     1     -12.535  11.974  63.542  1.00  0.00    -0.654 C  
HETATM    2  C   UNL     1     -12.210  13.457  63.549  1.00  0.00    -0.400 C  
ENDROOT
BRANCH   2   3
HETATM    3  O   UNL     1     -10.906  13.608  64.117  1.00  0.00    -0.340 OA 
BRANCH   3   4
HETATM    4  C   UNL     1     -10.758  14.680  64.935  1.00  0.00    -0.427 C  
HETATM    5  O   UNL     1     -10.749  15.850  64.582  1.00  0.00    -0.553 OA 
BRANCH   4   6
HETATM    6  C   UNL     1     -10.684  14.262  66.361  1.00  0.00    -0.297 C  
HETATM    7  C   UNL     1      -9.546  13.805  66.903  1.00  0.00    -0.263 C  
HETATM    8  C   UNL     1      -9.359  13.610  68.371  1.00  0.00    -0.181 C  
HETATM    9  H2  UNL     1     -11.547  15.820  69.556  1.00  0.00     0.000 HD 
HETATM   10  C   UNL     1     -10.675  13.295  69.135  1.00  0.00    -0.047 C  
HETATM   11  H1  UNL     1     -13.163  15.638  69.118  1.00  0.00     0.000 HD 
HETATM   12  C   UNL     1     -11.951  14.450  67.134  1.00  0.00    -0.419 C  
HETATM   13  C   UNL     1     -11.955  14.014  68.613  1.00  0.00    -0.354 C  
HETATM   14  N   UNL     1     -12.324  15.167  69.460  1.00  0.00    -0.221 NA 
BRANCH   8  15
HETATM   15  O   UNL     1      -8.691  14.818  68.734  1.00  0.00    -0.172 OA 
BRANCH  15  16
HETATM   16  C   UNL     1      -7.497  14.748  69.508  1.00  0.00    -0.120 C  
BRANCH  16  17
HETATM   17  C   UNL     1      -6.876  16.157  69.486  1.00  0.00    -0.190 C  
HETATM   18  C   UNL     1      -7.406  17.025  68.349  1.00  0.00    -0.213 C  
ENDBRANCH  16  17
BRANCH  16  19
HETATM   19  C   UNL     1      -6.510  13.690  68.985  1.00  0.00    -0.106 C  
HETATM   20  C   UNL     1      -5.997  12.725  70.047  1.00  0.00    -0.142 C  
ENDBRANCH  16  19
ENDBRANCH  15  16
ENDBRANCH   8  15
BRANCH  10  21
HETATM   21  N   UNL     1     -10.902  11.836  69.228  1.00  0.00    -0.416 N  
HETATM   22  H   UNL     1     -10.490  11.218  68.528  1.00  0.00     0.000 HD 
HETATM   23  C   UNL     1     -11.661  11.298  70.244  1.00  0.00    -0.324 C  
HETATM   24  C   UNL     1     -11.763   9.796  70.226  1.00  0.00    -0.253 C  
HETATM   25  O   UNL     1     -12.211  11.969  71.108  1.00  0.00    -0.256 OA 
ENDBRANCH  10  21
ENDBRANCH   4   6
ENDBRANCH   3   4
ENDBRANCH   2   3
TORSDOF 8
ENDMDL
MODEL       76
REMARK 921   NORMALIZED FREE ENERGY PREDICTED BY IDOCK:   -4.31 KCAL/MOL
REMARK 922        TOTAL FREE ENERGY PREDICTED BY IDOCK:   -7.26 KCAL/MOL
REMARK 923 INTER-LIGAND FREE ENERGY PREDICTED BY IDOCK:   -6.12 KCAL/MOL
REMARK 924 INTRA-LIGAND FREE ENERGY PREDICTED BY IDOCK:   -1.14 KCAL/MOL
REMARK 927      BINDING AFFINITY PREDICTED BY RF-SCORE:    0.00 PKD
ROOT
HETATM    1  C   UNL     1      -5.812  20.186  66.149  1.00  0.00    -0.186 C  
HETATM    2  C   UNL     1      -7.223  20.043  65.609  1.00  0.00    -0.308 C  
ENDROOT
BRANCH   2   3
HETATM    3  O   UNL     1      -8.063  19.654  66.699  1.00  0.00    -0.279 OA 
BRANCH   3   4
HETATM    4  C   UNL     1      -9.345  19.367  66.361  1.00  0.00    -0.368 C  
HETATM    5  O   UNL     1     -10.123  20.128  65.804  1.00  0.00    -0.444 OA 
BRANCH   4   6
HETATM    6  C   UNL     1      -9.683  17.954  66.684  1.00  0.00    -0.319 C  
HETATM    7  C   UNL     1      -9.068  16.927  66.081  1.00  0.00    -0.265 C  
HETATM    8  C   UNL     1      -9.193  15.513  66.542  1.00  0.00    -0.293 C  
HETATM    9  H2  UNL     1      -9.888  15.988  69.761  1.00  0.00     0.000 HD 
HETATM   10  C   UNL     1     -10.538  15.203  67.256  1.00  0.00    -0.286 C  
HETATM   11  H1  UNL     1     -11.266  16.878  70.145  1.00  0.00     0.000 HD 
HETATM   12  C   UNL     1     -10.707  17.788  67.762  1.00  0.00    -0.332 C  
HETATM   13  C   UNL     1     -11.126  16.350  68.132  1.00  0.00    -0.320 C  
HETATM   14  N   UNL     1     -10.881  16.127  69.572  1.00  0.00    -0.304 NA 
BRANCH   8  15
HETATM   15  O   UNL     1      -8.011  15.366  67.328  1.00  0.00    -0.167 OA 
BRANCH  15  16
HETATM   16  C   UNL     1      -8.042  14.530  68.481  1.00  0.00    -0.148 C  
BRANCH  16  17
HETATM   17  C   UNL     1      -7.183  15.227  69.552  1.00  0.00    -0.205 C  
HETATM   18  C   UNL     1      -6.697  16.607  69.122  1.00  0.00    -0.217 C  
ENDBRANCH  16  17
BRANCH  16  19
HETATM   19  C   UNL     1      -7.539  13.104  68.196  1.00  0.00    -0.141 C  
HETATM   20  C   UNL     1      -6.495  12.594  69.181  1.00  0.00    -0.106 C  
ENDBRANCH  16  19
ENDBRANCH  15  16
ENDBRANCH   8  15
BRANCH  10  21
HETATM   21  N   UNL     1     -11.552  14.712  66.297  1.00  0.00    -0.363 N  
HETATM   22  H   UNL     1     -12.191  15.376  65.860  1.00  0.00     0.000 HD 
HETATM   23  C   UNL     1     -11.647  13.374  65.985  1.00  0.00    -0.344 C  
HETATM   24  C   UNL     1     -12.699  13.040  64.961  1.00  0.00    -0.475 C  
HETATM   25  O   UNL     1     -10.937  12.509  66.483  1.00  0.00    -0.251 OA 
ENDBRANCH  10  21
ENDBRANCH   4   6
ENDBRANCH   3   4
ENDBRANCH   2   3
TORSDOF 8
ENDMDL
MODEL       77
REMARK 921   NORMALIZED FREE ENERGY PREDICTED BY IDOCK:   -4.31 KCAL/MOL
REMARK 922        TOTAL FREE ENERGY PREDICTED BY IDOCK:   -7.26 KCAL/MOL
REMARK 923 INTER-LIGAND FREE ENERGY PREDICTED BY IDOCK:   -6.21 KCAL/MOL
REMARK 924 INTRA-LIGAND FREE ENERGY PREDICTED BY IDOCK:   -1.05 KCAL/MOL
REMARK 927      BINDING AFFINITY PREDICTED BY RF-SCORE:    0.00 PKD
ROOT
HETATM    1  C   UNL     1      -9.009  19.831  67.221  1.00  0.00    -0.403 C  
HETATM    2  C   UNL     1     -10.513  19.630  67.185  1.00  0.00    -0.471 C  
ENDROOT
BRANCH   2   3
HETATM    3  O   UNL     1     -10.760  18.225  67.291  1.00  0.00    -0.404 OA 
BRANCH   3   4
HETATM    4  C   UNL     1     -10.767  17.554  66.113  1.00  0.00    -0.098 C  
HETATM    5  O   UNL     1     -10.959  18.048  65.011  1.00  0.00    -0.748 OA 
BRANCH   4   6
HETATM    6  C   UNL     1     -10.426  16.118  66.310  1.00  0.00    -0.321 C  
HETATM    7  C   UNL     1      -9.154  15.699  66.376  1.00  0.00    -0.355 C  
HETATM    8  C   UNL     1      -8.768  14.325  66.815  1.00  0.00    -0.134 C  
HETATM    9  H2  UNL     1     -11.371  13.551  68.737  1.00  0.00     0.000 HD 
HETATM   10  C   UNL     1      -9.847  13.246  66.524  1.00  0.00    -0.281 C  
HETATM   11  H1  UNL     1     -12.900  13.556  68.029  1.00  0.00     0.000 HD 
HETATM   12  C   UNL     1     -11.606  15.215  66.482  1.00  0.00    -0.105 C  
HETATM   13  C   UNL     1     -11.329  13.708  66.665  1.00  0.00    -0.326 C  
HETATM   14  N   UNL     1     -11.930  13.254  67.936  1.00  0.00    -0.338 NA 
BRANCH   8  15
HETATM   15  O   UNL     1      -8.449  14.547  68.189  1.00  0.00    -0.143 OA 
BRANCH  15  16
HETATM   16  C   UNL     1      -7.271  13.959  68.733  1.00  0.00    -0.106 C  
BRANCH  16  17
HETATM   17  C   UNL     1      -6.773  14.913  69.834  1.00  0.00    -0.178 C  
HETATM   18  C   UNL     1      -6.590  16.345  69.343  1.00  0.00    -0.210 C  
ENDBRANCH  16  17
BRANCH  16  19
HETATM   19  C   UNL     1      -6.186  13.708  67.672  1.00  0.00    -0.129 C  
HETATM   20  C   UNL     1      -5.808  12.243  67.490  1.00  0.00    -0.131 C  
ENDBRANCH  16  19
ENDBRANCH  15  16
ENDBRANCH   8  15
BRANCH  10  21
HETATM   21  N   UNL     1      -9.627  12.612  65.206  1.00  0.00    -0.464 N  
HETATM   22  H   UNL     1      -9.300  13.180  64.424  1.00  0.00     0.000 HD 
HETATM   23  C   UNL     1      -9.855  11.266  65.017  1.00  0.00    -0.261 C  
HETATM   24  C   UNL     1      -9.543  10.764  63.632  1.00  0.00    -0.347 C  
HETATM   25  O   UNL     1     -10.270  10.520  65.893  1.00  0.00    -0.253 OA 
ENDBRANCH  10  21
ENDBRANCH   4   6
ENDBRANCH   3   4
ENDBRANCH   2   3
TORSDOF 8
ENDMDL
MODEL       78
REMARK 921   NORMALIZED FREE ENERGY PREDICTED BY IDOCK:   -4.30 KCAL/MOL
REMARK 922        TOTAL FREE ENERGY PREDICTED BY IDOCK:   -7.25 KCAL/MOL
REMARK 923 INTER-LIGAND FREE ENERGY PREDICTED BY IDOCK:   -6.23 KCAL/MOL
REMARK 924 INTRA-LIGAND FREE ENERGY PREDICTED BY IDOCK:   -1.02 KCAL/MOL
REMARK 927      BINDING AFFINITY PREDICTED BY RF-SCORE:    0.00 PKD
ROOT
HETATM    1  C   UNL     1     -13.852  15.427  71.850  1.00  0.00    -0.619 C  
HETATM    2  C   UNL     1     -13.540  13.947  71.714  1.00  0.00    -0.385 C  
ENDROOT
BRANCH   2   3
HETATM    3  O   UNL     1     -12.190  13.833  71.255  1.00  0.00    -0.340 OA 
BRANCH   3   4
HETATM    4  C   UNL     1     -12.038  13.164  70.085  1.00  0.00    -0.321 C  
HETATM    5  O   UNL     1     -12.461  12.044  69.844  1.00  0.00    -0.101 OA 
BRANCH   4   6
HETATM    6  C   UNL     1     -11.343  14.005  69.072  1.00  0.00    -0.319 C  
HETATM    7  C   UNL     1     -10.254  14.724  69.381  1.00  0.00    -0.141 C  
HETATM    8  C   UNL     1      -9.388  15.378  68.356  1.00  0.00    -0.193 C  
HETATM    9  H2  UNL     1      -9.974  13.418  65.732  1.00  0.00     0.000 HD 
HETATM   10  C   UNL     1     -10.142  15.771  67.055  1.00  0.00    -0.261 C  
HETATM   11  H1  UNL     1     -11.563  13.284  65.190  1.00  0.00     0.000 HD 
HETATM   12  C   UNL     1     -11.921  13.928  67.695  1.00  0.00    -0.403 C  
HETATM   13  C   UNL     1     -11.267  14.794  66.598  1.00  0.00    -0.346 C  
HETATM   14  N   UNL     1     -10.826  13.923  65.489  1.00  0.00    -0.297 NA 
BRANCH   8  15
HETATM   15  O   UNL     1      -8.342  14.417  68.215  1.00  0.00    -0.143 OA 
BRANCH  15  16
HETATM   16  C   UNL     1      -6.995  14.867  68.098  1.00  0.00    -0.126 C  
BRANCH  16  17
HETATM   17  C   UNL     1      -6.106  13.611  68.154  1.00  0.00    -0.118 C  
HETATM   18  C   UNL     1      -6.622  12.559  69.130  1.00  0.00    -0.100 C  
ENDBRANCH  16  17
BRANCH  16  19
HETATM   19  C   UNL     1      -6.609  15.879  69.191  1.00  0.00    -0.158 C  
HETATM   20  C   UNL     1      -6.001  17.174  68.666  1.00  0.00    -0.150 C  
ENDBRANCH  16  19
ENDBRANCH  15  16
ENDBRANCH   8  15
BRANCH  10  21
HETATM   21  N   UNL     1     -10.658  17.155  67.132  1.00  0.00    -0.286 N  
HETATM   22  H   UNL     1     -11.571  17.327  67.554  1.00  0.00     0.000 HD 
HETATM   23  C   UNL     1      -9.925  18.215  66.646  1.00  0.00    -0.362 C  
HETATM   24  C   UNL     1     -10.567  19.564  66.839  1.00  0.00    -0.602 C  
HETATM   25  O   UNL     1      -8.834  18.094  66.104  1.00  0.00    -0.460 OA 
ENDBRANCH  10  21
ENDBRANCH   4   6
ENDBRANCH   3   4
ENDBRANCH   2   3
TORSDOF 8
ENDMDL
MODEL       79
REMARK 921   NORMALIZED FREE ENERGY PREDICTED BY IDOCK:   -4.29 KCAL/MOL
REMARK 922        TOTAL FREE ENERGY PREDICTED BY IDOCK:   -7.24 KCAL/MOL
REMARK 923 INTER-LIGAND FREE ENERGY PREDICTED BY IDOCK:   -6.06 KCAL/MOL
REMARK 924 INTRA-LIGAND FREE ENERGY PREDICTED BY IDOCK:   -1.18 KCAL/MOL
REMARK 927      BINDING AFFINITY PREDICTED BY RF-SCORE:    0.00 PKD
ROOT
HETATM    1  C   UNL     1     -10.045  16.118  65.908  1.00  0.00    -0.379 C  
HETATM    2  C   UNL     1      -9.296  16.458  67.183  1.00  0.00    -0.218 C  
ENDROOT
BRANCH   2   3
HETATM    3  O   UNL     1      -9.489  15.374  68.096  1.00  0.00    -0.199 OA 
BRANCH   3   4
HETATM    4  C   UNL     1      -8.674  14.308  67.900  1.00  0.00    -0.178 C  
HETATM    5  O   UNL     1      -7.479  14.360  67.649  1.00  0.00    -0.145 OA 
BRANCH   4   6
HETATM    6  C   UNL     1      -9.404  13.027  68.107  1.00  0.00    -0.217 C  
HETATM    7  C   UNL     1     -10.723  12.926  67.888  1.00  0.00    -0.235 C  
HETATM    8  C   UNL     1     -11.447  11.621  67.843  1.00  0.00    -0.311 C  
HETATM    9  H2  UNL     1      -8.972   9.591  66.933  1.00  0.00     0.000 HD 
HETATM   10  C   UNL     1     -10.793  10.510  68.709  1.00  0.00    -0.231 C  
HETATM   11  H1  UNL     1      -7.620   9.502  67.933  1.00  0.00     0.000 HD 
HETATM   12  C   UNL     1      -8.541  11.875  68.514  1.00  0.00    -0.110 C  
HETATM   13  C   UNL     1      -9.235  10.522  68.771  1.00  0.00    -0.177 C  
HETATM   14  N   UNL     1      -8.639   9.495  67.892  1.00  0.00    -0.119 NA 
BRANCH   8  15
HETATM   15  O   UNL     1     -11.501  11.377  66.437  1.00  0.00    -0.349 OA 
BRANCH  15  16
HETATM   16  C   UNL     1     -11.311  12.462  65.535  1.00  0.00    -0.346 C  
BRANCH  16  17
HETATM   17  C   UNL     1     -12.677  12.735  64.880  1.00  0.00    -0.479 C  
HETATM   18  C   UNL     1     -12.784  12.170  63.467  1.00  0.00    -0.553 C  
ENDBRANCH  16  17
BRANCH  16  19
HETATM   19  C   UNL     1     -10.228  12.177  64.480  1.00  0.00    -0.321 C  
HETATM   20  C   UNL     1      -9.537  10.828  64.634  1.00  0.00    -0.320 C  
ENDBRANCH  16  19
ENDBRANCH  15  16
ENDBRANCH   8  15
BRANCH  10  21
HETATM   21  N   UNL     1     -11.364  10.489  70.073  1.00  0.00    -0.295 N  
HETATM   22  H   UNL     1     -11.618  11.369  70.524  1.00  0.00     0.000 HD 
HETATM   23  C   UNL     1     -11.561   9.302  70.745  1.00  0.00    -0.285 C  
HETATM   24  C   UNL     1     -12.191   9.446  72.105  1.00  0.00    -0.336 C  
HETATM   25  O   UNL     1     -11.262   8.207  70.287  1.00  0.00    -0.253 OA 
ENDBRANCH  10  21
ENDBRANCH   4   6
ENDBRANCH   3   4
ENDBRANCH   2   3
TORSDOF 8
ENDMDL
MODEL       80
REMARK 921   NORMALIZED FREE ENERGY PREDICTED BY IDOCK:   -4.28 KCAL/MOL
REMARK 922        TOTAL FREE ENERGY PREDICTED BY IDOCK:   -7.22 KCAL/MOL
REMARK 923 INTER-LIGAND FREE ENERGY PREDICTED BY IDOCK:   -6.24 KCAL/MOL
REMARK 924 INTRA-LIGAND FREE ENERGY PREDICTED BY IDOCK:   -0.98 KCAL/MOL
REMARK 927      BINDING AFFINITY PREDICTED BY RF-SCORE:    0.00 PKD
ROOT
HETATM    1  C   UNL     1     -12.250  14.689  64.351  1.00  0.00    -0.473 C  
HETATM    2  C   UNL     1     -12.780  13.467  65.079  1.00  0.00    -0.344 C  
ENDROOT
BRANCH   2   3
HETATM    3  O   UNL     1     -12.301  12.312  64.383  1.00  0.00    -0.425 OA 
BRANCH   3   4
HETATM    4  C   UNL     1     -10.974  12.070  64.521  1.00  0.00    -0.318 C  
HETATM    5  O   UNL     1     -10.137  12.160  63.635  1.00  0.00    -0.395 OA 
BRANCH   4   6
HETATM    6  C   UNL     1     -10.630  11.749  65.933  1.00  0.00    -0.314 C  
HETATM    7  C   UNL     1     -10.915  10.555  66.473  1.00  0.00    -0.054 C  
HETATM    8  C   UNL     1     -10.376  10.103  67.790  1.00  0.00    -0.210 C  
HETATM    9  H2  UNL     1      -7.579  11.900  67.945  1.00  0.00     0.000 HD 
HETATM   10  C   UNL     1     -10.073  11.265  68.776  1.00  0.00    -0.194 C  
HETATM   11  H1  UNL     1      -7.719  13.578  67.887  1.00  0.00     0.000 HD 
HETATM   12  C   UNL     1      -9.899  12.834  66.660  1.00  0.00    -0.250 C  
HETATM   13  C   UNL     1      -9.533  12.580  68.137  1.00  0.00    -0.214 C  
HETATM   14  N   UNL     1      -8.072  12.717  68.306  1.00  0.00    -0.151 NA 
BRANCH   8  15
HETATM   15  O   UNL     1      -9.259   9.314  67.381  1.00  0.00    -0.126 OA 
BRANCH  15  16
HETATM   16  C   UNL     1      -9.446   8.303  66.395  1.00  0.00    -0.221 C  
BRANCH  16  17
HETATM   17  C   UNL     1      -9.546   6.965  67.150  1.00  0.00    -0.182 C  
HETATM   18  C   UNL     1     -10.977   6.448  67.261  1.00  0.00    -0.474 C  
ENDBRANCH  16  17
BRANCH  16  19
HETATM   19  C   UNL     1      -8.318   8.276  65.349  1.00  0.00    -0.170 C  
HETATM   20  C   UNL     1      -7.596   9.605  65.165  1.00  0.00    -0.114 C  
ENDBRANCH  16  19
ENDBRANCH  15  16
ENDBRANCH   8  15
BRANCH  10  21
HETATM   21  N   UNL     1     -11.239  11.551  69.640  1.00  0.00    -0.417 N  
HETATM   22  H   UNL     1     -11.796  12.389  69.469  1.00  0.00     0.000 HD 
HETATM   23  C   UNL     1     -11.586  10.704  70.670  1.00  0.00    -0.336 C  
HETATM   24  C   UNL     1     -12.822  11.110  71.428  1.00  0.00    -0.544 C  
HETATM   25  O   UNL     1     -10.958   9.693  70.958  1.00  0.00    -0.315 OA 
ENDBRANCH  10  21
ENDBRANCH   4   6
ENDBRANCH   3   4
ENDBRANCH   2   3
TORSDOF 8
ENDMDL
MODEL       81
REMARK 921   NORMALIZED FREE ENERGY PREDICTED BY IDOCK:   -4.27 KCAL/MOL
REMARK 922        TOTAL FREE ENERGY PREDICTED BY IDOCK:   -7.20 KCAL/MOL
REMARK 923 INTER-LIGAND FREE ENERGY PREDICTED BY IDOCK:   -6.14 KCAL/MOL
REMARK 924 INTRA-LIGAND FREE ENERGY PREDICTED BY IDOCK:   -1.06 KCAL/MOL
REMARK 927      BINDING AFFINITY PREDICTED BY RF-SCORE:    0.00 PKD
ROOT
HETATM    1  C   UNL     1     -13.886  15.365  71.907  1.00  0.00    -0.619 C  
HETATM    2  C   UNL     1     -13.148  14.480  70.918  1.00  0.00    -0.345 C  
ENDROOT
BRANCH   2   3
HETATM    3  O   UNL     1     -11.849  15.046  70.723  1.00  0.00    -0.279 OA 
BRANCH   3   4
HETATM    4  C   UNL     1     -11.555  15.376  69.441  1.00  0.00    -0.340 C  
HETATM    5  O   UNL     1     -12.039  16.309  68.816  1.00  0.00    -0.098 OA 
BRANCH   4   6
HETATM    6  C   UNL     1     -10.488  14.497  68.890  1.00  0.00    -0.246 C  
HETATM    7  C   UNL     1     -10.777  13.350  68.257  1.00  0.00    -0.273 C  
HETATM    8  C   UNL     1      -9.770  12.569  67.480  1.00  0.00    -0.196 C  
HETATM    9  H2  UNL     1      -7.643  14.988  66.644  1.00  0.00     0.000 HD 
HETATM   10  C   UNL     1      -8.313  12.740  67.990  1.00  0.00    -0.173 C  
HETATM   11  H1  UNL     1      -6.912  15.856  67.888  1.00  0.00     0.000 HD 
HETATM   12  C   UNL     1      -9.098  15.027  69.050  1.00  0.00    -0.205 C  
HETATM   13  C   UNL     1      -7.939  14.155  68.525  1.00  0.00    -0.145 C  
HETATM   14  N   UNL     1      -7.157  14.929  67.538  1.00  0.00    -0.187 NA 
BRANCH   8  15
HETATM   15  O   UNL     1     -10.031  13.016  66.150  1.00  0.00    -0.269 OA 
BRANCH  15  16
HETATM   16  C   UNL     1     -11.379  13.110  65.700  1.00  0.00    -0.303 C  
BRANCH  16  17
HETATM   17  C   UNL     1     -11.636  11.872  64.821  1.00  0.00    -0.302 C  
HETATM   18  C   UNL     1     -12.453  12.187  63.572  1.00  0.00    -0.666 C  
ENDBRANCH  16  17
BRANCH  16  19
HETATM   19  C   UNL     1     -11.661  14.413  64.932  1.00  0.00    -0.408 C  
HETATM   20  C   UNL     1     -10.631  15.514  65.156  1.00  0.00    -0.455 C  
ENDBRANCH  16  19
ENDBRANCH  15  16
ENDBRANCH   8  15
BRANCH  10  21
HETATM   21  N   UNL     1      -7.970  11.703  68.989  1.00  0.00    -0.343 N  
HETATM   22  H   UNL     1      -7.953  11.947  69.980  1.00  0.00     0.000 HD 
HETATM   23  C   UNL     1      -7.675  10.414  68.603  1.00  0.00    -0.101 C  
HETATM   24  C   UNL     1      -7.391   9.467  69.739  1.00  0.00    -0.092 C  
HETATM   25  O   UNL     1      -7.649  10.044  67.437  1.00  0.00    -0.091 OA 
ENDBRANCH  10  21
ENDBRANCH   4   6
ENDBRANCH   3   4
ENDBRANCH   2   3
TORSDOF 8
ENDMDL
MODEL       82
REMARK 921   NORMALIZED FREE ENERGY PREDICTED BY IDOCK:   -4.25 KCAL/MOL
REMARK 922        TOTAL FREE ENERGY PREDICTED BY IDOCK:   -7.19 KCAL/MOL
REMARK 923 INTER-LIGAND FREE ENERGY PREDICTED BY IDOCK:   -6.10 KCAL/MOL
REMARK 924 INTRA-LIGAND FREE ENERGY PREDICTED BY IDOCK:   -1.08 KCAL/MOL
REMARK 927      BINDING AFFINITY PREDICTED BY RF-SCORE:    0.00 PKD
ROOT
HETATM    1  C   UNL     1     -12.742  13.304  64.899  1.00  0.00    -0.391 C  
HETATM    2  C   UNL     1     -12.175  12.358  63.855  1.00  0.00    -0.513 C  
ENDROOT
BRANCH   2   3
HETATM    3  O   UNL     1     -10.795  12.691  63.679  1.00  0.00    -0.426 OA 
BRANCH   3   4
HETATM    4  C   UNL     1      -9.942  11.638  63.719  1.00  0.00    -0.349 C  
HETATM    5  O   UNL     1      -9.384  11.135  62.754  1.00  0.00    -0.327 OA 
BRANCH   4   6
HETATM    6  C   UNL     1      -9.693  11.201  65.120  1.00  0.00    -0.296 C  
HETATM    7  C   UNL     1      -9.547  12.084  66.118  1.00  0.00    -0.252 C  
HETATM    8  C   UNL     1      -9.543  11.697  67.559  1.00  0.00    -0.171 C  
HETATM    9  H2  UNL     1     -11.338   8.898  67.436  1.00  0.00     0.000 HD 
HETATM   10  C   UNL     1      -9.030  10.254  67.820  1.00  0.00    -0.134 C  
HETATM   11  H1  UNL     1     -10.771   7.642  66.466  1.00  0.00     0.000 HD 
HETATM   12  C   UNL     1      -9.681   9.718  65.318  1.00  0.00    -0.371 C  
HETATM   13  C   UNL     1      -9.402   9.192  66.741  1.00  0.00    -0.165 C  
HETATM   14  N   UNL     1     -10.528   8.337  67.172  1.00  0.00    -0.318 NA 
BRANCH   8  15
HETATM   15  O   UNL     1     -10.897  11.963  67.927  1.00  0.00    -0.196 OA 
BRANCH  15  16
HETATM   16  C   UNL     1     -11.169  12.968  68.898  1.00  0.00    -0.278 C  
BRANCH  16  17
HETATM   17  C   UNL     1     -11.959  12.284  70.029  1.00  0.00    -0.379 C  
HETATM   18  C   UNL     1     -12.600  13.276  70.994  1.00  0.00    -0.408 C  
ENDBRANCH  16  17
BRANCH  16  19
HETATM   19  C   UNL     1     -11.942  14.165  68.317  1.00  0.00    -0.367 C  
HETATM   20  C   UNL     1     -11.061  15.247  67.704  1.00  0.00    -0.323 C  
ENDBRANCH  16  19
ENDBRANCH  15  16
ENDBRANCH   8  15
BRANCH  10  21
HETATM   21  N   UNL     1      -7.573  10.242  68.076  1.00  0.00    -0.087 N  
HETATM   22  H   UNL     1      -6.925  10.316  67.291  1.00  0.00     0.000 HD 
HETATM   23  C   UNL     1      -7.077  10.135  69.357  1.00  0.00    -0.085 C  
HETATM   24  C   UNL     1      -5.575  10.182  69.455  1.00  0.00    -0.037 C  
HETATM   25  O   UNL     1      -7.783  10.017  70.350  1.00  0.00    -0.227 OA 
ENDBRANCH  10  21
ENDBRANCH   4   6
ENDBRANCH   3   4
ENDBRANCH   2   3
TORSDOF 8
ENDMDL
MODEL       83
REMARK 921   NORMALIZED FREE ENERGY PREDICTED BY IDOCK:   -4.25 KCAL/MOL
REMARK 922        TOTAL FREE ENERGY PREDICTED BY IDOCK:   -7.18 KCAL/MOL
REMARK 923 INTER-LIGAND FREE ENERGY PREDICTED BY IDOCK:   -6.11 KCAL/MOL
REMARK 924 INTRA-LIGAND FREE ENERGY PREDICTED BY IDOCK:   -1.07 KCAL/MOL
REMARK 927      BINDING AFFINITY PREDICTED BY RF-SCORE:    0.00 PKD
ROOT
HETATM    1  C   UNL     1     -14.060   8.638  72.170  1.00  0.00    -0.511 C  
HETATM    2  C   UNL     1     -12.546   8.674  72.282  1.00  0.00    -0.395 C  
ENDROOT
BRANCH   2   3
HETATM    3  O   UNL     1     -12.056   9.491  71.215  1.00  0.00    -0.313 OA 
BRANCH   3   4
HETATM    4  C   UNL     1     -10.950   9.015  70.591  1.00  0.00    -0.257 C  
HETATM    5  O   UNL     1     -10.319   8.021  70.918  1.00  0.00    -0.199 OA 
BRANCH   4   6
HETATM    6  C   UNL     1     -10.628   9.820  69.381  1.00  0.00    -0.248 C  
HETATM    7  C   UNL     1     -11.534  10.036  68.417  1.00  0.00    -0.011 C  
HETATM    8  C   UNL     1     -11.341  11.028  67.319  1.00  0.00    -0.188 C  
HETATM    9  H2  UNL     1      -9.247  13.155  68.792  1.00  0.00     0.000 HD 
HETATM   10  C   UNL     1      -9.851  11.271  66.948  1.00  0.00    -0.193 C  
HETATM   11  H1  UNL     1      -7.771  12.554  69.338  1.00  0.00     0.000 HD 
HETATM   12  C   UNL     1      -9.250  10.403  69.368  1.00  0.00    -0.177 C  
HETATM   13  C   UNL     1      -8.838  11.228  68.132  1.00  0.00    -0.159 C  
HETATM   14  N   UNL     1      -8.435  12.582  68.563  1.00  0.00    -0.112 NA 
BRANCH   8  15
HETATM   15  O   UNL     1     -12.057  12.154  67.826  1.00  0.00    -0.508 OA 
BRANCH  15  16
HETATM   16  C   UNL     1     -11.501  13.457  67.676  1.00  0.00    -0.319 C  
BRANCH  16  17
HETATM   17  C   UNL     1     -11.753  14.197  69.003  1.00  0.00    -0.361 C  
HETATM   18  C   UNL     1     -12.145  13.261  70.142  1.00  0.00    -0.403 C  
ENDBRANCH  16  17
BRANCH  16  19
HETATM   19  C   UNL     1     -12.096  14.224  66.483  1.00  0.00    -0.454 C  
HETATM   20  C   UNL     1     -11.083  15.043  65.691  1.00  0.00    -0.349 C  
ENDBRANCH  16  19
ENDBRANCH  15  16
ENDBRANCH   8  15
BRANCH  10  21
HETATM   21  N   UNL     1      -9.417  10.366  65.862  1.00  0.00    -0.179 N  
HETATM   22  H   UNL     1      -8.985   9.471  66.097  1.00  0.00     0.000 HD 
HETATM   23  C   UNL     1      -9.585  10.710  64.539  1.00  0.00    -0.286 C  
HETATM   24  C   UNL     1      -9.132   9.665  63.554  1.00  0.00    -0.211 C  
HETATM   25  O   UNL     1     -10.070  11.773  64.171  1.00  0.00    -0.275 OA 
ENDBRANCH  10  21
ENDBRANCH   4   6
ENDBRANCH   3   4
ENDBRANCH   2   3
TORSDOF 8
ENDMDL
MODEL       84
REMARK 921   NORMALIZED FREE ENERGY PREDICTED BY IDOCK:   -4.25 KCAL/MOL
REMARK 922        TOTAL FREE ENERGY PREDICTED BY IDOCK:   -7.17 KCAL/MOL
REMARK 923 INTER-LIGAND FREE ENERGY PREDICTED BY IDOCK:   -6.14 KCAL/MOL
REMARK 924 INTRA-LIGAND FREE ENERGY PREDICTED BY IDOCK:   -1.03 KCAL/MOL
REMARK 927      BINDING AFFINITY PREDICTED BY RF-SCORE:    0.00 PKD
ROOT
HETATM    1  C   UNL     1     -10.965  15.371  64.842  1.00  0.00    -0.453 C  
HETATM    2  C   UNL     1     -12.371  15.036  64.375  1.00  0.00    -0.266 C  
ENDROOT
BRANCH   2   3
HETATM    3  O   UNL     1     -12.770  13.836  65.042  1.00  0.00    -0.630 OA 
BRANCH   3   4
HETATM    4  C   UNL     1     -12.445  12.687  64.398  1.00  0.00    -0.428 C  
HETATM    5  O   UNL     1     -12.740  12.408  63.245  1.00  0.00    -0.688 OA 
BRANCH   4   6
HETATM    6  C   UNL     1     -11.597  11.813  65.253  1.00  0.00    -0.193 C  
HETATM    7  C   UNL     1     -10.826  10.848  64.729  1.00  0.00    -0.153 C  
HETATM    8  C   UNL     1      -9.784  10.119  65.510  1.00  0.00    -0.281 C  
HETATM    9  H2  UNL     1      -9.068  12.394  67.831  1.00  0.00     0.000 HD 
HETATM   10  C   UNL     1     -10.092  10.022  67.029  1.00  0.00    -0.219 C  
HETATM   11  H1  UNL     1     -10.319  12.920  68.828  1.00  0.00     0.000 HD 
HETATM   12  C   UNL     1     -11.635  12.140  66.712  1.00  0.00    -0.412 C  
HETATM   13  C   UNL     1     -10.800  11.258  67.662  1.00  0.00    -0.238 C  
HETATM   14  N   UNL     1      -9.855  12.111  68.414  1.00  0.00    -0.212 NA 
BRANCH   8  15
HETATM   15  O   UNL     1      -8.605  10.838  65.148  1.00  0.00    -0.178 OA 
BRANCH  15  16
HETATM   16  C   UNL     1      -7.459  10.117  64.707  1.00  0.00    -0.136 C  
BRANCH  16  17
HETATM   17  C   UNL     1      -7.971   8.779  64.144  1.00  0.00    -0.154 C  
HETATM   18  C   UNL     1      -7.438   8.477  62.747  1.00  0.00    -0.102 C  
ENDBRANCH  16  17
BRANCH  16  19
HETATM   19  C   UNL     1      -6.426   9.899  65.827  1.00  0.00    -0.092 C  
HETATM   20  C   UNL     1      -5.882  11.182  66.443  1.00  0.00    -0.148 C  
ENDBRANCH  16  19
ENDBRANCH  15  16
ENDBRANCH   8  15
BRANCH  10  21
HETATM   21  N   UNL     1     -10.833   8.782  67.347  1.00  0.00    -0.451 N  
HETATM   22  H   UNL     1     -11.854   8.796  67.353  1.00  0.00     0.000 HD 
HETATM   23  C   UNL     1     -10.170   7.609  67.634  1.00  0.00    -0.214 C  
HETATM   24  C   UNL     1     -11.065   6.427  67.892  1.00  0.00    -0.370 C  
HETATM   25  O   UNL     1      -8.950   7.513  67.672  1.00  0.00    -0.127 OA 
ENDBRANCH  10  21
ENDBRANCH   4   6
ENDBRANCH   3   4
ENDBRANCH   2   3
TORSDOF 8
ENDMDL
MODEL       85
REMARK 921   NORMALIZED FREE ENERGY PREDICTED BY IDOCK:   -4.24 KCAL/MOL
REMARK 922        TOTAL FREE ENERGY PREDICTED BY IDOCK:   -7.16 KCAL/MOL
REMARK 923 INTER-LIGAND FREE ENERGY PREDICTED BY IDOCK:   -6.21 KCAL/MOL
REMARK 924 INTRA-LIGAND FREE ENERGY PREDICTED BY IDOCK:   -0.95 KCAL/MOL
REMARK 927      BINDING AFFINITY PREDICTED BY RF-SCORE:    0.00 PKD
ROOT
HETATM    1  C   UNL     1     -11.695  14.888  69.186  1.00  0.00    -0.338 C  
HETATM    2  C   UNL     1     -11.013  13.947  68.209  1.00  0.00    -0.255 C  
ENDROOT
BRANCH   2   3
HETATM    3  O   UNL     1     -11.157  12.619  68.721  1.00  0.00    -0.240 OA 
BRANCH   3   4
HETATM    4  C   UNL     1     -11.437  11.673  67.791  1.00  0.00    -0.302 C  
HETATM    5  O   UNL     1     -12.030  11.861  66.739  1.00  0.00    -0.613 OA 
BRANCH   4   6
HETATM    6  C   UNL     1     -10.854  10.357  68.170  1.00  0.00    -0.311 C  
HETATM    7  C   UNL     1     -10.478  10.090  69.429  1.00  0.00    -0.252 C  
HETATM    8  C   UNL     1     -10.124   8.720  69.904  1.00  0.00    -0.191 C  
HETATM    9  H2  UNL     1     -11.877   6.869  67.766  1.00  0.00     0.000 HD 
HETATM   10  C   UNL     1      -9.554   7.797  68.792  1.00  0.00    -0.154 C  
HETATM   11  H1  UNL     1     -11.553   7.047  66.122  1.00  0.00     0.000 HD 
HETATM   12  C   UNL     1     -10.785   9.361  67.056  1.00  0.00    -0.207 C  
HETATM   13  C   UNL     1     -10.168   7.982  67.371  1.00  0.00    -0.261 C  
HETATM   14  N   UNL     1     -11.151   6.926  67.052  1.00  0.00    -0.357 NA 
BRANCH   8  15
HETATM   15  O   UNL     1     -11.351   8.303  70.504  1.00  0.00    -0.267 OA 
BRANCH  15  16
HETATM   16  C   UNL     1     -11.597   8.613  71.872  1.00  0.00    -0.350 C  
BRANCH  16  17
HETATM   17  C   UNL     1     -11.389   7.308  72.662  1.00  0.00    -0.333 C  
HETATM   18  C   UNL     1     -10.172   7.354  73.579  1.00  0.00    -0.400 C  
ENDBRANCH  16  17
BRANCH  16  19
HETATM   19  C   UNL     1     -13.001   9.197  72.108  1.00  0.00    -0.498 C  
HETATM   20  C   UNL     1     -13.114  10.694  71.849  1.00  0.00    -0.563 C  
ENDBRANCH  16  19
ENDBRANCH  15  16
ENDBRANCH   8  15
BRANCH  10  21
HETATM   21  N   UNL     1      -8.078   7.881  68.732  1.00  0.00    -0.124 N  
HETATM   22  H   UNL     1      -7.639   8.674  68.262  1.00  0.00     0.000 HD 
HETATM   23  C   UNL     1      -7.287   6.907  69.300  1.00  0.00    -0.092 C  
HETATM   24  C   UNL     1      -5.806   7.158  69.194  1.00  0.00    -0.019 C  
HETATM   25  O   UNL     1      -7.731   5.913  69.860  1.00  0.00    -0.084 OA 
ENDBRANCH  10  21
ENDBRANCH   4   6
ENDBRANCH   3   4
ENDBRANCH   2   3
TORSDOF 8
ENDMDL
MODEL       86
REMARK 921   NORMALIZED FREE ENERGY PREDICTED BY IDOCK:   -4.23 KCAL/MOL
REMARK 922        TOTAL FREE ENERGY PREDICTED BY IDOCK:   -7.15 KCAL/MOL
REMARK 923 INTER-LIGAND FREE ENERGY PREDICTED BY IDOCK:   -6.57 KCAL/MOL
REMARK 924 INTRA-LIGAND FREE ENERGY PREDICTED BY IDOCK:   -0.58 KCAL/MOL
REMARK 927      BINDING AFFINITY PREDICTED BY RF-SCORE:    0.00 PKD
ROOT
HETATM    1  C   UNL     1     -11.385  16.038  64.776  1.00  0.00    -0.285 C  
HETATM    2  C   UNL     1     -12.148  14.853  64.212  1.00  0.00    -0.353 C  
ENDROOT
BRANCH   2   3
HETATM    3  O   UNL     1     -12.672  14.114  65.319  1.00  0.00    -0.587 OA 
BRANCH   3   4
HETATM    4  C   UNL     1     -11.797  13.255  65.900  1.00  0.00    -0.393 C  
HETATM    5  O   UNL     1     -11.146  12.398  65.319  1.00  0.00    -0.287 OA 
BRANCH   4   6
HETATM    6  C   UNL     1     -11.657  13.534  67.355  1.00  0.00    -0.392 C  
HETATM    7  C   UNL     1     -12.164  12.708  68.282  1.00  0.00     0.060 C  
HETATM    8  C   UNL     1     -11.840  12.812  69.736  1.00  0.00    -0.310 C  
HETATM    9  H2  UNL     1      -8.851  14.268  69.583  1.00  0.00     0.000 HD 
HETATM   10  C   UNL     1     -11.485  14.253  70.198  1.00  0.00    -0.191 C  
HETATM   11  H1  UNL     1      -8.745  15.769  68.827  1.00  0.00     0.000 HD 
HETATM   12  C   UNL     1     -10.864  14.759  67.682  1.00  0.00    -0.285 C  
HETATM   13  C   UNL     1     -10.699  15.124  69.172  1.00  0.00    -0.253 C  
HETATM   14  N   UNL     1      -9.260  15.198  69.498  1.00  0.00    -0.183 NA 
BRANCH   8  15
HETATM   15  O   UNL     1     -10.808  11.834  69.865  1.00  0.00     0.083 OA 
BRANCH  15  16
HETATM   16  C   UNL     1     -11.163  10.459  69.966  1.00  0.00    -0.316 C  
BRANCH  16  17
HETATM   17  C   UNL     1     -12.316  10.376  70.982  1.00  0.00    -0.490 C  
HETATM   18  C   UNL     1     -12.247   9.132  71.863  1.00  0.00    -0.449 C  
ENDBRANCH  16  17
BRANCH  16  19
HETATM   19  C   UNL     1      -9.980   9.567  70.383  1.00  0.00    -0.325 C  
HETATM   20  C   UNL     1      -9.615   8.488  69.370  1.00  0.00    -0.170 C  
ENDBRANCH  16  19
ENDBRANCH  15  16
ENDBRANCH   8  15
BRANCH  10  21
HETATM   21  N   UNL     1     -12.686  14.972  70.675  1.00  0.00    -0.394 N  
HETATM   22  H   UNL     1     -13.215  15.553  70.024  1.00  0.00     0.000 HD 
HETATM   23  C   UNL     1     -13.102  14.872  71.985  1.00  0.00    -0.338 C  
HETATM   24  C   UNL     1     -14.364  15.628  72.303  1.00  0.00    -0.480 C  
HETATM   25  O   UNL     1     -12.512  14.218  72.836  1.00  0.00    -0.229 OA 
ENDBRANCH  10  21
ENDBRANCH   4   6
ENDBRANCH   3   4
ENDBRANCH   2   3
TORSDOF 8
ENDMDL
MODEL       87
REMARK 921   NORMALIZED FREE ENERGY PREDICTED BY IDOCK:   -4.23 KCAL/MOL
REMARK 922        TOTAL FREE ENERGY PREDICTED BY IDOCK:   -7.14 KCAL/MOL
REMARK 923 INTER-LIGAND FREE ENERGY PREDICTED BY IDOCK:   -5.98 KCAL/MOL
REMARK 924 INTRA-LIGAND FREE ENERGY PREDICTED BY IDOCK:   -1.16 KCAL/MOL
REMARK 927      BINDING AFFINITY PREDICTED BY RF-SCORE:    0.00 PKD
ROOT
HETATM    1  C   UNL     1      -7.061  17.156  68.434  1.00  0.00    -0.206 C  
HETATM    2  C   UNL     1      -6.067  16.335  67.632  1.00  0.00    -0.149 C  
ENDROOT
BRANCH   2   3
HETATM    3  O   UNL     1      -6.789  15.256  67.031  1.00  0.00    -0.242 OA 
BRANCH   3   4
HETATM    4  C   UNL     1      -6.766  14.093  67.729  1.00  0.00    -0.177 C  
HETATM    5  O   UNL     1      -5.784  13.605  68.270  1.00  0.00    -0.085 OA 
BRANCH   4   6
HETATM    6  C   UNL     1      -8.127  13.500  67.830  1.00  0.00    -0.177 C  
HETATM    7  C   UNL     1      -9.231  14.232  67.622  1.00  0.00    -0.194 C  
HETATM    8  C   UNL     1     -10.591  13.636  67.470  1.00  0.00    -0.241 C  
HETATM    9  H2  UNL     1      -9.799  10.607  66.343  1.00  0.00     0.000 HD 
HETATM   10  C   UNL     1     -10.774  12.289  68.223  1.00  0.00    -0.221 C  
HETATM   11  H1  UNL     1      -8.816   9.641  67.311  1.00  0.00     0.000 HD 
HETATM   12  C   UNL     1      -8.149  12.032  68.118  1.00  0.00    -0.160 C  
HETATM   13  C   UNL     1      -9.527  11.355  68.262  1.00  0.00    -0.187 C  
HETATM   14  N   UNL     1      -9.632  10.252  67.285  1.00  0.00    -0.157 NA 
BRANCH   8  15
HETATM   15  O   UNL     1     -10.721  13.589  66.049  1.00  0.00    -0.275 OA 
BRANCH  15  16
HETATM   16  C   UNL     1     -12.017  13.689  65.466  1.00  0.00    -0.384 C  
BRANCH  16  17
HETATM   17  C   UNL     1     -12.278  12.354  64.744  1.00  0.00    -0.493 C  
HETATM   18  C   UNL     1     -11.036  11.792  64.062  1.00  0.00    -0.451 C  
ENDBRANCH  16  17
BRANCH  16  19
HETATM   19  C   UNL     1     -12.147  14.883  64.504  1.00  0.00    -0.420 C  
HETATM   20  C   UNL     1     -11.119  15.986  64.725  1.00  0.00    -0.378 C  
ENDBRANCH  16  19
ENDBRANCH  15  16
ENDBRANCH   8  15
BRANCH  10  21
HETATM   21  N   UNL     1     -11.301  12.507  69.588  1.00  0.00    -0.479 N  
HETATM   22  H   UNL     1     -10.974  13.307  70.130  1.00  0.00     0.000 HD 
HETATM   23  C   UNL     1     -12.226  11.647  70.139  1.00  0.00    -0.288 C  
HETATM   24  C   UNL     1     -12.697  12.029  71.517  1.00  0.00    -0.360 C  
HETATM   25  O   UNL     1     -12.651  10.652  69.567  1.00  0.00    -0.259 OA 
ENDBRANCH  10  21
ENDBRANCH   4   6
ENDBRANCH   3   4
ENDBRANCH   2   3
TORSDOF 8
ENDMDL
MODEL       88
REMARK 921   NORMALIZED FREE ENERGY PREDICTED BY IDOCK:   -4.22 KCAL/MOL
REMARK 922        TOTAL FREE ENERGY PREDICTED BY IDOCK:   -7.13 KCAL/MOL
REMARK 923 INTER-LIGAND FREE ENERGY PREDICTED BY IDOCK:   -6.43 KCAL/MOL
REMARK 924 INTRA-LIGAND FREE ENERGY PREDICTED BY IDOCK:   -0.71 KCAL/MOL
REMARK 927      BINDING AFFINITY PREDICTED BY RF-SCORE:    0.00 PKD
ROOT
HETATM    1  C   UNL     1     -10.116   9.784  70.056  1.00  0.00    -0.301 C  
HETATM    2  C   UNL     1      -9.390   9.580  68.738  1.00  0.00    -0.146 C  
ENDROOT
BRANCH   2   3
HETATM    3  O   UNL     1      -8.747  10.814  68.407  1.00  0.00    -0.129 OA 
BRANCH   3   4
HETATM    4  C   UNL     1      -9.172  11.390  67.256  1.00  0.00    -0.165 C  
HETATM    5  O   UNL     1      -9.079  10.904  66.138  1.00  0.00    -0.171 OA 
BRANCH   4   6
HETATM    6  C   UNL     1      -9.855  12.686  67.523  1.00  0.00    -0.203 C  
HETATM    7  C   UNL     1      -9.500  13.470  68.551  1.00  0.00    -0.131 C  
HETATM    8  C   UNL     1      -9.980  14.874  68.712  1.00  0.00    -0.228 C  
HETATM    9  H2  UNL     1     -10.602  15.667  65.541  1.00  0.00     0.000 HD 
HETATM   10  C   UNL     1     -11.374  15.138  68.078  1.00  0.00    -0.337 C  
HETATM   11  H1  UNL     1     -11.724  14.732  64.702  1.00  0.00     0.000 HD 
HETATM   12  C   UNL     1     -10.910  13.052  66.527  1.00  0.00    -0.294 C  
HETATM   13  C   UNL     1     -11.678  14.370  66.756  1.00  0.00    -0.397 C  
HETATM   14  N   UNL     1     -11.525  15.235  65.567  1.00  0.00    -0.221 NA 
BRANCH   8  15
HETATM   15  O   UNL     1      -8.887  15.611  68.165  1.00  0.00    -0.171 OA 
BRANCH  15  16
HETATM   16  C   UNL     1      -9.128  16.897  67.601  1.00  0.00    -0.223 C  
BRANCH  16  17
HETATM   17  C   UNL     1      -8.298  16.972  66.306  1.00  0.00    -0.308 C  
HETATM   18  C   UNL     1      -6.796  17.040  66.564  1.00  0.00    -0.281 C  
ENDBRANCH  16  17
BRANCH  16  19
HETATM   19  C   UNL     1      -8.774  18.045  68.563  1.00  0.00    -0.304 C  
HETATM   20  C   UNL     1      -9.880  19.076  68.750  1.00  0.00    -0.485 C  
ENDBRANCH  16  19
ENDBRANCH  15  16
ENDBRANCH   8  15
BRANCH  10  21
HETATM   21  N   UNL     1     -12.458  14.924  69.061  1.00  0.00    -0.583 N  
HETATM   22  H   UNL     1     -13.267  14.360  68.801  1.00  0.00     0.000 HD 
HETATM   23  C   UNL     1     -12.393  15.474  70.323  1.00  0.00    -0.396 C  
HETATM   24  C   UNL     1     -13.551  15.129  71.220  1.00  0.00    -0.559 C  
HETATM   25  O   UNL     1     -11.472  16.183  70.707  1.00  0.00    -0.393 OA 
ENDBRANCH  10  21
ENDBRANCH   4   6
ENDBRANCH   3   4
ENDBRANCH   2   3
TORSDOF 8
ENDMDL
MODEL       89
REMARK 921   NORMALIZED FREE ENERGY PREDICTED BY IDOCK:   -4.21 KCAL/MOL
REMARK 922        TOTAL FREE ENERGY PREDICTED BY IDOCK:   -7.11 KCAL/MOL
REMARK 923 INTER-LIGAND FREE ENERGY PREDICTED BY IDOCK:   -5.76 KCAL/MOL
REMARK 924 INTRA-LIGAND FREE ENERGY PREDICTED BY IDOCK:   -1.36 KCAL/MOL
REMARK 927      BINDING AFFINITY PREDICTED BY RF-SCORE:    0.00 PKD
ROOT
HETATM    1  C   UNL     1     -11.879  12.249  69.940  1.00  0.00    -0.383 C  
HETATM    2  C   UNL     1     -12.333  10.815  70.142  1.00  0.00    -0.325 C  
ENDROOT
BRANCH   2   3
HETATM    3  O   UNL     1     -12.024  10.453  71.491  1.00  0.00    -0.333 OA 
BRANCH   3   4
HETATM    4  C   UNL     1     -12.676   9.358  71.954  1.00  0.00    -0.401 C  
HETATM    5  O   UNL     1     -13.815   9.340  72.397  1.00  0.00    -0.470 OA 
BRANCH   4   6
HETATM    6  C   UNL     1     -11.852   8.129  71.784  1.00  0.00    -0.346 C  
HETATM    7  C   UNL     1     -12.262   7.106  71.020  1.00  0.00    -0.384 C  
HETATM    8  C   UNL     1     -11.374   5.974  70.624  1.00  0.00    -0.231 C  
HETATM    9  H2  UNL     1      -8.399   7.456  70.785  1.00  0.00     0.000 HD 
HETATM   10  C   UNL     1     -10.243   5.676  71.647  1.00  0.00    -0.208 C  
HETATM   11  H1  UNL     1      -7.927   8.112  72.262  1.00  0.00     0.000 HD 
HETATM   12  C   UNL     1     -10.528   8.165  72.479  1.00  0.00    -0.409 C  
HETATM   13  C   UNL     1      -9.631   6.915  72.367  1.00  0.00    -0.153 C  
HETATM   14  N   UNL     1      -8.327   7.301  71.790  1.00  0.00    -0.104 NA 
BRANCH   8  15
HETATM   15  O   UNL     1     -10.957   6.384  69.322  1.00  0.00    -0.287 OA 
BRANCH  15  16
HETATM   16  C   UNL     1      -9.687   5.962  68.834  1.00  0.00    -0.135 C  
BRANCH  16  17
HETATM   17  C   UNL     1      -9.024   7.202  68.206  1.00  0.00    -0.125 C  
HETATM   18  C   UNL     1      -9.802   8.488  68.462  1.00  0.00    -0.186 C  
ENDBRANCH  16  17
BRANCH  16  19
HETATM   19  C   UNL     1      -9.792   4.807  67.823  1.00  0.00    -0.194 C  
HETATM   20  C   UNL     1     -10.438   5.186  66.496  1.00  0.00    -0.346 C  
ENDBRANCH  16  19
ENDBRANCH  15  16
ENDBRANCH   8  15
BRANCH  10  21
HETATM   21  N   UNL     1     -10.670   4.661  72.635  1.00  0.00    -0.201 N  
HETATM   22  H   UNL     1     -11.168   4.957  73.475  1.00  0.00     0.000 HD 
HETATM   23  C   UNL     1     -10.407   3.323  72.440  1.00  0.00    -0.077 C  
HETATM   24  C   UNL     1     -10.944   2.413  73.512  1.00  0.00    -0.299 C  
HETATM   25  O   UNL     1      -9.795   2.886  71.474  1.00  0.00    -0.162 OA 
ENDBRANCH  10  21
ENDBRANCH   4   6
ENDBRANCH   3   4
ENDBRANCH   2   3
TORSDOF 8
ENDMDL
MODEL       90
REMARK 921   NORMALIZED FREE ENERGY PREDICTED BY IDOCK:   -4.20 KCAL/MOL
REMARK 922        TOTAL FREE ENERGY PREDICTED BY IDOCK:   -7.11 KCAL/MOL
REMARK 923 INTER-LIGAND FREE ENERGY PREDICTED BY IDOCK:   -6.02 KCAL/MOL
REMARK 924 INTRA-LIGAND FREE ENERGY PREDICTED BY IDOCK:   -1.09 KCAL/MOL
REMARK 927      BINDING AFFINITY PREDICTED BY RF-SCORE:    0.00 PKD
ROOT
HETATM    1  C   UNL     1     -14.226   7.514  71.487  1.00  0.00    -0.580 C  
HETATM    2  C   UNL     1     -12.748   7.628  71.160  1.00  0.00    -0.206 C  
ENDROOT
BRANCH   2   3
HETATM    3  O   UNL     1     -12.272   8.843  71.746  1.00  0.00    -0.314 OA 
BRANCH   3   4
HETATM    4  C   UNL     1     -10.924   8.986  71.754  1.00  0.00    -0.372 C  
HETATM    5  O   UNL     1     -10.156   8.462  72.549  1.00  0.00    -0.295 OA 
BRANCH   4   6
HETATM    6  C   UNL     1     -10.463   9.812  70.605  1.00  0.00    -0.358 C  
HETATM    7  C   UNL     1      -9.185   9.805  70.200  1.00  0.00    -0.253 C  
HETATM    8  C   UNL     1      -8.730  10.417  68.916  1.00  0.00    -0.157 C  
HETATM    9  H2  UNL     1     -11.534  10.231  67.134  1.00  0.00     0.000 HD 
HETATM   10  C   UNL     1      -9.609  11.607  68.443  1.00  0.00    -0.195 C  
HETATM   11  H1  UNL     1     -12.899  11.015  67.732  1.00  0.00     0.000 HD 
HETATM   12  C   UNL     1     -11.544  10.589  69.923  1.00  0.00    -0.384 C  
HETATM   13  C   UNL     1     -11.135  11.489  68.738  1.00  0.00    -0.233 C  
HETATM   14  N   UNL     1     -11.901  11.092  67.539  1.00  0.00    -0.558 NA 
BRANCH   8  15
HETATM   15  O   UNL     1      -8.694   9.277  68.057  1.00  0.00    -0.124 OA 
BRANCH  15  16
HETATM   16  C   UNL     1      -8.714   9.469  66.646  1.00  0.00    -0.134 C  
BRANCH  16  17
HETATM   17  C   UNL     1      -9.890   8.636  66.106  1.00  0.00    -0.269 C  
HETATM   18  C   UNL     1     -10.524   7.742  67.166  1.00  0.00    -0.413 C  
ENDBRANCH  16  17
BRANCH  16  19
HETATM   19  C   UNL     1      -7.388   9.074  65.973  1.00  0.00    -0.094 C  
HETATM   20  C   UNL     1      -6.862  10.093  64.969  1.00  0.00    -0.132 C  
ENDBRANCH  16  19
ENDBRANCH  15  16
ENDBRANCH   8  15
BRANCH  10  21
HETATM   21  N   UNL     1      -9.083  12.894  68.948  1.00  0.00    -0.362 N  
HETATM   22  H   UNL     1      -8.948  13.022  69.951  1.00  0.00     0.000 HD 
HETATM   23  C   UNL     1      -8.771  13.923  68.086  1.00  0.00    -0.182 C  
HETATM   24  C   UNL     1      -8.206  15.150  68.749  1.00  0.00    -0.169 C  
HETATM   25  O   UNL     1      -8.927  13.862  66.873  1.00  0.00    -0.234 OA 
ENDBRANCH  10  21
ENDBRANCH   4   6
ENDBRANCH   3   4
ENDBRANCH   2   3
TORSDOF 8
ENDMDL
MODEL       91
REMARK 921   NORMALIZED FREE ENERGY PREDICTED BY IDOCK:   -4.20 KCAL/MOL
REMARK 922        TOTAL FREE ENERGY PREDICTED BY IDOCK:   -7.11 KCAL/MOL
REMARK 923 INTER-LIGAND FREE ENERGY PREDICTED BY IDOCK:   -6.30 KCAL/MOL
REMARK 924 INTRA-LIGAND FREE ENERGY PREDICTED BY IDOCK:   -0.81 KCAL/MOL
REMARK 927      BINDING AFFINITY PREDICTED BY RF-SCORE:    0.00 PKD
ROOT
HETATM    1  C   UNL     1      -6.570  20.997  67.385  1.00  0.00    -0.439 C  
HETATM    2  C   UNL     1      -7.568  20.183  66.581  1.00  0.00    -0.280 C  
ENDROOT
BRANCH   2   3
HETATM    3  O   UNL     1      -8.418  19.506  67.511  1.00  0.00    -0.288 OA 
BRANCH   3   4
HETATM    4  C   UNL     1      -9.417  18.780  66.950  1.00  0.00    -0.310 C  
HETATM    5  O   UNL     1      -9.964  19.023  65.885  1.00  0.00    -0.477 OA 
BRANCH   4   6
HETATM    6  C   UNL     1      -9.727  17.574  67.765  1.00  0.00    -0.274 C  
HETATM    7  C   UNL     1     -10.876  16.899  67.616  1.00  0.00    -0.244 C  
HETATM    8  C   UNL     1     -11.124  15.559  68.225  1.00  0.00    -0.322 C  
HETATM    9  H2  UNL     1      -8.005  14.427  68.477  1.00  0.00     0.000 HD 
HETATM   10  C   UNL     1     -10.331  15.310  69.537  1.00  0.00    -0.262 C  
HETATM   11  H1  UNL     1      -6.916  15.323  69.398  1.00  0.00     0.000 HD 
HETATM   12  C   UNL     1      -8.639  17.157  68.703  1.00  0.00    -0.260 C  
HETATM   13  C   UNL     1      -8.901  15.929  69.599  1.00  0.00     0.010 C  
HETATM   14  N   UNL     1      -7.851  14.918  69.358  1.00  0.00    -0.168 NA 
BRANCH   8  15
HETATM   15  O   UNL     1     -10.824  14.692  67.131  1.00  0.00    -0.290 OA 
BRANCH  15  16
HETATM   16  C   UNL     1     -10.504  13.329  67.392  1.00  0.00    -0.243 C  
BRANCH  16  17
HETATM   17  C   UNL     1      -9.220  13.020  66.600  1.00  0.00    -0.222 C  
HETATM   18  C   UNL     1      -8.160  12.311  67.436  1.00  0.00    -0.175 C  
ENDBRANCH  16  17
BRANCH  16  19
HETATM   19  C   UNL     1     -11.643  12.366  67.014  1.00  0.00    -0.434 C  
HETATM   20  C   UNL     1     -11.234  11.244  66.068  1.00  0.00    -0.108 C  
ENDBRANCH  16  19
ENDBRANCH  15  16
ENDBRANCH   8  15
BRANCH  10  21
HETATM   21  N   UNL     1     -11.119  15.712  70.723  1.00  0.00    -0.341 N  
HETATM   22  H   UNL     1     -10.996  16.646  71.114  1.00  0.00     0.000 HD 
HETATM   23  C   UNL     1     -12.018  14.845  71.307  1.00  0.00    -0.340 C  
HETATM   24  C   UNL     1     -12.774  15.417  72.476  1.00  0.00    -0.480 C  
HETATM   25  O   UNL     1     -12.207  13.701  70.916  1.00  0.00    -0.348 OA 
ENDBRANCH  10  21
ENDBRANCH   4   6
ENDBRANCH   3   4
ENDBRANCH   2   3
TORSDOF 8
ENDMDL
MODEL       92
REMARK 921   NORMALIZED FREE ENERGY PREDICTED BY IDOCK:   -4.18 KCAL/MOL
REMARK 922        TOTAL FREE ENERGY PREDICTED BY IDOCK:   -7.07 KCAL/MOL
REMARK 923 INTER-LIGAND FREE ENERGY PREDICTED BY IDOCK:   -6.08 KCAL/MOL
REMARK 924 INTRA-LIGAND FREE ENERGY PREDICTED BY IDOCK:   -0.99 KCAL/MOL
REMARK 927      BINDING AFFINITY PREDICTED BY RF-SCORE:    0.00 PKD
ROOT
HETATM    1  C   UNL     1      -8.148   6.063  68.540  1.00  0.00    -0.107 C  
HETATM    2  C   UNL     1      -9.037   6.988  69.350  1.00  0.00    -0.145 C  
ENDROOT
BRANCH   2   3
HETATM    3  O   UNL     1      -8.416   8.277  69.365  1.00  0.00    -0.120 OA 
BRANCH   3   4
HETATM    4  C   UNL     1      -8.765   9.069  70.409  1.00  0.00    -0.199 C  
HETATM    5  O   UNL     1      -8.286   9.020  71.533  1.00  0.00    -0.304 OA 
BRANCH   4   6
HETATM    6  C   UNL     1      -9.770  10.087  69.999  1.00  0.00    -0.224 C  
HETATM    7  C   UNL     1      -9.532  10.949  69.000  1.00  0.00    -0.160 C  
HETATM    8  C   UNL     1     -10.589  11.813  68.395  1.00  0.00    -0.216 C  
HETATM    9  H2  UNL     1     -13.298   9.990  69.039  1.00  0.00     0.000 HD 
HETATM   10  C   UNL     1     -11.740  12.175  69.375  1.00  0.00    -0.329 C  
HETATM   11  H1  UNL     1     -13.645   9.639  70.649  1.00  0.00     0.000 HD 
HETATM   12  C   UNL     1     -11.064  10.022  70.746  1.00  0.00    -0.407 C  
HETATM   13  C   UNL     1     -12.144  11.065  70.392  1.00  0.00    -0.373 C  
HETATM   14  N   UNL     1     -13.380  10.365  69.983  1.00  0.00     0.177 NA 
BRANCH   8  15
HETATM   15  O   UNL     1     -10.954  11.049  67.246  1.00  0.00    -0.267 OA 
BRANCH  15  16
HETATM   16  C   UNL     1     -10.469  11.445  65.966  1.00  0.00    -0.255 C  
BRANCH  16  17
HETATM   17  C   UNL     1     -11.640  12.141  65.248  1.00  0.00    -0.376 C  
HETATM   18  C   UNL     1     -11.650  11.890  63.744  1.00  0.00    -0.555 C  
ENDBRANCH  16  17
BRANCH  16  19
HETATM   19  C   UNL     1      -9.927  10.263  65.143  1.00  0.00    -0.395 C  
HETATM   20  C   UNL     1      -9.753   8.971  65.933  1.00  0.00    -0.306 C  
ENDBRANCH  16  19
ENDBRANCH  15  16
ENDBRANCH   8  15
BRANCH  10  21
HETATM   21  N   UNL     1     -11.462  13.446  70.079  1.00  0.00    -0.510 N  
HETATM   22  H   UNL     1     -11.197  13.426  71.064  1.00  0.00     0.000 HD 
HETATM   23  C   UNL     1     -11.556  14.656  69.427  1.00  0.00    -0.305 C  
HETATM   24  C   UNL     1     -11.201  15.853  70.268  1.00  0.00    -0.388 C  
HETATM   25  O   UNL     1     -11.892  14.770  68.255  1.00  0.00    -0.320 OA 
ENDBRANCH  10  21
ENDBRANCH   4   6
ENDBRANCH   3   4
ENDBRANCH   2   3
TORSDOF 8
ENDMDL
MODEL       93
REMARK 921   NORMALIZED FREE ENERGY PREDICTED BY IDOCK:   -4.18 KCAL/MOL
REMARK 922        TOTAL FREE ENERGY PREDICTED BY IDOCK:   -7.07 KCAL/MOL
REMARK 923 INTER-LIGAND FREE ENERGY PREDICTED BY IDOCK:   -5.89 KCAL/MOL
REMARK 924 INTRA-LIGAND FREE ENERGY PREDICTED BY IDOCK:   -1.18 KCAL/MOL
REMARK 927      BINDING AFFINITY PREDICTED BY RF-SCORE:    0.00 PKD
ROOT
HETATM    1  C   UNL     1     -12.017  14.018  69.853  1.00  0.00    -0.399 C  
HETATM    2  C   UNL     1     -12.227  12.849  70.799  1.00  0.00    -0.260 C  
ENDROOT
BRANCH   2   3
HETATM    3  O   UNL     1     -12.356  11.669  70.000  1.00  0.00    -0.255 OA 
BRANCH   3   4
HETATM    4  C   UNL     1     -11.324  10.795  70.099  1.00  0.00    -0.309 C  
HETATM    5  O   UNL     1     -11.057  10.114  71.077  1.00  0.00    -0.323 OA 
BRANCH   4   6
HETATM    6  C   UNL     1     -10.576  10.699  68.815  1.00  0.00    -0.234 C  
HETATM    7  C   UNL     1     -11.210  10.594  67.637  1.00  0.00    -0.361 C  
HETATM    8  C   UNL     1     -10.521  10.743  66.321  1.00  0.00    -0.226 C  
HETATM    9  H2  UNL     1      -7.958  12.675  67.198  1.00  0.00     0.000 HD 
HETATM   10  C   UNL     1      -9.021  10.338  66.349  1.00  0.00    -0.148 C  
HETATM   11  H1  UNL     1      -6.902  12.095  68.376  1.00  0.00     0.000 HD 
HETATM   12  C   UNL     1      -9.089  10.789  68.950  1.00  0.00    -0.170 C  
HETATM   13  C   UNL     1      -8.249  10.671  67.662  1.00  0.00    -0.107 C  
HETATM   14  N   UNL     1      -7.408  11.877  67.517  1.00  0.00    -0.122 NA 
BRANCH   8  15
HETATM   15  O   UNL     1     -10.802  12.107  66.008  1.00  0.00    -0.263 OA 
BRANCH  15  16
HETATM   16  C   UNL     1     -10.219  12.687  64.845  1.00  0.00    -0.272 C  
BRANCH  16  17
HETATM   17  C   UNL     1     -10.351  14.213  65.003  1.00  0.00    -0.443 C  
HETATM   18  C   UNL     1      -9.585  14.758  66.204  1.00  0.00    -0.338 C  
ENDBRANCH  16  17
BRANCH  16  19
HETATM   19  C   UNL     1     -10.873  12.197  63.542  1.00  0.00    -0.518 C  
HETATM   20  C   UNL     1     -12.385  12.382  63.487  1.00  0.00    -0.648 C  
ENDBRANCH  16  19
ENDBRANCH  15  16
ENDBRANCH   8  15
BRANCH  10  21
HETATM   21  N   UNL     1      -8.845   8.913  65.993  1.00  0.00    -0.160 N  
HETATM   22  H   UNL     1      -9.443   8.210  66.427  1.00  0.00     0.000 HD 
HETATM   23  C   UNL     1      -7.888   8.521  65.083  1.00  0.00    -0.116 C  
HETATM   24  C   UNL     1      -7.863   7.043  64.794  1.00  0.00    -0.126 C  
HETATM   25  O   UNL     1      -7.114   9.296  64.535  1.00  0.00    -0.090 OA 
ENDBRANCH  10  21
ENDBRANCH   4   6
ENDBRANCH   3   4
ENDBRANCH   2   3
TORSDOF 8
ENDMDL
MODEL       94
REMARK 921   NORMALIZED FREE ENERGY PREDICTED BY IDOCK:   -4.12 KCAL/MOL
REMARK 922        TOTAL FREE ENERGY PREDICTED BY IDOCK:   -6.99 KCAL/MOL
REMARK 923 INTER-LIGAND FREE ENERGY PREDICTED BY IDOCK:   -5.80 KCAL/MOL
REMARK 924 INTRA-LIGAND FREE ENERGY PREDICTED BY IDOCK:   -1.19 KCAL/MOL
REMARK 927      BINDING AFFINITY PREDICTED BY RF-SCORE:    0.00 PKD
ROOT
HETATM    1  C   UNL     1      -8.449  19.920  66.769  1.00  0.00    -0.377 C  
HETATM    2  C   UNL     1      -9.914  20.050  66.393  1.00  0.00    -0.481 C  
ENDROOT
BRANCH   2   3
HETATM    3  O   UNL     1     -10.614  18.968  67.015  1.00  0.00    -0.421 OA 
BRANCH   3   4
HETATM    4  C   UNL     1     -10.657  17.822  66.291  1.00  0.00    -0.220 C  
HETATM    5  O   UNL     1     -10.788  17.749  65.078  1.00  0.00    -0.774 OA 
BRANCH   4   6
HETATM    6  C   UNL     1     -10.442  16.631  67.157  1.00  0.00    -0.300 C  
HETATM    7  C   UNL     1      -9.271  15.977  67.178  1.00  0.00    -0.221 C  
HETATM    8  C   UNL     1      -8.929  14.943  68.198  1.00  0.00    -0.176 C  
HETATM    9  H2  UNL     1     -10.870  15.919  70.719  1.00  0.00     0.000 HD 
HETATM   10  C   UNL     1     -10.163  14.188  68.765  1.00  0.00    -0.215 C  
HETATM   11  H1  UNL     1     -12.531  15.985  70.452  1.00  0.00     0.000 HD 
HETATM   12  C   UNL     1     -11.604  16.274  68.028  1.00  0.00    -0.012 C  
HETATM   13  C   UNL     1     -11.461  15.034  68.935  1.00  0.00    -0.314 C  
HETATM   14  N   UNL     1     -11.682  15.432  70.341  1.00  0.00    -0.290 NA 
BRANCH   8  15
HETATM   15  O   UNL     1      -8.172  15.709  69.135  1.00  0.00    -0.212 OA 
BRANCH  15  16
HETATM   16  C   UNL     1      -6.826  15.335  69.413  1.00  0.00    -0.172 C  
BRANCH  16  17
HETATM   17  C   UNL     1      -5.929  16.383  68.729  1.00  0.00    -0.124 C  
HETATM   18  C   UNL     1      -6.273  17.814  69.127  1.00  0.00    -0.230 C  
ENDBRANCH  16  17
BRANCH  16  19
HETATM   19  C   UNL     1      -6.493  13.911  68.935  1.00  0.00    -0.098 C  
HETATM   20  C   UNL     1      -5.200  13.799  68.137  1.00  0.00    -0.109 C  
ENDBRANCH  16  19
ENDBRANCH  15  16
ENDBRANCH   8  15
BRANCH  10  21
HETATM   21  N   UNL     1     -10.444  12.962  67.987  1.00  0.00    -0.224 N  
HETATM   22  H   UNL     1     -10.213  12.934  66.993  1.00  0.00     0.000 HD 
HETATM   23  C   UNL     1     -11.011  11.856  68.581  1.00  0.00    -0.228 C  
HETATM   24  C   UNL     1     -11.192  10.674  67.667  1.00  0.00    -0.361 C  
HETATM   25  O   UNL     1     -11.341  11.814  69.760  1.00  0.00    -0.244 OA 
ENDBRANCH  10  21
ENDBRANCH   4   6
ENDBRANCH   3   4
ENDBRANCH   2   3
TORSDOF 8
ENDMDL
MODEL       95
REMARK 921   NORMALIZED FREE ENERGY PREDICTED BY IDOCK:   -4.12 KCAL/MOL
REMARK 922        TOTAL FREE ENERGY PREDICTED BY IDOCK:   -6.98 KCAL/MOL
REMARK 923 INTER-LIGAND FREE ENERGY PREDICTED BY IDOCK:   -6.12 KCAL/MOL
REMARK 924 INTRA-LIGAND FREE ENERGY PREDICTED BY IDOCK:   -0.86 KCAL/MOL
REMARK 927      BINDING AFFINITY PREDICTED BY RF-SCORE:    0.00 PKD
ROOT
HETATM    1  C   UNL     1     -11.989  13.547  68.505  1.00  0.00    -0.379 C  
HETATM    2  C   UNL     1     -11.657  12.541  67.418  1.00  0.00    -0.370 C  
ENDROOT
BRANCH   2   3
HETATM    3  O   UNL     1     -10.919  13.231  66.405  1.00  0.00    -0.285 OA 
BRANCH   3   4
HETATM    4  C   UNL     1      -9.571  13.140  66.517  1.00  0.00    -0.268 C  
HETATM    5  O   UNL     1      -8.912  12.119  66.393  1.00  0.00    -0.200 OA 
BRANCH   4   6
HETATM    6  C   UNL     1      -8.959  14.480  66.736  1.00  0.00    -0.270 C  
HETATM    7  C   UNL     1      -9.485  15.591  66.200  1.00  0.00    -0.376 C  
HETATM    8  C   UNL     1      -9.058  16.967  66.589  1.00  0.00    -0.254 C  
HETATM    9  H2  UNL     1      -7.951  16.407  69.676  1.00  0.00     0.000 HD 
HETATM   10  C   UNL     1      -7.586  17.054  67.076  1.00  0.00    -0.189 C  
HETATM   11  H1  UNL     1      -6.695  15.302  69.873  1.00  0.00     0.000 HD 
HETATM   12  C   UNL     1      -7.765  14.480  67.637  1.00  0.00    -0.194 C  
HETATM   13  C   UNL     1      -7.063  15.831  67.889  1.00  0.00    -0.133 C  
HETATM   14  N   UNL     1      -7.038  16.102  69.341  1.00  0.00    -0.222 NA 
BRANCH   8  15
HETATM   15  O   UNL     1     -10.062  17.315  67.543  1.00  0.00    -0.293 OA 
BRANCH  15  16
HETATM   16  C   UNL     1     -10.824  18.502  67.348  1.00  0.00    -0.294 C  
BRANCH  16  17
HETATM   17  C   UNL     1     -10.717  18.853  65.853  1.00  0.00    -0.366 C  
HETATM   18  C   UNL     1     -10.427  20.330  65.606  1.00  0.00    -0.201 C  
ENDBRANCH  16  17
BRANCH  16  19
HETATM   19  C   UNL     1     -10.350  19.667  68.234  1.00  0.00    -0.539 C  
HETATM   20  C   UNL     1      -9.042  19.408  68.971  1.00  0.00    -0.297 C  
ENDBRANCH  16  19
ENDBRANCH  15  16
ENDBRANCH   8  15
BRANCH  10  21
HETATM   21  N   UNL     1      -6.669  17.361  65.956  1.00  0.00    -0.221 N  
HETATM   22  H   UNL     1      -6.185  16.598  65.481  1.00  0.00     0.000 HD 
HETATM   23  C   UNL     1      -6.458  18.658  65.545  1.00  0.00    -0.286 C  
HETATM   24  C   UNL     1      -5.533  18.802  64.366  1.00  0.00    -0.248 C  
HETATM   25  O   UNL     1      -6.979  19.631  66.076  1.00  0.00    -0.235 OA 
ENDBRANCH  10  21
ENDBRANCH   4   6
ENDBRANCH   3   4
ENDBRANCH   2   3
TORSDOF 8
ENDMDL
MODEL       96
REMARK 921   NORMALIZED FREE ENERGY PREDICTED BY IDOCK:   -4.11 KCAL/MOL
REMARK 922        TOTAL FREE ENERGY PREDICTED BY IDOCK:   -6.97 KCAL/MOL
REMARK 923 INTER-LIGAND FREE ENERGY PREDICTED BY IDOCK:   -6.08 KCAL/MOL
REMARK 924 INTRA-LIGAND FREE ENERGY PREDICTED BY IDOCK:   -0.89 KCAL/MOL
REMARK 927      BINDING AFFINITY PREDICTED BY RF-SCORE:    0.00 PKD
ROOT
HETATM    1  C   UNL     1      -9.885  18.487  66.628  1.00  0.00    -0.370 C  
HETATM    2  C   UNL     1     -10.507  18.098  67.957  1.00  0.00    -0.371 C  
ENDROOT
BRANCH   2   3
HETATM    3  O   UNL     1     -11.150  16.833  67.776  1.00  0.00    -0.269 OA 
BRANCH   3   4
HETATM    4  C   UNL     1     -11.035  15.977  68.822  1.00  0.00    -0.320 C  
HETATM    5  O   UNL     1     -11.612  16.081  69.895  1.00  0.00    -0.324 OA 
BRANCH   4   6
HETATM    6  C   UNL     1     -10.163  14.821  68.478  1.00  0.00    -0.232 C  
HETATM    7  C   UNL     1     -10.667  13.680  67.986  1.00  0.00    -0.258 C  
HETATM    8  C   UNL     1      -9.822  12.598  67.401  1.00  0.00    -0.205 C  
HETATM    9  H2  UNL     1      -7.182  14.364  66.409  1.00  0.00     0.000 HD 
HETATM   10  C   UNL     1      -8.387  12.532  67.992  1.00  0.00    -0.171 C  
HETATM   11  H1  UNL     1      -6.334  15.233  67.577  1.00  0.00     0.000 HD 
HETATM   12  C   UNL     1      -8.700  15.065  68.670  1.00  0.00    -0.176 C  
HETATM   13  C   UNL     1      -7.737  13.901  68.357  1.00  0.00    -0.139 C  
HETATM   14  N   UNL     1      -6.761  14.338  67.338  1.00  0.00    -0.274 NA 
BRANCH   8  15
HETATM   15  O   UNL     1      -9.918  12.888  66.006  1.00  0.00    -0.267 OA 
BRANCH  15  16
HETATM   16  C   UNL     1     -10.369  11.872  65.115  1.00  0.00    -0.277 C  
BRANCH  16  17
HETATM   17  C   UNL     1      -9.241  10.828  65.031  1.00  0.00    -0.241 C  
HETATM   18  C   UNL     1      -9.659   9.456  65.551  1.00  0.00    -0.328 C  
ENDBRANCH  16  17
BRANCH  16  19
HETATM   19  C   UNL     1     -10.733  12.420  63.723  1.00  0.00    -0.492 C  
HETATM   20  C   UNL     1     -12.225  12.626  63.496  1.00  0.00    -0.638 C  
ENDBRANCH  16  19
ENDBRANCH  15  16
ENDBRANCH   8  15
BRANCH  10  21
HETATM   21  N   UNL     1      -8.326  11.607  69.145  1.00  0.00    -0.363 N  
HETATM   22  H   UNL     1      -8.783  11.865  70.020  1.00  0.00     0.000 HD 
HETATM   23  C   UNL     1      -7.663  10.402  69.056  1.00  0.00    -0.116 C  
HETATM   24  C   UNL     1      -7.728   9.555  70.298  1.00  0.00    -0.170 C  
HETATM   25  O   UNL     1      -7.069  10.028  68.053  1.00  0.00    -0.079 OA 
ENDBRANCH  10  21
ENDBRANCH   4   6
ENDBRANCH   3   4
ENDBRANCH   2   3
TORSDOF 8
ENDMDL
MODEL       97
REMARK 921   NORMALIZED FREE ENERGY PREDICTED BY IDOCK:   -4.11 KCAL/MOL
REMARK 922        TOTAL FREE ENERGY PREDICTED BY IDOCK:   -6.97 KCAL/MOL
REMARK 923 INTER-LIGAND FREE ENERGY PREDICTED BY IDOCK:   -6.11 KCAL/MOL
REMARK 924 INTRA-LIGAND FREE ENERGY PREDICTED BY IDOCK:   -0.86 KCAL/MOL
REMARK 927      BINDING AFFINITY PREDICTED BY RF-SCORE:    0.00 PKD
ROOT
HETATM    1  C   UNL     1     -13.815  14.541  71.676  1.00  0.00    -0.513 C  
HETATM    2  C   UNL     1     -13.749  13.153  72.286  1.00  0.00    -0.551 C  
ENDROOT
BRANCH   2   3
HETATM    3  O   UNL     1     -13.013  12.322  71.384  1.00  0.00    -0.366 OA 
BRANCH   3   4
HETATM    4  C   UNL     1     -12.972  11.008  71.718  1.00  0.00    -0.438 C  
HETATM    5  O   UNL     1     -13.774  10.430  72.437  1.00  0.00    -0.162 OA 
BRANCH   4   6
HETATM    6  C   UNL     1     -11.853  10.312  71.027  1.00  0.00    -0.472 C  
HETATM    7  C   UNL     1     -11.365   9.146  71.474  1.00  0.00    -0.439 C  
HETATM    8  C   UNL     1     -10.423   8.297  70.687  1.00  0.00    -0.203 C  
HETATM    9  H2  UNL     1     -11.214   9.230  67.592  1.00  0.00     0.000 HD 
HETATM   10  C   UNL     1      -9.528   9.099  69.703  1.00  0.00    -0.172 C  
HETATM   11  H1  UNL     1     -11.043  10.858  67.195  1.00  0.00     0.000 HD 
HETATM   12  C   UNL     1     -11.372  10.987  69.782  1.00  0.00    -0.366 C  
HETATM   13  C   UNL     1     -10.195  10.335  69.027  1.00  0.00    -0.210 C  
HETATM   14  N   UNL     1     -10.607  10.049  67.637  1.00  0.00    -0.251 NA 
BRANCH   8  15
HETATM   15  O   UNL     1     -11.318   7.352  70.101  1.00  0.00    -0.255 OA 
BRANCH  15  16
HETATM   16  C   UNL     1     -10.853   6.035  69.820  1.00  0.00    -0.363 C  
BRANCH  16  17
HETATM   17  C   UNL     1     -10.075   5.569  71.065  1.00  0.00    -0.271 C  
HETATM   18  C   UNL     1      -9.035   4.498  70.752  1.00  0.00    -0.161 C  
ENDBRANCH  16  17
BRANCH  16  19
HETATM   19  C   UNL     1      -9.981   5.969  68.554  1.00  0.00    -0.173 C  
HETATM   20  C   UNL     1     -10.760   6.034  67.246  1.00  0.00    -0.400 C  
ENDBRANCH  16  19
ENDBRANCH  15  16
ENDBRANCH   8  15
BRANCH  10  21
HETATM   21  N   UNL     1      -8.248   9.484  70.338  1.00  0.00    -0.186 N  
HETATM   22  H   UNL     1      -8.177  10.382  70.818  1.00  0.00     0.000 HD 
HETATM   23  C   UNL     1      -7.152   8.652  70.291  1.00  0.00    -0.042 C  
HETATM   24  C   UNL     1      -5.939   9.166  71.020  1.00  0.00    -0.055 C  
HETATM   25  O   UNL     1      -7.145   7.571  69.714  1.00  0.00    -0.064 OA 
ENDBRANCH  10  21
ENDBRANCH   4   6
ENDBRANCH   3   4
ENDBRANCH   2   3
TORSDOF 8
ENDMDL
MODEL       98
REMARK 921   NORMALIZED FREE ENERGY PREDICTED BY IDOCK:   -4.10 KCAL/MOL
REMARK 922        TOTAL FREE ENERGY PREDICTED BY IDOCK:   -6.96 KCAL/MOL
REMARK 923 INTER-LIGAND FREE ENERGY PREDICTED BY IDOCK:   -5.98 KCAL/MOL
REMARK 924 INTRA-LIGAND FREE ENERGY PREDICTED BY IDOCK:   -0.99 KCAL/MOL
REMARK 927      BINDING AFFINITY PREDICTED BY RF-SCORE:    0.00 PKD
ROOT
HETATM    1  C   UNL     1     -12.770  13.152  65.092  1.00  0.00    -0.468 C  
HETATM    2  C   UNL     1     -12.046  12.293  64.070  1.00  0.00    -0.471 C  
ENDROOT
BRANCH   2   3
HETATM    3  O   UNL     1     -10.668  12.245  64.449  1.00  0.00    -0.291 OA 
BRANCH   3   4
HETATM    4  C   UNL     1     -10.149  10.998  64.567  1.00  0.00    -0.321 C  
HETATM    5  O   UNL     1      -9.672  10.334  63.658  1.00  0.00    -0.301 OA 
BRANCH   4   6
HETATM    6  C   UNL     1     -10.157  10.545  65.985  1.00  0.00    -0.317 C  
HETATM    7  C   UNL     1     -10.635   9.343  66.339  1.00  0.00    -0.065 C  
HETATM    8  C   UNL     1     -10.439   8.751  67.695  1.00  0.00    -0.244 C  
HETATM    9  H2  UNL     1      -7.639  10.289  68.625  1.00  0.00     0.000 HD 
HETATM   10  C   UNL     1     -10.292   9.807  68.825  1.00  0.00    -0.208 C  
HETATM   11  H1  UNL     1      -7.650  11.972  68.691  1.00  0.00     0.000 HD 
HETATM   12  C   UNL     1      -9.540  11.507  66.951  1.00  0.00    -0.203 C  
HETATM   13  C   UNL     1      -9.536  11.115  68.443  1.00  0.00    -0.192 C  
HETATM   14  N   UNL     1      -8.145  11.115  68.941  1.00  0.00    -0.139 NA 
BRANCH   8  15
HETATM   15  O   UNL     1      -9.314   7.902  67.473  1.00  0.00    -0.140 OA 
BRANCH  15  16
HETATM   16  C   UNL     1      -9.436   6.505  67.726  1.00  0.00    -0.119 C  
BRANCH  16  17
HETATM   17  C   UNL     1      -8.176   5.841  67.140  1.00  0.00    -0.102 C  
HETATM   18  C   UNL     1      -6.890   6.576  67.505  1.00  0.00    -0.076 C  
ENDBRANCH  16  17
BRANCH  16  19
HETATM   19  C   UNL     1     -10.719   5.902  67.129  1.00  0.00    -0.387 C  
HETATM   20  C   UNL     1     -10.482   4.871  66.033  1.00  0.00    -0.327 C  
ENDBRANCH  16  19
ENDBRANCH  15  16
ENDBRANCH   8  15
BRANCH  10  21
HETATM   21  N   UNL     1     -11.603  10.126  69.433  1.00  0.00    -0.450 N  
HETATM   22  H   UNL     1     -12.361  10.467  68.840  1.00  0.00     0.000 HD 
HETATM   23  C   UNL     1     -11.817   9.970  70.785  1.00  0.00    -0.346 C  
HETATM   24  C   UNL     1     -13.215  10.295  71.242  1.00  0.00    -0.447 C  
HETATM   25  O   UNL     1     -10.956   9.591  71.568  1.00  0.00    -0.364 OA 
ENDBRANCH  10  21
ENDBRANCH   4   6
ENDBRANCH   3   4
ENDBRANCH   2   3
TORSDOF 8
ENDMDL
MODEL       99
REMARK 921   NORMALIZED FREE ENERGY PREDICTED BY IDOCK:   -4.08 KCAL/MOL
REMARK 922        TOTAL FREE ENERGY PREDICTED BY IDOCK:   -6.93 KCAL/MOL
REMARK 923 INTER-LIGAND FREE ENERGY PREDICTED BY IDOCK:   -6.35 KCAL/MOL
REMARK 924 INTRA-LIGAND FREE ENERGY PREDICTED BY IDOCK:   -0.57 KCAL/MOL
REMARK 927      BINDING AFFINITY PREDICTED BY RF-SCORE:    0.00 PKD
ROOT
HETATM    1  C   UNL     1      -8.347   8.784  62.684  1.00  0.00    -0.198 C  
HETATM    2  C   UNL     1      -8.342   9.542  63.999  1.00  0.00    -0.170 C  
ENDROOT
BRANCH   2   3
HETATM    3  O   UNL     1      -9.682   9.979  64.248  1.00  0.00    -0.296 OA 
BRANCH   3   4
HETATM    4  C   UNL     1      -9.844  11.324  64.309  1.00  0.00    -0.273 C  
HETATM    5  O   UNL     1      -9.834  12.088  63.354  1.00  0.00    -0.390 OA 
BRANCH   4   6
HETATM    6  C   UNL     1     -10.120  11.769  65.702  1.00  0.00    -0.278 C  
HETATM    7  C   UNL     1      -9.161  11.788  66.639  1.00  0.00    -0.201 C  
HETATM    8  C   UNL     1      -9.326  12.451  67.966  1.00  0.00    -0.204 C  
HETATM    9  H2  UNL     1     -11.614  14.747  67.211  1.00  0.00     0.000 HD 
HETATM   10  C   UNL     1     -10.797  12.495  68.467  1.00  0.00    -0.243 C  
HETATM   11  H1  UNL     1     -13.093  14.214  66.608  1.00  0.00     0.000 HD 
HETATM   12  C   UNL     1     -11.520  12.241  65.940  1.00  0.00    -0.428 C  
HETATM   13  C   UNL     1     -11.885  12.693  67.369  1.00  0.00    -0.328 C  
HETATM   14  N   UNL     1     -12.381  14.085  67.327  1.00  0.00    -0.274 NA 
BRANCH   8  15
HETATM   15  O   UNL     1      -8.700  13.712  67.731  1.00  0.00    -0.162 OA 
BRANCH  15  16
HETATM   16  C   UNL     1      -9.482  14.901  67.803  1.00  0.00    -0.203 C  
BRANCH  16  17
HETATM   17  C   UNL     1      -9.105  15.749  66.574  1.00  0.00    -0.327 C  
HETATM   18  C   UNL     1     -10.251  16.628  66.083  1.00  0.00    -0.360 C  
ENDBRANCH  16  17
BRANCH  16  19
HETATM   19  C   UNL     1      -9.264  15.679  69.112  1.00  0.00    -0.254 C  
HETATM   20  C   UNL     1     -10.486  15.740  70.020  1.00  0.00    -0.313 C  
ENDBRANCH  16  19
ENDBRANCH  15  16
ENDBRANCH   8  15
BRANCH  10  21
HETATM   21  N   UNL     1     -11.113  11.316  69.302  1.00  0.00    -0.241 N  
HETATM   22  H   UNL     1     -10.704  10.411  69.067  1.00  0.00     0.000 HD 
HETATM   23  C   UNL     1     -11.949  11.420  70.392  1.00  0.00    -0.374 C  
HETATM   24  C   UNL     1     -12.137  10.142  71.165  1.00  0.00    -0.485 C  
HETATM   25  O   UNL     1     -12.500  12.461  70.727  1.00  0.00    -0.349 OA 
ENDBRANCH  10  21
ENDBRANCH   4   6
ENDBRANCH   3   4
ENDBRANCH   2   3
TORSDOF 8
ENDMDL
MODEL      100
REMARK 921   NORMALIZED FREE ENERGY PREDICTED BY IDOCK:   -4.08 KCAL/MOL
REMARK 922        TOTAL FREE ENERGY PREDICTED BY IDOCK:   -6.93 KCAL/MOL
REMARK 923 INTER-LIGAND FREE ENERGY PREDICTED BY IDOCK:   -5.87 KCAL/MOL
REMARK 924 INTRA-LIGAND FREE ENERGY PREDICTED BY IDOCK:   -1.06 KCAL/MOL
REMARK 927      BINDING AFFINITY PREDICTED BY RF-SCORE:    0.00 PKD
ROOT
HETATM    1  C   UNL     1     -12.137  12.230  63.795  1.00  0.00    -0.624 C  
HETATM    2  C   UNL     1     -10.633  12.026  63.787  1.00  0.00    -0.430 C  
ENDROOT
BRANCH   2   3
HETATM    3  O   UNL     1     -10.320  11.101  64.832  1.00  0.00    -0.279 OA 
BRANCH   3   4
HETATM    4  C   UNL     1      -9.849  11.663  65.973  1.00  0.00    -0.230 C  
HETATM    5  O   UNL     1      -9.436  12.808  66.087  1.00  0.00    -0.238 OA 
BRANCH   4   6
HETATM    6  C   UNL     1      -9.969  10.725  67.123  1.00  0.00    -0.230 C  
HETATM    7  C   UNL     1     -10.585   9.540  67.005  1.00  0.00    -0.271 C  
HETATM    8  C   UNL     1     -10.515   8.474  68.047  1.00  0.00    -0.191 C  
HETATM    9  H2  UNL     1      -7.616   9.234  69.493  1.00  0.00     0.000 HD 
HETATM   10  C   UNL     1     -10.311   9.017  69.488  1.00  0.00    -0.209 C  
HETATM   11  H1  UNL     1      -7.456  10.765  70.177  1.00  0.00     0.000 HD 
HETATM   12  C   UNL     1      -9.301  11.190  68.379  1.00  0.00    -0.185 C  
HETATM   13  C   UNL     1      -9.407  10.279  69.620  1.00  0.00    -0.139 C  
HETATM   14  N   UNL     1      -8.048   9.939  70.090  1.00  0.00    -0.179 NA 
BRANCH   8  15
HETATM   15  O   UNL     1      -9.474   7.644  67.531  1.00  0.00    -0.136 OA 
BRANCH  15  16
HETATM   16  C   UNL     1      -9.799   6.627  66.587  1.00  0.00    -0.149 C  
BRANCH  16  17
HETATM   17  C   UNL     1     -10.219   5.390  67.401  1.00  0.00    -0.247 C  
HETATM   18  C   UNL     1      -9.783   4.077  66.758  1.00  0.00    -0.216 C  
ENDBRANCH  16  17
BRANCH  16  19
HETATM   19  C   UNL     1      -8.634   6.306  65.635  1.00  0.00    -0.143 C  
HETATM   20  C   UNL     1      -7.708   7.482  65.350  1.00  0.00    -0.109 C  
ENDBRANCH  16  19
ENDBRANCH  15  16
ENDBRANCH   8  15
BRANCH  10  21
HETATM   21  N   UNL     1     -11.609   9.237  70.164  1.00  0.00    -0.450 N  
HETATM   22  H   UNL     1     -12.404   9.580  69.625  1.00  0.00     0.000 HD 
HETATM   23  C   UNL     1     -11.761   8.987  71.511  1.00  0.00    -0.345 C  
HETATM   24  C   UNL     1     -13.151   9.218  72.040  1.00  0.00    -0.512 C  
HETATM   25  O   UNL     1     -10.853   8.598  72.235  1.00  0.00    -0.354 OA 
ENDBRANCH  10  21
ENDBRANCH   4   6
ENDBRANCH   3   4
ENDBRANCH   2   3
TORSDOF 8
ENDMDL
MODEL      101
REMARK 921   NORMALIZED FREE ENERGY PREDICTED BY IDOCK:   -4.07 KCAL/MOL
REMARK 922        TOTAL FREE ENERGY PREDICTED BY IDOCK:   -6.91 KCAL/MOL
REMARK 923 INTER-LIGAND FREE ENERGY PREDICTED BY IDOCK:   -6.13 KCAL/MOL
REMARK 924 INTRA-LIGAND FREE ENERGY PREDICTED BY IDOCK:   -0.78 KCAL/MOL
REMARK 927      BINDING AFFINITY PREDICTED BY RF-SCORE:    0.00 PKD
ROOT
HETATM    1  C   UNL     1     -10.620  19.698  67.385  1.00  0.00    -0.589 C  
HETATM    2  C   UNL     1     -10.714  19.270  65.932  1.00  0.00    -0.372 C  
ENDROOT
BRANCH   2   3
HETATM    3  O   UNL     1      -9.860  18.135  65.762  1.00  0.00    -0.527 OA 
BRANCH   3   4
HETATM    4  C   UNL     1     -10.496  16.984  65.430  1.00  0.00    -0.112 C  
HETATM    5  O   UNL     1     -11.187  16.812  64.436  1.00  0.00    -1.112 OA 
BRANCH   4   6
HETATM    6  C   UNL     1     -10.185  15.899  66.400  1.00  0.00    -0.311 C  
HETATM    7  C   UNL     1      -9.334  14.907  66.098  1.00  0.00    -0.307 C  
HETATM    8  C   UNL     1      -8.806  13.946  67.111  1.00  0.00    -0.226 C  
HETATM    9  H2  UNL     1      -9.040  15.790  69.871  1.00  0.00     0.000 HD 
HETATM   10  C   UNL     1      -9.767  13.706  68.308  1.00  0.00    -0.231 C  
HETATM   11  H1  UNL     1     -10.563  16.360  70.309  1.00  0.00     0.000 HD 
HETATM   12  C   UNL     1     -10.848  16.045  67.733  1.00  0.00    -0.324 C  
HETATM   13  C   UNL     1     -10.591  14.941  68.780  1.00  0.00    -0.247 C  
HETATM   14  N   UNL     1     -10.023  15.552  70.000  1.00  0.00    -0.255 NA 
BRANCH   8  15
HETATM   15  O   UNL     1      -7.542  14.530  67.422  1.00  0.00    -0.183 OA 
BRANCH  15  16
HETATM   16  C   UNL     1      -6.416  13.682  67.627  1.00  0.00    -0.153 C  
BRANCH  16  17
HETATM   17  C   UNL     1      -6.855  12.263  67.220  1.00  0.00    -0.140 C  
HETATM   18  C   UNL     1      -5.752  11.475  66.521  1.00  0.00    -0.113 C  
ENDBRANCH  16  17
BRANCH  16  19
HETATM   19  C   UNL     1      -5.900  13.717  69.076  1.00  0.00    -0.080 C  
HETATM   20  C   UNL     1      -6.095  12.418  69.848  1.00  0.00    -0.135 C  
ENDBRANCH  16  19
ENDBRANCH  15  16
ENDBRANCH   8  15
BRANCH  10  21
HETATM   21  N   UNL     1     -10.660  12.554  68.055  1.00  0.00    -0.217 N  
HETATM   22  H   UNL     1     -11.554  12.706  67.588  1.00  0.00     0.000 HD 
HETATM   23  C   UNL     1     -10.304  11.280  68.439  1.00  0.00    -0.192 C  
HETATM   24  C   UNL     1     -11.299  10.211  68.071  1.00  0.00    -0.152 C  
HETATM   25  O   UNL     1      -9.263  11.014  69.025  1.00  0.00    -0.151 OA 
ENDBRANCH  10  21
ENDBRANCH   4   6
ENDBRANCH   3   4
ENDBRANCH   2   3
TORSDOF 8
ENDMDL
MODEL      102
REMARK 921   NORMALIZED FREE ENERGY PREDICTED BY IDOCK:   -4.05 KCAL/MOL
REMARK 922        TOTAL FREE ENERGY PREDICTED BY IDOCK:   -6.88 KCAL/MOL
REMARK 923 INTER-LIGAND FREE ENERGY PREDICTED BY IDOCK:   -5.81 KCAL/MOL
REMARK 924 INTRA-LIGAND FREE ENERGY PREDICTED BY IDOCK:   -1.07 KCAL/MOL
REMARK 927      BINDING AFFINITY PREDICTED BY RF-SCORE:    0.00 PKD
ROOT
HETATM    1  C   UNL     1      -8.964   9.822  63.017  1.00  0.00    -0.271 C  
HETATM    2  C   UNL     1      -9.334  11.286  62.855  1.00  0.00    -0.352 C  
ENDROOT
BRANCH   2   3
HETATM    3  O   UNL     1     -10.577  11.492  63.532  1.00  0.00    -0.370 OA 
BRANCH   3   4
HETATM    4  C   UNL     1     -10.571  12.490  64.450  1.00  0.00    -0.350 C  
HETATM    5  O   UNL     1     -10.787  13.671  64.222  1.00  0.00    -0.388 OA 
BRANCH   4   6
HETATM    6  C   UNL     1     -10.341  11.957  65.821  1.00  0.00    -0.285 C  
HETATM    7  C   UNL     1     -10.760  10.735  66.182  1.00  0.00    -0.187 C  
HETATM    8  C   UNL     1     -10.342  10.067  67.449  1.00  0.00    -0.238 C  
HETATM    9  H2  UNL     1      -7.414  11.558  67.978  1.00  0.00     0.000 HD 
HETATM   10  C   UNL     1      -9.999  11.057  68.597  1.00  0.00    -0.199 C  
HETATM   11  H1  UNL     1      -7.403  13.234  68.140  1.00  0.00     0.000 HD 
HETATM   12  C   UNL     1      -9.564  12.864  66.721  1.00  0.00    -0.246 C  
HETATM   13  C   UNL     1      -9.310  12.387  68.166  1.00  0.00    -0.209 C  
HETATM   14  N   UNL     1      -7.855  12.363  68.422  1.00  0.00    -0.143 NA 
BRANCH   8  15
HETATM   15  O   UNL     1      -9.276   9.236  66.992  1.00  0.00    -0.134 OA 
BRANCH  15  16
HETATM   16  C   UNL     1      -9.187   7.895  67.466  1.00  0.00    -0.136 C  
BRANCH  16  17
HETATM   17  C   UNL     1     -10.626   7.442  67.773  1.00  0.00    -0.278 C  
HETATM   18  C   UNL     1     -10.684   6.173  68.618  1.00  0.00    -0.370 C  
ENDBRANCH  16  17
BRANCH  16  19
HETATM   19  C   UNL     1      -8.279   7.760  68.701  1.00  0.00    -0.128 C  
HETATM   20  C   UNL     1      -6.988   6.988  68.453  1.00  0.00    -0.076 C  
ENDBRANCH  16  19
ENDBRANCH  15  16
ENDBRANCH   8  15
BRANCH  10  21
HETATM   21  N   UNL     1     -11.186  11.337  69.434  1.00  0.00    -0.262 N  
HETATM   22  H   UNL     1     -11.799  12.115  69.191  1.00  0.00     0.000 HD 
HETATM   23  C   UNL     1     -11.476  10.564  70.537  1.00  0.00    -0.345 C  
HETATM   24  C   UNL     1     -12.740  10.949  71.259  1.00  0.00    -0.542 C  
HETATM   25  O   UNL     1     -10.780   9.630  70.913  1.00  0.00    -0.302 OA 
ENDBRANCH  10  21
ENDBRANCH   4   6
ENDBRANCH   3   4
ENDBRANCH   2   3
TORSDOF 8
ENDMDL
MODEL      103
REMARK 921   NORMALIZED FREE ENERGY PREDICTED BY IDOCK:   -4.05 KCAL/MOL
REMARK 922        TOTAL FREE ENERGY PREDICTED BY IDOCK:   -6.88 KCAL/MOL
REMARK 923 INTER-LIGAND FREE ENERGY PREDICTED BY IDOCK:   -6.31 KCAL/MOL
REMARK 924 INTRA-LIGAND FREE ENERGY PREDICTED BY IDOCK:   -0.58 KCAL/MOL
REMARK 927      BINDING AFFINITY PREDICTED BY RF-SCORE:    0.00 PKD
ROOT
HETATM    1  C   UNL     1      -5.649  13.230  67.728  1.00  0.00    -0.109 C  
HETATM    2  C   UNL     1      -5.683  14.680  68.174  1.00  0.00    -0.128 C  
ENDROOT
BRANCH   2   3
HETATM    3  O   UNL     1      -6.693  15.342  67.406  1.00  0.00    -0.182 OA 
BRANCH   3   4
HETATM    4  C   UNL     1      -7.945  15.270  67.923  1.00  0.00    -0.137 C  
HETATM    5  O   UNL     1      -8.305  15.746  68.990  1.00  0.00    -0.201 OA 
BRANCH   4   6
HETATM    6  C   UNL     1      -8.877  14.593  66.981  1.00  0.00    -0.262 C  
HETATM    7  C   UNL     1      -9.256  13.319  67.158  1.00  0.00    -0.235 C  
HETATM    8  C   UNL     1     -10.366  12.681  66.391  1.00  0.00    -0.249 C  
HETATM    9  H2  UNL     1     -12.188  15.360  65.629  1.00  0.00     0.000 HD 
HETATM   10  C   UNL     1     -10.580  13.286  64.976  1.00  0.00    -0.346 C  
HETATM   11  H1  UNL     1     -11.452  16.582  64.733  1.00  0.00     0.000 HD 
HETATM   12  C   UNL     1      -9.389  15.463  65.877  1.00  0.00    -0.329 C  
HETATM   13  C   UNL     1     -10.340  14.821  64.847  1.00  0.00    -0.332 C  
HETATM   14  N   UNL     1     -11.609  15.578  64.818  1.00  0.00    -0.313 NA 
BRANCH   8  15
HETATM   15  O   UNL     1     -11.454  12.815  67.306  1.00  0.00    -0.298 OA 
BRANCH  15  16
HETATM   16  C   UNL     1     -11.258  12.468  68.674  1.00  0.00    -0.278 C  
BRANCH  16  17
HETATM   17  C   UNL     1     -11.764  11.023  68.837  1.00  0.00    -0.400 C  
HETATM   18  C   UNL     1     -10.662   9.982  68.669  1.00  0.00    -0.256 C  
ENDBRANCH  16  17
BRANCH  16  19
HETATM   19  C   UNL     1     -11.973  13.427  69.640  1.00  0.00    -0.386 C  
HETATM   20  C   UNL     1     -12.464  12.777  70.928  1.00  0.00    -0.373 C  
ENDBRANCH  16  19
ENDBRANCH  15  16
ENDBRANCH   8  15
BRANCH  10  21
HETATM   21  N   UNL     1      -9.797  12.553  63.957  1.00  0.00    -0.609 N  
HETATM   22  H   UNL     1      -9.241  13.075  63.280  1.00  0.00     0.000 HD 
HETATM   23  C   UNL     1      -9.807  11.176  63.908  1.00  0.00    -0.308 C  
HETATM   24  C   UNL     1      -8.926  10.578  62.843  1.00  0.00    -0.266 C  
HETATM   25  O   UNL     1     -10.466  10.475  64.665  1.00  0.00    -0.311 OA 
ENDBRANCH  10  21
ENDBRANCH   4   6
ENDBRANCH   3   4
ENDBRANCH   2   3
TORSDOF 8
ENDMDL
MODEL      104
REMARK 921   NORMALIZED FREE ENERGY PREDICTED BY IDOCK:   -4.04 KCAL/MOL
REMARK 922        TOTAL FREE ENERGY PREDICTED BY IDOCK:   -6.87 KCAL/MOL
REMARK 923 INTER-LIGAND FREE ENERGY PREDICTED BY IDOCK:   -5.68 KCAL/MOL
REMARK 924 INTRA-LIGAND FREE ENERGY PREDICTED BY IDOCK:   -1.19 KCAL/MOL
REMARK 927      BINDING AFFINITY PREDICTED BY RF-SCORE:    0.00 PKD
ROOT
HETATM    1  C   UNL     1     -12.205  14.461  64.411  1.00  0.00    -0.481 C  
HETATM    2  C   UNL     1     -12.269  13.227  63.530  1.00  0.00    -0.441 C  
ENDROOT
BRANCH   2   3
HETATM    3  O   UNL     1     -11.993  12.094  64.357  1.00  0.00    -0.377 OA 
BRANCH   3   4
HETATM    4  C   UNL     1     -10.677  11.836  64.556  1.00  0.00    -0.315 C  
HETATM    5  O   UNL     1      -9.821  11.785  63.685  1.00  0.00    -0.327 OA 
BRANCH   4   6
HETATM    6  C   UNL     1     -10.369  11.695  66.006  1.00  0.00    -0.283 C  
HETATM    7  C   UNL     1      -9.409  12.422  66.595  1.00  0.00    -0.227 C  
HETATM    8  C   UNL     1      -9.232  12.496  68.076  1.00  0.00    -0.204 C  
HETATM    9  H2  UNL     1     -12.334  11.843  69.087  1.00  0.00     0.000 HD 
HETATM   10  C   UNL     1      -9.713  11.226  68.830  1.00  0.00    -0.174 C  
HETATM   11  H1  UNL     1     -13.017  10.373  68.628  1.00  0.00     0.000 HD 
HETATM   12  C   UNL     1     -11.251  10.736  66.740  1.00  0.00    -0.053 C  
HETATM   13  C   UNL     1     -10.973  10.520  68.242  1.00  0.00    -0.263 C  
HETATM   14  N   UNL     1     -12.193  10.836  69.013  1.00  0.00    -0.401 NA 
BRANCH   8  15
HETATM   15  O   UNL     1      -9.917  13.711  68.381  1.00  0.00    -0.231 OA 
BRANCH  15  16
HETATM   16  C   UNL     1      -9.641  14.877  67.610  1.00  0.00    -0.200 C  
BRANCH  16  17
HETATM   17  C   UNL     1      -8.447  15.577  68.285  1.00  0.00    -0.156 C  
HETATM   18  C   UNL     1      -7.198  15.601  67.410  1.00  0.00    -0.241 C  
ENDBRANCH  16  17
BRANCH  16  19
HETATM   19  C   UNL     1     -10.854  15.816  67.497  1.00  0.00    -0.315 C  
HETATM   20  C   UNL     1     -10.562  17.270  67.846  1.00  0.00    -0.384 C  
ENDBRANCH  16  19
ENDBRANCH  15  16
ENDBRANCH   8  15
BRANCH  10  21
HETATM   21  N   UNL     1      -8.610  10.256  69.003  1.00  0.00    -0.152 N  
HETATM   22  H   UNL     1      -7.900  10.170  68.275  1.00  0.00     0.000 HD 
HETATM   23  C   UNL     1      -8.525   9.469  70.130  1.00  0.00    -0.205 C  
HETATM   24  C   UNL     1      -7.322   8.565  70.177  1.00  0.00    -0.051 C  
HETATM   25  O   UNL     1      -9.347   9.492  71.037  1.00  0.00    -0.201 OA 
ENDBRANCH  10  21
ENDBRANCH   4   6
ENDBRANCH   3   4
ENDBRANCH   2   3
TORSDOF 8
ENDMDL
MODEL      105
REMARK 921   NORMALIZED FREE ENERGY PREDICTED BY IDOCK:   -4.04 KCAL/MOL
REMARK 922        TOTAL FREE ENERGY PREDICTED BY IDOCK:   -6.87 KCAL/MOL
REMARK 923 INTER-LIGAND FREE ENERGY PREDICTED BY IDOCK:   -5.94 KCAL/MOL
REMARK 924 INTRA-LIGAND FREE ENERGY PREDICTED BY IDOCK:   -0.93 KCAL/MOL
REMARK 927      BINDING AFFINITY PREDICTED BY RF-SCORE:    0.00 PKD
ROOT
HETATM    1  C   UNL     1      -8.689   4.966  64.689  1.00  0.00    -0.152 C  
HETATM    2  C   UNL     1      -8.807   5.033  66.201  1.00  0.00    -0.125 C  
ENDROOT
BRANCH   2   3
HETATM    3  O   UNL     1      -8.810   6.415  66.570  1.00  0.00    -0.126 OA 
BRANCH   3   4
HETATM    4  C   UNL     1     -10.026   6.918  66.896  1.00  0.00    -0.200 C  
HETATM    5  O   UNL     1     -10.964   6.279  67.351  1.00  0.00    -0.325 OA 
BRANCH   4   6
HETATM    6  C   UNL     1     -10.065   8.394  66.707  1.00  0.00    -0.373 C  
HETATM    7  C   UNL     1     -11.020   9.151  67.268  1.00  0.00     0.040 C  
HETATM    8  C   UNL     1     -10.962  10.642  67.312  1.00  0.00    -0.284 C  
HETATM    9  H2  UNL     1      -7.672  11.120  67.169  1.00  0.00     0.000 HD 
HETATM   10  C   UNL     1     -10.167  11.274  66.137  1.00  0.00    -0.245 C  
HETATM   11  H1  UNL     1      -6.847  10.518  65.829  1.00  0.00     0.000 HD 
HETATM   12  C   UNL     1      -8.934   8.951  65.902  1.00  0.00    -0.244 C  
HETATM   13  C   UNL     1      -8.925  10.471  65.644  1.00  0.00    -0.180 C  
HETATM   14  N   UNL     1      -7.661  11.043  66.152  1.00  0.00    -0.123 NA 
BRANCH   8  15
HETATM   15  O   UNL     1     -10.439  10.865  68.622  1.00  0.00    -0.175 OA 
BRANCH  15  16
HETATM   16  C   UNL     1     -11.171  11.678  69.533  1.00  0.00    -0.213 C  
BRANCH  16  17
HETATM   17  C   UNL     1     -12.210  10.761  70.203  1.00  0.00    -0.425 C  
HETATM   18  C   UNL     1     -11.592   9.792  71.206  1.00  0.00    -0.465 C  
ENDBRANCH  16  17
BRANCH  16  19
HETATM   19  C   UNL     1     -11.841  12.883  68.851  1.00  0.00    -0.352 C  
HETATM   20  C   UNL     1     -11.754  14.185  69.639  1.00  0.00    -0.372 C  
ENDBRANCH  16  19
ENDBRANCH  15  16
ENDBRANCH   8  15
BRANCH  10  21
HETATM   21  N   UNL     1     -11.058  11.596  65.001  1.00  0.00    -0.281 N  
HETATM   22  H   UNL     1     -11.660  10.869  64.613  1.00  0.00     0.000 HD 
HETATM   23  C   UNL     1     -11.089  12.862  64.458  1.00  0.00    -0.342 C  
HETATM   24  C   UNL     1     -12.079  13.042  63.338  1.00  0.00    -0.591 C  
HETATM   25  O   UNL     1     -10.382  13.784  64.846  1.00  0.00    -0.388 OA 
ENDBRANCH  10  21
ENDBRANCH   4   6
ENDBRANCH   3   4
ENDBRANCH   2   3
TORSDOF 8
ENDMDL
MODEL      106
REMARK 921   NORMALIZED FREE ENERGY PREDICTED BY IDOCK:   -4.00 KCAL/MOL
REMARK 922        TOTAL FREE ENERGY PREDICTED BY IDOCK:   -6.80 KCAL/MOL
REMARK 923 INTER-LIGAND FREE ENERGY PREDICTED BY IDOCK:   -6.32 KCAL/MOL
REMARK 924 INTRA-LIGAND FREE ENERGY PREDICTED BY IDOCK:   -0.48 KCAL/MOL
REMARK 927      BINDING AFFINITY PREDICTED BY RF-SCORE:    0.00 PKD
ROOT
HETATM    1  C   UNL     1     -12.765  11.929  64.077  1.00  0.00    -0.350 C  
HETATM    2  C   UNL     1     -12.398  13.242  63.410  1.00  0.00    -0.324 C  
ENDROOT
BRANCH   2   3
HETATM    3  O   UNL     1     -11.946  14.133  64.434  1.00  0.00    -0.429 OA 
BRANCH   3   4
HETATM    4  C   UNL     1     -10.647  13.980  64.794  1.00  0.00    -0.421 C  
HETATM    5  O   UNL     1      -9.832  13.259  64.237  1.00  0.00    -0.195 OA 
BRANCH   4   6
HETATM    6  C   UNL     1     -10.296  14.875  65.931  1.00  0.00    -0.330 C  
HETATM    7  C   UNL     1     -11.137  15.823  66.366  1.00  0.00    -0.070 C  
HETATM    8  C   UNL     1     -10.937  16.571  67.643  1.00  0.00    -0.207 C  
HETATM    9  H2  UNL     1      -9.145  14.357  69.363  1.00  0.00     0.000 HD 
HETATM   10  C   UNL     1      -9.448  16.709  68.063  1.00  0.00    -0.224 C  
HETATM   11  H1  UNL     1      -7.673  13.860  68.711  1.00  0.00     0.000 HD 
HETATM   12  C   UNL     1      -8.973  14.586  66.566  1.00  0.00    -0.211 C  
HETATM   13  C   UNL     1      -8.531  15.491  67.734  1.00  0.00    -0.152 C  
HETATM   14  N   UNL     1      -8.274  14.657  68.926  1.00  0.00    -0.158 NA 
BRANCH   8  15
HETATM   15  O   UNL     1     -11.780  15.839  68.533  1.00  0.00    -0.383 OA 
BRANCH  15  16
HETATM   16  C   UNL     1     -11.187  14.997  69.517  1.00  0.00    -0.276 C  
BRANCH  16  17
HETATM   17  C   UNL     1     -12.012  13.697  69.537  1.00  0.00    -0.397 C  
HETATM   18  C   UNL     1     -11.544  12.678  68.504  1.00  0.00    -0.363 C  
ENDBRANCH  16  17
BRANCH  16  19
HETATM   19  C   UNL     1     -11.134  15.651  70.908  1.00  0.00    -0.377 C  
HETATM   20  C   UNL     1     -12.483  15.750  71.611  1.00  0.00    -0.525 C  
ENDBRANCH  16  19
ENDBRANCH  15  16
ENDBRANCH   8  15
BRANCH  10  21
HETATM   21  N   UNL     1      -8.857  17.958  67.535  1.00  0.00    -0.246 N  
HETATM   22  H   UNL     1      -9.102  18.271  66.595  1.00  0.00     0.000 HD 
HETATM   23  C   UNL     1      -7.982  18.706  68.292  1.00  0.00    -0.312 C  
HETATM   24  C   UNL     1      -7.503  19.972  67.632  1.00  0.00    -0.327 C  
HETATM   25  O   UNL     1      -7.617  18.390  69.417  1.00  0.00    -0.041 OA 
ENDBRANCH  10  21
ENDBRANCH   4   6
ENDBRANCH   3   4
ENDBRANCH   2   3
TORSDOF 8
ENDMDL
MODEL      107
REMARK 921   NORMALIZED FREE ENERGY PREDICTED BY IDOCK:   -3.99 KCAL/MOL
REMARK 922        TOTAL FREE ENERGY PREDICTED BY IDOCK:   -6.80 KCAL/MOL
REMARK 923 INTER-LIGAND FREE ENERGY PREDICTED BY IDOCK:   -5.85 KCAL/MOL
REMARK 924 INTRA-LIGAND FREE ENERGY PREDICTED BY IDOCK:   -0.95 KCAL/MOL
REMARK 927      BINDING AFFINITY PREDICTED BY RF-SCORE:    0.00 PKD
ROOT
HETATM    1  C   UNL     1     -14.182   7.404  71.623  1.00  0.00    -0.583 C  
HETATM    2  C   UNL     1     -14.066   8.853  72.061  1.00  0.00    -0.411 C  
ENDROOT
BRANCH   2   3
HETATM    3  O   UNL     1     -13.748   9.628  70.901  1.00  0.00    -0.222 OA 
BRANCH   3   4
HETATM    4  C   UNL     1     -12.823  10.600  71.098  1.00  0.00    -0.420 C  
HETATM    5  O   UNL     1     -12.894  11.495  71.927  1.00  0.00    -0.384 OA 
BRANCH   4   6
HETATM    6  C   UNL     1     -11.641  10.403  70.216  1.00  0.00    -0.410 C  
HETATM    7  C   UNL     1     -11.566  10.966  69.001  1.00  0.00    -0.387 C  
HETATM    8  C   UNL     1     -10.313  11.002  68.191  1.00  0.00    -0.182 C  
HETATM    9  H2  UNL     1      -8.030  10.833  70.606  1.00  0.00     0.000 HD 
HETATM   10  C   UNL     1      -9.349   9.817  68.475  1.00  0.00    -0.142 C  
HETATM   11  H1  UNL     1      -8.059   9.491  71.624  1.00  0.00     0.000 HD 
HETATM   12  C   UNL     1     -10.541   9.587  70.819  1.00  0.00    -0.387 C  
HETATM   13  C   UNL     1      -9.294   9.320  69.951  1.00  0.00    -0.198 C  
HETATM   14  N   UNL     1      -8.095   9.816  70.657  1.00  0.00    -0.249 NA 
BRANCH   8  15
HETATM   15  O   UNL     1      -9.818  12.306  68.494  1.00  0.00    -0.207 OA 
BRANCH  15  16
HETATM   16  C   UNL     1     -10.533  13.446  68.027  1.00  0.00    -0.239 C  
BRANCH  16  17
HETATM   17  C   UNL     1      -9.626  14.141  66.995  1.00  0.00    -0.264 C  
HETATM   18  C   UNL     1      -8.141  13.893  67.243  1.00  0.00    -0.162 C  
ENDBRANCH  16  17
BRANCH  16  19
HETATM   19  C   UNL     1     -10.931  14.405  69.162  1.00  0.00    -0.288 C  
HETATM   20  C   UNL     1     -12.153  15.265  68.862  1.00  0.00    -0.223 C  
ENDBRANCH  16  19
ENDBRANCH  15  16
ENDBRANCH   8  15
BRANCH  10  21
HETATM   21  N   UNL     1      -9.607   8.686  67.557  1.00  0.00    -0.151 N  
HETATM   22  H   UNL     1     -10.570   8.419  67.348  1.00  0.00     0.000 HD 
HETATM   23  C   UNL     1      -8.570   7.986  66.981  1.00  0.00    -0.127 C  
HETATM   24  C   UNL     1      -8.996   6.892  66.038  1.00  0.00    -0.131 C  
HETATM   25  O   UNL     1      -7.389   8.223  67.198  1.00  0.00    -0.085 OA 
ENDBRANCH  10  21
ENDBRANCH   4   6
ENDBRANCH   3   4
ENDBRANCH   2   3
TORSDOF 8
ENDMDL
MODEL      108
REMARK 921   NORMALIZED FREE ENERGY PREDICTED BY IDOCK:   -3.98 KCAL/MOL
REMARK 922        TOTAL FREE ENERGY PREDICTED BY IDOCK:   -6.78 KCAL/MOL
REMARK 923 INTER-LIGAND FREE ENERGY PREDICTED BY IDOCK:   -5.31 KCAL/MOL
REMARK 924 INTRA-LIGAND FREE ENERGY PREDICTED BY IDOCK:   -1.47 KCAL/MOL
REMARK 927      BINDING AFFINITY PREDICTED BY RF-SCORE:    0.00 PKD
ROOT
HETATM    1  C   UNL     1      -8.165   9.035  64.116  1.00  0.00    -0.166 C  
HETATM    2  C   UNL     1      -9.281  10.058  63.997  1.00  0.00    -0.272 C  
ENDROOT
BRANCH   2   3
HETATM    3  O   UNL     1     -10.108   9.928  65.156  1.00  0.00    -0.309 OA 
BRANCH   3   4
HETATM    4  C   UNL     1      -9.653  10.571  66.260  1.00  0.00    -0.187 C  
HETATM    5  O   UNL     1      -9.145  11.683  66.279  1.00  0.00    -0.210 OA 
BRANCH   4   6
HETATM    6  C   UNL     1      -9.920   9.780  67.492  1.00  0.00    -0.230 C  
HETATM    7  C   UNL     1     -10.471   8.558  67.439  1.00  0.00    -0.351 C  
HETATM    8  C   UNL     1     -10.530   7.635  68.611  1.00  0.00    -0.177 C  
HETATM    9  H2  UNL     1      -7.921   8.723  70.366  1.00  0.00     0.000 HD 
HETATM   10  C   UNL     1     -10.574   8.364  69.982  1.00  0.00    -0.235 C  
HETATM   11  H1  UNL     1      -7.921  10.334  70.859  1.00  0.00     0.000 HD 
HETATM   12  C   UNL     1      -9.474  10.432  68.762  1.00  0.00    -0.175 C  
HETATM   13  C   UNL     1      -9.743   9.680  70.082  1.00  0.00    -0.254 C  
HETATM   14  N   UNL     1      -8.465   9.473  70.793  1.00  0.00    -0.265 NA 
BRANCH   8  15
HETATM   15  O   UNL     1      -9.394   6.804  68.373  1.00  0.00    -0.127 OA 
BRANCH  15  16
HETATM   16  C   UNL     1      -8.827   6.075  69.458  1.00  0.00    -0.125 C  
BRANCH  16  17
HETATM   17  C   UNL     1      -7.301   6.256  69.357  1.00  0.00    -0.091 C  
HETATM   18  C   UNL     1      -6.890   7.288  68.312  1.00  0.00    -0.070 C  
ENDBRANCH  16  17
BRANCH  16  19
HETATM   19  C   UNL     1      -9.219   4.588  69.446  1.00  0.00    -0.192 C  
HETATM   20  C   UNL     1      -9.658   4.061  68.086  1.00  0.00    -0.189 C  
ENDBRANCH  16  19
ENDBRANCH  15  16
ENDBRANCH   8  15
BRANCH  10  21
HETATM   21  N   UNL     1     -11.967   8.598  70.419  1.00  0.00    -0.472 N  
HETATM   22  H   UNL     1     -12.653   8.942  69.746  1.00  0.00     0.000 HD 
HETATM   23  C   UNL     1     -12.355   8.360  71.719  1.00  0.00    -0.331 C  
HETATM   24  C   UNL     1     -13.815   8.604  71.996  1.00  0.00    -0.491 C  
HETATM   25  O   UNL     1     -11.591   7.972  72.594  1.00  0.00    -0.388 OA 
ENDBRANCH  10  21
ENDBRANCH   4   6
ENDBRANCH   3   4
ENDBRANCH   2   3
TORSDOF 8
ENDMDL
MODEL      109
REMARK 921   NORMALIZED FREE ENERGY PREDICTED BY IDOCK:   -3.97 KCAL/MOL
REMARK 922        TOTAL FREE ENERGY PREDICTED BY IDOCK:   -6.77 KCAL/MOL
REMARK 923 INTER-LIGAND FREE ENERGY PREDICTED BY IDOCK:   -5.93 KCAL/MOL
REMARK 924 INTRA-LIGAND FREE ENERGY PREDICTED BY IDOCK:   -0.84 KCAL/MOL
REMARK 927      BINDING AFFINITY PREDICTED BY RF-SCORE:    0.00 PKD
ROOT
HETATM    1  C   UNL     1      -5.857  17.645  67.026  1.00  0.00    -0.174 C  
HETATM    2  C   UNL     1      -7.221  16.979  67.042  1.00  0.00    -0.189 C  
ENDROOT
BRANCH   2   3
HETATM    3  O   UNL     1      -7.402  16.404  68.339  1.00  0.00    -0.155 OA 
BRANCH   3   4
HETATM    4  C   UNL     1      -8.682  16.081  68.649  1.00  0.00    -0.206 C  
HETATM    5  O   UNL     1      -9.551  16.865  69.001  1.00  0.00    -0.260 OA 
BRANCH   4   6
HETATM    6  C   UNL     1      -8.938  14.631  68.429  1.00  0.00    -0.180 C  
HETATM    7  C   UNL     1     -10.172  14.160  68.200  1.00  0.00    -0.241 C  
HETATM    8  C   UNL     1     -10.444  12.768  67.734  1.00  0.00    -0.223 C  
HETATM    9  H2  UNL     1      -7.580  12.081  66.186  1.00  0.00     0.000 HD 
HETATM   10  C   UNL     1      -9.372  11.736  68.182  1.00  0.00    -0.190 C  
HETATM   11  H1  UNL     1      -6.160  12.154  67.090  1.00  0.00     0.000 HD 
HETATM   12  C   UNL     1      -7.712  13.774  68.427  1.00  0.00    -0.134 C  
HETATM   13  C   UNL     1      -7.904  12.256  68.231  1.00  0.00    -0.153 C  
HETATM   14  N   UNL     1      -7.122  11.814  67.058  1.00  0.00    -0.143 NA 
BRANCH   8  15
HETATM   15  O   UNL     1     -10.585  12.964  66.327  1.00  0.00    -0.261 OA 
BRANCH  15  16
HETATM   16  C   UNL     1     -11.836  12.682  65.708  1.00  0.00    -0.444 C  
BRANCH  16  17
HETATM   17  C   UNL     1     -11.536  11.769  64.505  1.00  0.00    -0.322 C  
HETATM   18  C   UNL     1     -12.563  11.901  63.386  1.00  0.00    -0.555 C  
ENDBRANCH  16  17
BRANCH  16  19
HETATM   19  C   UNL     1     -12.587  13.953  65.276  1.00  0.00    -0.508 C  
HETATM   20  C   UNL     1     -11.688  15.077  64.775  1.00  0.00    -0.370 C  
ENDBRANCH  16  19
ENDBRANCH  15  16
ENDBRANCH   8  15
BRANCH  10  21
HETATM   21  N   UNL     1      -9.741  11.105  69.468  1.00  0.00    -0.387 N  
HETATM   22  H   UNL     1      -9.507  11.576  70.343  1.00  0.00     0.000 HD 
HETATM   23  C   UNL     1     -10.396   9.894  69.504  1.00  0.00    -0.229 C  
HETATM   24  C   UNL     1     -10.741   9.406  70.887  1.00  0.00    -0.393 C  
HETATM   25  O   UNL     1     -10.691   9.252  68.504  1.00  0.00    -0.209 OA 
ENDBRANCH  10  21
ENDBRANCH   4   6
ENDBRANCH   3   4
ENDBRANCH   2   3
TORSDOF 8
ENDMDL
MODEL      110
REMARK 921   NORMALIZED FREE ENERGY PREDICTED BY IDOCK:   -3.95 KCAL/MOL
REMARK 922        TOTAL FREE ENERGY PREDICTED BY IDOCK:   -6.74 KCAL/MOL
REMARK 923 INTER-LIGAND FREE ENERGY PREDICTED BY IDOCK:   -5.94 KCAL/MOL
REMARK 924 INTRA-LIGAND FREE ENERGY PREDICTED BY IDOCK:   -0.80 KCAL/MOL
REMARK 927      BINDING AFFINITY PREDICTED BY RF-SCORE:    0.00 PKD
ROOT
HETATM    1  C   UNL     1     -10.405  16.755  66.310  1.00  0.00    -0.316 C  
HETATM    2  C   UNL     1      -8.889  16.693  66.273  1.00  0.00    -0.312 C  
ENDROOT
BRANCH   2   3
HETATM    3  O   UNL     1      -8.453  16.084  67.491  1.00  0.00    -0.157 OA 
BRANCH   3   4
HETATM    4  C   UNL     1      -7.495  15.136  67.347  1.00  0.00    -0.210 C  
HETATM    5  O   UNL     1      -6.311  15.345  67.125  1.00  0.00    -0.305 OA 
BRANCH   4   6
HETATM    6  C   UNL     1      -8.049  13.773  67.573  1.00  0.00    -0.192 C  
HETATM    7  C   UNL     1      -9.207  13.383  67.021  1.00  0.00    -0.242 C  
HETATM    8  C   UNL     1      -9.675  11.965  67.016  1.00  0.00    -0.194 C  
HETATM    9  H2  UNL     1      -6.761  10.369  67.206  1.00  0.00     0.000 HD 
HETATM   10  C   UNL     1      -9.153  11.127  68.215  1.00  0.00    -0.162 C  
HETATM   11  H1  UNL     1      -5.780  10.681  68.539  1.00  0.00     0.000 HD 
HETATM   12  C   UNL     1      -7.185  12.878  68.404  1.00  0.00    -0.113 C  
HETATM   13  C   UNL     1      -7.709  11.457  68.701  1.00  0.00    -0.137 C  
HETATM   14  N   UNL     1      -6.725  10.466  68.221  1.00  0.00    -0.060 NA 
BRANCH   8  15
HETATM   15  O   UNL     1      -9.262  11.537  65.718  1.00  0.00    -0.223 OA 
BRANCH  15  16
HETATM   16  C   UNL     1     -10.250  11.226  64.741  1.00  0.00    -0.292 C  
BRANCH  16  17
HETATM   17  C   UNL     1      -9.585  10.273  63.731  1.00  0.00    -0.344 C  
HETATM   18  C   UNL     1      -9.050  10.991  62.497  1.00  0.00    -0.362 C  
ENDBRANCH  16  17
BRANCH  16  19
HETATM   19  C   UNL     1     -10.815  12.477  64.046  1.00  0.00    -0.446 C  
HETATM   20  C   UNL     1     -12.221  12.864  64.487  1.00  0.00    -0.489 C  
ENDBRANCH  16  19
ENDBRANCH  15  16
ENDBRANCH   8  15
BRANCH  10  21
HETATM   21  N   UNL     1     -10.102  11.168  69.349  1.00  0.00    -0.428 N  
HETATM   22  H   UNL     1     -10.317  12.063  69.791  1.00  0.00     0.000 HD 
HETATM   23  C   UNL     1     -10.700  10.019  69.818  1.00  0.00    -0.271 C  
HETATM   24  C   UNL     1     -11.673  10.233  70.947  1.00  0.00    -0.472 C  
HETATM   25  O   UNL     1     -10.479   8.905  69.363  1.00  0.00    -0.217 OA 
ENDBRANCH  10  21
ENDBRANCH   4   6
ENDBRANCH   3   4
ENDBRANCH   2   3
TORSDOF 8
ENDMDL
MODEL      111
REMARK 921   NORMALIZED FREE ENERGY PREDICTED BY IDOCK:   -3.95 KCAL/MOL
REMARK 922        TOTAL FREE ENERGY PREDICTED BY IDOCK:   -6.74 KCAL/MOL
REMARK 923 INTER-LIGAND FREE ENERGY PREDICTED BY IDOCK:   -5.70 KCAL/MOL
REMARK 924 INTRA-LIGAND FREE ENERGY PREDICTED BY IDOCK:   -1.04 KCAL/MOL
REMARK 927      BINDING AFFINITY PREDICTED BY RF-SCORE:    0.00 PKD
ROOT
HETATM    1  C   UNL     1     -11.452  16.054  64.458  1.00  0.00    -0.274 C  
HETATM    2  C   UNL     1     -12.404  14.950  64.036  1.00  0.00    -0.059 C  
ENDROOT
BRANCH   2   3
HETATM    3  O   UNL     1     -12.816  14.263  65.221  1.00  0.00    -0.630 OA 
BRANCH   3   4
HETATM    4  C   UNL     1     -12.501  12.944  65.258  1.00  0.00    -0.493 C  
HETATM    5  O   UNL     1     -12.923  12.089  64.494  1.00  0.00    -0.570 OA 
BRANCH   4   6
HETATM    6  C   UNL     1     -11.493  12.662  66.316  1.00  0.00    -0.415 C  
HETATM    7  C   UNL     1     -10.381  13.400  66.445  1.00  0.00    -0.288 C  
HETATM    8  C   UNL     1      -9.474  13.314  67.627  1.00  0.00    -0.211 C  
HETATM    9  H2  UNL     1     -11.610  12.253  69.948  1.00  0.00     0.000 HD 
HETATM   10  C   UNL     1      -9.476  11.923  68.320  1.00  0.00    -0.197 C  
HETATM   11  H1  UNL     1     -12.400  10.790  69.679  1.00  0.00     0.000 HD 
HETATM   12  C   UNL     1     -11.855  11.542  67.239  1.00  0.00    -0.061 C  
HETATM   13  C   UNL     1     -10.843  11.176  68.345  1.00  0.00    -0.205 C  
HETATM   14  N   UNL     1     -11.505  11.280  69.662  1.00  0.00    -0.284 NA 
BRANCH   8  15
HETATM   15  O   UNL     1      -9.932  14.413  68.415  1.00  0.00    -0.228 OA 
BRANCH  15  16
HETATM   16  C   UNL     1      -9.631  15.741  67.998  1.00  0.00    -0.210 C  
BRANCH  16  17
HETATM   17  C   UNL     1      -8.372  16.170  68.774  1.00  0.00    -0.231 C  
HETATM   18  C   UNL     1      -7.140  16.306  67.884  1.00  0.00    -0.147 C  
ENDBRANCH  16  17
BRANCH  16  19
HETATM   19  C   UNL     1     -10.796  16.718  68.232  1.00  0.00    -0.366 C  
HETATM   20  C   UNL     1     -10.622  18.079  67.567  1.00  0.00    -0.402 C  
ENDBRANCH  16  19
ENDBRANCH  15  16
ENDBRANCH   8  15
BRANCH  10  21
HETATM   21  N   UNL     1      -8.419  11.049  67.766  1.00  0.00    -0.120 N  
HETATM   22  H   UNL     1      -8.226  11.069  66.764  1.00  0.00     0.000 HD 
HETATM   23  C   UNL     1      -7.690  10.210  68.580  1.00  0.00    -0.090 C  
HETATM   24  C   UNL     1      -6.623   9.418  67.873  1.00  0.00    -0.063 C  
HETATM   25  O   UNL     1      -7.875  10.108  69.786  1.00  0.00    -0.154 OA 
ENDBRANCH  10  21
ENDBRANCH   4   6
ENDBRANCH   3   4
ENDBRANCH   2   3
TORSDOF 8
ENDMDL
MODEL      112
REMARK 921   NORMALIZED FREE ENERGY PREDICTED BY IDOCK:   -3.95 KCAL/MOL
REMARK 922        TOTAL FREE ENERGY PREDICTED BY IDOCK:   -6.74 KCAL/MOL
REMARK 923 INTER-LIGAND FREE ENERGY PREDICTED BY IDOCK:   -5.58 KCAL/MOL
REMARK 924 INTRA-LIGAND FREE ENERGY PREDICTED BY IDOCK:   -1.16 KCAL/MOL
REMARK 927      BINDING AFFINITY PREDICTED BY RF-SCORE:    0.00 PKD
ROOT
HETATM    1  C   UNL     1      -8.083   8.122  64.357  1.00  0.00    -0.138 C  
HETATM    2  C   UNL     1      -7.337   9.345  63.853  1.00  0.00    -0.105 C  
ENDROOT
BRANCH   2   3
HETATM    3  O   UNL     1      -7.972  10.497  64.415  1.00  0.00    -0.121 OA 
BRANCH   3   4
HETATM    4  C   UNL     1      -7.709  10.713  65.728  1.00  0.00    -0.130 C  
HETATM    5  O   UNL     1      -6.632  10.538  66.278  1.00  0.00    -0.101 OA 
BRANCH   4   6
HETATM    6  C   UNL     1      -8.896  11.278  66.428  1.00  0.00    -0.184 C  
HETATM    7  C   UNL     1      -8.770  12.041  67.523  1.00  0.00    -0.166 C  
HETATM    8  C   UNL     1      -9.897  12.825  68.108  1.00  0.00    -0.226 C  
HETATM    9  H2  UNL     1     -11.789  13.268  65.406  1.00  0.00     0.000 HD 
HETATM   10  C   UNL     1     -11.297  12.204  67.843  1.00  0.00    -0.300 C  
HETATM   11  H1  UNL     1     -12.351  11.896  64.606  1.00  0.00     0.000 HD 
HETATM   12  C   UNL     1     -10.208  10.973  65.777  1.00  0.00    -0.316 C  
HETATM   13  C   UNL     1     -11.483  11.505  66.462  1.00  0.00    -0.102 C  
HETATM   14  N   UNL     1     -12.229  12.354  65.510  1.00  0.00    -0.604 NA 
BRANCH   8  15
HETATM   15  O   UNL     1      -9.663  14.117  67.548  1.00  0.00    -0.227 OA 
BRANCH  15  16
HETATM   16  C   UNL     1     -10.704  15.089  67.584  1.00  0.00    -0.274 C  
BRANCH  16  17
HETATM   17  C   UNL     1     -10.720  15.766  66.201  1.00  0.00    -0.293 C  
HETATM   18  C   UNL     1     -10.238  14.848  65.082  1.00  0.00    -0.409 C  
ENDBRANCH  16  17
BRANCH  16  19
HETATM   19  C   UNL     1     -10.520  16.119  68.712  1.00  0.00    -0.264 C  
HETATM   20  C   UNL     1      -9.118  16.709  68.806  1.00  0.00    -0.256 C  
ENDBRANCH  16  19
ENDBRANCH  15  16
ENDBRANCH   8  15
BRANCH  10  21
HETATM   21  N   UNL     1     -11.695  11.296  68.940  1.00  0.00    -0.316 N  
HETATM   22  H   UNL     1     -11.553  10.290  68.836  1.00  0.00     0.000 HD 
HETATM   23  C   UNL     1     -12.253  11.784  70.102  1.00  0.00    -0.263 C  
HETATM   24  C   UNL     1     -12.563  10.738  71.139  1.00  0.00    -0.532 C  
HETATM   25  O   UNL     1     -12.479  12.971  70.298  1.00  0.00    -0.249 OA 
ENDBRANCH  10  21
ENDBRANCH   4   6
ENDBRANCH   3   4
ENDBRANCH   2   3
TORSDOF 8
ENDMDL
MODEL      113
REMARK 921   NORMALIZED FREE ENERGY PREDICTED BY IDOCK:   -3.94 KCAL/MOL
REMARK 922        TOTAL FREE ENERGY PREDICTED BY IDOCK:   -6.73 KCAL/MOL
REMARK 923 INTER-LIGAND FREE ENERGY PREDICTED BY IDOCK:   -5.64 KCAL/MOL
REMARK 924 INTRA-LIGAND FREE ENERGY PREDICTED BY IDOCK:   -1.09 KCAL/MOL
REMARK 927      BINDING AFFINITY PREDICTED BY RF-SCORE:    0.00 PKD
ROOT
HETATM    1  C   UNL     1      -9.085  18.002  66.559  1.00  0.00    -0.283 C  
HETATM    2  C   UNL     1      -9.442  17.823  68.023  1.00  0.00    -0.281 C  
ENDROOT
BRANCH   2   3
HETATM    3  O   UNL     1      -9.376  16.424  68.314  1.00  0.00    -0.202 OA 
BRANCH   3   4
HETATM    4  C   UNL     1     -10.548  15.755  68.178  1.00  0.00    -0.275 C  
HETATM    5  O   UNL     1     -11.658  16.203  68.423  1.00  0.00    -0.355 OA 
BRANCH   4   6
HETATM    6  C   UNL     1     -10.328  14.398  67.606  1.00  0.00    -0.237 C  
HETATM    7  C   UNL     1      -9.097  13.935  67.344  1.00  0.00    -0.217 C  
HETATM    8  C   UNL     1      -8.815  12.509  67.007  1.00  0.00    -0.212 C  
HETATM    9  H2  UNL     1     -11.380  11.015  68.511  1.00  0.00     0.000 HD 
HETATM   10  C   UNL     1     -10.000  11.780  66.315  1.00  0.00    -0.218 C  
HETATM   11  H1  UNL     1     -12.934  11.455  68.037  1.00  0.00     0.000 HD 
HETATM   12  C   UNL     1     -11.574  13.594  67.411  1.00  0.00    -0.389 C  
HETATM   13  C   UNL     1     -11.425  12.187  66.797  1.00  0.00    -0.356 C  
HETATM   14  N   UNL     1     -12.001  11.189  67.722  1.00  0.00    -0.603 NA 
BRANCH   8  15
HETATM   15  O   UNL     1      -8.410  11.994  68.276  1.00  0.00    -0.153 OA 
BRANCH  15  16
HETATM   16  C   UNL     1      -7.319  11.080  68.340  1.00  0.00    -0.096 C  
BRANCH  16  17
HETATM   17  C   UNL     1      -7.752   9.944  69.285  1.00  0.00    -0.109 C  
HETATM   18  C   UNL     1      -9.232  10.002  69.648  1.00  0.00    -0.236 C  
ENDBRANCH  16  17
BRANCH  16  19
HETATM   19  C   UNL     1      -6.015  11.743  68.816  1.00  0.00    -0.048 C  
HETATM   20  C   UNL     1      -5.965  12.036  70.311  1.00  0.00    -0.143 C  
ENDBRANCH  16  19
ENDBRANCH  15  16
ENDBRANCH   8  15
BRANCH  10  21
HETATM   21  N   UNL     1      -9.903  11.882  64.842  1.00  0.00    -0.350 N  
HETATM   22  H   UNL     1     -10.074  12.780  64.389  1.00  0.00     0.000 HD 
HETATM   23  C   UNL     1      -9.586  10.784  64.073  1.00  0.00    -0.291 C  
HETATM   24  C   UNL     1      -9.483  11.059  62.596  1.00  0.00    -0.322 C  
HETATM   25  O   UNL     1      -9.390   9.667  64.534  1.00  0.00    -0.261 OA 
ENDBRANCH  10  21
ENDBRANCH   4   6
ENDBRANCH   3   4
ENDBRANCH   2   3
TORSDOF 8
ENDMDL
MODEL      114
REMARK 921   NORMALIZED FREE ENERGY PREDICTED BY IDOCK:   -3.94 KCAL/MOL
REMARK 922        TOTAL FREE ENERGY PREDICTED BY IDOCK:   -6.73 KCAL/MOL
REMARK 923 INTER-LIGAND FREE ENERGY PREDICTED BY IDOCK:   -6.16 KCAL/MOL
REMARK 924 INTRA-LIGAND FREE ENERGY PREDICTED BY IDOCK:   -0.56 KCAL/MOL
REMARK 927      BINDING AFFINITY PREDICTED BY RF-SCORE:    0.00 PKD
ROOT
HETATM    1  C   UNL     1     -11.713  15.479  72.183  1.00  0.00    -0.566 C  
HETATM    2  C   UNL     1     -12.499  15.373  70.889  1.00  0.00    -0.418 C  
ENDROOT
BRANCH   2   3
HETATM    3  O   UNL     1     -12.906  14.009  70.745  1.00  0.00    -0.323 OA 
BRANCH   3   4
HETATM    4  C   UNL     1     -12.039  13.221  70.062  1.00  0.00    -0.315 C  
HETATM    5  O   UNL     1     -11.850  12.030  70.259  1.00  0.00    -0.333 OA 
BRANCH   4   6
HETATM    6  C   UNL     1     -11.379  13.976  68.962  1.00  0.00    -0.319 C  
HETATM    7  C   UNL     1     -10.069  14.260  68.990  1.00  0.00    -0.130 C  
HETATM    8  C   UNL     1      -9.321  14.791  67.811  1.00  0.00    -0.199 C  
HETATM    9  H2  UNL     1     -11.194  13.607  65.328  1.00  0.00     0.000 HD 
HETATM   10  C   UNL     1     -10.198  15.621  66.834  1.00  0.00    -0.281 C  
HETATM   11  H1  UNL     1     -12.814  14.065  65.278  1.00  0.00     0.000 HD 
HETATM   12  C   UNL     1     -12.279  14.328  67.820  1.00  0.00    -0.199 C  
HETATM   13  C   UNL     1     -11.668  15.134  66.655  1.00  0.00    -0.047 C  
HETATM   14  N   UNL     1     -11.852  14.384  65.395  1.00  0.00    -0.360 NA 
BRANCH   8  15
HETATM   15  O   UNL     1      -8.743  13.597  67.283  1.00  0.00    -0.199 OA 
BRANCH  15  16
HETATM   16  C   UNL     1      -8.281  12.592  68.181  1.00  0.00    -0.170 C  
BRANCH  16  17
HETATM   17  C   UNL     1      -6.750  12.739  68.254  1.00  0.00    -0.087 C  
HETATM   18  C   UNL     1      -6.278  13.446  69.520  1.00  0.00    -0.114 C  
ENDBRANCH  16  17
BRANCH  16  19
HETATM   19  C   UNL     1      -8.691  11.174  67.750  1.00  0.00    -0.132 C  
HETATM   20  C   UNL     1      -8.802  10.173  68.894  1.00  0.00    -0.154 C  
ENDBRANCH  16  19
ENDBRANCH  15  16
ENDBRANCH   8  15
BRANCH  10  21
HETATM   21  N   UNL     1     -10.168  17.059  67.179  1.00  0.00    -0.300 N  
HETATM   22  H   UNL     1      -9.933  17.342  68.131  1.00  0.00     0.000 HD 
HETATM   23  C   UNL     1     -10.452  18.023  66.236  1.00  0.00    -0.335 C  
HETATM   24  C   UNL     1     -10.336  19.440  66.731  1.00  0.00    -0.545 C  
HETATM   25  O   UNL     1     -10.767  17.769  65.080  1.00  0.00    -0.638 OA 
ENDBRANCH  10  21
ENDBRANCH   4   6
ENDBRANCH   3   4
ENDBRANCH   2   3
TORSDOF 8
ENDMDL
MODEL      115
REMARK 921   NORMALIZED FREE ENERGY PREDICTED BY IDOCK:   -3.91 KCAL/MOL
REMARK 922        TOTAL FREE ENERGY PREDICTED BY IDOCK:   -6.69 KCAL/MOL
REMARK 923 INTER-LIGAND FREE ENERGY PREDICTED BY IDOCK:   -5.60 KCAL/MOL
REMARK 924 INTRA-LIGAND FREE ENERGY PREDICTED BY IDOCK:   -1.09 KCAL/MOL
REMARK 927      BINDING AFFINITY PREDICTED BY RF-SCORE:    0.00 PKD
ROOT
HETATM    1  C   UNL     1     -12.116  14.781  64.554  1.00  0.00    -0.460 C  
HETATM    2  C   UNL     1     -10.691  15.002  65.029  1.00  0.00    -0.427 C  
ENDROOT
BRANCH   2   3
HETATM    3  O   UNL     1     -10.760  15.649  66.303  1.00  0.00    -0.308 OA 
BRANCH   3   4
HETATM    4  C   UNL     1     -11.077  14.837  67.342  1.00  0.00    -0.324 C  
HETATM    5  O   UNL     1     -12.089  14.913  68.024  1.00  0.00    -0.252 OA 
BRANCH   4   6
HETATM    6  C   UNL     1     -10.062  13.761  67.513  1.00  0.00    -0.241 C  
HETATM    7  C   UNL     1     -10.329  12.485  67.198  1.00  0.00    -0.230 C  
HETATM    8  C   UNL     1      -9.279  11.426  67.118  1.00  0.00    -0.166 C  
HETATM    9  H2  UNL     1      -6.604  13.280  66.427  1.00  0.00     0.000 HD 
HETATM   10  C   UNL     1      -8.061  11.679  68.048  1.00  0.00    -0.139 C  
HETATM   11  H1  UNL     1      -6.174  14.481  67.526  1.00  0.00     0.000 HD 
HETATM   12  C   UNL     1      -8.729  14.233  68.001  1.00  0.00    -0.177 C  
HETATM   13  C   UNL     1      -7.636  13.168  68.226  1.00  0.00    -0.139 C  
HETATM   14  N   UNL     1      -6.452  13.507  67.409  1.00  0.00    -0.279 NA 
BRANCH   8  15
HETATM   15  O   UNL     1      -9.011  11.400  65.717  1.00  0.00    -0.204 OA 
BRANCH  15  16
HETATM   16  C   UNL     1      -8.986  10.148  65.037  1.00  0.00    -0.195 C  
BRANCH  16  17
HETATM   17  C   UNL     1      -9.578  10.397  63.637  1.00  0.00    -0.364 C  
HETATM   18  C   UNL     1     -10.727  11.399  63.646  1.00  0.00    -0.470 C  
ENDBRANCH  16  17
BRANCH  16  19
HETATM   19  C   UNL     1      -9.757   9.048  65.787  1.00  0.00    -0.254 C  
HETATM   20  C   UNL     1      -8.984   7.747  65.968  1.00  0.00    -0.185 C  
ENDBRANCH  16  19
ENDBRANCH  15  16
ENDBRANCH   8  15
BRANCH  10  21
HETATM   21  N   UNL     1      -8.251  11.034  69.366  1.00  0.00    -0.381 N  
HETATM   22  H   UNL     1      -8.678  11.564  70.127  1.00  0.00     0.000 HD 
HETATM   23  C   UNL     1      -7.861   9.731  69.583  1.00  0.00    -0.142 C  
HETATM   24  C   UNL     1      -8.162   9.205  70.962  1.00  0.00    -0.186 C  
HETATM   25  O   UNL     1      -7.320   9.035  68.734  1.00  0.00    -0.074 OA 
ENDBRANCH  10  21
ENDBRANCH   4   6
ENDBRANCH   3   4
ENDBRANCH   2   3
TORSDOF 8
ENDMDL
MODEL      116
REMARK 921   NORMALIZED FREE ENERGY PREDICTED BY IDOCK:   -3.91 KCAL/MOL
REMARK 922        TOTAL FREE ENERGY PREDICTED BY IDOCK:   -6.69 KCAL/MOL
REMARK 923 INTER-LIGAND FREE ENERGY PREDICTED BY IDOCK:   -5.86 KCAL/MOL
REMARK 924 INTRA-LIGAND FREE ENERGY PREDICTED BY IDOCK:   -0.82 KCAL/MOL
REMARK 927      BINDING AFFINITY PREDICTED BY RF-SCORE:    0.00 PKD
ROOT
HETATM    1  C   UNL     1      -7.831   7.372  64.325  1.00  0.00    -0.127 C  
HETATM    2  C   UNL     1      -8.204   7.149  65.779  1.00  0.00    -0.132 C  
ENDROOT
BRANCH   2   3
HETATM    3  O   UNL     1      -8.365   8.435  66.383  1.00  0.00    -0.109 OA 
BRANCH   3   4
HETATM    4  C   UNL     1      -9.223   8.472  67.433  1.00  0.00    -0.140 C  
HETATM    5  O   UNL     1      -9.431   7.557  68.217  1.00  0.00    -0.144 OA 
BRANCH   4   6
HETATM    6  C   UNL     1      -9.842   9.818  67.575  1.00  0.00    -0.209 C  
HETATM    7  C   UNL     1     -11.103   9.971  68.004  1.00  0.00    -0.263 C  
HETATM    8  C   UNL     1     -11.680  11.292  68.394  1.00  0.00    -0.294 C  
HETATM    9  H2  UNL     1      -8.915  12.920  69.276  1.00  0.00     0.000 HD 
HETATM   10  C   UNL     1     -11.039  12.499  67.656  1.00  0.00    -0.258 C  
HETATM   11  H1  UNL     1      -7.706  13.102  68.117  1.00  0.00     0.000 HD 
HETATM   12  C   UNL     1      -8.930  10.961  67.259  1.00  0.00    -0.139 C  
HETATM   13  C   UNL     1      -9.513  12.386  67.360  1.00  0.00    -0.186 C  
HETATM   14  N   UNL     1      -8.705  13.176  68.312  1.00  0.00    -0.178 NA 
BRANCH   8  15
HETATM   15  O   UNL     1     -11.521  11.261  69.813  1.00  0.00    -0.274 OA 
BRANCH  15  16
HETATM   16  C   UNL     1     -12.581  10.757  70.620  1.00  0.00    -0.357 C  
BRANCH  16  17
HETATM   17  C   UNL     1     -12.899  11.848  71.659  1.00  0.00    -0.417 C  
HETATM   18  C   UNL     1     -12.598  13.256  71.156  1.00  0.00    -0.412 C  
ENDBRANCH  16  17
BRANCH  16  19
HETATM   19  C   UNL     1     -12.229   9.421  71.297  1.00  0.00    -0.425 C  
HETATM   20  C   UNL     1     -10.735   9.145  71.413  1.00  0.00    -0.414 C  
ENDBRANCH  16  19
ENDBRANCH  15  16
ENDBRANCH   8  15
BRANCH  10  21
HETATM   21  N   UNL     1     -11.783  12.826  66.420  1.00  0.00    -0.384 N  
HETATM   22  H   UNL     1     -12.278  12.086  65.922  1.00  0.00     0.000 HD 
HETATM   23  C   UNL     1     -11.820  14.114  65.931  1.00  0.00    -0.384 C  
HETATM   24  C   UNL     1     -12.654  14.293  64.691  1.00  0.00    -0.277 C  
HETATM   25  O   UNL     1     -11.234  15.054  66.453  1.00  0.00    -0.342 OA 
ENDBRANCH  10  21
ENDBRANCH   4   6
ENDBRANCH   3   4
ENDBRANCH   2   3
TORSDOF 8
ENDMDL
MODEL      117
REMARK 921   NORMALIZED FREE ENERGY PREDICTED BY IDOCK:   -3.89 KCAL/MOL
REMARK 922        TOTAL FREE ENERGY PREDICTED BY IDOCK:   -6.65 KCAL/MOL
REMARK 923 INTER-LIGAND FREE ENERGY PREDICTED BY IDOCK:   -5.74 KCAL/MOL
REMARK 924 INTRA-LIGAND FREE ENERGY PREDICTED BY IDOCK:   -0.91 KCAL/MOL
REMARK 927      BINDING AFFINITY PREDICTED BY RF-SCORE:    0.00 PKD
ROOT
HETATM    1  C   UNL     1      -7.486   9.309  62.372  1.00  0.00    -0.104 C  
HETATM    2  C   UNL     1      -8.890   9.686  62.810  1.00  0.00    -0.247 C  
ENDROOT
BRANCH   2   3
HETATM    3  O   UNL     1      -8.950   9.538  64.231  1.00  0.00    -0.228 OA 
BRANCH   3   4
HETATM    4  C   UNL     1      -9.916  10.268  64.843  1.00  0.00    -0.323 C  
HETATM    5  O   UNL     1     -10.682  11.043  64.290  1.00  0.00    -0.368 OA 
BRANCH   4   6
HETATM    6  C   UNL     1      -9.990   9.951  66.295  1.00  0.00    -0.322 C  
HETATM    7  C   UNL     1     -10.661   8.882  66.749  1.00  0.00    -0.212 C  
HETATM    8  C   UNL     1     -10.559   8.388  68.154  1.00  0.00    -0.118 C  
HETATM    9  H2  UNL     1      -7.536   9.514  68.971  1.00  0.00     0.000 HD 
HETATM   10  C   UNL     1     -10.232   9.501  69.188  1.00  0.00    -0.201 C  
HETATM   11  H1  UNL     1      -7.266  11.174  68.888  1.00  0.00     0.000 HD 
HETATM   12  C   UNL     1      -9.217  10.879  67.177  1.00  0.00    -0.159 C  
HETATM   13  C   UNL     1      -9.270  10.625  68.698  1.00  0.00    -0.181 C  
HETATM   14  N   UNL     1      -7.896  10.438  69.208  1.00  0.00    -0.135 NA 
BRANCH   8  15
HETATM   15  O   UNL     1      -9.592   7.347  68.019  1.00  0.00    -0.140 OA 
BRANCH  15  16
HETATM   16  C   UNL     1      -9.944   6.018  68.394  1.00  0.00    -0.145 C  
BRANCH  16  17
HETATM   17  C   UNL     1     -10.258   5.262  67.090  1.00  0.00    -0.264 C  
HETATM   18  C   UNL     1      -9.228   4.187  66.761  1.00  0.00    -0.169 C  
ENDBRANCH  16  17
BRANCH  16  19
HETATM   19  C   UNL     1     -11.130   5.970  69.372  1.00  0.00    -0.445 C  
HETATM   20  C   UNL     1     -10.735   5.836  70.838  1.00  0.00    -0.333 C  
ENDBRANCH  16  19
ENDBRANCH  15  16
ENDBRANCH   8  15
BRANCH  10  21
HETATM   21  N   UNL     1     -11.467  10.087  69.752  1.00  0.00    -0.373 N  
HETATM   22  H   UNL     1     -12.069  10.657  69.158  1.00  0.00     0.000 HD 
HETATM   23  C   UNL     1     -11.819   9.875  71.068  1.00  0.00    -0.376 C  
HETATM   24  C   UNL     1     -13.125  10.500  71.478  1.00  0.00    -0.532 C  
HETATM   25  O   UNL     1     -11.141   9.225  71.854  1.00  0.00    -0.367 OA 
ENDBRANCH  10  21
ENDBRANCH   4   6
ENDBRANCH   3   4
ENDBRANCH   2   3
TORSDOF 8
ENDMDL
MODEL      118
REMARK 921   NORMALIZED FREE ENERGY PREDICTED BY IDOCK:   -3.89 KCAL/MOL
REMARK 922        TOTAL FREE ENERGY PREDICTED BY IDOCK:   -6.65 KCAL/MOL
REMARK 923 INTER-LIGAND FREE ENERGY PREDICTED BY IDOCK:   -5.73 KCAL/MOL
REMARK 924 INTRA-LIGAND FREE ENERGY PREDICTED BY IDOCK:   -0.92 KCAL/MOL
REMARK 927      BINDING AFFINITY PREDICTED BY RF-SCORE:    0.00 PKD
ROOT
HETATM    1  C   UNL     1     -14.372   7.416  71.678  1.00  0.00    -0.614 C  
HETATM    2  C   UNL     1     -12.857   7.380  71.602  1.00  0.00    -0.367 C  
ENDROOT
BRANCH   2   3
HETATM    3  O   UNL     1     -12.503   6.644  70.428  1.00  0.00    -0.196 OA 
BRANCH   3   4
HETATM    4  C   UNL     1     -11.251   6.123  70.433  1.00  0.00    -0.353 C  
HETATM    5  O   UNL     1     -10.663   5.690  71.414  1.00  0.00    -0.247 OA 
BRANCH   4   6
HETATM    6  C   UNL     1     -10.686   6.064  69.057  1.00  0.00    -0.393 C  
HETATM    7  C   UNL     1     -11.158   6.838  68.069  1.00  0.00    -0.246 C  
HETATM    8  C   UNL     1     -10.472   6.993  66.753  1.00  0.00    -0.227 C  
HETATM    9  H2  UNL     1      -7.330   6.335  67.630  1.00  0.00     0.000 HD 
HETATM   10  C   UNL     1      -9.632   5.756  66.333  1.00  0.00    -0.153 C  
HETATM   11  H1  UNL     1      -7.004   4.830  68.313  1.00  0.00     0.000 HD 
HETATM   12  C   UNL     1      -9.532   5.128  68.896  1.00  0.00    -0.184 C  
HETATM   13  C   UNL     1      -8.913   4.996  67.489  1.00  0.00    -0.110 C  
HETATM   14  N   UNL     1      -7.474   5.328  67.557  1.00  0.00    -0.083 NA 
BRANCH   8  15
HETATM   15  O   UNL     1      -9.751   8.209  66.952  1.00  0.00    -0.186 OA 
BRANCH  15  16
HETATM   16  C   UNL     1     -10.297   9.430  66.462  1.00  0.00    -0.198 C  
BRANCH  16  17
HETATM   17  C   UNL     1      -9.535   9.764  65.166  1.00  0.00    -0.338 C  
HETATM   18  C   UNL     1      -9.867  11.148  64.619  1.00  0.00    -0.330 C  
ENDBRANCH  16  17
BRANCH  16  19
HETATM   19  C   UNL     1     -10.201  10.577  67.483  1.00  0.00    -0.245 C  
HETATM   20  C   UNL     1     -11.450  10.771  68.334  1.00  0.00    -0.358 C  
ENDBRANCH  16  19
ENDBRANCH  15  16
ENDBRANCH   8  15
BRANCH  10  21
HETATM   21  N   UNL     1     -10.433   4.817  65.517  1.00  0.00    -0.472 N  
HETATM   22  H   UNL     1     -11.426   4.698  65.720  1.00  0.00     0.000 HD 
HETATM   23  C   UNL     1      -9.861   4.103  64.487  1.00  0.00    -0.162 C  
HETATM   24  C   UNL     1     -10.816   3.225  63.724  1.00  0.00    -0.161 C  
HETATM   25  O   UNL     1      -8.674   4.169  64.194  1.00  0.00    -0.110 OA 
ENDBRANCH  10  21
ENDBRANCH   4   6
ENDBRANCH   3   4
ENDBRANCH   2   3
TORSDOF 8
ENDMDL
MODEL      119
REMARK 921   NORMALIZED FREE ENERGY PREDICTED BY IDOCK:   -3.88 KCAL/MOL
REMARK 922        TOTAL FREE ENERGY PREDICTED BY IDOCK:   -6.64 KCAL/MOL
REMARK 923 INTER-LIGAND FREE ENERGY PREDICTED BY IDOCK:   -5.63 KCAL/MOL
REMARK 924 INTRA-LIGAND FREE ENERGY PREDICTED BY IDOCK:   -1.01 KCAL/MOL
REMARK 927      BINDING AFFINITY PREDICTED BY RF-SCORE:    0.00 PKD
ROOT
HETATM    1  C   UNL     1     -11.842  15.255  69.704  1.00  0.00    -0.363 C  
HETATM    2  C   UNL     1     -11.888  14.681  68.299  1.00  0.00    -0.298 C  
ENDROOT
BRANCH   2   3
HETATM    3  O   UNL     1     -12.271  13.307  68.409  1.00  0.00    -0.271 OA 
BRANCH   3   4
HETATM    4  C   UNL     1     -11.813  12.504  67.418  1.00  0.00    -0.312 C  
HETATM    5  O   UNL     1     -12.187  12.523  66.254  1.00  0.00    -0.600 OA 
BRANCH   4   6
HETATM    6  C   UNL     1     -10.716  11.622  67.903  1.00  0.00    -0.241 C  
HETATM    7  C   UNL     1     -10.689  11.160  69.162  1.00  0.00    -0.262 C  
HETATM    8  C   UNL     1      -9.757  10.088  69.619  1.00  0.00    -0.229 C  
HETATM    9  H2  UNL     1      -9.219   8.491  66.750  1.00  0.00     0.000 HD 
HETATM   10  C   UNL     1      -8.424  10.034  68.823  1.00  0.00    -0.126 C  
HETATM   11  H1  UNL     1      -8.558   9.369  65.473  1.00  0.00     0.000 HD 
HETATM   12  C   UNL     1      -9.702  11.259  66.865  1.00  0.00    -0.215 C  
HETATM   13  C   UNL     1      -8.522  10.368  67.304  1.00  0.00    -0.122 C  
HETATM   14  N   UNL     1      -8.494   9.151  66.468  1.00  0.00    -0.121 NA 
BRANCH   8  15
HETATM   15  O   UNL     1     -10.591   8.933  69.534  1.00  0.00    -0.230 OA 
BRANCH  15  16
HETATM   16  C   UNL     1     -10.538   7.959  70.572  1.00  0.00    -0.223 C  
BRANCH  16  17
HETATM   17  C   UNL     1     -11.732   7.013  70.349  1.00  0.00    -0.326 C  
HETATM   18  C   UNL     1     -12.844   7.205  71.376  1.00  0.00    -0.431 C  
ENDBRANCH  16  17
BRANCH  16  19
HETATM   19  C   UNL     1     -10.569   8.583  71.977  1.00  0.00    -0.408 C  
HETATM   20  C   UNL     1      -9.413   8.167  72.879  1.00  0.00    -0.345 C  
ENDBRANCH  16  19
ENDBRANCH  15  16
ENDBRANCH   8  15
BRANCH  10  21
HETATM   21  N   UNL     1      -7.382  10.862  69.469  1.00  0.00    -0.257 N  
HETATM   22  H   UNL     1      -7.322  11.856  69.247  1.00  0.00     0.000 HD 
HETATM   23  C   UNL     1      -6.491  10.314  70.366  1.00  0.00    -0.131 C  
HETATM   24  C   UNL     1      -5.521  11.294  70.969  1.00  0.00    -0.068 C  
HETATM   25  O   UNL     1      -6.477   9.127  70.668  1.00  0.00    -0.051 OA 
ENDBRANCH  10  21
ENDBRANCH   4   6
ENDBRANCH   3   4
ENDBRANCH   2   3
TORSDOF 8
ENDMDL
MODEL      120
REMARK 921   NORMALIZED FREE ENERGY PREDICTED BY IDOCK:   -3.88 KCAL/MOL
REMARK 922        TOTAL FREE ENERGY PREDICTED BY IDOCK:   -6.63 KCAL/MOL
REMARK 923 INTER-LIGAND FREE ENERGY PREDICTED BY IDOCK:   -5.78 KCAL/MOL
REMARK 924 INTRA-LIGAND FREE ENERGY PREDICTED BY IDOCK:   -0.85 KCAL/MOL
REMARK 927      BINDING AFFINITY PREDICTED BY RF-SCORE:    0.00 PKD
ROOT
HETATM    1  C   UNL     1     -13.388  11.707  72.074  1.00  0.00    -0.405 C  
HETATM    2  C   UNL     1     -12.719  10.495  71.450  1.00  0.00    -0.442 C  
ENDROOT
BRANCH   2   3
HETATM    3  O   UNL     1     -12.520  10.781  70.063  1.00  0.00    -0.325 OA 
BRANCH   3   4
HETATM    4  C   UNL     1     -11.269  10.533  69.601  1.00  0.00    -0.282 C  
HETATM    5  O   UNL     1     -10.659   9.480  69.722  1.00  0.00    -0.212 OA 
BRANCH   4   6
HETATM    6  C   UNL     1     -10.737  11.696  68.839  1.00  0.00    -0.244 C  
HETATM    7  C   UNL     1     -10.144  11.545  67.646  1.00  0.00    -0.202 C  
HETATM    8  C   UNL     1      -9.821  12.688  66.742  1.00  0.00    -0.235 C  
HETATM    9  H2  UNL     1     -12.110  14.895  67.721  1.00  0.00     0.000 HD 
HETATM   10  C   UNL     1      -9.561  14.025  67.490  1.00  0.00    -0.228 C  
HETATM   11  H1  UNL     1     -12.101  15.374  69.336  1.00  0.00     0.000 HD 
HETATM   12  C   UNL     1     -10.972  13.025  69.484  1.00  0.00     0.035 C  
HETATM   13  C   UNL     1     -10.424  14.274  68.763  1.00  0.00    -0.249 C  
HETATM   14  N   UNL     1     -11.536  15.211  68.502  1.00  0.00    -0.305 NA 
BRANCH   8  15
HETATM   15  O   UNL     1     -10.937  12.668  65.852  1.00  0.00    -0.268 OA 
BRANCH  15  16
HETATM   16  C   UNL     1     -11.028  11.636  64.875  1.00  0.00    -0.284 C  
BRANCH  16  17
HETATM   17  C   UNL     1      -9.627  11.494  64.253  1.00  0.00    -0.174 C  
HETATM   18  C   UNL     1      -9.654  10.881  62.857  1.00  0.00    -0.371 C  
ENDBRANCH  16  17
BRANCH  16  19
HETATM   19  C   UNL     1     -12.093  11.924  63.803  1.00  0.00    -0.547 C  
HETATM   20  C   UNL     1     -12.248  13.397  63.446  1.00  0.00    -0.419 C  
ENDBRANCH  16  19
ENDBRANCH  15  16
ENDBRANCH   8  15
BRANCH  10  21
HETATM   21  N   UNL     1      -8.124  14.194  67.798  1.00  0.00    -0.151 N  
HETATM   22  H   UNL     1      -7.577  13.386  68.099  1.00  0.00     0.000 HD 
HETATM   23  C   UNL     1      -7.512  15.423  67.685  1.00  0.00    -0.173 C  
HETATM   24  C   UNL     1      -6.037  15.422  67.992  1.00  0.00    -0.154 C  
HETATM   25  O   UNL     1      -8.099  16.445  67.356  1.00  0.00    -0.143 OA 
ENDBRANCH  10  21
ENDBRANCH   4   6
ENDBRANCH   3   4
ENDBRANCH   2   3
TORSDOF 8
ENDMDL
MODEL      121
REMARK 921   NORMALIZED FREE ENERGY PREDICTED BY IDOCK:   -3.87 KCAL/MOL
REMARK 922        TOTAL FREE ENERGY PREDICTED BY IDOCK:   -6.63 KCAL/MOL
REMARK 923 INTER-LIGAND FREE ENERGY PREDICTED BY IDOCK:   -5.89 KCAL/MOL
REMARK 924 INTRA-LIGAND FREE ENERGY PREDICTED BY IDOCK:   -0.74 KCAL/MOL
REMARK 927      BINDING AFFINITY PREDICTED BY RF-SCORE:    0.00 PKD
ROOT
HETATM    1  C   UNL     1     -10.284   8.977  71.419  1.00  0.00    -0.399 C  
HETATM    2  C   UNL     1     -11.403   9.935  71.053  1.00  0.00    -0.386 C  
ENDROOT
BRANCH   2   3
HETATM    3  O   UNL     1     -10.974  10.678  69.908  1.00  0.00    -0.270 OA 
BRANCH   3   4
HETATM    4  C   UNL     1     -11.587  11.876  69.741  1.00  0.00    -0.286 C  
HETATM    5  O   UNL     1     -12.439  12.352  70.478  1.00  0.00    -0.278 OA 
BRANCH   4   6
HETATM    6  C   UNL     1     -11.033  12.604  68.566  1.00  0.00    -0.292 C  
HETATM    7  C   UNL     1      -9.740  12.950  68.498  1.00  0.00    -0.129 C  
HETATM    8  C   UNL     1      -9.092  13.453  67.250  1.00  0.00    -0.222 C  
HETATM    9  H2  UNL     1     -11.049  12.057  64.950  1.00  0.00     0.000 HD 
HETATM   10  C   UNL     1     -10.066  14.190  66.290  1.00  0.00    -0.300 C  
HETATM   11  H1  UNL     1     -12.690  12.435  64.979  1.00  0.00     0.000 HD 
HETATM   12  C   UNL     1     -12.016  12.854  67.466  1.00  0.00    -0.354 C  
HETATM   13  C   UNL     1     -11.518  13.626  66.227  1.00  0.00    -0.333 C  
HETATM   14  N   UNL     1     -11.739  12.803  65.020  1.00  0.00    -0.335 NA 
BRANCH   8  15
HETATM   15  O   UNL     1      -8.487  12.262  66.746  1.00  0.00    -0.183 OA 
BRANCH  15  16
HETATM   16  C   UNL     1      -7.505  11.595  67.533  1.00  0.00    -0.123 C  
BRANCH  16  17
HETATM   17  C   UNL     1      -6.270  11.413  66.631  1.00  0.00    -0.137 C  
HETATM   18  C   UNL     1      -6.331  10.147  65.784  1.00  0.00    -0.102 C  
ENDBRANCH  16  17
BRANCH  16  19
HETATM   19  C   UNL     1      -8.000  10.248  68.087  1.00  0.00    -0.109 C  
HETATM   20  C   UNL     1      -7.377   9.845  69.418  1.00  0.00    -0.091 C  
ENDBRANCH  16  19
ENDBRANCH  15  16
ENDBRANCH   8  15
BRANCH  10  21
HETATM   21  N   UNL     1     -10.087  15.644  66.562  1.00  0.00    -0.270 N  
HETATM   22  H   UNL     1      -9.772  15.989  67.469  1.00  0.00     0.000 HD 
HETATM   23  C   UNL     1     -10.525  16.539  65.611  1.00  0.00    -0.324 C  
HETATM   24  C   UNL     1     -10.444  17.985  66.023  1.00  0.00    -0.317 C  
HETATM   25  O   UNL     1     -10.942  16.207  64.509  1.00  0.00    -0.645 OA 
ENDBRANCH  10  21
ENDBRANCH   4   6
ENDBRANCH   3   4
ENDBRANCH   2   3
TORSDOF 8
ENDMDL
MODEL      122
REMARK 921   NORMALIZED FREE ENERGY PREDICTED BY IDOCK:   -3.87 KCAL/MOL
REMARK 922        TOTAL FREE ENERGY PREDICTED BY IDOCK:   -6.62 KCAL/MOL
REMARK 923 INTER-LIGAND FREE ENERGY PREDICTED BY IDOCK:   -5.81 KCAL/MOL
REMARK 924 INTRA-LIGAND FREE ENERGY PREDICTED BY IDOCK:   -0.82 KCAL/MOL
REMARK 927      BINDING AFFINITY PREDICTED BY RF-SCORE:    0.00 PKD
ROOT
HETATM    1  C   UNL     1     -12.287  14.270  64.054  1.00  0.00    -0.283 C  
HETATM    2  C   UNL     1     -12.075  12.921  63.390  1.00  0.00    -0.530 C  
ENDROOT
BRANCH   2   3
HETATM    3  O   UNL     1     -11.792  11.973  64.423  1.00  0.00    -0.350 OA 
BRANCH   3   4
HETATM    4  C   UNL     1     -10.562  11.405  64.358  1.00  0.00    -0.341 C  
HETATM    5  O   UNL     1     -10.141  10.718  63.439  1.00  0.00    -0.331 OA 
BRANCH   4   6
HETATM    6  C   UNL     1      -9.730  11.790  65.531  1.00  0.00    -0.248 C  
HETATM    7  C   UNL     1     -10.066  12.816  66.326  1.00  0.00    -0.267 C  
HETATM    8  C   UNL     1      -9.409  13.082  67.640  1.00  0.00    -0.202 C  
HETATM    9  H2  UNL     1      -8.384  10.017  68.432  1.00  0.00     0.000 HD 
HETATM   10  C   UNL     1      -7.938  12.587  67.717  1.00  0.00    -0.163 C  
HETATM   11  H1  UNL     1      -7.331   9.241  67.371  1.00  0.00     0.000 HD 
HETATM   12  C   UNL     1      -8.545  10.910  65.771  1.00  0.00    -0.176 C  
HETATM   13  C   UNL     1      -7.622  11.264  66.956  1.00  0.00    -0.143 C  
HETATM   14  N   UNL     1      -7.538  10.107  67.870  1.00  0.00    -0.089 NA 
BRANCH   8  15
HETATM   15  O   UNL     1     -10.329  12.473  68.545  1.00  0.00    -0.232 OA 
BRANCH  15  16
HETATM   16  C   UNL     1     -11.449  13.223  69.007  1.00  0.00    -0.302 C  
BRANCH  16  17
HETATM   17  C   UNL     1     -10.921  14.626  69.363  1.00  0.00    -0.279 C  
HETATM   18  C   UNL     1     -11.554  15.731  68.524  1.00  0.00    -0.367 C  
ENDBRANCH  16  17
BRANCH  16  19
HETATM   19  C   UNL     1     -12.151  12.566  70.208  1.00  0.00    -0.373 C  
HETATM   20  C   UNL     1     -12.726  13.550  71.219  1.00  0.00    -0.432 C  
ENDBRANCH  16  19
ENDBRANCH  15  16
ENDBRANCH   8  15
BRANCH  10  21
HETATM   21  N   UNL     1      -6.993  13.653  67.317  1.00  0.00    -0.303 N  
HETATM   22  H   UNL     1      -6.625  13.665  66.366  1.00  0.00     0.000 HD 
HETATM   23  C   UNL     1      -6.602  14.628  68.208  1.00  0.00    -0.118 C  
HETATM   24  C   UNL     1      -5.673  15.666  67.637  1.00  0.00    -0.133 C  
HETATM   25  O   UNL     1      -6.977  14.672  69.373  1.00  0.00    -0.143 OA 
ENDBRANCH  10  21
ENDBRANCH   4   6
ENDBRANCH   3   4
ENDBRANCH   2   3
TORSDOF 8
ENDMDL
MODEL      123
REMARK 921   NORMALIZED FREE ENERGY PREDICTED BY IDOCK:   -3.87 KCAL/MOL
REMARK 922        TOTAL FREE ENERGY PREDICTED BY IDOCK:   -6.62 KCAL/MOL
REMARK 923 INTER-LIGAND FREE ENERGY PREDICTED BY IDOCK:   -5.64 KCAL/MOL
REMARK 924 INTRA-LIGAND FREE ENERGY PREDICTED BY IDOCK:   -0.98 KCAL/MOL
REMARK 927      BINDING AFFINITY PREDICTED BY RF-SCORE:    0.00 PKD
ROOT
HETATM    1  C   UNL     1      -5.201  11.994  70.920  1.00  0.00    -0.144 C  
HETATM    2  C   UNL     1      -5.877  11.069  69.924  1.00  0.00    -0.086 C  
ENDROOT
BRANCH   2   3
HETATM    3  O   UNL     1      -6.323  11.871  68.827  1.00  0.00    -0.054 OA 
BRANCH   3   4
HETATM    4  C   UNL     1      -7.341  11.341  68.106  1.00  0.00    -0.088 C  
HETATM    5  O   UNL     1      -7.306  10.285  67.490  1.00  0.00    -0.088 OA 
BRANCH   4   6
HETATM    6  C   UNL     1      -8.569  12.176  68.216  1.00  0.00    -0.175 C  
HETATM    7  C   UNL     1      -8.505  13.509  68.337  1.00  0.00    -0.143 C  
HETATM    8  C   UNL     1      -9.695  14.401  68.203  1.00  0.00    -0.223 C  
HETATM    9  H2  UNL     1     -11.634  12.529  66.252  1.00  0.00     0.000 HD 
HETATM   10  C   UNL     1     -11.035  13.724  68.603  1.00  0.00    -0.266 C  
HETATM   11  H1  UNL     1     -12.076  11.004  66.814  1.00  0.00     0.000 HD 
HETATM   12  C   UNL     1      -9.853  11.413  68.119  1.00  0.00    -0.195 C  
HETATM   13  C   UNL     1     -11.166  12.211  68.251  1.00  0.00    -0.268 C  
HETATM   14  N   UNL     1     -11.990  11.994  67.044  1.00  0.00    -0.606 NA 
BRANCH   8  15
HETATM   15  O   UNL     1      -9.580  14.823  66.844  1.00  0.00    -0.225 OA 
BRANCH  15  16
HETATM   16  C   UNL     1      -9.894  16.170  66.506  1.00  0.00    -0.267 C  
BRANCH  16  17
HETATM   17  C   UNL     1     -10.629  16.123  65.154  1.00  0.00    -0.366 C  
HETATM   18  C   UNL     1     -11.114  14.725  64.787  1.00  0.00    -0.393 C  
ENDBRANCH  16  17
BRANCH  16  19
HETATM   19  C   UNL     1      -8.649  17.072  66.438  1.00  0.00    -0.311 C  
HETATM   20  C   UNL     1      -8.515  18.051  67.598  1.00  0.00    -0.239 C  
ENDBRANCH  16  19
ENDBRANCH  15  16
ENDBRANCH   8  15
BRANCH  10  21
HETATM   21  N   UNL     1     -11.344  13.952  70.032  1.00  0.00    -0.478 N  
HETATM   22  H   UNL     1     -11.129  13.223  70.714  1.00  0.00     0.000 HD 
HETATM   23  C   UNL     1     -11.917  15.130  70.457  1.00  0.00    -0.325 C  
HETATM   24  C   UNL     1     -12.128  15.226  71.944  1.00  0.00    -0.452 C  
HETATM   25  O   UNL     1     -12.229  16.043  69.703  1.00  0.00    -0.248 OA 
ENDBRANCH  10  21
ENDBRANCH   4   6
ENDBRANCH   3   4
ENDBRANCH   2   3
TORSDOF 8
ENDMDL
MODEL      124
REMARK 921   NORMALIZED FREE ENERGY PREDICTED BY IDOCK:   -3.87 KCAL/MOL
REMARK 922        TOTAL FREE ENERGY PREDICTED BY IDOCK:   -6.62 KCAL/MOL
REMARK 923 INTER-LIGAND FREE ENERGY PREDICTED BY IDOCK:   -5.64 KCAL/MOL
REMARK 924 INTRA-LIGAND FREE ENERGY PREDICTED BY IDOCK:   -0.98 KCAL/MOL
REMARK 927      BINDING AFFINITY PREDICTED BY RF-SCORE:    0.00 PKD
ROOT
HETATM    1  C   UNL     1     -11.920  13.275  66.959  1.00  0.00    -0.419 C  
HETATM    2  C   UNL     1     -11.038  12.508  65.990  1.00  0.00    -0.294 C  
ENDROOT
BRANCH   2   3
HETATM    3  O   UNL     1     -10.205  11.640  66.763  1.00  0.00    -0.209 OA 
BRANCH   3   4
HETATM    4  C   UNL     1     -10.217  10.340  66.375  1.00  0.00    -0.225 C  
HETATM    5  O   UNL     1     -10.087   9.936  65.229  1.00  0.00    -0.313 OA 
BRANCH   4   6
HETATM    6  C   UNL     1     -10.331   9.431  67.548  1.00  0.00    -0.314 C  
HETATM    7  C   UNL     1     -10.469   8.105  67.401  1.00  0.00    -0.356 C  
HETATM    8  C   UNL     1     -10.340   7.138  68.531  1.00  0.00    -0.183 C  
HETATM    9  H2  UNL     1      -8.359   8.861  70.575  1.00  0.00     0.000 HD 
HETATM   10  C   UNL     1     -10.726   7.734  69.913  1.00  0.00    -0.245 C  
HETATM   11  H1  UNL     1      -8.901  10.362  71.116  1.00  0.00     0.000 HD 
HETATM   12  C   UNL     1     -10.220  10.109  68.877  1.00  0.00    -0.213 C  
HETATM   13  C   UNL     1     -10.356   9.231  70.138  1.00  0.00    -0.222 C  
HETATM   14  N   UNL     1      -9.143   9.382  70.968  1.00  0.00    -0.250 NA 
BRANCH   8  15
HETATM   15  O   UNL     1      -8.986   6.710  68.383  1.00  0.00    -0.124 OA 
BRANCH  15  16
HETATM   16  C   UNL     1      -8.671   5.733  67.395  1.00  0.00    -0.107 C  
BRANCH  16  17
HETATM   17  C   UNL     1      -8.291   4.448  68.154  1.00  0.00    -0.096 C  
HETATM   18  C   UNL     1      -9.228   3.281  67.857  1.00  0.00    -0.242 C  
ENDBRANCH  16  17
BRANCH  16  19
HETATM   19  C   UNL     1      -7.542   6.183  66.451  1.00  0.00    -0.094 C  
HETATM   20  C   UNL     1      -8.000   6.529  65.040  1.00  0.00    -0.121 C  
ENDBRANCH  16  19
ENDBRANCH  15  16
ENDBRANCH   8  15
BRANCH  10  21
HETATM   21  N   UNL     1     -12.156   7.503  70.214  1.00  0.00    -0.481 N  
HETATM   22  H   UNL     1     -12.821   7.405  69.446  1.00  0.00     0.000 HD 
HETATM   23  C   UNL     1     -12.604   7.418  71.514  1.00  0.00    -0.367 C  
HETATM   24  C   UNL     1     -14.077   7.137  71.655  1.00  0.00    -0.477 C  
HETATM   25  O   UNL     1     -11.879   7.549  72.492  1.00  0.00    -0.285 OA 
ENDBRANCH  10  21
ENDBRANCH   4   6
ENDBRANCH   3   4
ENDBRANCH   2   3
TORSDOF 8
ENDMDL
MODEL      125
REMARK 921   NORMALIZED FREE ENERGY PREDICTED BY IDOCK:   -3.87 KCAL/MOL
REMARK 922        TOTAL FREE ENERGY PREDICTED BY IDOCK:   -6.62 KCAL/MOL
REMARK 923 INTER-LIGAND FREE ENERGY PREDICTED BY IDOCK:   -5.59 KCAL/MOL
REMARK 924 INTRA-LIGAND FREE ENERGY PREDICTED BY IDOCK:   -1.03 KCAL/MOL
REMARK 927      BINDING AFFINITY PREDICTED BY RF-SCORE:    0.00 PKD
ROOT
HETATM    1  C   UNL     1      -8.302   5.694  65.304  1.00  0.00    -0.146 C  
HETATM    2  C   UNL     1      -8.155   6.100  66.760  1.00  0.00    -0.109 C  
ENDROOT
BRANCH   2   3
HETATM    3  O   UNL     1      -9.147   5.390  67.506  1.00  0.00    -0.109 OA 
BRANCH   3   4
HETATM    4  C   UNL     1     -10.267   6.100  67.791  1.00  0.00    -0.172 C  
HETATM    5  O   UNL     1     -11.231   6.236  67.053  1.00  0.00    -0.336 OA 
BRANCH   4   6
HETATM    6  C   UNL     1     -10.220   6.645  69.175  1.00  0.00    -0.201 C  
HETATM    7  C   UNL     1     -10.122   7.962  69.410  1.00  0.00    -0.196 C  
HETATM    8  C   UNL     1     -10.319   8.569  70.760  1.00  0.00    -0.198 C  
HETATM    9  H2  UNL     1     -12.307   6.296  72.158  1.00  0.00     0.000 HD 
HETATM   10  C   UNL     1      -9.959   7.618  71.934  1.00  0.00    -0.176 C  
HETATM   11  H1  UNL     1     -11.733   4.717  72.278  1.00  0.00     0.000 HD 
HETATM   12  C   UNL     1     -10.351   5.619  70.255  1.00  0.00    -0.336 C  
HETATM   13  C   UNL     1     -10.286   6.110  71.716  1.00  0.00    -0.202 C  
HETATM   14  N   UNL     1     -11.519   5.704  72.421  1.00  0.00    -0.277 NA 
BRANCH   8  15
HETATM   15  O   UNL     1     -11.681   8.991  70.683  1.00  0.00    -0.272 OA 
BRANCH  15  16
HETATM   16  C   UNL     1     -12.146  10.002  71.572  1.00  0.00    -0.387 C  
BRANCH  16  17
HETATM   17  C   UNL     1     -13.454   9.475  72.191  1.00  0.00    -0.535 C  
HETATM   18  C   UNL     1     -13.899   8.142  71.598  1.00  0.00    -0.434 C  
ENDBRANCH  16  17
BRANCH  16  19
HETATM   19  C   UNL     1     -12.360  11.356  70.874  1.00  0.00    -0.483 C  
HETATM   20  C   UNL     1     -12.028  11.359  69.387  1.00  0.00    -0.407 C  
ENDBRANCH  16  19
ENDBRANCH  15  16
ENDBRANCH   8  15
BRANCH  10  21
HETATM   21  N   UNL     1      -8.548   7.787  72.345  1.00  0.00    -0.121 N  
HETATM   22  H   UNL     1      -7.847   8.032  71.645  1.00  0.00     0.000 HD 
HETATM   23  C   UNL     1      -8.164   7.619  73.658  1.00  0.00    -0.173 C  
HETATM   24  C   UNL     1      -6.703   7.868  73.923  1.00  0.00    -0.121 C  
HETATM   25  O   UNL     1      -8.935   7.301  74.554  1.00  0.00    -0.197 OA 
ENDBRANCH  10  21
ENDBRANCH   4   6
ENDBRANCH   3   4
ENDBRANCH   2   3
TORSDOF 8
ENDMDL
MODEL      126
REMARK 921   NORMALIZED FREE ENERGY PREDICTED BY IDOCK:   -3.85 KCAL/MOL
REMARK 922        TOTAL FREE ENERGY PREDICTED BY IDOCK:   -6.60 KCAL/MOL
REMARK 923 INTER-LIGAND FREE ENERGY PREDICTED BY IDOCK:   -5.53 KCAL/MOL
REMARK 924 INTRA-LIGAND FREE ENERGY PREDICTED BY IDOCK:   -1.06 KCAL/MOL
REMARK 927      BINDING AFFINITY PREDICTED BY RF-SCORE:    0.00 PKD
ROOT
HETATM    1  C   UNL     1     -11.946  13.789  67.203  1.00  0.00    -0.442 C  
HETATM    2  C   UNL     1     -11.747  12.456  67.901  1.00  0.00    -0.360 C  
ENDROOT
BRANCH   2   3
HETATM    3  O   UNL     1     -10.523  12.535  68.636  1.00  0.00    -0.230 OA 
BRANCH   3   4
HETATM    4  C   UNL     1      -9.506  11.791  68.136  1.00  0.00    -0.193 C  
HETATM    5  O   UNL     1      -8.559  12.218  67.491  1.00  0.00    -0.156 OA 
BRANCH   4   6
HETATM    6  C   UNL     1      -9.634  10.364  68.540  1.00  0.00    -0.161 C  
HETATM    7  C   UNL     1      -9.740  10.003  69.828  1.00  0.00    -0.259 C  
HETATM    8  C   UNL     1     -10.116   8.626  70.263  1.00  0.00    -0.187 C  
HETATM    9  H2  UNL     1     -11.855   7.609  67.615  1.00  0.00     0.000 HD 
HETATM   10  C   UNL     1      -9.707   7.516  69.256  1.00  0.00    -0.163 C  
HETATM   11  H1  UNL     1     -11.073   7.584  66.123  1.00  0.00     0.000 HD 
HETATM   12  C   UNL     1      -9.694   9.395  67.402  1.00  0.00    -0.205 C  
HETATM   13  C   UNL     1      -9.802   7.896  67.747  1.00  0.00    -0.163 C  
HETATM   14  N   UNL     1     -11.012   7.336  67.111  1.00  0.00    -0.301 NA 
BRANCH   8  15
HETATM   15  O   UNL     1     -11.514   8.778  70.505  1.00  0.00    -0.262 OA 
BRANCH  15  16
HETATM   16  C   UNL     1     -12.071   8.265  71.711  1.00  0.00    -0.319 C  
BRANCH  16  17
HETATM   17  C   UNL     1     -13.094   9.307  72.201  1.00  0.00    -0.520 C  
HETATM   18  C   UNL     1     -12.921  10.669  71.536  1.00  0.00    -0.566 C  
ENDBRANCH  16  17
BRANCH  16  19
HETATM   19  C   UNL     1     -11.006   7.975  72.783  1.00  0.00    -0.449 C  
HETATM   20  C   UNL     1     -10.958   6.525  73.249  1.00  0.00    -0.224 C  
ENDBRANCH  16  19
ENDBRANCH  15  16
ENDBRANCH   8  15
BRANCH  10  21
HETATM   21  N   UNL     1      -8.367   6.975  69.570  1.00  0.00    -0.131 N  
HETATM   22  H   UNL     1      -7.611   7.617  69.812  1.00  0.00     0.000 HD 
HETATM   23  C   UNL     1      -8.122   5.619  69.543  1.00  0.00    -0.103 C  
HETATM   24  C   UNL     1      -6.722   5.225  69.929  1.00  0.00    -0.047 C  
HETATM   25  O   UNL     1      -8.965   4.784  69.240  1.00  0.00    -0.090 OA 
ENDBRANCH  10  21
ENDBRANCH   4   6
ENDBRANCH   3   4
ENDBRANCH   2   3
TORSDOF 8
ENDMDL
MODEL      127
REMARK 921   NORMALIZED FREE ENERGY PREDICTED BY IDOCK:   -3.84 KCAL/MOL
REMARK 922        TOTAL FREE ENERGY PREDICTED BY IDOCK:   -6.58 KCAL/MOL
REMARK 923 INTER-LIGAND FREE ENERGY PREDICTED BY IDOCK:   -5.27 KCAL/MOL
REMARK 924 INTRA-LIGAND FREE ENERGY PREDICTED BY IDOCK:   -1.31 KCAL/MOL
REMARK 927      BINDING AFFINITY PREDICTED BY RF-SCORE:    0.00 PKD
ROOT
HETATM    1  C   UNL     1     -12.987   7.303  71.468  1.00  0.00    -0.434 C  
HETATM    2  C   UNL     1     -11.587   6.812  71.145  1.00  0.00    -0.329 C  
ENDROOT
BRANCH   2   3
HETATM    3  O   UNL     1     -10.929   7.845  70.407  1.00  0.00    -0.246 OA 
BRANCH   3   4
HETATM    4  C   UNL     1     -10.643   7.534  69.118  1.00  0.00    -0.197 C  
HETATM    5  O   UNL     1     -10.669   6.414  68.631  1.00  0.00    -0.227 OA 
BRANCH   4   6
HETATM    6  C   UNL     1     -10.361   8.759  68.320  1.00  0.00    -0.252 C  
HETATM    7  C   UNL     1     -10.133   9.944  68.905  1.00  0.00    -0.194 C  
HETATM    8  C   UNL     1      -9.608  11.132  68.169  1.00  0.00    -0.179 C  
HETATM    9  H2  UNL     1      -7.978   9.632  65.686  1.00  0.00     0.000 HD 
HETATM   10  C   UNL     1      -9.988  11.156  66.663  1.00  0.00    -0.207 C  
HETATM   11  H1  UNL     1      -8.859   8.623  64.664  1.00  0.00     0.000 HD 
HETATM   12  C   UNL     1     -10.297   8.540  66.842  1.00  0.00    -0.367 C  
HETATM   13  C   UNL     1     -10.034   9.771  65.950  1.00  0.00    -0.275 C  
HETATM   14  N   UNL     1      -8.828   9.530  65.131  1.00  0.00    -0.174 NA 
BRANCH   8  15
HETATM   15  O   UNL     1      -8.214  11.056  68.469  1.00  0.00    -0.131 OA 
BRANCH  15  16
HETATM   16  C   UNL     1      -7.275  11.618  67.557  1.00  0.00    -0.119 C  
BRANCH  16  17
HETATM   17  C   UNL     1      -6.163  10.570  67.371  1.00  0.00    -0.057 C  
HETATM   18  C   UNL     1      -6.516   9.213  67.971  1.00  0.00    -0.059 C  
ENDBRANCH  16  17
BRANCH  16  19
HETATM   19  C   UNL     1      -6.707  12.963  68.039  1.00  0.00    -0.109 C  
HETATM   20  C   UNL     1      -7.472  14.186  67.547  1.00  0.00    -0.192 C  
ENDBRANCH  16  19
ENDBRANCH  15  16
ENDBRANCH   8  15
BRANCH  10  21
HETATM   21  N   UNL     1     -11.250  11.895  66.441  1.00  0.00    -0.321 N  
HETATM   22  H   UNL     1     -12.093  11.609  66.940  1.00  0.00     0.000 HD 
HETATM   23  C   UNL     1     -11.305  12.963  65.573  1.00  0.00    -0.307 C  
HETATM   24  C   UNL     1     -12.649  13.637  65.491  1.00  0.00    -0.541 C  
HETATM   25  O   UNL     1     -10.348  13.356  64.919  1.00  0.00    -0.354 OA 
ENDBRANCH  10  21
ENDBRANCH   4   6
ENDBRANCH   3   4
ENDBRANCH   2   3
TORSDOF 8
ENDMDL
MODEL      128
REMARK 921   NORMALIZED FREE ENERGY PREDICTED BY IDOCK:   -3.83 KCAL/MOL
REMARK 922        TOTAL FREE ENERGY PREDICTED BY IDOCK:   -6.56 KCAL/MOL
REMARK 923 INTER-LIGAND FREE ENERGY PREDICTED BY IDOCK:   -5.75 KCAL/MOL
REMARK 924 INTRA-LIGAND FREE ENERGY PREDICTED BY IDOCK:   -0.81 KCAL/MOL
REMARK 927      BINDING AFFINITY PREDICTED BY RF-SCORE:    0.00 PKD
ROOT
HETATM    1  C   UNL     1     -10.996  15.419  65.007  1.00  0.00    -0.450 C  
HETATM    2  C   UNL     1     -12.122  14.885  64.140  1.00  0.00    -0.267 C  
ENDROOT
BRANCH   2   3
HETATM    3  O   UNL     1     -12.697  13.768  64.823  1.00  0.00    -0.647 OA 
BRANCH   3   4
HETATM    4  C   UNL     1     -12.034  12.595  64.664  1.00  0.00    -0.402 C  
HETATM    5  O   UNL     1     -11.851  12.018  63.603  1.00  0.00    -0.451 OA 
BRANCH   4   6
HETATM    6  C   UNL     1     -11.471  12.117  65.957  1.00  0.00    -0.427 C  
HETATM    7  C   UNL     1     -10.309  11.451  66.014  1.00  0.00    -0.297 C  
HETATM    8  C   UNL     1      -9.588  11.172  67.292  1.00  0.00    -0.165 C  
HETATM    9  H2  UNL     1     -10.705  13.678  69.174  1.00  0.00     0.000 HD 
HETATM   10  C   UNL     1     -10.523  11.059  68.528  1.00  0.00    -0.189 C  
HETATM   11  H1  UNL     1     -12.367  13.794  69.424  1.00  0.00     0.000 HD 
HETATM   12  C   UNL     1     -12.272  12.491  67.163  1.00  0.00     0.087 C  
HETATM   13  C   UNL     1     -11.761  12.007  68.536  1.00  0.00    -0.332 C  
HETATM   14  N   UNL     1     -11.557  13.174  69.419  1.00  0.00    -0.295 NA 
BRANCH   8  15
HETATM   15  O   UNL     1      -8.634  12.233  67.316  1.00  0.00    -0.167 OA 
BRANCH  15  16
HETATM   16  C   UNL     1      -7.254  11.924  67.488  1.00  0.00    -0.125 C  
BRANCH  16  17
HETATM   17  C   UNL     1      -7.150  11.079  68.771  1.00  0.00    -0.086 C  
HETATM   18  C   UNL     1      -6.569   9.691  68.525  1.00  0.00    -0.052 C  
ENDBRANCH  16  17
BRANCH  16  19
HETATM   19  C   UNL     1      -6.368  13.179  67.567  1.00  0.00    -0.142 C  
HETATM   20  C   UNL     1      -7.135  14.496  67.553  1.00  0.00    -0.199 C  
ENDBRANCH  16  19
ENDBRANCH  15  16
ENDBRANCH   8  15
BRANCH  10  21
HETATM   21  N   UNL     1     -10.943   9.658  68.754  1.00  0.00    -0.411 N  
HETATM   22  H   UNL     1     -11.423   9.152  68.010  1.00  0.00     0.000 HD 
HETATM   23  C   UNL     1     -10.696   9.027  69.954  1.00  0.00    -0.229 C  
HETATM   24  C   UNL     1     -11.145   7.591  70.013  1.00  0.00    -0.219 C  
HETATM   25  O   UNL     1     -10.150   9.570  70.906  1.00  0.00    -0.286 OA 
ENDBRANCH  10  21
ENDBRANCH   4   6
ENDBRANCH   3   4
ENDBRANCH   2   3
TORSDOF 8
ENDMDL
MODEL      129
REMARK 921   NORMALIZED FREE ENERGY PREDICTED BY IDOCK:   -3.81 KCAL/MOL
REMARK 922        TOTAL FREE ENERGY PREDICTED BY IDOCK:   -6.54 KCAL/MOL
REMARK 923 INTER-LIGAND FREE ENERGY PREDICTED BY IDOCK:   -5.94 KCAL/MOL
REMARK 924 INTRA-LIGAND FREE ENERGY PREDICTED BY IDOCK:   -0.59 KCAL/MOL
REMARK 927      BINDING AFFINITY PREDICTED BY RF-SCORE:    0.00 PKD
ROOT
HETATM    1  C   UNL     1      -5.158  15.344  70.591  1.00  0.00    -0.141 C  
HETATM    2  C   UNL     1      -5.597  13.980  70.087  1.00  0.00    -0.118 C  
ENDROOT
BRANCH   2   3
HETATM    3  O   UNL     1      -6.226  14.174  68.817  1.00  0.00    -0.080 OA 
BRANCH   3   4
HETATM    4  C   UNL     1      -7.393  13.504  68.647  1.00  0.00    -0.112 C  
HETATM    5  O   UNL     1      -7.560  12.307  68.828  1.00  0.00    -0.110 OA 
BRANCH   4   6
HETATM    6  C   UNL     1      -8.497  14.432  68.280  1.00  0.00    -0.165 C  
HETATM    7  C   UNL     1      -9.175  14.300  67.131  1.00  0.00    -0.230 C  
HETATM    8  C   UNL     1     -10.436  15.042  66.835  1.00  0.00    -0.279 C  
HETATM    9  H2  UNL     1     -11.557  15.578  69.922  1.00  0.00     0.000 HD 
HETATM   10  C   UNL     1     -10.542  16.413  67.558  1.00  0.00    -0.309 C  
HETATM   11  H1  UNL     1     -10.573  16.448  70.976  1.00  0.00     0.000 HD 
HETATM   12  C   UNL     1      -8.815  15.464  69.315  1.00  0.00    -0.258 C  
HETATM   13  C   UNL     1      -9.932  16.477  68.991  1.00  0.00    -0.275 C  
HETATM   14  N   UNL     1     -10.972  16.405  70.038  1.00  0.00    -0.357 NA 
BRANCH   8  15
HETATM   15  O   UNL     1     -11.423  14.069  67.177  1.00  0.00    -0.318 OA 
BRANCH  15  16
HETATM   16  C   UNL     1     -11.804  13.095  66.210  1.00  0.00    -0.401 C  
BRANCH  16  17
HETATM   17  C   UNL     1     -11.350  11.729  66.759  1.00  0.00    -0.385 C  
HETATM   18  C   UNL     1     -10.238  11.094  65.931  1.00  0.00    -0.303 C  
ENDBRANCH  16  17
BRANCH  16  19
HETATM   19  C   UNL     1     -11.204  13.370  64.820  1.00  0.00    -0.360 C  
HETATM   20  C   UNL     1     -12.234  13.647  63.731  1.00  0.00    -0.413 C  
ENDBRANCH  16  19
ENDBRANCH  15  16
ENDBRANCH   8  15
BRANCH  10  21
HETATM   21  N   UNL     1     -10.004  17.504  66.717  1.00  0.00    -0.300 N  
HETATM   22  H   UNL     1      -9.307  17.290  66.003  1.00  0.00     0.000 HD 
HETATM   23  C   UNL     1     -10.428  18.805  66.882  1.00  0.00    -0.414 C  
HETATM   24  C   UNL     1      -9.819  19.791  65.921  1.00  0.00    -0.415 C  
HETATM   25  O   UNL     1     -11.240  19.151  67.730  1.00  0.00    -0.203 OA 
ENDBRANCH  10  21
ENDBRANCH   4   6
ENDBRANCH   3   4
ENDBRANCH   2   3
TORSDOF 8
ENDMDL
MODEL      130
REMARK 921   NORMALIZED FREE ENERGY PREDICTED BY IDOCK:   -3.81 KCAL/MOL
REMARK 922        TOTAL FREE ENERGY PREDICTED BY IDOCK:   -6.54 KCAL/MOL
REMARK 923 INTER-LIGAND FREE ENERGY PREDICTED BY IDOCK:   -5.85 KCAL/MOL
REMARK 924 INTRA-LIGAND FREE ENERGY PREDICTED BY IDOCK:   -0.69 KCAL/MOL
REMARK 927      BINDING AFFINITY PREDICTED BY RF-SCORE:    0.00 PKD
ROOT
HETATM    1  C   UNL     1     -11.654  10.645  69.509  1.00  0.00    -0.360 C  
HETATM    2  C   UNL     1     -10.461  10.003  68.823  1.00  0.00    -0.208 C  
ENDROOT
BRANCH   2   3
HETATM    3  O   UNL     1      -9.979  10.927  67.844  1.00  0.00    -0.171 OA 
BRANCH   3   4
HETATM    4  C   UNL     1      -9.024  11.783  68.286  1.00  0.00    -0.180 C  
HETATM    5  O   UNL     1      -8.005  11.469  68.883  1.00  0.00    -0.131 OA 
BRANCH   4   6
HETATM    6  C   UNL     1      -9.328  13.183  67.881  1.00  0.00    -0.215 C  
HETATM    7  C   UNL     1      -8.863  13.701  66.734  1.00  0.00    -0.150 C  
HETATM    8  C   UNL     1      -9.338  14.999  66.171  1.00  0.00    -0.292 C  
HETATM    9  H2  UNL     1     -12.385  15.154  67.500  1.00  0.00     0.000 HD 
HETATM   10  C   UNL     1      -9.831  16.007  67.246  1.00  0.00    -0.236 C  
HETATM   11  H1  UNL     1     -12.512  15.136  69.179  1.00  0.00     0.000 HD 
HETATM   12  C   UNL     1     -10.228  13.923  68.818  1.00  0.00    -0.188 C  
HETATM   13  C   UNL     1     -10.565  15.389  68.475  1.00  0.00    -0.240 C  
HETATM   14  N   UNL     1     -12.032  15.540  68.375  1.00  0.00    -0.216 NA 
BRANCH   8  15
HETATM   15  O   UNL     1     -10.311  14.558  65.225  1.00  0.00    -0.358 OA 
BRANCH  15  16
HETATM   16  C   UNL     1     -10.641  13.173  65.161  1.00  0.00    -0.319 C  
BRANCH  16  17
HETATM   17  C   UNL     1     -10.377  12.725  63.712  1.00  0.00    -0.269 C  
HETATM   18  C   UNL     1      -9.778  11.326  63.620  1.00  0.00    -0.351 C  
ENDBRANCH  16  17
BRANCH  16  19
HETATM   19  C   UNL     1     -12.092  12.886  65.584  1.00  0.00    -0.511 C  
HETATM   20  C   UNL     1     -13.025  12.529  64.433  1.00  0.00    -0.248 C  
ENDBRANCH  16  19
ENDBRANCH  15  16
ENDBRANCH   8  15
BRANCH  10  21
HETATM   21  N   UNL     1      -8.733  16.893  67.692  1.00  0.00    -0.208 N  
HETATM   22  H   UNL     1      -7.777  16.538  67.707  1.00  0.00     0.000 HD 
HETATM   23  C   UNL     1      -8.981  18.189  68.086  1.00  0.00    -0.290 C  
HETATM   24  C   UNL     1      -7.756  18.976  68.469  1.00  0.00    -0.368 C  
HETATM   25  O   UNL     1     -10.100  18.685  68.121  1.00  0.00    -0.343 OA 
ENDBRANCH  10  21
ENDBRANCH   4   6
ENDBRANCH   3   4
ENDBRANCH   2   3
TORSDOF 8
ENDMDL
MODEL      131
REMARK 921   NORMALIZED FREE ENERGY PREDICTED BY IDOCK:   -3.80 KCAL/MOL
REMARK 922        TOTAL FREE ENERGY PREDICTED BY IDOCK:   -6.51 KCAL/MOL
REMARK 923 INTER-LIGAND FREE ENERGY PREDICTED BY IDOCK:   -5.64 KCAL/MOL
REMARK 924 INTRA-LIGAND FREE ENERGY PREDICTED BY IDOCK:   -0.87 KCAL/MOL
REMARK 927      BINDING AFFINITY PREDICTED BY RF-SCORE:    0.00 PKD
ROOT
HETATM    1  C   UNL     1     -10.629  12.175  63.949  1.00  0.00    -0.457 C  
HETATM    2  C   UNL     1     -11.390  12.051  65.256  1.00  0.00    -0.312 C  
ENDROOT
BRANCH   2   3
HETATM    3  O   UNL     1     -10.557  11.335  66.172  1.00  0.00    -0.251 OA 
BRANCH   3   4
HETATM    4  C   UNL     1     -11.187  10.877  67.282  1.00  0.00    -0.233 C  
HETATM    5  O   UNL     1     -12.160  11.391  67.814  1.00  0.00    -0.637 OA 
BRANCH   4   6
HETATM    6  C   UNL     1     -10.589   9.595  67.748  1.00  0.00    -0.320 C  
HETATM    7  C   UNL     1     -10.363   9.355  69.048  1.00  0.00    -0.224 C  
HETATM    8  C   UNL     1     -10.002   8.009  69.580  1.00  0.00    -0.188 C  
HETATM    9  H2  UNL     1     -11.369   6.056  67.259  1.00  0.00     0.000 HD 
HETATM   10  C   UNL     1      -9.247   7.112  68.560  1.00  0.00    -0.134 C  
HETATM   11  H1  UNL     1     -10.847   6.242  65.668  1.00  0.00     0.000 HD 
HETATM   12  C   UNL     1     -10.327   8.598  66.664  1.00  0.00    -0.303 C  
HETATM   13  C   UNL     1      -9.684   7.256  67.071  1.00  0.00    -0.181 C  
HETATM   14  N   UNL     1     -10.562   6.147  66.643  1.00  0.00    -0.248 NA 
BRANCH   8  15
HETATM   15  O   UNL     1     -11.272   7.530  70.024  1.00  0.00    -0.243 OA 
BRANCH  15  16
HETATM   16  C   UNL     1     -11.626   7.669  71.397  1.00  0.00    -0.274 C  
BRANCH  16  17
HETATM   17  C   UNL     1     -10.464   7.074  72.213  1.00  0.00    -0.234 C  
HETATM   18  C   UNL     1     -10.781   6.952  73.700  1.00  0.00    -0.304 C  
ENDBRANCH  16  17
BRANCH  16  19
HETATM   19  C   UNL     1     -12.962   6.987  71.739  1.00  0.00    -0.356 C  
HETATM   20  C   UNL     1     -14.148   7.938  71.843  1.00  0.00    -0.471 C  
ENDBRANCH  16  19
ENDBRANCH  15  16
ENDBRANCH   8  15
BRANCH  10  21
HETATM   21  N   UNL     1      -7.782   7.274  68.687  1.00  0.00    -0.117 N  
HETATM   22  H   UNL     1      -7.390   8.208  68.815  1.00  0.00     0.000 HD 
HETATM   23  C   UNL     1      -6.939   6.186  68.637  1.00  0.00    -0.076 C  
HETATM   24  C   UNL     1      -5.481   6.510  68.826  1.00  0.00    -0.016 C  
HETATM   25  O   UNL     1      -7.324   5.037  68.463  1.00  0.00    -0.061 OA 
ENDBRANCH  10  21
ENDBRANCH   4   6
ENDBRANCH   3   4
ENDBRANCH   2   3
TORSDOF 8
ENDMDL
MODEL      132
REMARK 921   NORMALIZED FREE ENERGY PREDICTED BY IDOCK:   -3.79 KCAL/MOL
REMARK 922        TOTAL FREE ENERGY PREDICTED BY IDOCK:   -6.50 KCAL/MOL
REMARK 923 INTER-LIGAND FREE ENERGY PREDICTED BY IDOCK:   -5.87 KCAL/MOL
REMARK 924 INTRA-LIGAND FREE ENERGY PREDICTED BY IDOCK:   -0.63 KCAL/MOL
REMARK 927      BINDING AFFINITY PREDICTED BY RF-SCORE:    0.00 PKD
ROOT
HETATM    1  C   UNL     1     -14.353   8.862  72.361  1.00  0.00    -0.385 C  
HETATM    2  C   UNL     1     -12.974   8.422  71.904  1.00  0.00    -0.355 C  
ENDROOT
BRANCH   2   3
HETATM    3  O   UNL     1     -12.247   9.598  71.540  1.00  0.00    -0.347 OA 
BRANCH   3   4
HETATM    4  C   UNL     1     -10.907   9.428  71.416  1.00  0.00    -0.360 C  
HETATM    5  O   UNL     1     -10.195   8.792  72.178  1.00  0.00    -0.325 OA 
BRANCH   4   6
HETATM    6  C   UNL     1     -10.399  10.057  70.166  1.00  0.00    -0.321 C  
HETATM    7  C   UNL     1     -11.211  10.726  69.334  1.00  0.00    -0.337 C  
HETATM    8  C   UNL     1     -10.713  11.574  68.211  1.00  0.00    -0.211 C  
HETATM    9  H2  UNL     1      -7.700  12.391  69.364  1.00  0.00     0.000 HD 
HETATM   10  C   UNL     1      -9.344  11.115  67.637  1.00  0.00    -0.165 C  
HETATM   11  H1  UNL     1      -6.624  11.141  69.707  1.00  0.00     0.000 HD 
HETATM   12  C   UNL     1      -8.923   9.930  69.958  1.00  0.00    -0.206 C  
HETATM   13  C   UNL     1      -8.330  10.537  68.670  1.00  0.00    -0.132 C  
HETATM   14  N   UNL     1      -7.288  11.520  69.031  1.00  0.00    -0.113 NA 
BRANCH   8  15
HETATM   15  O   UNL     1     -10.747  12.873  68.802  1.00  0.00    -0.247 OA 
BRANCH  15  16
HETATM   16  C   UNL     1     -11.986  13.570  68.878  1.00  0.00    -0.341 C  
BRANCH  16  17
HETATM   17  C   UNL     1     -11.943  14.661  67.792  1.00  0.00    -0.302 C  
HETATM   18  C   UNL     1     -11.396  14.157  66.461  1.00  0.00    -0.348 C  
ENDBRANCH  16  17
BRANCH  16  19
HETATM   19  C   UNL     1     -12.248  14.172  70.269  1.00  0.00    -0.416 C  
HETATM   20  C   UNL     1     -12.692  13.161  71.320  1.00  0.00    -0.396 C  
ENDBRANCH  16  19
ENDBRANCH  15  16
ENDBRANCH   8  15
BRANCH  10  21
HETATM   21  N   UNL     1      -9.525  10.175  66.509  1.00  0.00    -0.164 N  
HETATM   22  H   UNL     1     -10.368   9.601  66.465  1.00  0.00     0.000 HD 
HETATM   23  C   UNL     1      -8.576  10.063  65.516  1.00  0.00    -0.151 C  
HETATM   24  C   UNL     1      -8.928   9.097  64.416  1.00  0.00    -0.104 C  
HETATM   25  O   UNL     1      -7.528  10.696  65.506  1.00  0.00    -0.138 OA 
ENDBRANCH  10  21
ENDBRANCH   4   6
ENDBRANCH   3   4
ENDBRANCH   2   3
TORSDOF 8
ENDMDL
MODEL      133
REMARK 921   NORMALIZED FREE ENERGY PREDICTED BY IDOCK:   -3.75 KCAL/MOL
REMARK 922        TOTAL FREE ENERGY PREDICTED BY IDOCK:   -6.45 KCAL/MOL
REMARK 923 INTER-LIGAND FREE ENERGY PREDICTED BY IDOCK:   -5.47 KCAL/MOL
REMARK 924 INTRA-LIGAND FREE ENERGY PREDICTED BY IDOCK:   -0.98 KCAL/MOL
REMARK 927      BINDING AFFINITY PREDICTED BY RF-SCORE:    0.00 PKD
ROOT
HETATM    1  C   UNL     1     -13.196  11.719  72.180  1.00  0.00    -0.342 C  
HETATM    2  C   UNL     1     -12.856  10.398  71.513  1.00  0.00    -0.464 C  
ENDROOT
BRANCH   2   3
HETATM    3  O   UNL     1     -13.431   9.356  72.307  1.00  0.00    -0.434 OA 
BRANCH   3   4
HETATM    4  C   UNL     1     -13.370   8.117  71.758  1.00  0.00    -0.345 C  
HETATM    5  O   UNL     1     -14.311   7.503  71.276  1.00  0.00    -0.413 OA 
BRANCH   4   6
HETATM    6  C   UNL     1     -11.972   7.607  71.737  1.00  0.00    -0.333 C  
HETATM    7  C   UNL     1     -11.367   7.256  70.593  1.00  0.00    -0.311 C  
HETATM    8  C   UNL     1      -9.904   6.978  70.493  1.00  0.00    -0.179 C  
HETATM    9  H2  UNL     1      -8.768   8.804  73.032  1.00  0.00     0.000 HD 
HETATM   10  C   UNL     1      -9.275   6.445  71.810  1.00  0.00    -0.143 C  
HETATM   11  H1  UNL     1      -9.350   8.455  74.574  1.00  0.00     0.000 HD 
HETATM   12  C   UNL     1     -11.298   7.578  73.072  1.00  0.00    -0.313 C  
HETATM   13  C   UNL     1      -9.855   7.036  73.130  1.00  0.00    -0.197 C  
HETATM   14  N   UNL     1      -8.970   8.069  73.709  1.00  0.00    -0.264 NA 
BRANCH   8  15
HETATM   15  O   UNL     1      -9.410   8.230  70.017  1.00  0.00    -0.160 OA 
BRANCH  15  16
HETATM   16  C   UNL     1     -10.149   8.938  69.026  1.00  0.00    -0.197 C  
BRANCH  16  17
HETATM   17  C   UNL     1      -9.658   8.422  67.661  1.00  0.00    -0.188 C  
HETATM   18  C   UNL     1     -10.659   7.495  66.979  1.00  0.00    -0.409 C  
ENDBRANCH  16  17
BRANCH  16  19
HETATM   19  C   UNL     1      -9.990  10.464  69.141  1.00  0.00    -0.237 C  
HETATM   20  C   UNL     1      -9.307  11.119  67.947  1.00  0.00    -0.161 C  
ENDBRANCH  16  19
ENDBRANCH  15  16
ENDBRANCH   8  15
BRANCH  10  21
HETATM   21  N   UNL     1      -9.294   4.967  71.852  1.00  0.00    -0.140 N  
HETATM   22  H   UNL     1     -10.152   4.469  71.609  1.00  0.00     0.000 HD 
HETATM   23  C   UNL     1      -8.174   4.250  72.213  1.00  0.00    -0.103 C  
HETATM   24  C   UNL     1      -8.341   2.755  72.165  1.00  0.00    -0.061 C  
HETATM   25  O   UNL     1      -7.115   4.769  72.543  1.00  0.00    -0.074 OA 
ENDBRANCH  10  21
ENDBRANCH   4   6
ENDBRANCH   3   4
ENDBRANCH   2   3
TORSDOF 8
ENDMDL
MODEL      134
REMARK 921   NORMALIZED FREE ENERGY PREDICTED BY IDOCK:   -3.73 KCAL/MOL
REMARK 922        TOTAL FREE ENERGY PREDICTED BY IDOCK:   -6.42 KCAL/MOL
REMARK 923 INTER-LIGAND FREE ENERGY PREDICTED BY IDOCK:   -5.69 KCAL/MOL
REMARK 924 INTRA-LIGAND FREE ENERGY PREDICTED BY IDOCK:   -0.72 KCAL/MOL
REMARK 927      BINDING AFFINITY PREDICTED BY RF-SCORE:    0.00 PKD
ROOT
HETATM    1  C   UNL     1      -6.163  14.570  68.861  1.00  0.00    -0.087 C  
HETATM    2  C   UNL     1      -5.910  13.073  68.829  1.00  0.00    -0.074 C  
ENDROOT
BRANCH   2   3
HETATM    3  O   UNL     1      -7.184  12.423  68.814  1.00  0.00    -0.106 OA 
BRANCH   3   4
HETATM    4  C   UNL     1      -7.242  11.261  69.511  1.00  0.00    -0.018 C  
HETATM    5  O   UNL     1      -6.423  10.882  70.335  1.00  0.00    -0.240 OA 
BRANCH   4   6
HETATM    6  C   UNL     1      -8.493  10.514  69.208  1.00  0.00    -0.138 C  
HETATM    7  C   UNL     1      -8.904   9.490  69.969  1.00  0.00    -0.246 C  
HETATM    8  C   UNL     1     -10.261   8.877  69.853  1.00  0.00    -0.200 C  
HETATM    9  H2  UNL     1     -11.982  11.449  68.631  1.00  0.00     0.000 HD 
HETATM   10  C   UNL     1     -10.880   8.987  68.433  1.00  0.00    -0.011 C  
HETATM   11  H1  UNL     1     -11.482  12.103  67.162  1.00  0.00     0.000 HD 
HETATM   12  C   UNL     1      -9.265  11.038  68.038  1.00  0.00    -0.159 C  
HETATM   13  C   UNL     1     -10.560  10.296  67.649  1.00  0.00    -0.263 C  
HETATM   14  N   UNL     1     -11.691  11.246  67.675  1.00  0.00    -0.605 NA 
BRANCH   8  15
HETATM   15  O   UNL     1     -10.962   9.544  70.903  1.00  0.00    -0.281 OA 
BRANCH  15  16
HETATM   16  C   UNL     1     -12.345   9.267  71.100  1.00  0.00    -0.293 C  
BRANCH  16  17
HETATM   17  C   UNL     1     -12.950  10.511  71.777  1.00  0.00    -0.582 C  
HETATM   18  C   UNL     1     -12.506  11.818  71.129  1.00  0.00    -0.390 C  
ENDBRANCH  16  17
BRANCH  16  19
HETATM   19  C   UNL     1     -12.586   7.998  71.935  1.00  0.00    -0.359 C  
HETATM   20  C   UNL     1     -11.383   7.541  72.750  1.00  0.00    -0.388 C  
ENDBRANCH  16  19
ENDBRANCH  15  16
ENDBRANCH   8  15
BRANCH  10  21
HETATM   21  N   UNL     1     -10.553   7.800  67.613  1.00  0.00    -0.395 N  
HETATM   22  H   UNL     1     -10.031   7.919  66.745  1.00  0.00     0.000 HD 
HETATM   23  C   UNL     1     -10.942   6.537  68.004  1.00  0.00    -0.282 C  
HETATM   24  C   UNL     1     -10.496   5.430  67.086  1.00  0.00    -0.298 C  
HETATM   25  O   UNL     1     -11.591   6.310  69.016  1.00  0.00    -0.278 OA 
ENDBRANCH  10  21
ENDBRANCH   4   6
ENDBRANCH   3   4
ENDBRANCH   2   3
TORSDOF 8
ENDMDL
MODEL      135
REMARK 921   NORMALIZED FREE ENERGY PREDICTED BY IDOCK:   -3.72 KCAL/MOL
REMARK 922        TOTAL FREE ENERGY PREDICTED BY IDOCK:   -6.41 KCAL/MOL
REMARK 923 INTER-LIGAND FREE ENERGY PREDICTED BY IDOCK:   -7.23 KCAL/MOL
REMARK 924 INTRA-LIGAND FREE ENERGY PREDICTED BY IDOCK:    0.83 KCAL/MOL
REMARK 927      BINDING AFFINITY PREDICTED BY RF-SCORE:    0.00 PKD
ROOT
HETATM    1  C   UNL     1     -12.342  11.914  63.477  1.00  0.00    -0.603 C  
HETATM    2  C   UNL     1     -12.380  12.910  64.622  1.00  0.00    -0.439 C  
ENDROOT
BRANCH   2   3
HETATM    3  O   UNL     1     -11.242  13.765  64.485  1.00  0.00    -0.362 OA 
BRANCH   3   4
HETATM    4  C   UNL     1     -11.489  15.084  64.684  1.00  0.00    -0.381 C  
HETATM    5  O   UNL     1     -12.258  15.772  64.029  1.00  0.00    -0.664 OA 
BRANCH   4   6
HETATM    6  C   UNL     1     -10.754  15.595  65.873  1.00  0.00    -0.336 C  
HETATM    7  C   UNL     1     -11.345  15.706  67.072  1.00  0.00    -0.051 C  
HETATM    8  C   UNL     1     -10.593  15.974  68.333  1.00  0.00    -0.270 C  
HETATM    9  H2  UNL     1      -7.612  14.731  67.533  1.00  0.00     0.000 HD 
HETATM   10  C   UNL     1      -9.280  16.777  68.122  1.00  0.00    -0.224 C  
HETATM   11  H1  UNL     1      -6.818  15.387  66.200  1.00  0.00     0.000 HD 
HETATM   12  C   UNL     1      -9.312  15.909  65.629  1.00  0.00    -0.165 C  
HETATM   13  C   UNL     1      -8.494  16.468  66.811  1.00  0.00    -0.238 C  
HETATM   14  N   UNL     1      -7.332  15.589  67.058  1.00  0.00    -0.186 NA 
BRANCH   8  15
HETATM   15  O   UNL     1     -10.450  14.656  68.862  1.00  0.00    -0.237 OA 
BRANCH  15  16
HETATM   16  C   UNL     1     -10.781  13.539  68.043  1.00  0.00    -0.251 C  
BRANCH  16  17
HETATM   17  C   UNL     1     -11.897  12.772  68.776  1.00  0.00    -0.346 C  
HETATM   18  C   UNL     1     -12.102  13.244  70.212  1.00  0.00    -0.405 C  
ENDBRANCH  16  17
BRANCH  16  19
HETATM   19  C   UNL     1      -9.571  12.632  67.756  1.00  0.00    -0.197 C  
HETATM   20  C   UNL     1      -9.911  11.155  67.601  1.00  0.00    -0.195 C  
ENDBRANCH  16  19
ENDBRANCH  15  16
ENDBRANCH   8  15
BRANCH  10  21
HETATM   21  N   UNL     1      -9.515  18.231  68.253  1.00  0.00    -0.297 N  
HETATM   22  H   UNL     1      -9.518  18.657  69.180  1.00  0.00     0.000 HD 
HETATM   23  C   UNL     1      -9.730  19.020  67.144  1.00  0.00    -0.320 C  
HETATM   24  C   UNL     1      -9.909  20.486  67.440  1.00  0.00    -0.574 C  
HETATM   25  O   UNL     1      -9.767  18.586  66.000  1.00  0.00    -0.494 OA 
ENDBRANCH  10  21
ENDBRANCH   4   6
ENDBRANCH   3   4
ENDBRANCH   2   3
TORSDOF 8
ENDMDL
MODEL      136
REMARK 921   NORMALIZED FREE ENERGY PREDICTED BY IDOCK:   -3.72 KCAL/MOL
REMARK 922        TOTAL FREE ENERGY PREDICTED BY IDOCK:   -6.40 KCAL/MOL
REMARK 923 INTER-LIGAND FREE ENERGY PREDICTED BY IDOCK:   -5.53 KCAL/MOL
REMARK 924 INTRA-LIGAND FREE ENERGY PREDICTED BY IDOCK:   -0.87 KCAL/MOL
REMARK 927      BINDING AFFINITY PREDICTED BY RF-SCORE:    0.00 PKD
ROOT
HETATM    1  C   UNL     1     -10.979   6.346  71.063  1.00  0.00    -0.328 C  
HETATM    2  C   UNL     1     -11.685   7.673  70.854  1.00  0.00    -0.271 C  
ENDROOT
BRANCH   2   3
HETATM    3  O   UNL     1     -10.774   8.542  70.173  1.00  0.00    -0.230 OA 
BRANCH   3   4
HETATM    4  C   UNL     1     -11.213   9.813  70.004  1.00  0.00    -0.251 C  
HETATM    5  O   UNL     1     -11.862  10.458  70.815  1.00  0.00    -0.312 OA 
BRANCH   4   6
HETATM    6  C   UNL     1     -10.735  10.380  68.713  1.00  0.00    -0.255 C  
HETATM    7  C   UNL     1     -10.415  11.676  68.589  1.00  0.00    -0.234 C  
HETATM    8  C   UNL     1      -9.705  12.233  67.400  1.00  0.00    -0.185 C  
HETATM    9  H2  UNL     1      -8.083   9.526  66.345  1.00  0.00     0.000 HD 
HETATM   10  C   UNL     1      -9.969  11.447  66.086  1.00  0.00    -0.227 C  
HETATM   11  H1  UNL     1      -8.998   8.173  65.930  1.00  0.00     0.000 HD 
HETATM   12  C   UNL     1     -10.590   9.382  67.609  1.00  0.00    -0.333 C  
HETATM   13  C   UNL     1     -10.123   9.903  66.234  1.00  0.00    -0.241 C  
HETATM   14  N   UNL     1      -8.897   9.184  65.833  1.00  0.00    -0.163 NA 
BRANCH   8  15
HETATM   15  O   UNL     1      -8.355  12.256  67.862  1.00  0.00    -0.143 OA 
BRANCH  15  16
HETATM   16  C   UNL     1      -7.602  13.459  67.750  1.00  0.00    -0.157 C  
BRANCH  16  17
HETATM   17  C   UNL     1      -6.167  13.123  68.197  1.00  0.00    -0.106 C  
HETATM   18  C   UNL     1      -6.119  12.316  69.490  1.00  0.00    -0.118 C  
ENDBRANCH  16  17
BRANCH  16  19
HETATM   19  C   UNL     1      -8.194  14.612  68.578  1.00  0.00    -0.152 C  
HETATM   20  C   UNL     1      -7.617  15.985  68.253  1.00  0.00    -0.137 C  
ENDBRANCH  16  19
ENDBRANCH  15  16
ENDBRANCH   8  15
BRANCH  10  21
HETATM   21  N   UNL     1     -11.118  12.013  65.346  1.00  0.00    -0.312 N  
HETATM   22  H   UNL     1     -12.005  12.157  65.831  1.00  0.00     0.000 HD 
HETATM   23  C   UNL     1     -11.012  12.348  64.014  1.00  0.00    -0.391 C  
HETATM   24  C   UNL     1     -12.254  12.952  63.416  1.00  0.00    -0.574 C  
HETATM   25  O   UNL     1      -9.994  12.184  63.353  1.00  0.00    -0.407 OA 
ENDBRANCH  10  21
ENDBRANCH   4   6
ENDBRANCH   3   4
ENDBRANCH   2   3
TORSDOF 8
ENDMDL
MODEL      137
REMARK 921   NORMALIZED FREE ENERGY PREDICTED BY IDOCK:   -3.71 KCAL/MOL
REMARK 922        TOTAL FREE ENERGY PREDICTED BY IDOCK:   -6.38 KCAL/MOL
REMARK 923 INTER-LIGAND FREE ENERGY PREDICTED BY IDOCK:   -5.45 KCAL/MOL
REMARK 924 INTRA-LIGAND FREE ENERGY PREDICTED BY IDOCK:   -0.93 KCAL/MOL
REMARK 927      BINDING AFFINITY PREDICTED BY RF-SCORE:    0.00 PKD
ROOT
HETATM    1  C   UNL     1      -9.227   4.071  70.038  1.00  0.00    -0.215 C  
HETATM    2  C   UNL     1     -10.105   4.770  69.015  1.00  0.00    -0.101 C  
ENDROOT
BRANCH   2   3
HETATM    3  O   UNL     1      -9.370   4.831  67.790  1.00  0.00    -0.123 OA 
BRANCH   3   4
HETATM    4  C   UNL     1     -10.038   5.388  66.749  1.00  0.00    -0.214 C  
HETATM    5  O   UNL     1     -10.775   4.795  65.975  1.00  0.00    -0.319 OA 
BRANCH   4   6
HETATM    6  C   UNL     1      -9.827   6.861  66.702  1.00  0.00    -0.217 C  
HETATM    7  C   UNL     1     -10.629   7.709  67.362  1.00  0.00    -0.356 C  
HETATM    8  C   UNL     1     -10.316   9.157  67.545  1.00  0.00    -0.261 C  
HETATM    9  H2  UNL     1      -6.995   9.084  67.342  1.00  0.00     0.000 HD 
HETATM   10  C   UNL     1      -9.443   9.758  66.409  1.00  0.00    -0.184 C  
HETATM   11  H1  UNL     1      -6.307   8.487  65.926  1.00  0.00     0.000 HD 
HETATM   12  C   UNL     1      -8.630   7.295  65.917  1.00  0.00    -0.159 C  
HETATM   13  C   UNL     1      -8.364   8.810  65.803  1.00  0.00    -0.134 C  
HETATM   14  N   UNL     1      -7.013   9.107  66.323  1.00  0.00    -0.085 NA 
BRANCH   8  15
HETATM   15  O   UNL     1      -9.742   9.158  68.852  1.00  0.00    -0.157 OA 
BRANCH  15  16
HETATM   16  C   UNL     1     -10.241  10.067  69.829  1.00  0.00    -0.250 C  
BRANCH  16  17
HETATM   17  C   UNL     1     -10.468   9.249  71.114  1.00  0.00    -0.401 C  
HETATM   18  C   UNL     1     -10.014   7.799  70.986  1.00  0.00    -0.191 C  
ENDBRANCH  16  17
BRANCH  16  19
HETATM   19  C   UNL     1     -11.529  10.777  69.379  1.00  0.00    -0.366 C  
HETATM   20  C   UNL     1     -12.206  11.604  70.465  1.00  0.00    -0.451 C  
ENDBRANCH  16  19
ENDBRANCH  15  16
ENDBRANCH   8  15
BRANCH  10  21
HETATM   21  N   UNL     1     -10.283  10.337  65.338  1.00  0.00    -0.281 N  
HETATM   22  H   UNL     1     -10.841   9.719  64.749  1.00  0.00     0.000 HD 
HETATM   23  C   UNL     1     -10.325  11.697  65.124  1.00  0.00    -0.279 C  
HETATM   24  C   UNL     1     -11.260  12.133  64.027  1.00  0.00    -0.458 C  
HETATM   25  O   UNL     1      -9.668  12.506  65.768  1.00  0.00    -0.248 OA 
ENDBRANCH  10  21
ENDBRANCH   4   6
ENDBRANCH   3   4
ENDBRANCH   2   3
TORSDOF 8
ENDMDL
MODEL      138
REMARK 921   NORMALIZED FREE ENERGY PREDICTED BY IDOCK:   -3.70 KCAL/MOL
REMARK 922        TOTAL FREE ENERGY PREDICTED BY IDOCK:   -6.37 KCAL/MOL
REMARK 923 INTER-LIGAND FREE ENERGY PREDICTED BY IDOCK:   -5.91 KCAL/MOL
REMARK 924 INTRA-LIGAND FREE ENERGY PREDICTED BY IDOCK:   -0.46 KCAL/MOL
REMARK 927      BINDING AFFINITY PREDICTED BY RF-SCORE:    0.00 PKD
ROOT
HETATM    1  C   UNL     1     -12.427  12.281  64.555  1.00  0.00    -0.464 C  
HETATM    2  C   UNL     1     -11.799  13.236  63.556  1.00  0.00    -0.418 C  
ENDROOT
BRANCH   2   3
HETATM    3  O   UNL     1     -10.899  14.081  64.278  1.00  0.00    -0.313 OA 
BRANCH   3   4
HETATM    4  C   UNL     1     -11.287  15.376  64.381  1.00  0.00    -0.238 C  
HETATM    5  O   UNL     1     -12.087  15.942  63.650  1.00  0.00    -0.682 OA 
BRANCH   4   6
HETATM    6  C   UNL     1     -10.670  16.029  65.568  1.00  0.00    -0.374 C  
HETATM    7  C   UNL     1      -9.933  15.337  66.449  1.00  0.00    -0.291 C  
HETATM    8  C   UNL     1      -9.099  15.984  67.505  1.00  0.00    -0.199 C  
HETATM    9  H2  UNL     1      -8.509  18.934  66.083  1.00  0.00     0.000 HD 
HETATM   10  C   UNL     1      -9.639  17.364  67.973  1.00  0.00    -0.276 C  
HETATM   11  H1  UNL     1      -9.834  19.893  65.682  1.00  0.00     0.000 HD 
HETATM   12  C   UNL     1     -10.892  17.506  65.654  1.00  0.00     0.013 C  
HETATM   13  C   UNL     1     -10.303  18.246  66.873  1.00  0.00    -0.385 C  
HETATM   14  N   UNL     1      -9.399  19.316  66.402  1.00  0.00    -0.350 NA 
BRANCH   8  15
HETATM   15  O   UNL     1      -7.813  15.985  66.887  1.00  0.00    -0.203 OA 
BRANCH  15  16
HETATM   16  C   UNL     1      -6.834  16.925  67.321  1.00  0.00    -0.166 C  
BRANCH  16  17
HETATM   17  C   UNL     1      -6.196  17.514  66.049  1.00  0.00    -0.199 C  
HETATM   18  C   UNL     1      -5.892  19.003  66.170  1.00  0.00    -0.187 C  
ENDBRANCH  16  17
BRANCH  16  19
HETATM   19  C   UNL     1      -5.774  16.298  68.243  1.00  0.00    -0.108 C  
HETATM   20  C   UNL     1      -5.937  16.642  69.718  1.00  0.00    -0.222 C  
ENDBRANCH  16  19
ENDBRANCH  15  16
ENDBRANCH   8  15
BRANCH  10  21
HETATM   21  N   UNL     1     -10.543  17.219  69.135  1.00  0.00    -0.346 N  
HETATM   22  H   UNL     1     -11.345  17.842  69.227  1.00  0.00     0.000 HD 
HETATM   23  C   UNL     1     -10.320  16.255  70.094  1.00  0.00     0.025 C  
HETATM   24  C   UNL     1     -11.352  16.206  71.189  1.00  0.00    -0.368 C  
HETATM   25  O   UNL     1      -9.369  15.484  70.072  1.00  0.00    -0.157 OA 
ENDBRANCH  10  21
ENDBRANCH   4   6
ENDBRANCH   3   4
ENDBRANCH   2   3
TORSDOF 8
ENDMDL
MODEL      139
REMARK 921   NORMALIZED FREE ENERGY PREDICTED BY IDOCK:   -3.70 KCAL/MOL
REMARK 922        TOTAL FREE ENERGY PREDICTED BY IDOCK:   -6.37 KCAL/MOL
REMARK 923 INTER-LIGAND FREE ENERGY PREDICTED BY IDOCK:   -5.49 KCAL/MOL
REMARK 924 INTRA-LIGAND FREE ENERGY PREDICTED BY IDOCK:   -0.88 KCAL/MOL
REMARK 927      BINDING AFFINITY PREDICTED BY RF-SCORE:    0.00 PKD
ROOT
HETATM    1  C   UNL     1     -11.876  11.420  68.513  1.00  0.00    -0.364 C  
HETATM    2  C   UNL     1     -10.916  10.570  67.701  1.00  0.00    -0.314 C  
ENDROOT
BRANCH   2   3
HETATM    3  O   UNL     1     -10.892  11.101  66.373  1.00  0.00    -0.270 OA 
BRANCH   3   4
HETATM    4  C   UNL     1      -9.665  11.463  65.922  1.00  0.00    -0.227 C  
HETATM    5  O   UNL     1      -9.006  10.864  65.086  1.00  0.00    -0.197 OA 
BRANCH   4   6
HETATM    6  C   UNL     1      -9.233  12.756  66.522  1.00  0.00    -0.190 C  
HETATM    7  C   UNL     1     -10.012  13.847  66.480  1.00  0.00    -0.288 C  
HETATM    8  C   UNL     1      -9.734  15.081  67.273  1.00  0.00    -0.220 C  
HETATM    9  H2  UNL     1      -8.003  13.793  69.806  1.00  0.00     0.000 HD 
HETATM   10  C   UNL     1      -8.227  15.306  67.576  1.00  0.00    -0.173 C  
HETATM   11  H1  UNL     1      -6.580  12.968  69.447  1.00  0.00     0.000 HD 
HETATM   12  C   UNL     1      -7.907  12.711  67.213  1.00  0.00    -0.155 C  
HETATM   13  C   UNL     1      -7.384  14.021  67.836  1.00  0.00    -0.157 C  
HETATM   14  N   UNL     1      -7.132  13.808  69.277  1.00  0.00    -0.056 NA 
BRANCH   8  15
HETATM   15  O   UNL     1     -10.585  14.888  68.403  1.00  0.00    -0.235 OA 
BRANCH  15  16
HETATM   16  C   UNL     1     -11.352  15.984  68.892  1.00  0.00    -0.370 C  
BRANCH  16  17
HETATM   17  C   UNL     1     -10.909  17.222  68.090  1.00  0.00    -0.294 C  
HETATM   18  C   UNL     1     -10.049  18.183  68.904  1.00  0.00    -0.354 C  
ENDBRANCH  16  17
BRANCH  16  19
HETATM   19  C   UNL     1     -11.181  16.203  70.405  1.00  0.00    -0.394 C  
HETATM   20  C   UNL     1     -11.770  15.098  71.273  1.00  0.00    -0.409 C  
ENDBRANCH  16  19
ENDBRANCH  15  16
ENDBRANCH   8  15
BRANCH  10  21
HETATM   21  N   UNL     1      -7.591  16.140  66.533  1.00  0.00    -0.202 N  
HETATM   22  H   UNL     1      -7.763  15.930  65.549  1.00  0.00     0.000 HD 
HETATM   23  C   UNL     1      -6.770  17.195  66.868  1.00  0.00    -0.203 C  
HETATM   24  C   UNL     1      -6.235  17.972  65.695  1.00  0.00    -0.252 C  
HETATM   25  O   UNL     1      -6.492  17.498  68.021  1.00  0.00    -0.165 OA 
ENDBRANCH  10  21
ENDBRANCH   4   6
ENDBRANCH   3   4
ENDBRANCH   2   3
TORSDOF 8
ENDMDL
MODEL      140
REMARK 921   NORMALIZED FREE ENERGY PREDICTED BY IDOCK:   -3.67 KCAL/MOL
REMARK 922        TOTAL FREE ENERGY PREDICTED BY IDOCK:   -6.32 KCAL/MOL
REMARK 923 INTER-LIGAND FREE ENERGY PREDICTED BY IDOCK:   -5.67 KCAL/MOL
REMARK 924 INTRA-LIGAND FREE ENERGY PREDICTED BY IDOCK:   -0.65 KCAL/MOL
REMARK 927      BINDING AFFINITY PREDICTED BY RF-SCORE:    0.00 PKD
ROOT
HETATM    1  C   UNL     1     -13.286  11.411  72.105  1.00  0.00    -0.293 C  
HETATM    2  C   UNL     1     -13.089   9.991  71.605  1.00  0.00    -0.445 C  
ENDROOT
BRANCH   2   3
HETATM    3  O   UNL     1     -11.683   9.781  71.452  1.00  0.00    -0.365 OA 
BRANCH   3   4
HETATM    4  C   UNL     1     -11.295   9.371  70.219  1.00  0.00    -0.220 C  
HETATM    5  O   UNL     1     -11.381   8.231  69.786  1.00  0.00    -0.052 OA 
BRANCH   4   6
HETATM    6  C   UNL     1     -10.811  10.516  69.400  1.00  0.00    -0.291 C  
HETATM    7  C   UNL     1      -9.504  10.783  69.266  1.00  0.00    -0.103 C  
HETATM    8  C   UNL     1      -8.965  11.755  68.269  1.00  0.00    -0.180 C  
HETATM    9  H2  UNL     1     -11.366  11.650  65.967  1.00  0.00     0.000 HD 
HETATM   10  C   UNL     1      -9.954  12.897  67.908  1.00  0.00    -0.233 C  
HETATM   11  H1  UNL     1     -12.928  12.066  66.441  1.00  0.00     0.000 HD 
HETATM   12  C   UNL     1     -11.889  11.287  68.706  1.00  0.00    -0.396 C  
HETATM   13  C   UNL     1     -11.462  12.503  67.859  1.00  0.00    -0.315 C  
HETATM   14  N   UNL     1     -11.941  12.323  66.473  1.00  0.00    -0.626 NA 
BRANCH   8  15
HETATM   15  O   UNL     1      -8.587  10.884  67.202  1.00  0.00    -0.128 OA 
BRANCH  15  16
HETATM   16  C   UNL     1      -9.051   9.538  67.206  1.00  0.00    -0.130 C  
BRANCH  16  17
HETATM   17  C   UNL     1      -7.800   8.642  67.142  1.00  0.00    -0.097 C  
HETATM   18  C   UNL     1      -8.125   7.188  66.814  1.00  0.00    -0.113 C  
ENDBRANCH  16  17
BRANCH  16  19
HETATM   19  C   UNL     1     -10.018   9.237  66.048  1.00  0.00    -0.325 C  
HETATM   20  C   UNL     1      -9.815  10.107  64.814  1.00  0.00    -0.382 C  
ENDBRANCH  16  19
ENDBRANCH  15  16
ENDBRANCH   8  15
BRANCH  10  21
HETATM   21  N   UNL     1      -9.755  14.073  68.782  1.00  0.00    -0.371 N  
HETATM   22  H   UNL     1      -9.684  13.941  69.792  1.00  0.00     0.000 HD 
HETATM   23  C   UNL     1      -9.664  15.343  68.257  1.00  0.00    -0.209 C  
HETATM   24  C   UNL     1      -9.417  16.428  69.271  1.00  0.00    -0.182 C  
HETATM   25  O   UNL     1      -9.763  15.591  67.062  1.00  0.00    -0.219 OA 
ENDBRANCH  10  21
ENDBRANCH   4   6
ENDBRANCH   3   4
ENDBRANCH   2   3
TORSDOF 8
ENDMDL
MODEL      141
REMARK 921   NORMALIZED FREE ENERGY PREDICTED BY IDOCK:   -3.67 KCAL/MOL
REMARK 922        TOTAL FREE ENERGY PREDICTED BY IDOCK:   -6.32 KCAL/MOL
REMARK 923 INTER-LIGAND FREE ENERGY PREDICTED BY IDOCK:   -5.14 KCAL/MOL
REMARK 924 INTRA-LIGAND FREE ENERGY PREDICTED BY IDOCK:   -1.18 KCAL/MOL
REMARK 927      BINDING AFFINITY PREDICTED BY RF-SCORE:    0.00 PKD
ROOT
HETATM    1  C   UNL     1      -6.995   9.969  65.317  1.00  0.00    -0.132 C  
HETATM    2  C   UNL     1      -8.204   9.485  64.537  1.00  0.00    -0.152 C  
ENDROOT
BRANCH   2   3
HETATM    3  O   UNL     1      -8.965   8.641  65.406  1.00  0.00    -0.189 OA 
BRANCH   3   4
HETATM    4  C   UNL     1      -9.809   9.293  66.243  1.00  0.00    -0.291 C  
HETATM    5  O   UNL     1     -10.296  10.397  66.048  1.00  0.00    -0.241 OA 
BRANCH   4   6
HETATM    6  C   UNL     1     -10.148   8.454  67.425  1.00  0.00    -0.301 C  
HETATM    7  C   UNL     1     -10.707   7.242  67.292  1.00  0.00    -0.391 C  
HETATM    8  C   UNL     1     -10.836   6.272  68.419  1.00  0.00    -0.319 C  
HETATM    9  H2  UNL     1      -8.311   7.255  70.351  1.00  0.00     0.000 HD 
HETATM   10  C   UNL     1     -10.944   6.944  69.816  1.00  0.00    -0.270 C  
HETATM   11  H1  UNL     1      -8.321   8.844  70.911  1.00  0.00     0.000 HD 
HETATM   12  C   UNL     1      -9.762   9.047  68.743  1.00  0.00    -0.165 C  
HETATM   13  C   UNL     1     -10.107   8.244  70.014  1.00  0.00    -0.196 C  
HETATM   14  N   UNL     1      -8.869   7.993  70.781  1.00  0.00    -0.137 NA 
BRANCH   8  15
HETATM   15  O   UNL     1      -9.698   5.438  68.205  1.00  0.00    -0.122 OA 
BRANCH  15  16
HETATM   16  C   UNL     1      -9.172   5.303  66.888  1.00  0.00    -0.121 C  
BRANCH  16  17
HETATM   17  C   UNL     1      -9.634   3.929  66.369  1.00  0.00    -0.204 C  
HETATM   18  C   UNL     1      -8.690   2.797  66.758  1.00  0.00    -0.131 C  
ENDBRANCH  16  17
BRANCH  16  19
HETATM   19  C   UNL     1      -7.640   5.436  66.841  1.00  0.00    -0.089 C  
HETATM   20  C   UNL     1      -7.091   6.663  67.559  1.00  0.00    -0.084 C  
ENDBRANCH  16  19
ENDBRANCH  15  16
ENDBRANCH   8  15
BRANCH  10  21
HETATM   21  N   UNL     1     -12.356   7.176  70.190  1.00  0.00    -0.460 N  
HETATM   22  H   UNL     1     -13.021   7.479  69.477  1.00  0.00     0.000 HD 
HETATM   23  C   UNL     1     -12.789   6.991  71.485  1.00  0.00    -0.372 C  
HETATM   24  C   UNL     1     -14.261   7.225  71.696  1.00  0.00    -0.558 C  
HETATM   25  O   UNL     1     -12.053   6.654  72.404  1.00  0.00    -0.215 OA 
ENDBRANCH  10  21
ENDBRANCH   4   6
ENDBRANCH   3   4
ENDBRANCH   2   3
TORSDOF 8
ENDMDL
MODEL      142
REMARK 921   NORMALIZED FREE ENERGY PREDICTED BY IDOCK:   -3.65 KCAL/MOL
REMARK 922        TOTAL FREE ENERGY PREDICTED BY IDOCK:   -6.30 KCAL/MOL
REMARK 923 INTER-LIGAND FREE ENERGY PREDICTED BY IDOCK:   -5.38 KCAL/MOL
REMARK 924 INTRA-LIGAND FREE ENERGY PREDICTED BY IDOCK:   -0.92 KCAL/MOL
REMARK 927      BINDING AFFINITY PREDICTED BY RF-SCORE:    0.00 PKD
ROOT
HETATM    1  C   UNL     1      -9.403   4.243  66.426  1.00  0.00    -0.170 C  
HETATM    2  C   UNL     1     -10.456   5.324  66.267  1.00  0.00    -0.255 C  
ENDROOT
BRANCH   2   3
HETATM    3  O   UNL     1      -9.843   6.574  66.596  1.00  0.00    -0.167 OA 
BRANCH   3   4
HETATM    4  C   UNL     1     -10.390   7.219  67.656  1.00  0.00    -0.227 C  
HETATM    5  O   UNL     1     -10.823   6.689  68.669  1.00  0.00    -0.240 OA 
BRANCH   4   6
HETATM    6  C   UNL     1     -10.331   8.696  67.475  1.00  0.00    -0.336 C  
HETATM    7  C   UNL     1      -9.866   9.248  66.345  1.00  0.00    -0.347 C  
HETATM    8  C   UNL     1     -10.015  10.698  66.022  1.00  0.00    -0.239 C  
HETATM    9  H2  UNL     1     -12.737  11.432  67.790  1.00  0.00     0.000 HD 
HETATM   10  C   UNL     1     -10.089  11.616  67.273  1.00  0.00    -0.199 C  
HETATM   11  H1  UNL     1     -12.685  11.182  69.454  1.00  0.00     0.000 HD 
HETATM   12  C   UNL     1     -10.883   9.487  68.618  1.00  0.00    -0.177 C  
HETATM   13  C   UNL     1     -10.831  11.025  68.510  1.00  0.00    -0.213 C  
HETATM   14  N   UNL     1     -12.199  11.569  68.645  1.00  0.00    -0.461 NA 
BRANCH   8  15
HETATM   15  O   UNL     1     -11.168  10.682  65.181  1.00  0.00     0.236 OA 
BRANCH  15  16
HETATM   16  C   UNL     1     -11.052  11.127  63.832  1.00  0.00    -0.091 C  
BRANCH  16  17
HETATM   17  C   UNL     1      -9.562  11.440  63.601  1.00  0.00    -0.275 C  
HETATM   18  C   UNL     1      -8.982  10.718  62.389  1.00  0.00    -0.347 C  
ENDBRANCH  16  17
BRANCH  16  19
HETATM   19  C   UNL     1     -11.937  12.347  63.529  1.00  0.00    -0.627 C  
HETATM   20  C   UNL     1     -12.632  12.942  64.748  1.00  0.00    -0.493 C  
ENDBRANCH  16  19
ENDBRANCH  15  16
ENDBRANCH   8  15
BRANCH  10  21
HETATM   21  N   UNL     1      -8.746  12.102  67.660  1.00  0.00    -0.163 N  
HETATM   22  H   UNL     1      -8.139  11.505  68.221  1.00  0.00     0.000 HD 
HETATM   23  C   UNL     1      -8.302  13.348  67.273  1.00  0.00    -0.176 C  
HETATM   24  C   UNL     1      -6.899  13.678  67.708  1.00  0.00    -0.175 C  
HETATM   25  O   UNL     1      -8.976  14.136  66.622  1.00  0.00    -0.238 OA 
ENDBRANCH  10  21
ENDBRANCH   4   6
ENDBRANCH   3   4
ENDBRANCH   2   3
TORSDOF 8
ENDMDL
MODEL      143
REMARK 921   NORMALIZED FREE ENERGY PREDICTED BY IDOCK:   -3.64 KCAL/MOL
REMARK 922        TOTAL FREE ENERGY PREDICTED BY IDOCK:   -6.29 KCAL/MOL
REMARK 923 INTER-LIGAND FREE ENERGY PREDICTED BY IDOCK:   -5.41 KCAL/MOL
REMARK 924 INTRA-LIGAND FREE ENERGY PREDICTED BY IDOCK:   -0.88 KCAL/MOL
REMARK 927      BINDING AFFINITY PREDICTED BY RF-SCORE:    0.00 PKD
ROOT
HETATM    1  C   UNL     1     -12.633  12.400  63.207  1.00  0.00    -0.381 C  
HETATM    2  C   UNL     1     -11.789  13.283  64.109  1.00  0.00    -0.443 C  
ENDROOT
BRANCH   2   3
HETATM    3  O   UNL     1     -10.924  12.426  64.861  1.00  0.00    -0.285 OA 
BRANCH   3   4
HETATM    4  C   UNL     1     -11.274  12.257  66.160  1.00  0.00    -0.328 C  
HETATM    5  O   UNL     1     -12.274  12.712  66.695  1.00  0.00    -0.517 OA 
BRANCH   4   6
HETATM    6  C   UNL     1     -10.313  11.363  66.863  1.00  0.00    -0.262 C  
HETATM    7  C   UNL     1     -10.447  11.070  68.164  1.00  0.00    -0.216 C  
HETATM    8  C   UNL     1      -9.664   9.997  68.846  1.00  0.00    -0.181 C  
HETATM    9  H2  UNL     1      -9.008   7.999  66.267  1.00  0.00     0.000 HD 
HETATM   10  C   UNL     1      -8.273   9.733  68.208  1.00  0.00    -0.105 C  
HETATM   11  H1  UNL     1      -8.152   8.646  64.969  1.00  0.00     0.000 HD 
HETATM   12  C   UNL     1      -9.244  10.787  65.990  1.00  0.00    -0.210 C  
HETATM   13  C   UNL     1      -8.196   9.871  66.657  1.00  0.00    -0.121 C  
HETATM   14  N   UNL     1      -8.202   8.556  65.984  1.00  0.00    -0.112 NA 
BRANCH   8  15
HETATM   15  O   UNL     1     -10.590   8.910  68.816  1.00  0.00    -0.214 OA 
BRANCH  15  16
HETATM   16  C   UNL     1     -10.295   7.726  69.551  1.00  0.00    -0.219 C  
BRANCH  16  17
HETATM   17  C   UNL     1     -10.119   6.599  68.516  1.00  0.00    -0.166 C  
HETATM   18  C   UNL     1     -10.881   6.856  67.220  1.00  0.00    -0.426 C  
ENDBRANCH  16  17
BRANCH  16  19
HETATM   19  C   UNL     1     -11.384   7.378  70.581  1.00  0.00    -0.304 C  
HETATM   20  C   UNL     1     -11.567   8.416  71.682  1.00  0.00    -0.348 C  
ENDBRANCH  16  19
ENDBRANCH  15  16
ENDBRANCH   8  15
BRANCH  10  21
HETATM   21  N   UNL     1      -7.225  10.554  68.852  1.00  0.00    -0.079 N  
HETATM   22  H   UNL     1      -6.748  11.275  68.310  1.00  0.00     0.000 HD 
HETATM   23  C   UNL     1      -6.881  10.361  70.173  1.00  0.00    -0.153 C  
HETATM   24  C   UNL     1      -5.830  11.304  70.694  1.00  0.00    -0.097 C  
HETATM   25  O   UNL     1      -7.385   9.503  70.886  1.00  0.00    -0.241 OA 
ENDBRANCH  10  21
ENDBRANCH   4   6
ENDBRANCH   3   4
ENDBRANCH   2   3
TORSDOF 8
ENDMDL
MODEL      144
REMARK 921   NORMALIZED FREE ENERGY PREDICTED BY IDOCK:   -3.64 KCAL/MOL
REMARK 922        TOTAL FREE ENERGY PREDICTED BY IDOCK:   -6.28 KCAL/MOL
REMARK 923 INTER-LIGAND FREE ENERGY PREDICTED BY IDOCK:   -5.30 KCAL/MOL
REMARK 924 INTRA-LIGAND FREE ENERGY PREDICTED BY IDOCK:   -0.99 KCAL/MOL
REMARK 927      BINDING AFFINITY PREDICTED BY RF-SCORE:    0.00 PKD
ROOT
HETATM    1  C   UNL     1     -12.837  14.085  65.316  1.00  0.00    -0.418 C  
HETATM    2  C   UNL     1     -11.710  13.088  65.516  1.00  0.00    -0.368 C  
ENDROOT
BRANCH   2   3
HETATM    3  O   UNL     1     -12.161  12.114  66.462  1.00  0.00    -0.627 OA 
BRANCH   3   4
HETATM    4  C   UNL     1     -11.562  12.177  67.678  1.00  0.00    -0.343 C  
HETATM    5  O   UNL     1     -11.717  13.064  68.504  1.00  0.00    -0.302 OA 
BRANCH   4   6
HETATM    6  C   UNL     1     -10.732  10.968  67.931  1.00  0.00    -0.263 C  
HETATM    7  C   UNL     1     -10.677   9.955  67.054  1.00  0.00    -0.237 C  
HETATM    8  C   UNL     1      -9.681   8.847  67.145  1.00  0.00    -0.184 C  
HETATM    9  H2  UNL     1      -7.227  10.378  68.791  1.00  0.00     0.000 HD 
HETATM   10  C   UNL     1      -9.207   8.546  68.594  1.00  0.00    -0.142 C  
HETATM   11  H1  UNL     1      -7.576  11.009  70.313  1.00  0.00     0.000 HD 
HETATM   12  C   UNL     1      -9.936  11.011  69.197  1.00  0.00    -0.142 C  
HETATM   13  C   UNL     1      -9.072   9.780  69.537  1.00  0.00    -0.216 C  
HETATM   14  N   UNL     1      -7.665  10.202  69.695  1.00  0.00    -0.149 NA 
BRANCH   8  15
HETATM   15  O   UNL     1      -8.678   9.294  66.232  1.00  0.00    -0.134 OA 
BRANCH  15  16
HETATM   16  C   UNL     1      -8.866   9.084  64.836  1.00  0.00    -0.148 C  
BRANCH  16  17
HETATM   17  C   UNL     1      -7.884   7.972  64.422  1.00  0.00    -0.139 C  
HETATM   18  C   UNL     1      -6.921   8.407  63.323  1.00  0.00    -0.089 C  
ENDBRANCH  16  17
BRANCH  16  19
HETATM   19  C   UNL     1      -8.651  10.362  64.007  1.00  0.00    -0.179 C  
HETATM   20  C   UNL     1      -9.910  10.900  63.338  1.00  0.00    -0.408 C  
ENDBRANCH  16  19
ENDBRANCH  15  16
ENDBRANCH   8  15
BRANCH  10  21
HETATM   21  N   UNL     1     -10.045   7.503  69.224  1.00  0.00    -0.183 N  
HETATM   22  H   UNL     1     -11.058   7.532  69.103  1.00  0.00     0.000 HD 
HETATM   23  C   UNL     1      -9.480   6.492  69.971  1.00  0.00    -0.156 C  
HETATM   24  C   UNL     1     -10.460   5.484  70.509  1.00  0.00    -0.347 C  
HETATM   25  O   UNL     1      -8.278   6.399  70.186  1.00  0.00    -0.124 OA 
ENDBRANCH  10  21
ENDBRANCH   4   6
ENDBRANCH   3   4
ENDBRANCH   2   3
TORSDOF 8
ENDMDL
MODEL      145
REMARK 921   NORMALIZED FREE ENERGY PREDICTED BY IDOCK:   -3.61 KCAL/MOL
REMARK 922        TOTAL FREE ENERGY PREDICTED BY IDOCK:   -6.24 KCAL/MOL
REMARK 923 INTER-LIGAND FREE ENERGY PREDICTED BY IDOCK:   -5.54 KCAL/MOL
REMARK 924 INTRA-LIGAND FREE ENERGY PREDICTED BY IDOCK:   -0.70 KCAL/MOL
REMARK 927      BINDING AFFINITY PREDICTED BY RF-SCORE:    0.00 PKD
ROOT
HETATM    1  C   UNL     1     -11.991  15.340  71.225  1.00  0.00    -0.409 C  
HETATM    2  C   UNL     1     -12.513  14.560  70.031  1.00  0.00    -0.298 C  
ENDROOT
BRANCH   2   3
HETATM    3  O   UNL     1     -11.890  15.099  68.862  1.00  0.00    -0.326 OA 
BRANCH   3   4
HETATM    4  C   UNL     1     -11.910  14.285  67.776  1.00  0.00    -0.379 C  
HETATM    5  O   UNL     1     -12.429  14.544  66.700  1.00  0.00    -0.281 OA 
BRANCH   4   6
HETATM    6  C   UNL     1     -11.137  13.038  68.026  1.00  0.00    -0.288 C  
HETATM    7  C   UNL     1     -11.727  11.833  68.027  1.00  0.00    -0.363 C  
HETATM    8  C   UNL     1     -10.964  10.549  68.025  1.00  0.00    -0.290 C  
HETATM    9  H2  UNL     1      -8.128  11.534  66.591  1.00  0.00     0.000 HD 
HETATM   10  C   UNL     1      -9.569  10.648  68.701  1.00  0.00    -0.179 C  
HETATM   11  H1  UNL     1      -7.252  12.762  67.342  1.00  0.00     0.000 HD 
HETATM   12  C   UNL     1      -9.667  13.240  68.212  1.00  0.00    -0.225 C  
HETATM   13  C   UNL     1      -8.807  11.993  68.500  1.00  0.00    -0.095 C  
HETATM   14  N   UNL     1      -7.751  11.881  67.473  1.00  0.00    -0.141 NA 
BRANCH   8  15
HETATM   15  O   UNL     1     -10.973  10.217  66.637  1.00  0.00    -0.108 OA 
BRANCH  15  16
HETATM   16  C   UNL     1      -9.808   9.643  66.052  1.00  0.00    -0.274 C  
BRANCH  16  17
HETATM   17  C   UNL     1      -9.688  10.237  64.637  1.00  0.00    -0.398 C  
HETATM   18  C   UNL     1      -8.777   9.423  63.724  1.00  0.00    -0.223 C  
ENDBRANCH  16  17
BRANCH  16  19
HETATM   19  C   UNL     1      -9.856   8.106  66.015  1.00  0.00     0.038 C  
HETATM   20  C   UNL     1      -8.650   7.421  66.645  1.00  0.00    -0.128 C  
ENDBRANCH  16  19
ENDBRANCH  15  16
ENDBRANCH   8  15
BRANCH  10  21
HETATM   21  N   UNL     1      -9.645  10.306  70.138  1.00  0.00    -0.375 N  
HETATM   22  H   UNL     1      -9.510  11.038  70.836  1.00  0.00     0.000 HD 
HETATM   23  C   UNL     1      -9.896   9.015  70.550  1.00  0.00    -0.216 C  
HETATM   24  C   UNL     1      -9.986   8.837  72.042  1.00  0.00    -0.391 C  
HETATM   25  O   UNL     1     -10.045   8.075  69.780  1.00  0.00    -0.189 OA 
ENDBRANCH  10  21
ENDBRANCH   4   6
ENDBRANCH   3   4
ENDBRANCH   2   3
TORSDOF 8
ENDMDL
MODEL      146
REMARK 921   NORMALIZED FREE ENERGY PREDICTED BY IDOCK:   -3.61 KCAL/MOL
REMARK 922        TOTAL FREE ENERGY PREDICTED BY IDOCK:   -6.24 KCAL/MOL
REMARK 923 INTER-LIGAND FREE ENERGY PREDICTED BY IDOCK:   -5.26 KCAL/MOL
REMARK 924 INTRA-LIGAND FREE ENERGY PREDICTED BY IDOCK:   -0.98 KCAL/MOL
REMARK 927      BINDING AFFINITY PREDICTED BY RF-SCORE:    0.00 PKD
ROOT
HETATM    1  C   UNL     1     -11.793  13.914  66.897  1.00  0.00    -0.453 C  
HETATM    2  C   UNL     1     -12.020  13.536  68.349  1.00  0.00    -0.343 C  
ENDROOT
BRANCH   2   3
HETATM    3  O   UNL     1     -12.230  12.122  68.397  1.00  0.00    -0.324 OA 
BRANCH   3   4
HETATM    4  C   UNL     1     -11.876  11.529  69.564  1.00  0.00    -0.351 C  
HETATM    5  O   UNL     1     -12.244  11.872  70.678  1.00  0.00    -0.371 OA 
BRANCH   4   6
HETATM    6  C   UNL     1     -11.026  10.331  69.323  1.00  0.00    -0.284 C  
HETATM    7  C   UNL     1     -10.490   9.633  70.335  1.00  0.00    -0.352 C  
HETATM    8  C   UNL     1      -9.845   8.299  70.156  1.00  0.00    -0.184 C  
HETATM    9  H2  UNL     1     -11.415   7.230  67.424  1.00  0.00     0.000 HD 
HETATM   10  C   UNL     1      -9.220   8.087  68.750  1.00  0.00    -0.143 C  
HETATM   11  H1  UNL     1     -11.284   8.162  66.027  1.00  0.00     0.000 HD 
HETATM   12  C   UNL     1     -10.877   9.951  67.884  1.00  0.00    -0.312 C  
HETATM   13  C   UNL     1      -9.988   8.734  67.558  1.00  0.00    -0.198 C  
HETATM   14  N   UNL     1     -10.782   7.739  66.808  1.00  0.00    -0.220 NA 
BRANCH   8  15
HETATM   15  O   UNL     1     -10.911   7.419  70.513  1.00  0.00    -0.243 OA 
BRANCH  15  16
HETATM   16  C   UNL     1     -10.681   6.407  71.489  1.00  0.00    -0.238 C  
BRANCH  16  17
HETATM   17  C   UNL     1      -9.579   6.940  72.422  1.00  0.00    -0.167 C  
HETATM   18  C   UNL     1     -10.020   7.023  73.880  1.00  0.00    -0.370 C  
ENDBRANCH  16  17
BRANCH  16  19
HETATM   19  C   UNL     1     -10.287   5.057  70.865  1.00  0.00    -0.260 C  
HETATM   20  C   UNL     1      -8.789   4.779  70.857  1.00  0.00    -0.150 C  
ENDBRANCH  16  19
ENDBRANCH  15  16
ENDBRANCH   8  15
BRANCH  10  21
HETATM   21  N   UNL     1      -7.797   8.494  68.731  1.00  0.00    -0.108 N  
HETATM   22  H   UNL     1      -7.507   9.329  69.240  1.00  0.00     0.000 HD 
HETATM   23  C   UNL     1      -6.858   7.763  68.036  1.00  0.00    -0.072 C  
HETATM   24  C   UNL     1      -5.449   8.281  68.150  1.00  0.00    -0.034 C  
HETATM   25  O   UNL     1      -7.125   6.765  67.380  1.00  0.00    -0.079 OA 
ENDBRANCH  10  21
ENDBRANCH   4   6
ENDBRANCH   3   4
ENDBRANCH   2   3
TORSDOF 8
ENDMDL
MODEL      147
REMARK 921   NORMALIZED FREE ENERGY PREDICTED BY IDOCK:   -3.61 KCAL/MOL
REMARK 922        TOTAL FREE ENERGY PREDICTED BY IDOCK:   -6.24 KCAL/MOL
REMARK 923 INTER-LIGAND FREE ENERGY PREDICTED BY IDOCK:   -5.37 KCAL/MOL
REMARK 924 INTRA-LIGAND FREE ENERGY PREDICTED BY IDOCK:   -0.87 KCAL/MOL
REMARK 927      BINDING AFFINITY PREDICTED BY RF-SCORE:    0.00 PKD
ROOT
HETATM    1  C   UNL     1     -13.292   9.949  71.941  1.00  0.00    -0.524 C  
HETATM    2  C   UNL     1     -12.220  10.398  70.965  1.00  0.00    -0.393 C  
ENDROOT
BRANCH   2   3
HETATM    3  O   UNL     1     -11.754   9.234  70.275  1.00  0.00    -0.189 OA 
BRANCH   3   4
HETATM    4  C   UNL     1     -10.409   9.062  70.285  1.00  0.00    -0.209 C  
HETATM    5  O   UNL     1      -9.675   9.230  71.248  1.00  0.00    -0.282 OA 
BRANCH   4   6
HETATM    6  C   UNL     1      -9.922   8.556  68.973  1.00  0.00    -0.197 C  
HETATM    7  C   UNL     1     -10.548   8.858  67.825  1.00  0.00    -0.266 C  
HETATM    8  C   UNL     1      -9.964   8.584  66.479  1.00  0.00    -0.280 C  
HETATM    9  H2  UNL     1      -6.718   8.620  67.210  1.00  0.00     0.000 HD 
HETATM   10  C   UNL     1      -8.993   7.371  66.450  1.00  0.00    -0.163 C  
HETATM   11  H1  UNL     1      -6.157   7.517  68.352  1.00  0.00     0.000 HD 
HETATM   12  C   UNL     1      -8.664   7.749  69.043  1.00  0.00    -0.135 C  
HETATM   13  C   UNL     1      -8.115   7.170  67.722  1.00  0.00    -0.115 C  
HETATM   14  N   UNL     1      -6.732   7.649  67.520  1.00  0.00    -0.066 NA 
BRANCH   8  15
HETATM   15  O   UNL     1      -9.400   9.854  66.152  1.00  0.00    -0.162 OA 
BRANCH  15  16
HETATM   16  C   UNL     1     -10.266  10.942  65.848  1.00  0.00    -0.257 C  
BRANCH  16  17
HETATM   17  C   UNL     1     -10.322  11.044  64.313  1.00  0.00    -0.430 C  
HETATM   18  C   UNL     1     -11.146  12.231  63.824  1.00  0.00    -0.507 C  
ENDBRANCH  16  17
BRANCH  16  19
HETATM   19  C   UNL     1      -9.806  12.266  66.484  1.00  0.00    -0.240 C  
HETATM   20  C   UNL     1      -9.034  12.105  67.788  1.00  0.00    -0.179 C  
ENDBRANCH  16  19
ENDBRANCH  15  16
ENDBRANCH   8  15
BRANCH  10  21
HETATM   21  N   UNL     1      -9.709   6.121  66.113  1.00  0.00    -0.361 N  
HETATM   22  H   UNL     1     -10.721   6.073  66.237  1.00  0.00     0.000 HD 
HETATM   23  C   UNL     1      -9.032   5.021  65.634  1.00  0.00    -0.149 C  
HETATM   24  C   UNL     1      -9.906   3.843  65.296  1.00  0.00    -0.178 C  
HETATM   25  O   UNL     1      -7.818   4.986  65.480  1.00  0.00    -0.089 OA 
ENDBRANCH  10  21
ENDBRANCH   4   6
ENDBRANCH   3   4
ENDBRANCH   2   3
TORSDOF 8
ENDMDL
MODEL      148
REMARK 921   NORMALIZED FREE ENERGY PREDICTED BY IDOCK:   -3.56 KCAL/MOL
REMARK 922        TOTAL FREE ENERGY PREDICTED BY IDOCK:   -6.17 KCAL/MOL
REMARK 923 INTER-LIGAND FREE ENERGY PREDICTED BY IDOCK:   -5.29 KCAL/MOL
REMARK 924 INTRA-LIGAND FREE ENERGY PREDICTED BY IDOCK:   -0.88 KCAL/MOL
REMARK 927      BINDING AFFINITY PREDICTED BY RF-SCORE:    0.00 PKD
ROOT
HETATM    1  C   UNL     1     -12.262  13.537  66.549  1.00  0.00    -0.433 C  
HETATM    2  C   UNL     1     -11.294  12.632  67.290  1.00  0.00    -0.318 C  
ENDROOT
BRANCH   2   3
HETATM    3  O   UNL     1     -12.071  11.688  68.032  1.00  0.00    -0.597 OA 
BRANCH   3   4
HETATM    4  C   UNL     1     -11.827  11.668  69.366  1.00  0.00    -0.342 C  
HETATM    5  O   UNL     1     -12.138  12.542  70.161  1.00  0.00    -0.340 OA 
BRANCH   4   6
HETATM    6  C   UNL     1     -11.188  10.388  69.776  1.00  0.00    -0.353 C  
HETATM    7  C   UNL     1      -9.957  10.052  69.363  1.00  0.00    -0.239 C  
HETATM    8  C   UNL     1      -9.184   8.911  69.938  1.00  0.00    -0.166 C  
HETATM    9  H2  UNL     1     -10.536   8.737  72.974  1.00  0.00     0.000 HD 
HETATM   10  C   UNL     1     -10.075   7.765  70.492  1.00  0.00    -0.192 C  
HETATM   11  H1  UNL     1     -12.195   8.464  73.081  1.00  0.00     0.000 HD 
HETATM   12  C   UNL     1     -12.000   9.558  70.718  1.00  0.00    -0.326 C  
HETATM   13  C   UNL     1     -11.411   8.205  71.166  1.00  0.00    -0.269 C  
HETATM   14  N   UNL     1     -11.321   8.177  72.640  1.00  0.00    -0.393 NA 
BRANCH   8  15
HETATM   15  O   UNL     1      -8.354   9.582  70.886  1.00  0.00    -0.280 OA 
BRANCH  15  16
HETATM   16  C   UNL     1      -6.941   9.424  70.807  1.00  0.00    -0.114 C  
BRANCH  16  17
HETATM   17  C   UNL     1      -6.406  10.639  70.028  1.00  0.00    -0.126 C  
HETATM   18  C   UNL     1      -5.304  11.386  70.772  1.00  0.00    -0.131 C  
ENDBRANCH  16  17
BRANCH  16  19
HETATM   19  C   UNL     1      -6.526   8.101  70.141  1.00  0.00    -0.036 C  
HETATM   20  C   UNL     1      -5.603   7.230  70.986  1.00  0.00    -0.027 C  
ENDBRANCH  16  19
ENDBRANCH  15  16
ENDBRANCH   8  15
BRANCH  10  21
HETATM   21  N   UNL     1     -10.331   6.739  69.458  1.00  0.00    -0.193 N  
HETATM   22  H   UNL     1     -11.010   6.929  68.720  1.00  0.00     0.000 HD 
HETATM   23  C   UNL     1      -9.668   5.531  69.475  1.00  0.00    -0.161 C  
HETATM   24  C   UNL     1     -10.006   4.612  68.332  1.00  0.00    -0.134 C  
HETATM   25  O   UNL     1      -8.859   5.214  70.338  1.00  0.00    -0.120 OA 
ENDBRANCH  10  21
ENDBRANCH   4   6
ENDBRANCH   3   4
ENDBRANCH   2   3
TORSDOF 8
ENDMDL
MODEL      149
REMARK 921   NORMALIZED FREE ENERGY PREDICTED BY IDOCK:   -3.55 KCAL/MOL
REMARK 922        TOTAL FREE ENERGY PREDICTED BY IDOCK:   -6.16 KCAL/MOL
REMARK 923 INTER-LIGAND FREE ENERGY PREDICTED BY IDOCK:   -5.56 KCAL/MOL
REMARK 924 INTRA-LIGAND FREE ENERGY PREDICTED BY IDOCK:   -0.60 KCAL/MOL
REMARK 927      BINDING AFFINITY PREDICTED BY RF-SCORE:    0.00 PKD
ROOT
HETATM    1  C   UNL     1     -12.812  14.055  65.482  1.00  0.00    -0.453 C  
HETATM    2  C   UNL     1     -11.591  14.742  64.896  1.00  0.00    -0.401 C  
ENDROOT
BRANCH   2   3
HETATM    3  O   UNL     1     -10.522  13.792  64.899  1.00  0.00    -0.377 OA 
BRANCH   3   4
HETATM    4  C   UNL     1      -9.697  13.861  65.973  1.00  0.00    -0.250 C  
HETATM    5  O   UNL     1      -9.080  14.852  66.336  1.00  0.00    -0.278 OA 
BRANCH   4   6
HETATM    6  C   UNL     1      -9.687  12.577  66.726  1.00  0.00    -0.234 C  
HETATM    7  C   UNL     1     -10.374  11.507  66.302  1.00  0.00    -0.280 C  
HETATM    8  C   UNL     1     -10.200  10.142  66.881  1.00  0.00    -0.236 C  
HETATM    9  H2  UNL     1      -7.079  10.360  68.014  1.00  0.00     0.000 HD 
HETATM   10  C   UNL     1      -9.752  10.143  68.368  1.00  0.00    -0.147 C  
HETATM   11  H1  UNL     1      -6.739  11.553  69.154  1.00  0.00     0.000 HD 
HETATM   12  C   UNL     1      -8.813  12.573  67.940  1.00  0.00    -0.185 C  
HETATM   13  C   UNL     1      -8.774  11.283  68.785  1.00  0.00    -0.103 C  
HETATM   14  N   UNL     1      -7.378  10.806  68.881  1.00  0.00    -0.095 NA 
BRANCH   8  15
HETATM   15  O   UNL     1      -9.295   9.553  65.948  1.00  0.00    -0.189 OA 
BRANCH  15  16
HETATM   16  C   UNL     1      -8.554  10.396  65.071  1.00  0.00    -0.181 C  
BRANCH  16  17
HETATM   17  C   UNL     1      -8.953   9.999  63.638  1.00  0.00    -0.280 C  
HETATM   18  C   UNL     1      -9.518  11.164  62.831  1.00  0.00    -0.382 C  
ENDBRANCH  16  17
BRANCH  16  19
HETATM   19  C   UNL     1      -7.034  10.287  65.282  1.00  0.00    -0.130 C  
HETATM   20  C   UNL     1      -6.243   9.956  64.022  1.00  0.00    -0.125 C  
ENDBRANCH  16  19
ENDBRANCH  15  16
ENDBRANCH   8  15
BRANCH  10  21
HETATM   21  N   UNL     1     -10.917  10.102  69.279  1.00  0.00    -0.231 N  
HETATM   22  H   UNL     1     -11.815  10.467  68.960  1.00  0.00     0.000 HD 
HETATM   23  C   UNL     1     -10.810   9.581  70.549  1.00  0.00    -0.292 C  
HETATM   24  C   UNL     1     -12.094   9.571  71.336  1.00  0.00    -0.459 C  
HETATM   25  O   UNL     1      -9.765   9.147  71.018  1.00  0.00    -0.253 OA 
ENDBRANCH  10  21
ENDBRANCH   4   6
ENDBRANCH   3   4
ENDBRANCH   2   3
TORSDOF 8
ENDMDL
MODEL      150
REMARK 921   NORMALIZED FREE ENERGY PREDICTED BY IDOCK:   -3.54 KCAL/MOL
REMARK 922        TOTAL FREE ENERGY PREDICTED BY IDOCK:   -6.13 KCAL/MOL
REMARK 923 INTER-LIGAND FREE ENERGY PREDICTED BY IDOCK:   -5.09 KCAL/MOL
REMARK 924 INTRA-LIGAND FREE ENERGY PREDICTED BY IDOCK:   -1.04 KCAL/MOL
REMARK 927      BINDING AFFINITY PREDICTED BY RF-SCORE:    0.00 PKD
ROOT
HETATM    1  C   UNL     1      -7.444   4.103  64.531  1.00  0.00    -0.072 C  
HETATM    2  C   UNL     1      -7.734   4.842  65.825  1.00  0.00    -0.090 C  
ENDROOT
BRANCH   2   3
HETATM    3  O   UNL     1      -8.774   4.132  66.501  1.00  0.00    -0.112 OA 
BRANCH   3   4
HETATM    4  C   UNL     1      -9.994   4.724  66.458  1.00  0.00    -0.239 C  
HETATM    5  O   UNL     1     -10.816   4.600  65.562  1.00  0.00    -0.278 OA 
BRANCH   4   6
HETATM    6  C   UNL     1     -10.257   5.502  67.699  1.00  0.00    -0.241 C  
HETATM    7  C   UNL     1     -10.382   4.904  68.893  1.00  0.00    -0.069 C  
HETATM    8  C   UNL     1     -10.399   5.651  70.185  1.00  0.00    -0.271 C  
HETATM    9  H2  UNL     1      -8.677   8.368  69.333  1.00  0.00     0.000 HD 
HETATM   10  C   UNL     1     -10.950   7.099  70.066  1.00  0.00    -0.262 C  
HETATM   11  H1  UNL     1      -9.275   9.314  68.074  1.00  0.00     0.000 HD 
HETATM   12  C   UNL     1     -10.308   6.985  67.507  1.00  0.00    -0.288 C  
HETATM   13  C   UNL     1     -10.603   7.854  68.747  1.00  0.00    -0.127 C  
HETATM   14  N   UNL     1      -9.501   8.820  68.937  1.00  0.00    -0.145 NA 
BRANCH   8  15
HETATM   15  O   UNL     1      -9.040   5.524  70.602  1.00  0.00    -0.141 OA 
BRANCH  15  16
HETATM   16  C   UNL     1      -8.753   5.317  71.982  1.00  0.00    -0.130 C  
BRANCH  16  17
HETATM   17  C   UNL     1      -9.827   4.350  72.514  1.00  0.00    -0.213 C  
HETATM   18  C   UNL     1     -10.567   4.893  73.732  1.00  0.00    -0.331 C  
ENDBRANCH  16  17
BRANCH  16  19
HETATM   19  C   UNL     1      -8.726   6.627  72.788  1.00  0.00    -0.128 C  
HETATM   20  C   UNL     1      -7.756   7.675  72.258  1.00  0.00    -0.106 C  
ENDBRANCH  16  19
ENDBRANCH  15  16
ENDBRANCH   8  15
BRANCH  10  21
HETATM   21  N   UNL     1     -12.407   7.139  70.317  1.00  0.00    -0.563 N  
HETATM   22  H   UNL     1     -13.051   6.845  69.582  1.00  0.00     0.000 HD 
HETATM   23  C   UNL     1     -12.909   7.566  71.526  1.00  0.00    -0.360 C  
HETATM   24  C   UNL     1     -14.409   7.506  71.641  1.00  0.00    -0.621 C  
HETATM   25  O   UNL     1     -12.209   7.958  72.451  1.00  0.00    -0.306 OA 
ENDBRANCH  10  21
ENDBRANCH   4   6
ENDBRANCH   3   4
ENDBRANCH   2   3
TORSDOF 8
ENDMDL
MODEL      151
REMARK 921   NORMALIZED FREE ENERGY PREDICTED BY IDOCK:   -3.52 KCAL/MOL
REMARK 922        TOTAL FREE ENERGY PREDICTED BY IDOCK:   -6.11 KCAL/MOL
REMARK 923 INTER-LIGAND FREE ENERGY PREDICTED BY IDOCK:   -5.31 KCAL/MOL
REMARK 924 INTRA-LIGAND FREE ENERGY PREDICTED BY IDOCK:   -0.80 KCAL/MOL
REMARK 927      BINDING AFFINITY PREDICTED BY RF-SCORE:    0.00 PKD
ROOT
HETATM    1  C   UNL     1     -13.785  13.609  72.358  1.00  0.00    -0.697 C  
HETATM    2  C   UNL     1     -12.819  12.477  72.054  1.00  0.00    -0.154 C  
ENDROOT
BRANCH   2   3
HETATM    3  O   UNL     1     -13.573  11.416  71.461  1.00  0.00    -0.007 OA 
BRANCH   3   4
HETATM    4  C   UNL     1     -13.030  10.182  71.598  1.00  0.00    -0.456 C  
HETATM    5  O   UNL     1     -13.504   9.261  72.247  1.00  0.00    -0.430 OA 
BRANCH   4   6
HETATM    6  C   UNL     1     -11.793  10.045  70.781  1.00  0.00    -0.435 C  
HETATM    7  C   UNL     1     -10.715   9.393  71.239  1.00  0.00    -0.421 C  
HETATM    8  C   UNL     1      -9.556   9.020  70.375  1.00  0.00    -0.208 C  
HETATM    9  H2  UNL     1     -11.049   8.849  67.406  1.00  0.00     0.000 HD 
HETATM   10  C   UNL     1      -9.338   9.977  69.170  1.00  0.00    -0.193 C  
HETATM   11  H1  UNL     1     -11.816  10.234  66.831  1.00  0.00     0.000 HD 
HETATM   12  C   UNL     1     -11.883  10.636  69.409  1.00  0.00    -0.325 C  
HETATM   13  C   UNL     1     -10.628  10.555  68.515  1.00  0.00    -0.206 C  
HETATM   14  N   UNL     1     -10.971   9.855  67.259  1.00  0.00    -0.203 NA 
BRANCH   8  15
HETATM   15  O   UNL     1      -9.866   7.664  70.056  1.00  0.00    -0.179 OA 
BRANCH  15  16
HETATM   16  C   UNL     1      -9.230   7.048  68.940  1.00  0.00    -0.136 C  
BRANCH  16  17
HETATM   17  C   UNL     1     -10.102   5.841  68.548  1.00  0.00    -0.226 C  
HETATM   18  C   UNL     1     -10.485   4.970  69.740  1.00  0.00    -0.182 C  
ENDBRANCH  16  17
BRANCH  16  19
HETATM   19  C   UNL     1      -7.783   6.623  69.239  1.00  0.00    -0.102 C  
HETATM   20  C   UNL     1      -6.943   6.327  68.002  1.00  0.00    -0.080 C  
ENDBRANCH  16  19
ENDBRANCH  15  16
ENDBRANCH   8  15
BRANCH  10  21
HETATM   21  N   UNL     1      -8.401  11.068  69.517  1.00  0.00    -0.363 N  
HETATM   22  H   UNL     1      -8.450  11.496  70.442  1.00  0.00     0.000 HD 
HETATM   23  C   UNL     1      -7.463  11.515  68.612  1.00  0.00    -0.116 C  
HETATM   24  C   UNL     1      -6.556  12.599  69.130  1.00  0.00    -0.099 C  
HETATM   25  O   UNL     1      -7.354  11.074  67.475  1.00  0.00    -0.094 OA 
ENDBRANCH  10  21
ENDBRANCH   4   6
ENDBRANCH   3   4
ENDBRANCH   2   3
TORSDOF 8
ENDMDL
MODEL      152
REMARK 921   NORMALIZED FREE ENERGY PREDICTED BY IDOCK:   -3.52 KCAL/MOL
REMARK 922        TOTAL FREE ENERGY PREDICTED BY IDOCK:   -6.10 KCAL/MOL
REMARK 923 INTER-LIGAND FREE ENERGY PREDICTED BY IDOCK:   -5.53 KCAL/MOL
REMARK 924 INTRA-LIGAND FREE ENERGY PREDICTED BY IDOCK:   -0.58 KCAL/MOL
REMARK 927      BINDING AFFINITY PREDICTED BY RF-SCORE:    0.00 PKD
ROOT
HETATM    1  C   UNL     1     -11.051   8.980  71.934  1.00  0.00    -0.433 C  
HETATM    2  C   UNL     1     -12.404   9.584  71.606  1.00  0.00    -0.398 C  
ENDROOT
BRANCH   2   3
HETATM    3  O   UNL     1     -12.329  10.112  70.279  1.00  0.00    -0.231 OA 
BRANCH   3   4
HETATM    4  C   UNL     1     -12.151  11.455  70.206  1.00  0.00    -0.374 C  
HETATM    5  O   UNL     1     -12.497  12.267  71.052  1.00  0.00    -0.370 OA 
BRANCH   4   6
HETATM    6  C   UNL     1     -11.397  11.832  68.980  1.00  0.00    -0.338 C  
HETATM    7  C   UNL     1     -10.132  11.433  68.781  1.00  0.00    -0.199 C  
HETATM    8  C   UNL     1      -9.426  11.574  67.473  1.00  0.00    -0.169 C  
HETATM    9  H2  UNL     1     -12.017  11.567  65.385  1.00  0.00     0.000 HD 
HETATM   10  C   UNL     1      -9.928  12.768  66.614  1.00  0.00    -0.245 C  
HETATM   11  H1  UNL     1     -13.186  12.764  65.578  1.00  0.00     0.000 HD 
HETATM   12  C   UNL     1     -12.181  12.627  67.984  1.00  0.00     0.061 C  
HETATM   13  C   UNL     1     -11.454  13.074  66.699  1.00  0.00    -0.336 C  
HETATM   14  N   UNL     1     -12.187  12.563  65.523  1.00  0.00    -0.597 NA 
BRANCH   8  15
HETATM   15  O   UNL     1      -9.604  10.273  66.914  1.00  0.00    -0.165 OA 
BRANCH  15  16
HETATM   16  C   UNL     1      -8.458   9.508  66.553  1.00  0.00    -0.126 C  
BRANCH  16  17
HETATM   17  C   UNL     1      -7.672   9.256  67.852  1.00  0.00    -0.088 C  
HETATM   18  C   UNL     1      -6.178   9.059  67.616  1.00  0.00    -0.055 C  
ENDBRANCH  16  17
BRANCH  16  19
HETATM   19  C   UNL     1      -7.586  10.206  65.494  1.00  0.00    -0.146 C  
HETATM   20  C   UNL     1      -7.558   9.507  64.140  1.00  0.00    -0.123 C  
ENDBRANCH  16  19
ENDBRANCH  15  16
ENDBRANCH   8  15
BRANCH  10  21
HETATM   21  N   UNL     1      -9.139  13.990  66.883  1.00  0.00    -0.248 N  
HETATM   22  H   UNL     1      -8.495  14.007  67.674  1.00  0.00     0.000 HD 
HETATM   23  C   UNL     1      -9.260  15.105  66.082  1.00  0.00    -0.283 C  
HETATM   24  C   UNL     1      -8.358  16.250  66.459  1.00  0.00    -0.343 C  
HETATM   25  O   UNL     1     -10.026  15.176  65.131  1.00  0.00    -0.323 OA 
ENDBRANCH  10  21
ENDBRANCH   4   6
ENDBRANCH   3   4
ENDBRANCH   2   3
TORSDOF 8
ENDMDL
MODEL      153
REMARK 921   NORMALIZED FREE ENERGY PREDICTED BY IDOCK:   -3.51 KCAL/MOL
REMARK 922        TOTAL FREE ENERGY PREDICTED BY IDOCK:   -6.09 KCAL/MOL
REMARK 923 INTER-LIGAND FREE ENERGY PREDICTED BY IDOCK:   -5.06 KCAL/MOL
REMARK 924 INTRA-LIGAND FREE ENERGY PREDICTED BY IDOCK:   -1.04 KCAL/MOL
REMARK 927      BINDING AFFINITY PREDICTED BY RF-SCORE:    0.00 PKD
ROOT
HETATM    1  C   UNL     1      -9.060   7.949  68.901  1.00  0.00    -0.141 C  
HETATM    2  C   UNL     1      -8.422   7.876  67.525  1.00  0.00    -0.123 C  
ENDROOT
BRANCH   2   3
HETATM    3  O   UNL     1      -7.781   9.131  67.282  1.00  0.00    -0.094 OA 
BRANCH   3   4
HETATM    4  C   UNL     1      -8.383   9.910  66.349  1.00  0.00    -0.125 C  
HETATM    5  O   UNL     1      -8.324   9.748  65.139  1.00  0.00    -0.128 OA 
BRANCH   4   6
HETATM    6  C   UNL     1      -9.210  10.971  66.986  1.00  0.00    -0.164 C  
HETATM    7  C   UNL     1      -8.678  11.869  67.828  1.00  0.00    -0.158 C  
HETATM    8  C   UNL     1      -9.406  13.086  68.293  1.00  0.00    -0.199 C  
HETATM    9  H2  UNL     1     -11.521  13.527  65.761  1.00  0.00     0.000 HD 
HETATM   10  C   UNL     1     -10.950  12.917  68.333  1.00  0.00    -0.258 C  
HETATM   11  H1  UNL     1     -12.591  12.277  65.404  1.00  0.00     0.000 HD 
HETATM   12  C   UNL     1     -10.646  10.979  66.566  1.00  0.00    -0.310 C  
HETATM   13  C   UNL     1     -11.569  12.036  67.207  1.00  0.00    -0.313 C  
HETATM   14  N   UNL     1     -12.185  12.854  66.141  1.00  0.00    -0.508 NA 
BRANCH   8  15
HETATM   15  O   UNL     1      -8.902  14.076  67.397  1.00  0.00    -0.185 OA 
BRANCH  15  16
HETATM   16  C   UNL     1      -8.837  15.433  67.825  1.00  0.00    -0.168 C  
BRANCH  16  17
HETATM   17  C   UNL     1      -8.208  16.230  66.668  1.00  0.00    -0.316 C  
HETATM   18  C   UNL     1      -8.680  17.679  66.615  1.00  0.00    -0.286 C  
ENDBRANCH  16  17
BRANCH  16  19
HETATM   19  C   UNL     1      -8.038  15.608  69.128  1.00  0.00    -0.238 C  
HETATM   20  C   UNL     1      -6.527  15.517  68.960  1.00  0.00    -0.123 C  
ENDBRANCH  16  19
ENDBRANCH  15  16
ENDBRANCH   8  15
BRANCH  10  21
HETATM   21  N   UNL     1     -11.402  12.450  69.662  1.00  0.00    -0.476 N  
HETATM   22  H   UNL     1     -11.000  11.599  70.058  1.00  0.00     0.000 HD 
HETATM   23  C   UNL     1     -12.356  13.144  70.374  1.00  0.00    -0.279 C  
HETATM   24  C   UNL     1     -12.676  12.566  71.727  1.00  0.00    -0.244 C  
HETATM   25  O   UNL     1     -12.905  14.157  69.961  1.00  0.00    -0.223 OA 
ENDBRANCH  10  21
ENDBRANCH   4   6
ENDBRANCH   3   4
ENDBRANCH   2   3
TORSDOF 8
ENDMDL
MODEL      154
REMARK 921   NORMALIZED FREE ENERGY PREDICTED BY IDOCK:   -3.51 KCAL/MOL
REMARK 922        TOTAL FREE ENERGY PREDICTED BY IDOCK:   -6.09 KCAL/MOL
REMARK 923 INTER-LIGAND FREE ENERGY PREDICTED BY IDOCK:   -5.18 KCAL/MOL
REMARK 924 INTRA-LIGAND FREE ENERGY PREDICTED BY IDOCK:   -0.91 KCAL/MOL
REMARK 927      BINDING AFFINITY PREDICTED BY RF-SCORE:    0.00 PKD
ROOT
HETATM    1  C   UNL     1     -12.362  13.042  70.681  1.00  0.00    -0.391 C  
HETATM    2  C   UNL     1     -12.218  11.553  70.420  1.00  0.00    -0.355 C  
ENDROOT
BRANCH   2   3
HETATM    3  O   UNL     1     -11.000  11.360  69.696  1.00  0.00    -0.207 OA 
BRANCH   3   4
HETATM    4  C   UNL     1     -11.138  10.743  68.496  1.00  0.00    -0.262 C  
HETATM    5  O   UNL     1     -11.688  11.213  67.511  1.00  0.00    -0.574 OA 
BRANCH   4   6
HETATM    6  C   UNL     1     -10.455   9.420  68.491  1.00  0.00    -0.239 C  
HETATM    7  C   UNL     1      -9.795   8.964  69.566  1.00  0.00    -0.180 C  
HETATM    8  C   UNL     1      -9.312   7.557  69.693  1.00  0.00    -0.153 C  
HETATM    9  H2  UNL     1     -11.467   5.997  67.694  1.00  0.00     0.000 HD 
HETATM   10  C   UNL     1      -8.992   6.878  68.333  1.00  0.00    -0.121 C  
HETATM   11  H1  UNL     1     -11.531   6.475  66.081  1.00  0.00     0.000 HD 
HETATM   12  C   UNL     1     -10.621   8.637  67.227  1.00  0.00    -0.308 C  
HETATM   13  C   UNL     1      -9.918   7.266  67.141  1.00  0.00    -0.215 C  
HETATM   14  N   UNL     1     -10.924   6.221  66.861  1.00  0.00    -0.365 NA 
BRANCH   8  15
HETATM   15  O   UNL     1     -10.360   6.968  70.462  1.00  0.00    -0.199 OA 
BRANCH  15  16
HETATM   16  C   UNL     1     -10.045   6.343  71.703  1.00  0.00    -0.186 C  
BRANCH  16  17
HETATM   17  C   UNL     1     -10.072   4.824  71.450  1.00  0.00    -0.259 C  
HETATM   18  C   UNL     1     -10.020   4.005  72.735  1.00  0.00    -0.206 C  
ENDBRANCH  16  17
BRANCH  16  19
HETATM   19  C   UNL     1     -11.010   6.742  72.833  1.00  0.00    -0.297 C  
HETATM   20  C   UNL     1     -11.621   8.130  72.681  1.00  0.00    -0.441 C  
ENDBRANCH  16  19
ENDBRANCH  15  16
ENDBRANCH   8  15
BRANCH  10  21
HETATM   21  N   UNL     1      -7.571   7.063  67.965  1.00  0.00    -0.108 N  
HETATM   22  H   UNL     1      -7.312   7.818  67.329  1.00  0.00     0.000 HD 
HETATM   23  C   UNL     1      -6.592   6.234  68.467  1.00  0.00    -0.059 C  
HETATM   24  C   UNL     1      -5.192   6.579  68.033  1.00  0.00    -0.008 C  
HETATM   25  O   UNL     1      -6.820   5.291  69.214  1.00  0.00    -0.050 OA 
ENDBRANCH  10  21
ENDBRANCH   4   6
ENDBRANCH   3   4
ENDBRANCH   2   3
TORSDOF 8
ENDMDL
MODEL      155
REMARK 921   NORMALIZED FREE ENERGY PREDICTED BY IDOCK:   -3.50 KCAL/MOL
REMARK 922        TOTAL FREE ENERGY PREDICTED BY IDOCK:   -6.07 KCAL/MOL
REMARK 923 INTER-LIGAND FREE ENERGY PREDICTED BY IDOCK:   -5.09 KCAL/MOL
REMARK 924 INTRA-LIGAND FREE ENERGY PREDICTED BY IDOCK:   -0.98 KCAL/MOL
REMARK 927      BINDING AFFINITY PREDICTED BY RF-SCORE:    0.00 PKD
ROOT
HETATM    1  C   UNL     1     -13.480  13.045  72.069  1.00  0.00    -0.584 C  
HETATM    2  C   UNL     1     -13.272  11.620  71.587  1.00  0.00    -0.272 C  
ENDROOT
BRANCH   2   3
HETATM    3  O   UNL     1     -12.025  11.581  70.887  1.00  0.00    -0.307 OA 
BRANCH   3   4
HETATM    4  C   UNL     1     -11.953  10.657  69.898  1.00  0.00    -0.310 C  
HETATM    5  O   UNL     1     -12.398  10.785  68.767  1.00  0.00    -0.435 OA 
BRANCH   4   6
HETATM    6  C   UNL     1     -11.177   9.463  70.334  1.00  0.00    -0.309 C  
HETATM    7  C   UNL     1     -11.025   8.393  69.539  1.00  0.00    -0.051 C  
HETATM    8  C   UNL     1     -10.063   7.289  69.829  1.00  0.00    -0.194 C  
HETATM    9  H2  UNL     1      -7.816   8.915  71.668  1.00  0.00     0.000 HD 
HETATM   10  C   UNL     1      -9.780   7.084  71.342  1.00  0.00    -0.169 C  
HETATM   11  H1  UNL     1      -8.346   9.649  73.088  1.00  0.00     0.000 HD 
HETATM   12  C   UNL     1     -10.546   9.588  71.684  1.00  0.00    -0.100 C  
HETATM   13  C   UNL     1      -9.748   8.377  72.212  1.00  0.00    -0.316 C  
HETATM   14  N   UNL     1      -8.367   8.803  72.519  1.00  0.00    -0.399 NA 
BRANCH   8  15
HETATM   15  O   UNL     1      -8.947   7.669  69.023  1.00  0.00    -0.138 OA 
BRANCH  15  16
HETATM   16  C   UNL     1      -9.176   8.145  67.700  1.00  0.00    -0.137 C  
BRANCH  16  17
HETATM   17  C   UNL     1      -8.974   6.943  66.759  1.00  0.00    -0.141 C  
HETATM   18  C   UNL     1      -8.489   7.348  65.371  1.00  0.00    -0.101 C  
ENDBRANCH  16  17
BRANCH  16  19
HETATM   19  C   UNL     1      -8.253   9.317  67.321  1.00  0.00    -0.121 C  
HETATM   20  C   UNL     1      -8.905  10.691  67.418  1.00  0.00    -0.132 C  
ENDBRANCH  16  19
ENDBRANCH  15  16
ENDBRANCH   8  15
BRANCH  10  21
HETATM   21  N   UNL     1     -10.704   6.089  71.929  1.00  0.00    -0.225 N  
HETATM   22  H   UNL     1     -11.665   6.034  71.587  1.00  0.00     0.000 HD 
HETATM   23  C   UNL     1     -10.290   5.236  72.928  1.00  0.00    -0.196 C  
HETATM   24  C   UNL     1     -11.334   4.253  73.389  1.00  0.00    -0.324 C  
HETATM   25  O   UNL     1      -9.166   5.253  73.412  1.00  0.00    -0.131 OA 
ENDBRANCH  10  21
ENDBRANCH   4   6
ENDBRANCH   3   4
ENDBRANCH   2   3
TORSDOF 8
ENDMDL
MODEL      156
REMARK 921   NORMALIZED FREE ENERGY PREDICTED BY IDOCK:   -3.49 KCAL/MOL
REMARK 922        TOTAL FREE ENERGY PREDICTED BY IDOCK:   -6.06 KCAL/MOL
REMARK 923 INTER-LIGAND FREE ENERGY PREDICTED BY IDOCK:   -5.30 KCAL/MOL
REMARK 924 INTRA-LIGAND FREE ENERGY PREDICTED BY IDOCK:   -0.76 KCAL/MOL
REMARK 927      BINDING AFFINITY PREDICTED BY RF-SCORE:    0.00 PKD
ROOT
HETATM    1  C   UNL     1      -5.508   6.246  70.321  1.00  0.00    -0.014 C  
HETATM    2  C   UNL     1      -6.878   6.454  70.943  1.00  0.00    -0.063 C  
ENDROOT
BRANCH   2   3
HETATM    3  O   UNL     1      -6.720   7.365  72.034  1.00  0.00    -0.054 OA 
BRANCH   3   4
HETATM    4  C   UNL     1      -7.055   8.651  71.760  1.00  0.00    -0.084 C  
HETATM    5  O   UNL     1      -6.285   9.599  71.738  1.00  0.00    -0.289 OA 
BRANCH   4   6
HETATM    6  C   UNL     1      -8.495   8.766  71.402  1.00  0.00    -0.245 C  
HETATM    7  C   UNL     1      -8.890   9.259  70.219  1.00  0.00    -0.254 C  
HETATM    8  C   UNL     1     -10.294   9.166  69.721  1.00  0.00    -0.215 C  
HETATM    9  H2  UNL     1     -11.336   6.463  71.358  1.00  0.00     0.000 HD 
HETATM   10  C   UNL     1     -11.359   9.120  70.851  1.00  0.00    -0.295 C  
HETATM   11  H1  UNL     1     -11.288   6.496  73.041  1.00  0.00     0.000 HD 
HETATM   12  C   UNL     1      -9.440   8.237  72.435  1.00  0.00    -0.357 C  
HETATM   13  C   UNL     1     -10.950   8.348  72.142  1.00  0.00    -0.341 C  
HETATM   14  N   UNL     1     -11.556   7.001  72.196  1.00  0.00    -0.275 NA 
BRANCH   8  15
HETATM   15  O   UNL     1     -10.218   8.018  68.875  1.00  0.00    -0.201 OA 
BRANCH  15  16
HETATM   16  C   UNL     1      -9.287   8.009  67.797  1.00  0.00    -0.137 C  
BRANCH  16  17
HETATM   17  C   UNL     1     -10.100   8.258  66.513  1.00  0.00    -0.303 C  
HETATM   18  C   UNL     1     -10.053   9.710  66.050  1.00  0.00    -0.318 C  
ENDBRANCH  16  17
BRANCH  16  19
HETATM   19  C   UNL     1      -8.487   6.698  67.712  1.00  0.00    -0.122 C  
HETATM   20  C   UNL     1      -8.516   6.029  66.343  1.00  0.00    -0.118 C  
ENDBRANCH  16  19
ENDBRANCH  15  16
ENDBRANCH   8  15
BRANCH  10  21
HETATM   21  N   UNL     1     -11.839  10.477  71.190  1.00  0.00    -0.332 N  
HETATM   22  H   UNL     1     -11.319  11.290  70.857  1.00  0.00     0.000 HD 
HETATM   23  C   UNL     1     -12.975  10.662  71.946  1.00  0.00    -0.437 C  
HETATM   24  C   UNL     1     -13.357  12.101  72.167  1.00  0.00    -0.438 C  
HETATM   25  O   UNL     1     -13.641   9.743  72.405  1.00  0.00    -0.407 OA 
ENDBRANCH  10  21
ENDBRANCH   4   6
ENDBRANCH   3   4
ENDBRANCH   2   3
TORSDOF 8
ENDMDL
MODEL      157
REMARK 921   NORMALIZED FREE ENERGY PREDICTED BY IDOCK:   -3.47 KCAL/MOL
REMARK 922        TOTAL FREE ENERGY PREDICTED BY IDOCK:   -6.03 KCAL/MOL
REMARK 923 INTER-LIGAND FREE ENERGY PREDICTED BY IDOCK:   -4.93 KCAL/MOL
REMARK 924 INTRA-LIGAND FREE ENERGY PREDICTED BY IDOCK:   -1.10 KCAL/MOL
REMARK 927      BINDING AFFINITY PREDICTED BY RF-SCORE:    0.00 PKD
ROOT
HETATM    1  C   UNL     1     -12.840  14.081  65.336  1.00  0.00    -0.442 C  
HETATM    2  C   UNL     1     -11.711  13.075  65.470  1.00  0.00    -0.368 C  
ENDROOT
BRANCH   2   3
HETATM    3  O   UNL     1     -12.182  12.010  66.301  1.00  0.00    -0.548 OA 
BRANCH   3   4
HETATM    4  C   UNL     1     -11.507  11.851  67.466  1.00  0.00    -0.326 C  
HETATM    5  O   UNL     1     -11.551  12.608  68.425  1.00  0.00    -0.283 OA 
BRANCH   4   6
HETATM    6  C   UNL     1     -10.746  10.572  67.476  1.00  0.00    -0.326 C  
HETATM    7  C   UNL     1      -9.851  10.278  66.522  1.00  0.00    -0.265 C  
HETATM    8  C   UNL     1      -8.896   9.135  66.621  1.00  0.00    -0.128 C  
HETATM    9  H2  UNL     1      -8.667   8.825  69.926  1.00  0.00     0.000 HD 
HETATM   10  C   UNL     1      -9.420   7.951  67.480  1.00  0.00    -0.145 C  
HETATM   11  H1  UNL     1     -10.082   8.512  70.786  1.00  0.00     0.000 HD 
HETATM   12  C   UNL     1     -11.020   9.692  68.654  1.00  0.00    -0.152 C  
HETATM   13  C   UNL     1     -10.285   8.337  68.717  1.00  0.00    -0.210 C  
HETATM   14  N   UNL     1      -9.515   8.260  69.976  1.00  0.00    -0.166 NA 
BRANCH   8  15
HETATM   15  O   UNL     1      -7.720   9.790  67.097  1.00  0.00    -0.095 OA 
BRANCH  15  16
HETATM   16  C   UNL     1      -7.234  10.936  66.404  1.00  0.00    -0.140 C  
BRANCH  16  17
HETATM   17  C   UNL     1      -6.211  10.424  65.373  1.00  0.00    -0.127 C  
HETATM   18  C   UNL     1      -5.168   9.491  65.981  1.00  0.00    -0.036 C  
ENDBRANCH  16  17
BRANCH  16  19
HETATM   19  C   UNL     1      -6.609  11.980  67.345  1.00  0.00    -0.134 C  
HETATM   20  C   UNL     1      -7.601  12.659  68.283  1.00  0.00    -0.133 C  
ENDBRANCH  16  19
ENDBRANCH  15  16
ENDBRANCH   8  15
BRANCH  10  21
HETATM   21  N   UNL     1     -10.127   6.956  66.644  1.00  0.00    -0.369 N  
HETATM   22  H   UNL     1     -10.818   7.273  65.963  1.00  0.00     0.000 HD 
HETATM   23  C   UNL     1      -9.867   5.609  66.770  1.00  0.00    -0.164 C  
HETATM   24  C   UNL     1     -10.635   4.729  65.819  1.00  0.00    -0.262 C  
HETATM   25  O   UNL     1      -9.073   5.144  67.577  1.00  0.00    -0.112 OA 
ENDBRANCH  10  21
ENDBRANCH   4   6
ENDBRANCH   3   4
ENDBRANCH   2   3
TORSDOF 8
ENDMDL
MODEL      158
REMARK 921   NORMALIZED FREE ENERGY PREDICTED BY IDOCK:   -3.45 KCAL/MOL
REMARK 922        TOTAL FREE ENERGY PREDICTED BY IDOCK:   -6.01 KCAL/MOL
REMARK 923 INTER-LIGAND FREE ENERGY PREDICTED BY IDOCK:   -5.05 KCAL/MOL
REMARK 924 INTRA-LIGAND FREE ENERGY PREDICTED BY IDOCK:   -0.96 KCAL/MOL
REMARK 927      BINDING AFFINITY PREDICTED BY RF-SCORE:    0.00 PKD
ROOT
HETATM    1  C   UNL     1     -12.080  14.513  69.816  1.00  0.00    -0.380 C  
HETATM    2  C   UNL     1     -11.826  13.806  68.497  1.00  0.00    -0.370 C  
ENDROOT
BRANCH   2   3
HETATM    3  O   UNL     1     -12.027  12.406  68.714  1.00  0.00    -0.302 OA 
BRANCH   3   4
HETATM    4  C   UNL     1     -11.564  11.601  67.726  1.00  0.00    -0.289 C  
HETATM    5  O   UNL     1     -11.627  11.834  66.527  1.00  0.00    -0.481 OA 
BRANCH   4   6
HETATM    6  C   UNL     1     -10.882  10.402  68.285  1.00  0.00    -0.299 C  
HETATM    7  C   UNL     1     -10.824   9.245  67.610  1.00  0.00    -0.188 C  
HETATM    8  C   UNL     1      -9.950   8.105  68.014  1.00  0.00    -0.184 C  
HETATM    9  H2  UNL     1      -7.561   9.732  69.663  1.00  0.00     0.000 HD 
HETATM   10  C   UNL     1      -9.668   8.040  69.540  1.00  0.00    -0.170 C  
HETATM   11  H1  UNL     1      -8.015  10.653  70.998  1.00  0.00     0.000 HD 
HETATM   12  C   UNL     1     -10.228  10.619  69.613  1.00  0.00    -0.156 C  
HETATM   13  C   UNL     1      -9.524   9.412  70.266  1.00  0.00    -0.251 C  
HETATM   14  N   UNL     1      -8.109   9.755  70.523  1.00  0.00    -0.249 NA 
BRANCH   8  15
HETATM   15  O   UNL     1      -8.817   8.305  67.169  1.00  0.00    -0.133 OA 
BRANCH  15  16
HETATM   16  C   UNL     1      -8.797   7.703  65.878  1.00  0.00    -0.130 C  
BRANCH  16  17
HETATM   17  C   UNL     1      -7.934   6.434  65.999  1.00  0.00    -0.115 C  
HETATM   18  C   UNL     1      -8.312   5.358  64.985  1.00  0.00    -0.145 C  
ENDBRANCH  16  17
BRANCH  16  19
HETATM   19  C   UNL     1      -8.259   8.648  64.789  1.00  0.00    -0.161 C  
HETATM   20  C   UNL     1      -9.200   9.789  64.423  1.00  0.00    -0.301 C  
ENDBRANCH  16  19
ENDBRANCH  15  16
ENDBRANCH   8  15
BRANCH  10  21
HETATM   21  N   UNL     1     -10.662   7.191  70.232  1.00  0.00    -0.231 N  
HETATM   22  H   UNL     1     -11.623   7.163  69.890  1.00  0.00     0.000 HD 
HETATM   23  C   UNL     1     -10.312   6.438  71.331  1.00  0.00    -0.206 C  
HETATM   24  C   UNL     1     -11.424   5.594  71.896  1.00  0.00    -0.163 C  
HETATM   25  O   UNL     1      -9.190   6.433  71.821  1.00  0.00    -0.144 OA 
ENDBRANCH  10  21
ENDBRANCH   4   6
ENDBRANCH   3   4
ENDBRANCH   2   3
TORSDOF 8
ENDMDL
MODEL      159
REMARK 921   NORMALIZED FREE ENERGY PREDICTED BY IDOCK:   -3.45 KCAL/MOL
REMARK 922        TOTAL FREE ENERGY PREDICTED BY IDOCK:   -6.00 KCAL/MOL
REMARK 923 INTER-LIGAND FREE ENERGY PREDICTED BY IDOCK:   -5.18 KCAL/MOL
REMARK 924 INTRA-LIGAND FREE ENERGY PREDICTED BY IDOCK:   -0.82 KCAL/MOL
REMARK 927      BINDING AFFINITY PREDICTED BY RF-SCORE:    0.00 PKD
ROOT
HETATM    1  C   UNL     1      -7.260   9.026  62.839  1.00  0.00    -0.095 C  
HETATM    2  C   UNL     1      -8.174   8.798  64.030  1.00  0.00    -0.161 C  
ENDROOT
BRANCH   2   3
HETATM    3  O   UNL     1      -8.046   9.931  64.893  1.00  0.00    -0.131 OA 
BRANCH   3   4
HETATM    4  C   UNL     1      -9.156  10.232  65.612  1.00  0.00    -0.175 C  
HETATM    5  O   UNL     1     -10.151   9.530  65.715  1.00  0.00    -0.288 OA 
BRANCH   4   6
HETATM    6  C   UNL     1      -8.990  11.517  66.345  1.00  0.00    -0.200 C  
HETATM    7  C   UNL     1     -10.024  12.342  66.564  1.00  0.00    -0.242 C  
HETATM    8  C   UNL     1      -9.959  13.506  67.496  1.00  0.00    -0.230 C  
HETATM    9  H2  UNL     1      -7.572  12.481  69.575  1.00  0.00     0.000 HD 
HETATM   10  C   UNL     1      -8.535  14.112  67.645  1.00  0.00    -0.185 C  
HETATM   11  H1  UNL     1      -6.057  12.136  68.924  1.00  0.00     0.000 HD 
HETATM   12  C   UNL     1      -7.607  11.770  66.855  1.00  0.00    -0.119 C  
HETATM   13  C   UNL     1      -7.354  13.096  67.603  1.00  0.00    -0.154 C  
HETATM   14  N   UNL     1      -6.830  12.801  68.952  1.00  0.00    -0.096 NA 
BRANCH   8  15
HETATM   15  O   UNL     1     -10.538  12.955  68.678  1.00  0.00    -0.248 OA 
BRANCH  15  16
HETATM   16  C   UNL     1     -11.767  13.487  69.163  1.00  0.00    -0.327 C  
BRANCH  16  17
HETATM   17  C   UNL     1     -11.537  14.993  69.383  1.00  0.00    -0.337 C  
HETATM   18  C   UNL     1     -11.357  15.361  70.852  1.00  0.00    -0.395 C  
ENDBRANCH  16  17
BRANCH  16  19
HETATM   19  C   UNL     1     -12.247  12.797  70.452  1.00  0.00    -0.371 C  
HETATM   20  C   UNL     1     -12.001  11.294  70.493  1.00  0.00    -0.467 C  
ENDBRANCH  16  19
ENDBRANCH  15  16
ENDBRANCH   8  15
BRANCH  10  21
HETATM   21  N   UNL     1      -8.314  15.203  66.672  1.00  0.00    -0.385 N  
HETATM   22  H   UNL     1      -8.387  15.008  65.673  1.00  0.00     0.000 HD 
HETATM   23  C   UNL     1      -8.011  16.480  67.092  1.00  0.00    -0.180 C  
HETATM   24  C   UNL     1      -7.858  17.487  65.983  1.00  0.00    -0.213 C  
HETATM   25  O   UNL     1      -7.880  16.794  68.268  1.00  0.00    -0.179 OA 
ENDBRANCH  10  21
ENDBRANCH   4   6
ENDBRANCH   3   4
ENDBRANCH   2   3
TORSDOF 8
ENDMDL
MODEL      160
REMARK 921   NORMALIZED FREE ENERGY PREDICTED BY IDOCK:   -3.44 KCAL/MOL
REMARK 922        TOTAL FREE ENERGY PREDICTED BY IDOCK:   -5.98 KCAL/MOL
REMARK 923 INTER-LIGAND FREE ENERGY PREDICTED BY IDOCK:   -5.04 KCAL/MOL
REMARK 924 INTRA-LIGAND FREE ENERGY PREDICTED BY IDOCK:   -0.94 KCAL/MOL
REMARK 927      BINDING AFFINITY PREDICTED BY RF-SCORE:    0.00 PKD
ROOT
HETATM    1  C   UNL     1      -7.661  20.881  67.146  1.00  0.00    -0.259 C  
HETATM    2  C   UNL     1      -9.062  20.334  67.353  1.00  0.00    -0.365 C  
ENDROOT
BRANCH   2   3
HETATM    3  O   UNL     1      -9.011  19.430  68.460  1.00  0.00    -0.353 OA 
BRANCH   3   4
HETATM    4  C   UNL     1      -9.605  18.229  68.248  1.00  0.00    -0.318 C  
HETATM    5  O   UNL     1     -10.758  18.059  67.880  1.00  0.00    -0.395 OA 
BRANCH   4   6
HETATM    6  C   UNL     1      -8.642  17.111  68.443  1.00  0.00    -0.246 C  
HETATM    7  C   UNL     1      -9.036  15.915  68.903  1.00  0.00    -0.233 C  
HETATM    8  C   UNL     1      -8.165  14.702  68.882  1.00  0.00    -0.145 C  
HETATM    9  H2  UNL     1      -6.152  15.452  66.340  1.00  0.00     0.000 HD 
HETATM   10  C   UNL     1      -6.646  15.019  68.964  1.00  0.00    -0.109 C  
HETATM   11  H1  UNL     1      -5.234  16.859  66.453  1.00  0.00     0.000 HD 
HETATM   12  C   UNL     1      -7.237  17.418  68.032  1.00  0.00    -0.193 C  
HETATM   13  C   UNL     1      -6.179  16.313  68.231  1.00  0.00    -0.120 C  
HETATM   14  N   UNL     1      -5.540  16.012  66.933  1.00  0.00    -0.270 NA 
BRANCH   8  15
HETATM   15  O   UNL     1      -8.612  14.054  67.691  1.00  0.00    -0.165 OA 
BRANCH  15  16
HETATM   16  C   UNL     1      -9.607  13.039  67.784  1.00  0.00    -0.208 C  
BRANCH  16  17
HETATM   17  C   UNL     1      -8.871  11.735  68.145  1.00  0.00    -0.169 C  
HETATM   18  C   UNL     1      -7.786  11.365  67.139  1.00  0.00    -0.156 C  
ENDBRANCH  16  17
BRANCH  16  19
HETATM   19  C   UNL     1     -10.423  12.885  66.489  1.00  0.00    -0.275 C  
HETATM   20  C   UNL     1     -10.391  14.102  65.573  1.00  0.00    -0.368 C  
ENDBRANCH  16  19
ENDBRANCH  15  16
ENDBRANCH   8  15
BRANCH  10  21
HETATM   21  N   UNL     1      -6.175  15.020  70.366  1.00  0.00    -0.133 N  
HETATM   22  H   UNL     1      -6.092  15.906  70.867  1.00  0.00     0.000 HD 
HETATM   23  C   UNL     1      -5.847  13.846  71.007  1.00  0.00    -0.198 C  
HETATM   24  C   UNL     1      -5.427  14.010  72.444  1.00  0.00    -0.193 C  
HETATM   25  O   UNL     1      -5.894  12.746  70.473  1.00  0.00    -0.170 OA 
ENDBRANCH  10  21
ENDBRANCH   4   6
ENDBRANCH   3   4
ENDBRANCH   2   3
TORSDOF 8
ENDMDL
MODEL      161
REMARK 921   NORMALIZED FREE ENERGY PREDICTED BY IDOCK:   -3.43 KCAL/MOL
REMARK 922        TOTAL FREE ENERGY PREDICTED BY IDOCK:   -5.98 KCAL/MOL
REMARK 923 INTER-LIGAND FREE ENERGY PREDICTED BY IDOCK:   -5.10 KCAL/MOL
REMARK 924 INTRA-LIGAND FREE ENERGY PREDICTED BY IDOCK:   -0.88 KCAL/MOL
REMARK 927      BINDING AFFINITY PREDICTED BY RF-SCORE:    0.00 PKD
ROOT
HETATM    1  C   UNL     1      -9.348   3.692  66.505  1.00  0.00    -0.202 C  
HETATM    2  C   UNL     1     -10.263   4.879  66.267  1.00  0.00    -0.279 C  
ENDROOT
BRANCH   2   3
HETATM    3  O   UNL     1      -9.507   6.064  66.534  1.00  0.00    -0.151 OA 
BRANCH   3   4
HETATM    4  C   UNL     1     -10.155   7.004  67.267  1.00  0.00    -0.204 C  
HETATM    5  O   UNL     1     -10.746   6.806  68.318  1.00  0.00    -0.214 OA 
BRANCH   4   6
HETATM    6  C   UNL     1      -9.992   8.357  66.669  1.00  0.00    -0.354 C  
HETATM    7  C   UNL     1     -10.563   9.441  67.215  1.00  0.00    -0.314 C  
HETATM    8  C   UNL     1     -10.231  10.836  66.801  1.00  0.00    -0.230 C  
HETATM    9  H2  UNL     1      -7.138  10.405  65.653  1.00  0.00     0.000 HD 
HETATM   10  C   UNL     1      -9.764  10.959  65.324  1.00  0.00    -0.246 C  
HETATM   11  H1  UNL     1      -6.915   9.324  64.382  1.00  0.00     0.000 HD 
HETATM   12  C   UNL     1      -9.106   8.406  65.465  1.00  0.00    -0.108 C  
HETATM   13  C   UNL     1      -8.913   9.773  64.778  1.00  0.00    -0.225 C  
HETATM   14  N   UNL     1      -7.472  10.099  64.740  1.00  0.00    -0.143 NA 
BRANCH   8  15
HETATM   15  O   UNL     1      -9.280  11.208  67.798  1.00  0.00    -0.148 OA 
BRANCH  15  16
HETATM   16  C   UNL     1      -8.826  12.557  67.858  1.00  0.00    -0.185 C  
BRANCH  16  17
HETATM   17  C   UNL     1      -7.514  12.544  68.664  1.00  0.00    -0.090 C  
HETATM   18  C   UNL     1      -6.970  13.942  68.938  1.00  0.00    -0.110 C  
ENDBRANCH  16  17
BRANCH  16  19
HETATM   19  C   UNL     1      -9.862  13.506  68.485  1.00  0.00    -0.189 C  
HETATM   20  C   UNL     1     -10.538  14.446  67.494  1.00  0.00    -0.265 C  
ENDBRANCH  16  19
ENDBRANCH  15  16
ENDBRANCH   8  15
BRANCH  10  21
HETATM   21  N   UNL     1     -10.905  11.234  64.424  1.00  0.00    -0.331 N  
HETATM   22  H   UNL     1     -11.490  10.461  64.104  1.00  0.00     0.000 HD 
HETATM   23  C   UNL     1     -11.191  12.517  64.010  1.00  0.00    -0.403 C  
HETATM   24  C   UNL     1     -12.409  12.638  63.132  1.00  0.00    -0.291 C  
HETATM   25  O   UNL     1     -10.527  13.495  64.326  1.00  0.00    -0.414 OA 
ENDBRANCH  10  21
ENDBRANCH   4   6
ENDBRANCH   3   4
ENDBRANCH   2   3
TORSDOF 8
ENDMDL
MODEL      162
REMARK 921   NORMALIZED FREE ENERGY PREDICTED BY IDOCK:   -3.43 KCAL/MOL
REMARK 922        TOTAL FREE ENERGY PREDICTED BY IDOCK:   -5.98 KCAL/MOL
REMARK 923 INTER-LIGAND FREE ENERGY PREDICTED BY IDOCK:   -5.23 KCAL/MOL
REMARK 924 INTRA-LIGAND FREE ENERGY PREDICTED BY IDOCK:   -0.74 KCAL/MOL
REMARK 927      BINDING AFFINITY PREDICTED BY RF-SCORE:    0.00 PKD
ROOT
HETATM    1  C   UNL     1     -12.299  15.335  70.428  1.00  0.00    -0.422 C  
HETATM    2  C   UNL     1     -12.385  13.853  70.111  1.00  0.00    -0.334 C  
ENDROOT
BRANCH   2   3
HETATM    3  O   UNL     1     -11.301  13.537  69.233  1.00  0.00    -0.259 OA 
BRANCH   3   4
HETATM    4  C   UNL     1     -11.508  12.466  68.428  1.00  0.00    -0.310 C  
HETATM    5  O   UNL     1     -12.269  12.428  67.472  1.00  0.00    -0.442 OA 
BRANCH   4   6
HETATM    6  C   UNL     1     -10.620  11.331  68.804  1.00  0.00    -0.234 C  
HETATM    7  C   UNL     1     -10.827  10.616  69.919  1.00  0.00    -0.301 C  
HETATM    8  C   UNL     1     -10.124   9.331  70.208  1.00  0.00    -0.219 C  
HETATM    9  H2  UNL     1      -9.436   8.311  67.116  1.00  0.00     0.000 HD 
HETATM   10  C   UNL     1      -8.717   9.225  69.558  1.00  0.00    -0.146 C  
HETATM   11  H1  UNL     1      -8.494   9.316  66.148  1.00  0.00     0.000 HD 
HETATM   12  C   UNL     1      -9.538  11.032  67.817  1.00  0.00    -0.180 C  
HETATM   13  C   UNL     1      -8.563   9.885  68.154  1.00  0.00    -0.118 C  
HETATM   14  N   UNL     1      -8.595   8.885  67.067  1.00  0.00    -0.115 NA 
BRANCH   8  15
HETATM   15  O   UNL     1     -11.093   8.375  69.778  1.00  0.00    -0.185 OA 
BRANCH  15  16
HETATM   16  C   UNL     1     -11.596   7.426  70.713  1.00  0.00    -0.290 C  
BRANCH  16  17
HETATM   17  C   UNL     1     -12.678   8.149  71.535  1.00  0.00    -0.327 C  
HETATM   18  C   UNL     1     -14.039   7.464  71.463  1.00  0.00    -0.541 C  
ENDBRANCH  16  17
BRANCH  16  19
HETATM   19  C   UNL     1     -10.497   6.842  71.618  1.00  0.00    -0.224 C  
HETATM   20  C   UNL     1     -10.593   5.337  71.838  1.00  0.00    -0.274 C  
ENDBRANCH  16  19
ENDBRANCH  15  16
ENDBRANCH   8  15
BRANCH  10  21
HETATM   21  N   UNL     1      -7.665   9.713  70.476  1.00  0.00    -0.157 N  
HETATM   22  H   UNL     1      -7.740  10.650  70.873  1.00  0.00     0.000 HD 
HETATM   23  C   UNL     1      -6.585   8.923  70.805  1.00  0.00    -0.056 C  
HETATM   24  C   UNL     1      -5.626   9.545  71.785  1.00  0.00    -0.060 C  
HETATM   25  O   UNL     1      -6.406   7.798  70.355  1.00  0.00    -0.037 OA 
ENDBRANCH  10  21
ENDBRANCH   4   6
ENDBRANCH   3   4
ENDBRANCH   2   3
TORSDOF 8
ENDMDL
MODEL      163
REMARK 921   NORMALIZED FREE ENERGY PREDICTED BY IDOCK:   -3.42 KCAL/MOL
REMARK 922        TOTAL FREE ENERGY PREDICTED BY IDOCK:   -5.97 KCAL/MOL
REMARK 923 INTER-LIGAND FREE ENERGY PREDICTED BY IDOCK:   -5.16 KCAL/MOL
REMARK 924 INTRA-LIGAND FREE ENERGY PREDICTED BY IDOCK:   -0.81 KCAL/MOL
REMARK 927      BINDING AFFINITY PREDICTED BY RF-SCORE:    0.00 PKD
ROOT
HETATM    1  C   UNL     1     -13.429  13.157  72.070  1.00  0.00    -0.598 C  
HETATM    2  C   UNL     1     -12.539  12.775  70.901  1.00  0.00    -0.255 C  
ENDROOT
BRANCH   2   3
HETATM    3  O   UNL     1     -12.597  11.352  70.764  1.00  0.00    -0.343 OA 
BRANCH   3   4
HETATM    4  C   UNL     1     -12.035  10.862  69.632  1.00  0.00    -0.343 C  
HETATM    5  O   UNL     1     -12.376  11.135  68.490  1.00  0.00    -0.561 OA 
BRANCH   4   6
HETATM    6  C   UNL     1     -10.871   9.988  69.944  1.00  0.00    -0.328 C  
HETATM    7  C   UNL     1     -11.031   8.752  70.438  1.00  0.00    -0.262 C  
HETATM    8  C   UNL     1      -9.920   7.759  70.533  1.00  0.00    -0.187 C  
HETATM    9  H2  UNL     1      -7.937   8.838  68.089  1.00  0.00     0.000 HD 
HETATM   10  C   UNL     1      -8.515   8.402  70.694  1.00  0.00    -0.135 C  
HETATM   11  H1  UNL     1      -7.354  10.415  68.188  1.00  0.00     0.000 HD 
HETATM   12  C   UNL     1      -9.539  10.580  69.607  1.00  0.00    -0.062 C  
HETATM   13  C   UNL     1      -8.285   9.740  69.928  1.00  0.00    -0.183 C  
HETATM   14  N   UNL     1      -7.504   9.539  68.689  1.00  0.00    -0.078 NA 
BRANCH   8  15
HETATM   15  O   UNL     1     -10.130   6.987  69.351  1.00  0.00    -0.163 OA 
BRANCH  15  16
HETATM   16  C   UNL     1     -10.519   5.622  69.472  1.00  0.00    -0.302 C  
BRANCH  16  17
HETATM   17  C   UNL     1      -9.973   5.128  70.824  1.00  0.00    -0.285 C  
HETATM   18  C   UNL     1      -9.767   3.618  70.868  1.00  0.00    -0.229 C  
ENDBRANCH  16  17
BRANCH  16  19
HETATM   19  C   UNL     1     -10.011   4.753  68.309  1.00  0.00    -0.157 C  
HETATM   20  C   UNL     1     -10.516   5.178  66.935  1.00  0.00    -0.280 C  
ENDBRANCH  16  19
ENDBRANCH  15  16
ENDBRANCH   8  15
BRANCH  10  21
HETATM   21  N   UNL     1      -8.158   8.556  72.122  1.00  0.00    -0.129 N  
HETATM   22  H   UNL     1      -8.864   8.884  72.782  1.00  0.00     0.000 HD 
HETATM   23  C   UNL     1      -6.890   8.264  72.573  1.00  0.00    -0.089 C  
HETATM   24  C   UNL     1      -6.697   8.430  74.057  1.00  0.00    -0.157 C  
HETATM   25  O   UNL     1      -5.980   7.890  71.844  1.00  0.00    -0.035 OA 
ENDBRANCH  10  21
ENDBRANCH   4   6
ENDBRANCH   3   4
ENDBRANCH   2   3
TORSDOF 8
ENDMDL
MODEL      164
REMARK 921   NORMALIZED FREE ENERGY PREDICTED BY IDOCK:   -3.42 KCAL/MOL
REMARK 922        TOTAL FREE ENERGY PREDICTED BY IDOCK:   -5.96 KCAL/MOL
REMARK 923 INTER-LIGAND FREE ENERGY PREDICTED BY IDOCK:   -4.88 KCAL/MOL
REMARK 924 INTRA-LIGAND FREE ENERGY PREDICTED BY IDOCK:   -1.07 KCAL/MOL
REMARK 927      BINDING AFFINITY PREDICTED BY RF-SCORE:    0.00 PKD
ROOT
HETATM    1  C   UNL     1     -14.354   8.837  72.226  1.00  0.00    -0.468 C  
HETATM    2  C   UNL     1     -13.027   8.260  71.768  1.00  0.00    -0.344 C  
ENDROOT
BRANCH   2   3
HETATM    3  O   UNL     1     -12.320   9.298  71.085  1.00  0.00    -0.307 OA 
BRANCH   3   4
HETATM    4  C   UNL     1     -10.971   9.262  71.226  1.00  0.00    -0.351 C  
HETATM    5  O   UNL     1     -10.368   9.112  72.279  1.00  0.00    -0.162 OA 
BRANCH   4   6
HETATM    6  C   UNL     1     -10.290   9.349  69.906  1.00  0.00    -0.252 C  
HETATM    7  C   UNL     1     -10.969   9.243  68.754  1.00  0.00    -0.047 C  
HETATM    8  C   UNL     1     -10.378   9.567  67.423  1.00  0.00    -0.258 C  
HETATM    9  H2  UNL     1      -8.034  11.751  68.320  1.00  0.00     0.000 HD 
HETATM   10  C   UNL     1      -8.840   9.359  67.351  1.00  0.00    -0.128 C  
HETATM   11  H1  UNL     1      -6.850  11.235  69.402  1.00  0.00     0.000 HD 
HETATM   12  C   UNL     1      -8.821   9.622  69.978  1.00  0.00    -0.259 C  
HETATM   13  C   UNL     1      -8.045   9.700  68.648  1.00  0.00    -0.100 C  
HETATM   14  N   UNL     1      -7.371  11.012  68.554  1.00  0.00    -0.094 NA 
BRANCH   8  15
HETATM   15  O   UNL     1     -10.845  10.901  67.224  1.00  0.00    -0.254 OA 
BRANCH  15  16
HETATM   16  C   UNL     1     -10.236  11.709  66.221  1.00  0.00    -0.227 C  
BRANCH  16  17
HETATM   17  C   UNL     1     -10.157  13.136  66.794  1.00  0.00    -0.253 C  
HETATM   18  C   UNL     1     -10.474  13.198  68.285  1.00  0.00    -0.258 C  
ENDBRANCH  16  17
BRANCH  16  19
HETATM   19  C   UNL     1     -11.002  11.680  64.887  1.00  0.00    -0.345 C  
HETATM   20  C   UNL     1     -10.329  12.450  63.756  1.00  0.00    -0.454 C  
ENDBRANCH  16  19
ENDBRANCH  15  16
ENDBRANCH   8  15
BRANCH  10  21
HETATM   21  N   UNL     1      -8.506   7.996  66.883  1.00  0.00    -0.122 N  
HETATM   22  H   UNL     1      -9.179   7.240  67.018  1.00  0.00     0.000 HD 
HETATM   23  C   UNL     1      -7.303   7.729  66.268  1.00  0.00    -0.079 C  
HETATM   24  C   UNL     1      -7.131   6.305  65.810  1.00  0.00    -0.069 C  
HETATM   25  O   UNL     1      -6.431   8.571  66.090  1.00  0.00    -0.052 OA 
ENDBRANCH  10  21
ENDBRANCH   4   6
ENDBRANCH   3   4
ENDBRANCH   2   3
TORSDOF 8
ENDMDL
MODEL      165
REMARK 921   NORMALIZED FREE ENERGY PREDICTED BY IDOCK:   -3.42 KCAL/MOL
REMARK 922        TOTAL FREE ENERGY PREDICTED BY IDOCK:   -5.95 KCAL/MOL
REMARK 923 INTER-LIGAND FREE ENERGY PREDICTED BY IDOCK:   -5.00 KCAL/MOL
REMARK 924 INTRA-LIGAND FREE ENERGY PREDICTED BY IDOCK:   -0.95 KCAL/MOL
REMARK 927      BINDING AFFINITY PREDICTED BY RF-SCORE:    0.00 PKD
ROOT
HETATM    1  C   UNL     1      -8.397   4.187  63.743  1.00  0.00    -0.097 C  
HETATM    2  C   UNL     1      -9.416   4.417  64.844  1.00  0.00    -0.162 C  
ENDROOT
BRANCH   2   3
HETATM    3  O   UNL     1      -9.030   5.603  65.545  1.00  0.00    -0.158 OA 
BRANCH   3   4
HETATM    4  C   UNL     1      -9.883   5.992  66.525  1.00  0.00    -0.145 C  
HETATM    5  O   UNL     1     -10.540   5.246  67.237  1.00  0.00    -0.209 OA 
BRANCH   4   6
HETATM    6  C   UNL     1      -9.870   7.471  66.693  1.00  0.00    -0.274 C  
HETATM    7  C   UNL     1     -10.702   8.091  67.543  1.00  0.00    -0.238 C  
HETATM    8  C   UNL     1     -10.561   9.527  67.925  1.00  0.00    -0.244 C  
HETATM    9  H2  UNL     1      -7.298   9.961  67.438  1.00  0.00     0.000 HD 
HETATM   10  C   UNL     1      -9.895  10.405  66.830  1.00  0.00    -0.195 C  
HETATM   11  H1  UNL     1      -6.689   9.680  65.893  1.00  0.00     0.000 HD 
HETATM   12  C   UNL     1      -8.827   8.181  65.890  1.00  0.00    -0.194 C  
HETATM   13  C   UNL     1      -8.772   9.719  65.995  1.00  0.00    -0.141 C  
HETATM   14  N   UNL     1      -7.424  10.128  66.440  1.00  0.00    -0.104 NA 
BRANCH   8  15
HETATM   15  O   UNL     1      -9.859   9.421  69.164  1.00  0.00    -0.165 OA 
BRANCH  15  16
HETATM   16  C   UNL     1     -10.391   8.596  70.196  1.00  0.00    -0.207 C  
BRANCH  16  17
HETATM   17  C   UNL     1     -11.010   9.542  71.241  1.00  0.00    -0.440 C  
HETATM   18  C   UNL     1     -12.491   9.274  71.484  1.00  0.00    -0.435 C  
ENDBRANCH  16  17
BRANCH  16  19
HETATM   19  C   UNL     1      -9.332   7.676  70.827  1.00  0.00    -0.162 C  
HETATM   20  C   UNL     1      -8.260   8.404  71.630  1.00  0.00    -0.195 C  
ENDBRANCH  16  19
ENDBRANCH  15  16
ENDBRANCH   8  15
BRANCH  10  21
HETATM   21  N   UNL     1     -10.910  11.006  65.937  1.00  0.00    -0.171 N  
HETATM   22  H   UNL     1     -11.596  10.405  65.480  1.00  0.00     0.000 HD 
HETATM   23  C   UNL     1     -10.944  12.365  65.713  1.00  0.00    -0.298 C  
HETATM   24  C   UNL     1     -12.062  12.827  64.816  1.00  0.00    -0.488 C  
HETATM   25  O   UNL     1     -10.145  13.154  66.201  1.00  0.00    -0.280 OA 
ENDBRANCH  10  21
ENDBRANCH   4   6
ENDBRANCH   3   4
ENDBRANCH   2   3
TORSDOF 8
ENDMDL
MODEL      166
REMARK 921   NORMALIZED FREE ENERGY PREDICTED BY IDOCK:   -3.41 KCAL/MOL
REMARK 922        TOTAL FREE ENERGY PREDICTED BY IDOCK:   -5.94 KCAL/MOL
REMARK 923 INTER-LIGAND FREE ENERGY PREDICTED BY IDOCK:   -5.34 KCAL/MOL
REMARK 924 INTRA-LIGAND FREE ENERGY PREDICTED BY IDOCK:   -0.61 KCAL/MOL
REMARK 927      BINDING AFFINITY PREDICTED BY RF-SCORE:    0.00 PKD
ROOT
HETATM    1  C   UNL     1      -7.686   8.386  64.112  1.00  0.00    -0.137 C  
HETATM    2  C   UNL     1      -8.774   8.279  65.166  1.00  0.00    -0.054 C  
ENDROOT
BRANCH   2   3
HETATM    3  O   UNL     1      -8.140   8.342  66.446  1.00  0.00    -0.100 OA 
BRANCH   3   4
HETATM    4  C   UNL     1      -8.491   9.409  67.207  1.00  0.00    -0.125 C  
HETATM    5  O   UNL     1      -8.339  10.583  66.903  1.00  0.00    -0.123 OA 
BRANCH   4   6
HETATM    6  C   UNL     1      -9.174   8.975  68.457  1.00  0.00    -0.136 C  
HETATM    7  C   UNL     1      -9.689   9.862  69.322  1.00  0.00    -0.218 C  
HETATM    8  C   UNL     1     -10.589   9.477  70.449  1.00  0.00    -0.276 C  
HETATM    9  H2  UNL     1     -11.901   6.668  69.241  1.00  0.00     0.000 HD 
HETATM   10  C   UNL     1     -10.348   8.037  70.981  1.00  0.00    -0.201 C  
HETATM   11  H1  UNL     1     -10.848   5.414  68.847  1.00  0.00     0.000 HD 
HETATM   12  C   UNL     1      -9.284   7.493  68.626  1.00  0.00    -0.144 C  
HETATM   13  C   UNL     1      -9.958   6.971  69.912  1.00  0.00    -0.177 C  
HETATM   14  N   UNL     1     -11.103   6.111  69.546  1.00  0.00    -0.395 NA 
BRANCH   8  15
HETATM   15  O   UNL     1     -11.874   9.736  69.885  1.00  0.00    -0.103 OA 
BRANCH  15  16
HETATM   16  C   UNL     1     -12.702  10.736  70.472  1.00  0.00    -0.305 C  
BRANCH  16  17
HETATM   17  C   UNL     1     -11.917  12.058  70.394  1.00  0.00    -0.379 C  
HETATM   18  C   UNL     1     -12.511  13.157  71.269  1.00  0.00    -0.327 C  
ENDBRANCH  16  17
BRANCH  16  19
HETATM   19  C   UNL     1     -13.101  10.403  71.920  1.00  0.00    -0.563 C  
HETATM   20  C   UNL     1     -13.597   8.977  72.127  1.00  0.00    -0.523 C  
ENDBRANCH  16  19
ENDBRANCH  15  16
ENDBRANCH   8  15
BRANCH  10  21
HETATM   21  N   UNL     1      -9.373   8.034  72.093  1.00  0.00    -0.171 N  
HETATM   22  H   UNL     1      -8.408   8.312  71.915  1.00  0.00     0.000 HD 
HETATM   23  C   UNL     1      -9.748   7.662  73.366  1.00  0.00    -0.304 C  
HETATM   24  C   UNL     1      -8.653   7.754  74.396  1.00  0.00    -0.221 C  
HETATM   25  O   UNL     1     -10.877   7.292  73.660  1.00  0.00    -0.356 OA 
ENDBRANCH  10  21
ENDBRANCH   4   6
ENDBRANCH   3   4
ENDBRANCH   2   3
TORSDOF 8
ENDMDL
MODEL      167
REMARK 921   NORMALIZED FREE ENERGY PREDICTED BY IDOCK:   -3.41 KCAL/MOL
REMARK 922        TOTAL FREE ENERGY PREDICTED BY IDOCK:   -5.94 KCAL/MOL
REMARK 923 INTER-LIGAND FREE ENERGY PREDICTED BY IDOCK:   -5.50 KCAL/MOL
REMARK 924 INTRA-LIGAND FREE ENERGY PREDICTED BY IDOCK:   -0.45 KCAL/MOL
REMARK 927      BINDING AFFINITY PREDICTED BY RF-SCORE:    0.00 PKD
ROOT
HETATM    1  C   UNL     1      -7.853   8.994  66.112  1.00  0.00    -0.102 C  
HETATM    2  C   UNL     1      -6.475   9.600  66.311  1.00  0.00    -0.070 C  
ENDROOT
BRANCH   2   3
HETATM    3  O   UNL     1      -6.605  10.656  67.267  1.00  0.00    -0.069 OA 
BRANCH   3   4
HETATM    4  C   UNL     1      -7.519  10.435  68.244  1.00  0.00    -0.090 C  
HETATM    5  O   UNL     1      -7.483   9.528  69.063  1.00  0.00    -0.071 OA 
BRANCH   4   6
HETATM    6  C   UNL     1      -8.561  11.498  68.256  1.00  0.00    -0.161 C  
HETATM    7  C   UNL     1      -8.238  12.800  68.257  1.00  0.00    -0.159 C  
HETATM    8  C   UNL     1      -9.231  13.889  68.022  1.00  0.00    -0.193 C  
HETATM    9  H2  UNL     1     -11.500  12.256  66.216  1.00  0.00     0.000 HD 
HETATM   10  C   UNL     1     -10.677  13.525  68.458  1.00  0.00    -0.255 C  
HETATM   11  H1  UNL     1     -12.230  10.904  66.907  1.00  0.00     0.000 HD 
HETATM   12  C   UNL     1      -9.968  10.994  68.208  1.00  0.00    -0.190 C  
HETATM   13  C   UNL     1     -11.101  12.040  68.244  1.00  0.00    -0.243 C  
HETATM   14  N   UNL     1     -11.953  11.876  67.047  1.00  0.00    -0.601 NA 
BRANCH   8  15
HETATM   15  O   UNL     1      -9.038  14.152  66.632  1.00  0.00    -0.257 OA 
BRANCH  15  16
HETATM   16  C   UNL     1      -9.119  15.494  66.161  1.00  0.00    -0.324 C  
BRANCH  16  17
HETATM   17  C   UNL     1      -8.294  16.353  67.137  1.00  0.00    -0.214 C  
HETATM   18  C   UNL     1      -7.530  17.476  66.444  1.00  0.00    -0.334 C  
ENDBRANCH  16  17
BRANCH  16  19
HETATM   19  C   UNL     1     -10.568  16.000  66.052  1.00  0.00    -0.324 C  
HETATM   20  C   UNL     1     -11.255  15.668  64.733  1.00  0.00    -0.391 C  
ENDBRANCH  16  19
ENDBRANCH  15  16
ENDBRANCH   8  15
BRANCH  10  21
HETATM   21  N   UNL     1     -10.935  13.939  69.855  1.00  0.00    -0.452 N  
HETATM   22  H   UNL     1     -10.487  13.433  70.619  1.00  0.00     0.000 HD 
HETATM   23  C   UNL     1     -11.769  14.998  70.140  1.00  0.00    -0.299 C  
HETATM   24  C   UNL     1     -11.894  15.323  71.605  1.00  0.00    -0.451 C  
HETATM   25  O   UNL     1     -12.365  15.641  69.286  1.00  0.00    -0.246 OA 
ENDBRANCH  10  21
ENDBRANCH   4   6
ENDBRANCH   3   4
ENDBRANCH   2   3
TORSDOF 8
ENDMDL
MODEL      168
REMARK 921   NORMALIZED FREE ENERGY PREDICTED BY IDOCK:   -3.39 KCAL/MOL
REMARK 922        TOTAL FREE ENERGY PREDICTED BY IDOCK:   -5.91 KCAL/MOL
REMARK 923 INTER-LIGAND FREE ENERGY PREDICTED BY IDOCK:   -4.78 KCAL/MOL
REMARK 924 INTRA-LIGAND FREE ENERGY PREDICTED BY IDOCK:   -1.13 KCAL/MOL
REMARK 927      BINDING AFFINITY PREDICTED BY RF-SCORE:    0.00 PKD
ROOT
HETATM    1  C   UNL     1     -13.327  11.578  71.808  1.00  0.00    -0.356 C  
HETATM    2  C   UNL     1     -13.138  10.073  71.746  1.00  0.00    -0.457 C  
ENDROOT
BRANCH   2   3
HETATM    3  O   UNL     1     -11.732   9.815  71.781  1.00  0.00    -0.369 OA 
BRANCH   3   4
HETATM    4  C   UNL     1     -11.237   9.189  70.685  1.00  0.00    -0.270 C  
HETATM    5  O   UNL     1     -11.203   9.652  69.554  1.00  0.00    -0.205 OA 
BRANCH   4   6
HETATM    6  C   UNL     1     -10.652   7.867  71.038  1.00  0.00    -0.232 C  
HETATM    7  C   UNL     1     -10.788   6.799  70.238  1.00  0.00    -0.314 C  
HETATM    8  C   UNL     1     -10.020   5.533  70.425  1.00  0.00    -0.214 C  
HETATM    9  H2  UNL     1      -7.325   6.690  71.997  1.00  0.00     0.000 HD 
HETATM   10  C   UNL     1      -9.616   5.256  71.900  1.00  0.00    -0.152 C  
HETATM   11  H1  UNL     1      -7.551   7.487  73.463  1.00  0.00     0.000 HD 
HETATM   12  C   UNL     1      -9.865   7.852  72.310  1.00  0.00    -0.276 C  
HETATM   13  C   UNL     1      -9.251   6.508  72.753  1.00  0.00    -0.136 C  
HETATM   14  N   UNL     1      -7.790   6.668  72.904  1.00  0.00    -0.100 NA 
BRANCH   8  15
HETATM   15  O   UNL     1      -8.949   5.713  69.499  1.00  0.00    -0.117 OA 
BRANCH  15  16
HETATM   16  C   UNL     1      -9.245   6.092  68.158  1.00  0.00    -0.116 C  
BRANCH  16  17
HETATM   17  C   UNL     1      -9.473   4.786  67.373  1.00  0.00    -0.166 C  
HETATM   18  C   UNL     1     -10.526   4.925  66.279  1.00  0.00    -0.349 C  
ENDBRANCH  16  17
BRANCH  16  19
HETATM   19  C   UNL     1      -8.135   6.945  67.521  1.00  0.00    -0.116 C  
HETATM   20  C   UNL     1      -8.461   8.430  67.418  1.00  0.00    -0.124 C  
ENDBRANCH  16  19
ENDBRANCH  15  16
ENDBRANCH   8  15
BRANCH  10  21
HETATM   21  N   UNL     1     -10.638   4.440  72.590  1.00  0.00    -0.185 N  
HETATM   22  H   UNL     1     -11.553   4.845  72.791  1.00  0.00     0.000 HD 
HETATM   23  C   UNL     1     -10.376   3.140  72.965  1.00  0.00    -0.162 C  
HETATM   24  C   UNL     1     -11.531   2.428  73.617  1.00  0.00    -0.278 C  
HETATM   25  O   UNL     1      -9.299   2.586  72.784  1.00  0.00    -0.086 OA 
ENDBRANCH  10  21
ENDBRANCH   4   6
ENDBRANCH   3   4
ENDBRANCH   2   3
TORSDOF 8
ENDMDL
MODEL      169
REMARK 921   NORMALIZED FREE ENERGY PREDICTED BY IDOCK:   -3.38 KCAL/MOL
REMARK 922        TOTAL FREE ENERGY PREDICTED BY IDOCK:   -5.91 KCAL/MOL
REMARK 923 INTER-LIGAND FREE ENERGY PREDICTED BY IDOCK:   -4.97 KCAL/MOL
REMARK 924 INTRA-LIGAND FREE ENERGY PREDICTED BY IDOCK:   -0.93 KCAL/MOL
REMARK 927      BINDING AFFINITY PREDICTED BY RF-SCORE:    0.00 PKD
ROOT
HETATM    1  C   UNL     1     -11.497   6.361  70.048  1.00  0.00    -0.496 C  
HETATM    2  C   UNL     1     -10.172   6.965  70.476  1.00  0.00    -0.192 C  
ENDROOT
BRANCH   2   3
HETATM    3  O   UNL     1     -10.349   8.383  70.541  1.00  0.00    -0.194 OA 
BRANCH   3   4
HETATM    4  C   UNL     1      -9.203   9.106  70.477  1.00  0.00    -0.241 C  
HETATM    5  O   UNL     1      -8.423   9.291  71.399  1.00  0.00    -0.325 OA 
BRANCH   4   6
HETATM    6  C   UNL     1      -8.956   9.599  69.094  1.00  0.00    -0.154 C  
HETATM    7  C   UNL     1      -9.964   9.928  68.273  1.00  0.00    -0.172 C  
HETATM    8  C   UNL     1      -9.765  10.652  66.983  1.00  0.00    -0.176 C  
HETATM    9  H2  UNL     1      -6.927  12.266  67.628  1.00  0.00     0.000 HD 
HETATM   10  C   UNL     1      -8.381  10.394  66.325  1.00  0.00    -0.146 C  
HETATM   11  H1  UNL     1      -5.573  11.346  68.025  1.00  0.00     0.000 HD 
HETATM   12  C   UNL     1      -7.512   9.747  68.733  1.00  0.00    -0.075 C  
HETATM   13  C   UNL     1      -7.181  10.229  67.305  1.00  0.00    -0.089 C  
HETATM   14  N   UNL     1      -6.359  11.455  67.384  1.00  0.00    -0.073 NA 
BRANCH   8  15
HETATM   15  O   UNL     1     -10.040  11.999  67.369  1.00  0.00    -0.193 OA 
BRANCH  15  16
HETATM   16  C   UNL     1     -10.387  12.952  66.369  1.00  0.00    -0.268 C  
BRANCH  16  17
HETATM   17  C   UNL     1      -9.608  14.238  66.699  1.00  0.00    -0.302 C  
HETATM   18  C   UNL     1      -9.987  15.412  65.802  1.00  0.00    -0.393 C  
ENDBRANCH  16  17
BRANCH  16  19
HETATM   19  C   UNL     1     -11.901  13.214  66.295  1.00  0.00    -0.455 C  
HETATM   20  C   UNL     1     -12.586  12.624  65.068  1.00  0.00    -0.504 C  
ENDBRANCH  16  19
ENDBRANCH  15  16
ENDBRANCH   8  15
BRANCH  10  21
HETATM   21  N   UNL     1      -8.441   9.255  65.383  1.00  0.00    -0.136 N  
HETATM   22  H   UNL     1      -9.012   8.441  65.616  1.00  0.00     0.000 HD 
HETATM   23  C   UNL     1      -7.739   9.274  64.198  1.00  0.00    -0.120 C  
HETATM   24  C   UNL     1      -7.938   8.061  63.329  1.00  0.00    -0.143 C  
HETATM   25  O   UNL     1      -7.013  10.199  63.855  1.00  0.00    -0.130 OA 
ENDBRANCH  10  21
ENDBRANCH   4   6
ENDBRANCH   3   4
ENDBRANCH   2   3
TORSDOF 8
ENDMDL
MODEL      170
REMARK 921   NORMALIZED FREE ENERGY PREDICTED BY IDOCK:   -3.38 KCAL/MOL
REMARK 922        TOTAL FREE ENERGY PREDICTED BY IDOCK:   -5.90 KCAL/MOL
REMARK 923 INTER-LIGAND FREE ENERGY PREDICTED BY IDOCK:   -5.62 KCAL/MOL
REMARK 924 INTRA-LIGAND FREE ENERGY PREDICTED BY IDOCK:   -0.28 KCAL/MOL
REMARK 927      BINDING AFFINITY PREDICTED BY RF-SCORE:    0.00 PKD
ROOT
HETATM    1  C   UNL     1     -14.094   7.716  71.769  1.00  0.00    -0.510 C  
HETATM    2  C   UNL     1     -12.911   7.205  70.967  1.00  0.00    -0.212 C  
ENDROOT
BRANCH   2   3
HETATM    3  O   UNL     1     -11.892   6.829  71.898  1.00  0.00    -0.296 OA 
BRANCH   3   4
HETATM    4  C   UNL     1     -11.031   7.821  72.236  1.00  0.00    -0.290 C  
HETATM    5  O   UNL     1     -10.598   8.038  73.358  1.00  0.00    -0.201 OA 
BRANCH   4   6
HETATM    6  C   UNL     1     -10.599   8.590  71.037  1.00  0.00    -0.267 C  
HETATM    7  C   UNL     1      -9.624   8.146  70.230  1.00  0.00    -0.171 C  
HETATM    8  C   UNL     1      -9.328   8.749  68.896  1.00  0.00    -0.145 C  
HETATM    9  H2  UNL     1     -12.306  10.028  68.140  1.00  0.00     0.000 HD 
HETATM   10  C   UNL     1      -9.691  10.256  68.794  1.00  0.00    -0.177 C  
HETATM   11  H1  UNL     1     -12.961  11.169  69.191  1.00  0.00     0.000 HD 
HETATM   12  C   UNL     1     -11.374   9.844  70.786  1.00  0.00    -0.430 C  
HETATM   13  C   UNL     1     -10.964  10.705  69.574  1.00  0.00    -0.272 C  
HETATM   14  N   UNL     1     -12.129  10.874  68.681  1.00  0.00    -0.516 NA 
BRANCH   8  15
HETATM   15  O   UNL     1     -10.036   7.867  68.025  1.00  0.00    -0.177 OA 
BRANCH  15  16
HETATM   16  C   UNL     1      -9.650   6.498  67.957  1.00  0.00    -0.119 C  
BRANCH  16  17
HETATM   17  C   UNL     1      -9.602   6.128  66.463  1.00  0.00    -0.183 C  
HETATM   18  C   UNL     1     -10.574   5.013  66.094  1.00  0.00    -0.321 C  
ENDBRANCH  16  17
BRANCH  16  19
HETATM   19  C   UNL     1     -10.600   5.572  68.736  1.00  0.00    -0.236 C  
HETATM   20  C   UNL     1      -9.905   4.625  69.706  1.00  0.00    -0.296 C  
ENDBRANCH  16  19
ENDBRANCH  15  16
ENDBRANCH   8  15
BRANCH  10  21
HETATM   21  N   UNL     1      -8.537  11.110  69.152  1.00  0.00    -0.376 N  
HETATM   22  H   UNL     1      -8.028  10.927  70.017  1.00  0.00     0.000 HD 
HETATM   23  C   UNL     1      -8.139  12.146  68.336  1.00  0.00    -0.149 C  
HETATM   24  C   UNL     1      -6.923  12.893  68.816  1.00  0.00    -0.103 C  
HETATM   25  O   UNL     1      -8.710  12.448  67.296  1.00  0.00    -0.175 OA 
ENDBRANCH  10  21
ENDBRANCH   4   6
ENDBRANCH   3   4
ENDBRANCH   2   3
TORSDOF 8
ENDMDL
MODEL      171
REMARK 921   NORMALIZED FREE ENERGY PREDICTED BY IDOCK:   -3.37 KCAL/MOL
REMARK 922        TOTAL FREE ENERGY PREDICTED BY IDOCK:   -5.89 KCAL/MOL
REMARK 923 INTER-LIGAND FREE ENERGY PREDICTED BY IDOCK:   -5.06 KCAL/MOL
REMARK 924 INTRA-LIGAND FREE ENERGY PREDICTED BY IDOCK:   -0.83 KCAL/MOL
REMARK 927      BINDING AFFINITY PREDICTED BY RF-SCORE:    0.00 PKD
ROOT
HETATM    1  C   UNL     1      -9.689   3.032  71.603  1.00  0.00    -0.228 C  
HETATM    2  C   UNL     1      -9.978   4.386  70.980  1.00  0.00    -0.172 C  
ENDROOT
BRANCH   2   3
HETATM    3  O   UNL     1      -8.983   4.618  69.978  1.00  0.00    -0.086 OA 
BRANCH   3   4
HETATM    4  C   UNL     1      -9.450   5.145  68.819  1.00  0.00    -0.133 C  
HETATM    5  O   UNL     1      -9.892   4.508  67.874  1.00  0.00    -0.155 OA 
BRANCH   4   6
HETATM    6  C   UNL     1      -9.434   6.633  68.859  1.00  0.00    -0.130 C  
HETATM    7  C   UNL     1     -10.428   7.332  69.424  1.00  0.00    -0.223 C  
HETATM    8  C   UNL     1     -10.341   8.796  69.707  1.00  0.00    -0.211 C  
HETATM    9  H2  UNL     1      -7.046   9.158  69.997  1.00  0.00     0.000 HD 
HETATM   10  C   UNL     1      -9.404   9.567  68.737  1.00  0.00    -0.146 C  
HETATM   11  H1  UNL     1      -6.089   8.735  68.677  1.00  0.00     0.000 HD 
HETATM   12  C   UNL     1      -8.206   7.260  68.278  1.00  0.00    -0.125 C  
HETATM   13  C   UNL     1      -8.133   8.800  68.263  1.00  0.00    -0.114 C  
HETATM   14  N   UNL     1      -6.921   9.237  68.988  1.00  0.00    -0.058 NA 
BRANCH   8  15
HETATM   15  O   UNL     1      -9.964   8.796  71.084  1.00  0.00    -0.204 OA 
BRANCH  15  16
HETATM   16  C   UNL     1     -10.955   9.050  72.075  1.00  0.00    -0.285 C  
BRANCH  16  17
HETATM   17  C   UNL     1     -11.293   7.693  72.718  1.00  0.00    -0.419 C  
HETATM   18  C   UNL     1     -10.170   7.153  73.598  1.00  0.00    -0.402 C  
ENDBRANCH  16  17
BRANCH  16  19
HETATM   19  C   UNL     1     -12.210   9.730  71.502  1.00  0.00    -0.493 C  
HETATM   20  C   UNL     1     -13.521   9.256  72.118  1.00  0.00    -0.539 C  
ENDBRANCH  16  19
ENDBRANCH  15  16
ENDBRANCH   8  15
BRANCH  10  21
HETATM   21  N   UNL     1     -10.153  10.095  67.576  1.00  0.00    -0.190 N  
HETATM   22  H   UNL     1     -10.310   9.495  66.766  1.00  0.00     0.000 HD 
HETATM   23  C   UNL     1     -10.643  11.383  67.571  1.00  0.00    -0.213 C  
HETATM   24  C   UNL     1     -11.421  11.755  66.337  1.00  0.00    -0.309 C  
HETATM   25  O   UNL     1     -10.478  12.174  68.490  1.00  0.00    -0.224 OA 
ENDBRANCH  10  21
ENDBRANCH   4   6
ENDBRANCH   3   4
ENDBRANCH   2   3
TORSDOF 8
ENDMDL
MODEL      172
REMARK 921   NORMALIZED FREE ENERGY PREDICTED BY IDOCK:   -3.36 KCAL/MOL
REMARK 922        TOTAL FREE ENERGY PREDICTED BY IDOCK:   -5.88 KCAL/MOL
REMARK 923 INTER-LIGAND FREE ENERGY PREDICTED BY IDOCK:   -4.80 KCAL/MOL
REMARK 924 INTRA-LIGAND FREE ENERGY PREDICTED BY IDOCK:   -1.08 KCAL/MOL
REMARK 927      BINDING AFFINITY PREDICTED BY RF-SCORE:    0.00 PKD
ROOT
HETATM    1  C   UNL     1     -12.421  14.067  65.090  1.00  0.00    -0.472 C  
HETATM    2  C   UNL     1     -12.321  12.756  64.331  1.00  0.00    -0.424 C  
ENDROOT
BRANCH   2   3
HETATM    3  O   UNL     1     -11.994  11.736  65.278  1.00  0.00    -0.263 OA 
BRANCH   3   4
HETATM    4  C   UNL     1     -10.757  11.197  65.136  1.00  0.00    -0.210 C  
HETATM    5  O   UNL     1     -10.354  10.586  64.157  1.00  0.00    -0.313 OA 
BRANCH   4   6
HETATM    6  C   UNL     1      -9.896  11.512  66.308  1.00  0.00    -0.245 C  
HETATM    7  C   UNL     1     -10.401  11.613  67.546  1.00  0.00    -0.220 C  
HETATM    8  C   UNL     1      -9.553  11.679  68.773  1.00  0.00    -0.072 C  
HETATM    9  H2  UNL     1      -6.824  10.102  67.705  1.00  0.00     0.000 HD 
HETATM   10  C   UNL     1      -8.152  12.308  68.534  1.00  0.00    -0.101 C  
HETATM   11  H1  UNL     1      -6.018  10.741  66.372  1.00  0.00     0.000 HD 
HETATM   12  C   UNL     1      -8.439  11.642  65.995  1.00  0.00     0.059 C  
HETATM   13  C   UNL     1      -7.489  11.993  67.159  1.00  0.00    -0.138 C  
HETATM   14  N   UNL     1      -6.452  10.947  67.272  1.00  0.00    -0.068 NA 
BRANCH   8  15
HETATM   15  O   UNL     1      -9.570  10.318  69.203  1.00  0.00    -0.196 OA 
BRANCH  15  16
HETATM   16  C   UNL     1     -10.810   9.617  69.241  1.00  0.00    -0.205 C  
BRANCH  16  17
HETATM   17  C   UNL     1     -11.351   9.761  70.675  1.00  0.00    -0.401 C  
HETATM   18  C   UNL     1     -12.677  10.512  70.740  1.00  0.00    -0.471 C  
ENDBRANCH  16  17
BRANCH  16  19
HETATM   19  C   UNL     1     -10.671   8.139  68.837  1.00  0.00    -0.090 C  
HETATM   20  C   UNL     1     -10.379   7.193  69.995  1.00  0.00    -0.219 C  
ENDBRANCH  16  19
ENDBRANCH  15  16
ENDBRANCH   8  15
BRANCH  10  21
HETATM   21  N   UNL     1      -8.171  13.767  68.777  1.00  0.00    -0.320 N  
HETATM   22  H   UNL     1      -9.037  14.288  68.631  1.00  0.00     0.000 HD 
HETATM   23  C   UNL     1      -7.041  14.433  69.196  1.00  0.00    -0.127 C  
HETATM   24  C   UNL     1      -7.234  15.906  69.441  1.00  0.00    -0.214 C  
HETATM   25  O   UNL     1      -5.958  13.889  69.370  1.00  0.00    -0.088 OA 
ENDBRANCH  10  21
ENDBRANCH   4   6
ENDBRANCH   3   4
ENDBRANCH   2   3
TORSDOF 8
ENDMDL
MODEL      173
REMARK 921   NORMALIZED FREE ENERGY PREDICTED BY IDOCK:   -3.36 KCAL/MOL
REMARK 922        TOTAL FREE ENERGY PREDICTED BY IDOCK:   -5.87 KCAL/MOL
REMARK 923 INTER-LIGAND FREE ENERGY PREDICTED BY IDOCK:   -5.15 KCAL/MOL
REMARK 924 INTRA-LIGAND FREE ENERGY PREDICTED BY IDOCK:   -0.73 KCAL/MOL
REMARK 927      BINDING AFFINITY PREDICTED BY RF-SCORE:    0.00 PKD
ROOT
HETATM    1  C   UNL     1     -13.459  12.745  72.109  1.00  0.00    -0.591 C  
HETATM    2  C   UNL     1     -12.921  11.485  71.456  1.00  0.00    -0.380 C  
ENDROOT
BRANCH   2   3
HETATM    3  O   UNL     1     -13.270  10.383  72.298  1.00  0.00    -0.400 OA 
BRANCH   3   4
HETATM    4  C   UNL     1     -13.280   9.173  71.685  1.00  0.00    -0.377 C  
HETATM    5  O   UNL     1     -14.277   8.525  71.401  1.00  0.00    -0.388 OA 
BRANCH   4   6
HETATM    6  C   UNL     1     -11.902   8.747  71.315  1.00  0.00    -0.358 C  
HETATM    7  C   UNL     1     -11.457   8.824  70.053  1.00  0.00     0.047 C  
HETATM    8  C   UNL     1     -10.022   8.645  69.679  1.00  0.00    -0.191 C  
HETATM    9  H2  UNL     1      -8.543   9.545  72.521  1.00  0.00     0.000 HD 
HETATM   10  C   UNL     1      -9.232   7.721  70.647  1.00  0.00    -0.161 C  
HETATM   11  H1  UNL     1      -8.922   8.678  73.914  1.00  0.00     0.000 HD 
HETATM   12  C   UNL     1     -11.060   8.293  72.464  1.00  0.00    -0.439 C  
HETATM   13  C   UNL     1      -9.628   7.812  72.152  1.00  0.00    -0.176 C  
HETATM   14  N   UNL     1      -8.664   8.618  72.929  1.00  0.00    -0.381 NA 
BRANCH   8  15
HETATM   15  O   UNL     1      -9.581  10.000  69.597  1.00  0.00    -0.214 OA 
BRANCH  15  16
HETATM   16  C   UNL     1      -9.261  10.551  68.323  1.00  0.00    -0.152 C  
BRANCH  16  17
HETATM   17  C   UNL     1      -8.226  11.663  68.573  1.00  0.00    -0.144 C  
HETATM   18  C   UNL     1      -8.473  12.908  67.727  1.00  0.00    -0.185 C  
ENDBRANCH  16  17
BRANCH  16  19
HETATM   19  C   UNL     1     -10.496  11.089  67.580  1.00  0.00    -0.239 C  
HETATM   20  C   UNL     1     -10.821  10.358  66.283  1.00  0.00    -0.022 C  
ENDBRANCH  16  19
ENDBRANCH  15  16
ENDBRANCH   8  15
BRANCH  10  21
HETATM   21  N   UNL     1      -9.263   6.315  70.188  1.00  0.00    -0.156 N  
HETATM   22  H   UNL     1     -10.141   5.916  69.854  1.00  0.00     0.000 HD 
HETATM   23  C   UNL     1      -8.127   5.536  70.204  1.00  0.00    -0.098 C  
HETATM   24  C   UNL     1      -8.311   4.143  69.665  1.00  0.00    -0.075 C  
HETATM   25  O   UNL     1      -7.041   5.929  70.612  1.00  0.00    -0.069 OA 
ENDBRANCH  10  21
ENDBRANCH   4   6
ENDBRANCH   3   4
ENDBRANCH   2   3
TORSDOF 8
ENDMDL
MODEL      174
REMARK 921   NORMALIZED FREE ENERGY PREDICTED BY IDOCK:   -3.35 KCAL/MOL
REMARK 922        TOTAL FREE ENERGY PREDICTED BY IDOCK:   -5.86 KCAL/MOL
REMARK 923 INTER-LIGAND FREE ENERGY PREDICTED BY IDOCK:   -4.96 KCAL/MOL
REMARK 924 INTRA-LIGAND FREE ENERGY PREDICTED BY IDOCK:   -0.90 KCAL/MOL
REMARK 927      BINDING AFFINITY PREDICTED BY RF-SCORE:    0.00 PKD
ROOT
HETATM    1  C   UNL     1     -12.272  14.466  69.669  1.00  0.00    -0.353 C  
HETATM    2  C   UNL     1     -12.019  13.293  68.739  1.00  0.00    -0.300 C  
ENDROOT
BRANCH   2   3
HETATM    3  O   UNL     1     -10.964  12.513  69.308  1.00  0.00    -0.189 OA 
BRANCH   3   4
HETATM    4  C   UNL     1     -11.288  11.226  69.585  1.00  0.00    -0.287 C  
HETATM    5  O   UNL     1     -12.104  10.858  70.417  1.00  0.00    -0.301 OA 
BRANCH   4   6
HETATM    6  C   UNL     1     -10.573  10.285  68.680  1.00  0.00    -0.232 C  
HETATM    7  C   UNL     1     -10.712  10.347  67.347  1.00  0.00    -0.338 C  
HETATM    8  C   UNL     1      -9.837   9.598  66.398  1.00  0.00    -0.244 C  
HETATM    9  H2  UNL     1      -7.085   9.274  68.241  1.00  0.00     0.000 HD 
HETATM   10  C   UNL     1      -9.261   8.279  66.982  1.00  0.00    -0.152 C  
HETATM   11  H1  UNL     1      -7.216   8.468  69.714  1.00  0.00     0.000 HD 
HETATM   12  C   UNL     1      -9.659   9.325  69.373  1.00  0.00    -0.170 C  
HETATM   13  C   UNL     1      -8.903   8.303  68.498  1.00  0.00    -0.137 C  
HETATM   14  N   UNL     1      -7.450   8.452  68.721  1.00  0.00    -0.091 NA 
BRANCH   8  15
HETATM   15  O   UNL     1      -8.884  10.600  66.042  1.00  0.00    -0.162 OA 
BRANCH  15  16
HETATM   16  C   UNL     1      -8.516  10.755  64.674  1.00  0.00    -0.020 C  
BRANCH  16  17
HETATM   17  C   UNL     1      -9.790  10.507  63.846  1.00  0.00    -0.373 C  
HETATM   18  C   UNL     1     -10.403  11.791  63.296  1.00  0.00    -0.446 C  
ENDBRANCH  16  17
BRANCH  16  19
HETATM   19  C   UNL     1      -7.378   9.809  64.253  1.00  0.00    -0.129 C  
HETATM   20  C   UNL     1      -6.179   9.806  65.193  1.00  0.00    -0.092 C  
ENDBRANCH  16  19
ENDBRANCH  15  16
ENDBRANCH   8  15
BRANCH  10  21
HETATM   21  N   UNL     1     -10.142   7.130  66.676  1.00  0.00    -0.396 N  
HETATM   22  H   UNL     1     -11.154   7.239  66.757  1.00  0.00     0.000 HD 
HETATM   23  C   UNL     1      -9.620   5.917  66.285  1.00  0.00    -0.119 C  
HETATM   24  C   UNL     1     -10.647   4.863  65.968  1.00  0.00    -0.312 C  
HETATM   25  O   UNL     1      -8.420   5.695  66.187  1.00  0.00    -0.120 OA 
ENDBRANCH  10  21
ENDBRANCH   4   6
ENDBRANCH   3   4
ENDBRANCH   2   3
TORSDOF 8
ENDMDL
MODEL      175
REMARK 921   NORMALIZED FREE ENERGY PREDICTED BY IDOCK:   -3.35 KCAL/MOL
REMARK 922        TOTAL FREE ENERGY PREDICTED BY IDOCK:   -5.86 KCAL/MOL
REMARK 923 INTER-LIGAND FREE ENERGY PREDICTED BY IDOCK:   -5.05 KCAL/MOL
REMARK 924 INTRA-LIGAND FREE ENERGY PREDICTED BY IDOCK:   -0.80 KCAL/MOL
REMARK 927      BINDING AFFINITY PREDICTED BY RF-SCORE:    0.00 PKD
ROOT
HETATM    1  C   UNL     1     -11.087   6.344  71.530  1.00  0.00    -0.322 C  
HETATM    2  C   UNL     1     -11.672   7.716  71.250  1.00  0.00    -0.284 C  
ENDROOT
BRANCH   2   3
HETATM    3  O   UNL     1     -10.897   8.307  70.203  1.00  0.00    -0.240 OA 
BRANCH   3   4
HETATM    4  C   UNL     1     -11.067   9.644  70.049  1.00  0.00    -0.255 C  
HETATM    5  O   UNL     1     -11.540  10.404  70.881  1.00  0.00    -0.340 OA 
BRANCH   4   6
HETATM    6  C   UNL     1     -10.524  10.107  68.742  1.00  0.00    -0.223 C  
HETATM    7  C   UNL     1      -9.926  11.300  68.611  1.00  0.00    -0.210 C  
HETATM    8  C   UNL     1      -9.156  11.700  67.397  1.00  0.00    -0.169 C  
HETATM    9  H2  UNL     1      -8.227   8.713  66.261  1.00  0.00     0.000 HD 
HETATM   10  C   UNL     1      -9.641  11.012  66.091  1.00  0.00    -0.207 C  
HETATM   11  H1  UNL     1      -9.438   7.607  65.877  1.00  0.00     0.000 HD 
HETATM   12  C   UNL     1     -10.651   9.118  67.628  1.00  0.00    -0.307 C  
HETATM   13  C   UNL     1     -10.133   9.541  66.237  1.00  0.00    -0.257 C  
HETATM   14  N   UNL     1      -9.116   8.570  65.782  1.00  0.00    -0.189 NA 
BRANCH   8  15
HETATM   15  O   UNL     1      -7.818  11.412  67.803  1.00  0.00    -0.109 OA 
BRANCH  15  16
HETATM   16  C   UNL     1      -7.598  10.708  69.022  1.00  0.00    -0.122 C  
BRANCH  16  17
HETATM   17  C   UNL     1      -6.661  11.585  69.873  1.00  0.00    -0.059 C  
HETATM   18  C   UNL     1      -5.493  12.158  69.076  1.00  0.00    -0.055 C  
ENDBRANCH  16  17
BRANCH  16  19
HETATM   19  C   UNL     1      -7.008   9.305  68.801  1.00  0.00    -0.061 C  
HETATM   20  C   UNL     1      -7.363   8.293  69.884  1.00  0.00    -0.064 C  
ENDBRANCH  16  19
ENDBRANCH  15  16
ENDBRANCH   8  15
BRANCH  10  21
HETATM   21  N   UNL     1     -10.661  11.833  65.402  1.00  0.00    -0.275 N  
HETATM   22  H   UNL     1     -11.399  12.279  65.949  1.00  0.00     0.000 HD 
HETATM   23  C   UNL     1     -10.633  12.004  64.035  1.00  0.00    -0.377 C  
HETATM   24  C   UNL     1     -11.712  12.901  63.491  1.00  0.00    -0.576 C  
HETATM   25  O   UNL     1      -9.799  11.484  63.305  1.00  0.00    -0.352 OA 
ENDBRANCH  10  21
ENDBRANCH   4   6
ENDBRANCH   3   4
ENDBRANCH   2   3
TORSDOF 8
ENDMDL
MODEL      176
REMARK 921   NORMALIZED FREE ENERGY PREDICTED BY IDOCK:   -3.34 KCAL/MOL
REMARK 922        TOTAL FREE ENERGY PREDICTED BY IDOCK:   -5.85 KCAL/MOL
REMARK 923 INTER-LIGAND FREE ENERGY PREDICTED BY IDOCK:   -6.46 KCAL/MOL
REMARK 924 INTRA-LIGAND FREE ENERGY PREDICTED BY IDOCK:    0.62 KCAL/MOL
REMARK 927      BINDING AFFINITY PREDICTED BY RF-SCORE:    0.00 PKD
ROOT
HETATM    1  C   UNL     1      -8.008  18.873  68.442  1.00  0.00    -0.373 C  
HETATM    2  C   UNL     1      -8.694  18.480  67.146  1.00  0.00    -0.270 C  
ENDROOT
BRANCH   2   3
HETATM    3  O   UNL     1      -9.774  17.605  67.481  1.00  0.00    -0.269 OA 
BRANCH   3   4
HETATM    4  C   UNL     1     -10.412  17.051  66.420  1.00  0.00    -0.252 C  
HETATM    5  O   UNL     1     -10.834  17.656  65.446  1.00  0.00    -0.541 OA 
BRANCH   4   6
HETATM    6  C   UNL     1     -10.473  15.569  66.544  1.00  0.00    -0.301 C  
HETATM    7  C   UNL     1      -9.445  14.789  66.181  1.00  0.00    -0.324 C  
HETATM    8  C   UNL     1      -9.363  13.336  66.512  1.00  0.00    -0.213 C  
HETATM    9  H2  UNL     1     -11.253  13.234  69.249  1.00  0.00     0.000 HD 
HETATM   10  C   UNL     1     -10.748  12.646  66.658  1.00  0.00    -0.253 C  
HETATM   11  H1  UNL     1     -12.854  13.740  69.118  1.00  0.00     0.000 HD 
HETATM   12  C   UNL     1     -11.735  15.045  67.153  1.00  0.00    -0.227 C  
HETATM   13  C   UNL     1     -11.879  13.515  67.288  1.00  0.00    -0.385 C  
HETATM   14  N   UNL     1     -12.114  13.172  68.706  1.00  0.00    -0.268 NA 
BRANCH   8  15
HETATM   15  O   UNL     1      -8.542  13.358  67.679  1.00  0.00    -0.167 OA 
BRANCH  15  16
HETATM   16  C   UNL     1      -7.155  13.056  67.559  1.00  0.00    -0.154 C  
BRANCH  16  17
HETATM   17  C   UNL     1      -6.852  11.961  68.598  1.00  0.00    -0.086 C  
HETATM   18  C   UNL     1      -8.023  11.010  68.821  1.00  0.00    -0.144 C  
ENDBRANCH  16  17
BRANCH  16  19
HETATM   19  C   UNL     1      -6.257  14.288  67.762  1.00  0.00    -0.152 C  
HETATM   20  C   UNL     1      -6.462  15.007  69.090  1.00  0.00    -0.116 C  
ENDBRANCH  16  19
ENDBRANCH  15  16
ENDBRANCH   8  15
BRANCH  10  21
HETATM   21  N   UNL     1     -11.196  12.068  65.372  1.00  0.00    -0.325 N  
HETATM   22  H   UNL     1     -10.778  11.197  65.042  1.00  0.00     0.000 HD 
HETATM   23  C   UNL     1     -12.166  12.685  64.614  1.00  0.00    -0.452 C  
HETATM   24  C   UNL     1     -12.543  11.949  63.356  1.00  0.00    -0.555 C  
HETATM   25  O   UNL     1     -12.699  13.742  64.924  1.00  0.00    -0.637 OA 
ENDBRANCH  10  21
ENDBRANCH   4   6
ENDBRANCH   3   4
ENDBRANCH   2   3
TORSDOF 8
ENDMDL
MODEL      177
REMARK 921   NORMALIZED FREE ENERGY PREDICTED BY IDOCK:   -3.33 KCAL/MOL
REMARK 922        TOTAL FREE ENERGY PREDICTED BY IDOCK:   -5.83 KCAL/MOL
REMARK 923 INTER-LIGAND FREE ENERGY PREDICTED BY IDOCK:   -4.92 KCAL/MOL
REMARK 924 INTRA-LIGAND FREE ENERGY PREDICTED BY IDOCK:   -0.91 KCAL/MOL
REMARK 927      BINDING AFFINITY PREDICTED BY RF-SCORE:    0.00 PKD
ROOT
HETATM    1  C   UNL     1      -9.915   9.766  65.727  1.00  0.00    -0.349 C  
HETATM    2  C   UNL     1      -9.632   8.369  66.249  1.00  0.00    -0.216 C  
ENDROOT
BRANCH   2   3
HETATM    3  O   UNL     1     -10.781   7.947  66.990  1.00  0.00    -0.339 OA 
BRANCH   3   4
HETATM    4  C   UNL     1     -10.758   6.652  67.394  1.00  0.00    -0.339 C  
HETATM    5  O   UNL     1     -10.823   5.676  66.662  1.00  0.00    -0.292 OA 
BRANCH   4   6
HETATM    6  C   UNL     1     -10.561   6.552  68.866  1.00  0.00    -0.280 C  
HETATM    7  C   UNL     1      -9.337   6.564  69.415  1.00  0.00    -0.143 C  
HETATM    8  C   UNL     1      -9.100   6.714  70.881  1.00  0.00    -0.154 C  
HETATM    9  H2  UNL     1     -11.853   8.356  71.773  1.00  0.00     0.000 HD 
HETATM   10  C   UNL     1     -10.259   6.172  71.763  1.00  0.00    -0.202 C  
HETATM   11  H1  UNL     1     -13.339   7.624  71.468  1.00  0.00     0.000 HD 
HETATM   12  C   UNL     1     -11.825   6.498  69.663  1.00  0.00    -0.063 C  
HETATM   13  C   UNL     1     -11.697   6.367  71.195  1.00  0.00    -0.298 C  
HETATM   14  N   UNL     1     -12.397   7.496  71.840  1.00  0.00    -0.310 NA 
BRANCH   8  15
HETATM   15  O   UNL     1      -8.829   8.112  70.982  1.00  0.00    -0.133 OA 
BRANCH  15  16
HETATM   16  C   UNL     1      -9.185   8.968  69.901  1.00  0.00    -0.173 C  
BRANCH  16  17
HETATM   17  C   UNL     1      -7.883   9.639  69.425  1.00  0.00    -0.104 C  
HETATM   18  C   UNL     1      -6.821   9.720  70.517  1.00  0.00    -0.129 C  
ENDBRANCH  16  17
BRANCH  16  19
HETATM   19  C   UNL     1     -10.245  10.012  70.292  1.00  0.00    -0.266 C  
HETATM   20  C   UNL     1     -11.062  10.550  69.124  1.00  0.00    -0.302 C  
ENDBRANCH  16  19
ENDBRANCH  15  16
ENDBRANCH   8  15
BRANCH  10  21
HETATM   21  N   UNL     1     -10.035   4.756  72.130  1.00  0.00    -0.172 N  
HETATM   22  H   UNL     1      -9.642   4.115  71.439  1.00  0.00     0.000 HD 
HETATM   23  C   UNL     1     -10.347   4.289  73.388  1.00  0.00    -0.171 C  
HETATM   24  C   UNL     1     -10.020   2.838  73.619  1.00  0.00    -0.164 C  
HETATM   25  O   UNL     1     -10.843   4.984  74.265  1.00  0.00    -0.320 OA 
ENDBRANCH  10  21
ENDBRANCH   4   6
ENDBRANCH   3   4
ENDBRANCH   2   3
TORSDOF 8
ENDMDL
MODEL      178
REMARK 921   NORMALIZED FREE ENERGY PREDICTED BY IDOCK:   -3.30 KCAL/MOL
REMARK 922        TOTAL FREE ENERGY PREDICTED BY IDOCK:   -5.78 KCAL/MOL
REMARK 923 INTER-LIGAND FREE ENERGY PREDICTED BY IDOCK:   -5.14 KCAL/MOL
REMARK 924 INTRA-LIGAND FREE ENERGY PREDICTED BY IDOCK:   -0.65 KCAL/MOL
REMARK 927      BINDING AFFINITY PREDICTED BY RF-SCORE:    0.00 PKD
ROOT
HETATM    1  C   UNL     1      -9.615   8.984  65.775  1.00  0.00    -0.287 C  
HETATM    2  C   UNL     1      -9.477   8.327  67.136  1.00  0.00    -0.160 C  
ENDROOT
BRANCH   2   3
HETATM    3  O   UNL     1     -10.737   7.729  67.454  1.00  0.00    -0.278 OA 
BRANCH   3   4
HETATM    4  C   UNL     1     -10.696   6.393  67.682  1.00  0.00    -0.311 C  
HETATM    5  O   UNL     1     -10.760   5.521  66.827  1.00  0.00    -0.289 OA 
BRANCH   4   6
HETATM    6  C   UNL     1     -10.478   6.100  69.125  1.00  0.00    -0.310 C  
HETATM    7  C   UNL     1      -9.305   5.637  69.581  1.00  0.00    -0.171 C  
HETATM    8  C   UNL     1      -8.963   5.564  71.032  1.00  0.00    -0.140 C  
HETATM    9  H2  UNL     1     -10.914   7.976  72.234  1.00  0.00     0.000 HD 
HETATM   10  C   UNL     1     -10.196   5.384  71.960  1.00  0.00    -0.203 C  
HETATM   11  H1  UNL     1     -12.575   7.837  71.993  1.00  0.00     0.000 HD 
HETATM   12  C   UNL     1     -11.642   6.419  70.009  1.00  0.00    -0.446 C  
HETATM   13  C   UNL     1     -11.497   6.116  71.515  1.00  0.00    -0.264 C  
HETATM   14  N   UNL     1     -11.723   7.358  72.284  1.00  0.00    -0.292 NA 
BRANCH   8  15
HETATM   15  O   UNL     1      -8.211   6.765  71.205  1.00  0.00    -0.117 OA 
BRANCH  15  16
HETATM   16  C   UNL     1      -8.800   7.859  71.902  1.00  0.00    -0.129 C  
BRANCH  16  17
HETATM   17  C   UNL     1      -8.617   9.100  71.008  1.00  0.00    -0.236 C  
HETATM   18  C   UNL     1      -9.931   9.627  70.442  1.00  0.00    -0.330 C  
ENDBRANCH  16  17
BRANCH  16  19
HETATM   19  C   UNL     1      -8.189   8.075  73.297  1.00  0.00    -0.254 C  
HETATM   20  C   UNL     1      -6.689   8.346  73.294  1.00  0.00    -0.114 C  
ENDBRANCH  16  19
ENDBRANCH  15  16
ENDBRANCH   8  15
BRANCH  10  21
HETATM   21  N   UNL     1     -10.469   3.952  72.214  1.00  0.00    -0.094 N  
HETATM   22  H   UNL     1     -10.492   3.299  71.430  1.00  0.00     0.000 HD 
HETATM   23  C   UNL     1     -10.693   3.486  73.491  1.00  0.00    -0.216 C  
HETATM   24  C   UNL     1     -10.913   2.000  73.589  1.00  0.00    -0.278 C  
HETATM   25  O   UNL     1     -10.709   4.205  74.482  1.00  0.00    -0.217 OA 
ENDBRANCH  10  21
ENDBRANCH   4   6
ENDBRANCH   3   4
ENDBRANCH   2   3
TORSDOF 8
ENDMDL
MODEL      179
REMARK 921   NORMALIZED FREE ENERGY PREDICTED BY IDOCK:   -3.30 KCAL/MOL
REMARK 922        TOTAL FREE ENERGY PREDICTED BY IDOCK:   -5.78 KCAL/MOL
REMARK 923 INTER-LIGAND FREE ENERGY PREDICTED BY IDOCK:   -4.74 KCAL/MOL
REMARK 924 INTRA-LIGAND FREE ENERGY PREDICTED BY IDOCK:   -1.03 KCAL/MOL
REMARK 927      BINDING AFFINITY PREDICTED BY RF-SCORE:    0.00 PKD
ROOT
HETATM    1  C   UNL     1     -12.017  14.378  67.464  1.00  0.00    -0.389 C  
HETATM    2  C   UNL     1     -11.194  14.883  66.292  1.00  0.00    -0.331 C  
ENDROOT
BRANCH   2   3
HETATM    3  O   UNL     1      -9.981  14.126  66.262  1.00  0.00    -0.283 OA 
BRANCH   3   4
HETATM    4  C   UNL     1     -10.084  12.902  65.688  1.00  0.00    -0.272 C  
HETATM    5  O   UNL     1     -10.408  12.681  64.530  1.00  0.00    -0.325 OA 
BRANCH   4   6
HETATM    6  C   UNL     1      -9.669  11.829  66.633  1.00  0.00    -0.219 C  
HETATM    7  C   UNL     1      -9.981  10.542  66.418  1.00  0.00    -0.271 C  
HETATM    8  C   UNL     1      -9.384   9.415  67.194  1.00  0.00    -0.139 C  
HETATM    9  H2  UNL     1      -6.494  10.783  68.117  1.00  0.00     0.000 HD 
HETATM   10  C   UNL     1      -8.961   9.803  68.638  1.00  0.00    -0.130 C  
HETATM   11  H1  UNL     1      -6.550  12.193  69.037  1.00  0.00     0.000 HD 
HETATM   12  C   UNL     1      -8.839  12.299  67.785  1.00  0.00    -0.174 C  
HETATM   13  C   UNL     1      -8.395  11.244  68.819  1.00  0.00    -0.120 C  
HETATM   14  N   UNL     1      -6.920  11.250  68.918  1.00  0.00    -0.090 NA 
BRANCH   8  15
HETATM   15  O   UNL     1      -8.338   8.993  66.320  1.00  0.00    -0.115 OA 
BRANCH  15  16
HETATM   16  C   UNL     1      -8.673   8.334  65.102  1.00  0.00    -0.054 C  
BRANCH  16  17
HETATM   17  C   UNL     1      -8.252   6.863  65.269  1.00  0.00    -0.129 C  
HETATM   18  C   UNL     1      -7.229   6.414  64.231  1.00  0.00    -0.065 C  
ENDBRANCH  16  17
BRANCH  16  19
HETATM   19  C   UNL     1      -8.003   8.975  63.875  1.00  0.00    -0.146 C  
HETATM   20  C   UNL     1      -8.976   9.505  62.829  1.00  0.00    -0.243 C  
ENDBRANCH  16  19
ENDBRANCH  15  16
ENDBRANCH   8  15
BRANCH  10  21
HETATM   21  N   UNL     1     -10.054   9.552  69.602  1.00  0.00    -0.198 N  
HETATM   22  H   UNL     1     -11.023   9.594  69.284  1.00  0.00     0.000 HD 
HETATM   23  C   UNL     1      -9.787   9.261  70.922  1.00  0.00    -0.293 C  
HETATM   24  C   UNL     1     -11.004   8.988  71.765  1.00  0.00    -0.443 C  
HETATM   25  O   UNL     1      -8.657   9.216  71.390  1.00  0.00    -0.314 OA 
ENDBRANCH  10  21
ENDBRANCH   4   6
ENDBRANCH   3   4
ENDBRANCH   2   3
TORSDOF 8
ENDMDL
MODEL      180
REMARK 921   NORMALIZED FREE ENERGY PREDICTED BY IDOCK:   -3.28 KCAL/MOL
REMARK 922        TOTAL FREE ENERGY PREDICTED BY IDOCK:   -5.76 KCAL/MOL
REMARK 923 INTER-LIGAND FREE ENERGY PREDICTED BY IDOCK:   -5.46 KCAL/MOL
REMARK 924 INTRA-LIGAND FREE ENERGY PREDICTED BY IDOCK:   -0.30 KCAL/MOL
REMARK 927      BINDING AFFINITY PREDICTED BY RF-SCORE:    0.00 PKD
ROOT
HETATM    1  C   UNL     1     -10.949   2.167  73.644  1.00  0.00    -0.285 C  
HETATM    2  C   UNL     1     -10.997   3.671  73.443  1.00  0.00    -0.215 C  
ENDROOT
BRANCH   2   3
HETATM    3  O   UNL     1      -9.776   4.059  72.806  1.00  0.00    -0.131 OA 
BRANCH   3   4
HETATM    4  C   UNL     1      -9.894   4.391  71.497  1.00  0.00    -0.189 C  
HETATM    5  O   UNL     1     -10.036   3.604  70.572  1.00  0.00    -0.115 OA 
BRANCH   4   6
HETATM    6  C   UNL     1      -9.909   5.868  71.316  1.00  0.00    -0.215 C  
HETATM    7  C   UNL     1     -11.014   6.518  70.924  1.00  0.00    -0.325 C  
HETATM    8  C   UNL     1     -11.147   8.005  70.967  1.00  0.00    -0.253 C  
HETATM    9  H2  UNL     1      -8.993   8.732  73.397  1.00  0.00     0.000 HD 
HETATM   10  C   UNL     1      -9.798   8.760  70.815  1.00  0.00    -0.205 C  
HETATM   11  H1  UNL     1      -7.387   8.271  73.188  1.00  0.00     0.000 HD 
HETATM   12  C   UNL     1      -8.624   6.552  71.661  1.00  0.00    -0.128 C  
HETATM   13  C   UNL     1      -8.558   8.082  71.472  1.00  0.00    -0.128 C  
HETATM   14  N   UNL     1      -8.198   8.715  72.758  1.00  0.00    -0.409 NA 
BRANCH   8  15
HETATM   15  O   UNL     1     -11.840   8.190  72.202  1.00  0.00    -0.315 OA 
BRANCH  15  16
HETATM   16  C   UNL     1     -12.938   9.096  72.253  1.00  0.00    -0.420 C  
BRANCH  16  17
HETATM   17  C   UNL     1     -14.035   8.508  71.346  1.00  0.00    -0.331 C  
HETATM   18  C   UNL     1     -14.345   7.048  71.656  1.00  0.00    -0.462 C  
ENDBRANCH  16  17
BRANCH  16  19
HETATM   19  C   UNL     1     -12.555  10.522  71.820  1.00  0.00    -0.445 C  
HETATM   20  C   UNL     1     -13.645  11.563  72.040  1.00  0.00    -0.138 C  
ENDBRANCH  16  19
ENDBRANCH  15  16
ENDBRANCH   8  15
BRANCH  10  21
HETATM   21  N   UNL     1      -9.522   9.081  69.398  1.00  0.00    -0.156 N  
HETATM   22  H   UNL     1      -8.888   8.486  68.863  1.00  0.00     0.000 HD 
HETATM   23  C   UNL     1     -10.107  10.169  68.788  1.00  0.00    -0.187 C  
HETATM   24  C   UNL     1      -9.760  10.336  67.332  1.00  0.00    -0.189 C  
HETATM   25  O   UNL     1     -10.858  10.946  69.363  1.00  0.00    -0.222 OA 
ENDBRANCH  10  21
ENDBRANCH   4   6
ENDBRANCH   3   4
ENDBRANCH   2   3
TORSDOF 8
ENDMDL
MODEL      181
REMARK 921   NORMALIZED FREE ENERGY PREDICTED BY IDOCK:   -3.27 KCAL/MOL
REMARK 922        TOTAL FREE ENERGY PREDICTED BY IDOCK:   -5.74 KCAL/MOL
REMARK 923 INTER-LIGAND FREE ENERGY PREDICTED BY IDOCK:   -4.56 KCAL/MOL
REMARK 924 INTRA-LIGAND FREE ENERGY PREDICTED BY IDOCK:   -1.18 KCAL/MOL
REMARK 927      BINDING AFFINITY PREDICTED BY RF-SCORE:    0.00 PKD
ROOT
HETATM    1  C   UNL     1     -11.996  14.463  67.879  1.00  0.00    -0.348 C  
HETATM    2  C   UNL     1     -11.119  14.660  66.655  1.00  0.00    -0.334 C  
ENDROOT
BRANCH   2   3
HETATM    3  O   UNL     1     -10.227  13.543  66.583  1.00  0.00    -0.265 OA 
BRANCH   3   4
HETATM    4  C   UNL     1     -10.795  12.382  66.172  1.00  0.00    -0.273 C  
HETATM    5  O   UNL     1     -11.532  12.251  65.206  1.00  0.00    -0.331 OA 
BRANCH   4   6
HETATM    6  C   UNL     1     -10.344  11.238  67.010  1.00  0.00    -0.263 C  
HETATM    7  C   UNL     1     -11.050  10.100  67.087  1.00  0.00    -0.122 C  
HETATM    8  C   UNL     1     -10.522   8.850  67.708  1.00  0.00    -0.239 C  
HETATM    9  H2  UNL     1      -7.252   9.305  67.290  1.00  0.00     0.000 HD 
HETATM   10  C   UNL     1      -9.470   9.099  68.824  1.00  0.00    -0.147 C  
HETATM   11  H1  UNL     1      -6.553  10.671  67.984  1.00  0.00     0.000 HD 
HETATM   12  C   UNL     1      -9.030  11.445  67.694  1.00  0.00    -0.140 C  
HETATM   13  C   UNL     1      -8.513  10.309  68.601  1.00  0.00    -0.127 C  
HETATM   14  N   UNL     1      -7.180   9.879  68.129  1.00  0.00    -0.078 NA 
BRANCH   8  15
HETATM   15  O   UNL     1     -10.067   8.135  66.559  1.00  0.00    -0.267 OA 
BRANCH  15  16
HETATM   16  C   UNL     1      -9.152   7.057  66.728  1.00  0.00    -0.143 C  
BRANCH  16  17
HETATM   17  C   UNL     1      -8.051   7.245  65.669  1.00  0.00    -0.133 C  
HETATM   18  C   UNL     1      -6.682   6.762  66.139  1.00  0.00    -0.052 C  
ENDBRANCH  16  17
BRANCH  16  19
HETATM   19  C   UNL     1      -9.824   5.679  66.602  1.00  0.00    -0.191 C  
HETATM   20  C   UNL     1      -9.954   4.917  67.915  1.00  0.00    -0.181 C  
ENDBRANCH  16  19
ENDBRANCH  15  16
ENDBRANCH   8  15
BRANCH  10  21
HETATM   21  N   UNL     1     -10.111   9.185  70.154  1.00  0.00    -0.190 N  
HETATM   22  H   UNL     1     -10.703   9.987  70.375  1.00  0.00     0.000 HD 
HETATM   23  C   UNL     1      -9.924   8.201  71.099  1.00  0.00    -0.180 C  
HETATM   24  C   UNL     1     -10.679   8.411  72.385  1.00  0.00    -0.405 C  
HETATM   25  O   UNL     1      -9.212   7.220  70.925  1.00  0.00    -0.155 OA 
ENDBRANCH  10  21
ENDBRANCH   4   6
ENDBRANCH   3   4
ENDBRANCH   2   3
TORSDOF 8
ENDMDL
MODEL      182
REMARK 921   NORMALIZED FREE ENERGY PREDICTED BY IDOCK:   -3.27 KCAL/MOL
REMARK 922        TOTAL FREE ENERGY PREDICTED BY IDOCK:   -5.74 KCAL/MOL
REMARK 923 INTER-LIGAND FREE ENERGY PREDICTED BY IDOCK:   -5.19 KCAL/MOL
REMARK 924 INTRA-LIGAND FREE ENERGY PREDICTED BY IDOCK:   -0.55 KCAL/MOL
REMARK 927      BINDING AFFINITY PREDICTED BY RF-SCORE:    0.00 PKD
ROOT
HETATM    1  C   UNL     1     -12.400  14.501  64.200  1.00  0.00    -0.317 C  
HETATM    2  C   UNL     1     -11.684  13.177  64.001  1.00  0.00    -0.439 C  
ENDROOT
BRANCH   2   3
HETATM    3  O   UNL     1     -11.609  12.535  65.277  1.00  0.00    -0.333 OA 
BRANCH   3   4
HETATM    4  C   UNL     1     -10.405  11.984  65.571  1.00  0.00    -0.263 C  
HETATM    5  O   UNL     1     -10.005  10.896  65.184  1.00  0.00    -0.245 OA 
BRANCH   4   6
HETATM    6  C   UNL     1      -9.570  12.916  66.377  1.00  0.00    -0.252 C  
HETATM    7  C   UNL     1      -9.967  14.170  66.639  1.00  0.00    -0.280 C  
HETATM    8  C   UNL     1      -9.290  15.051  67.636  1.00  0.00    -0.194 C  
HETATM    9  H2  UNL     1      -7.971  12.764  69.662  1.00  0.00     0.000 HD 
HETATM   10  C   UNL     1      -7.780  14.740  67.825  1.00  0.00    -0.157 C  
HETATM   11  H1  UNL     1      -6.891  11.655  68.998  1.00  0.00     0.000 HD 
HETATM   12  C   UNL     1      -8.304  12.321  66.906  1.00  0.00    -0.137 C  
HETATM   13  C   UNL     1      -7.375  13.238  67.729  1.00  0.00    -0.147 C  
HETATM   14  N   UNL     1      -7.156  12.638  69.061  1.00  0.00    -0.070 NA 
BRANCH   8  15
HETATM   15  O   UNL     1     -10.121  14.870  68.783  1.00  0.00    -0.226 OA 
BRANCH  15  16
HETATM   16  C   UNL     1     -10.586  16.014  69.492  1.00  0.00    -0.290 C  
BRANCH  16  17
HETATM   17  C   UNL     1     -12.125  15.956  69.460  1.00  0.00    -0.200 C  
HETATM   18  C   UNL     1     -12.724  15.344  70.722  1.00  0.00    -0.516 C  
ENDBRANCH  16  17
BRANCH  16  19
HETATM   19  C   UNL     1     -10.061  17.334  68.902  1.00  0.00    -0.331 C  
HETATM   20  C   UNL     1     -10.909  17.902  67.770  1.00  0.00    -0.237 C  
ENDBRANCH  16  19
ENDBRANCH  15  16
ENDBRANCH   8  15
BRANCH  10  21
HETATM   21  N   UNL     1      -6.948  15.559  66.917  1.00  0.00    -0.024 N  
HETATM   22  H   UNL     1      -6.839  15.275  65.943  1.00  0.00     0.000 HD 
HETATM   23  C   UNL     1      -6.317  16.699  67.364  1.00  0.00    -0.169 C  
HETATM   24  C   UNL     1      -5.544  17.445  66.310  1.00  0.00    -0.217 C  
HETATM   25  O   UNL     1      -6.374  17.096  68.521  1.00  0.00    -0.149 OA 
ENDBRANCH  10  21
ENDBRANCH   4   6
ENDBRANCH   3   4
ENDBRANCH   2   3
TORSDOF 8
ENDMDL
MODEL      183
REMARK 921   NORMALIZED FREE ENERGY PREDICTED BY IDOCK:   -3.22 KCAL/MOL
REMARK 922        TOTAL FREE ENERGY PREDICTED BY IDOCK:   -5.67 KCAL/MOL
REMARK 923 INTER-LIGAND FREE ENERGY PREDICTED BY IDOCK:   -5.07 KCAL/MOL
REMARK 924 INTRA-LIGAND FREE ENERGY PREDICTED BY IDOCK:   -0.60 KCAL/MOL
REMARK 927      BINDING AFFINITY PREDICTED BY RF-SCORE:    0.00 PKD
ROOT
HETATM    1  C   UNL     1     -13.683  13.229  72.222  1.00  0.00    -0.686 C  
HETATM    2  C   UNL     1     -12.597  12.790  71.257  1.00  0.00    -0.250 C  
ENDROOT
BRANCH   2   3
HETATM    3  O   UNL     1     -12.621  11.360  71.205  1.00  0.00    -0.394 OA 
BRANCH   3   4
HETATM    4  C   UNL     1     -12.177  10.822  70.042  1.00  0.00    -0.334 C  
HETATM    5  O   UNL     1     -12.513  11.170  68.920  1.00  0.00    -0.460 OA 
BRANCH   4   6
HETATM    6  C   UNL     1     -11.144   9.780  70.293  1.00  0.00    -0.349 C  
HETATM    7  C   UNL     1     -10.139   9.563  69.432  1.00  0.00    -0.206 C  
HETATM    8  C   UNL     1      -8.955   8.712  69.754  1.00  0.00    -0.145 C  
HETATM    9  H2  UNL     1      -8.901   8.985  73.070  1.00  0.00     0.000 HD 
HETATM   10  C   UNL     1      -9.252   7.586  70.783  1.00  0.00    -0.158 C  
HETATM   11  H1  UNL     1     -10.263   8.481  73.923  1.00  0.00     0.000 HD 
HETATM   12  C   UNL     1     -11.292   9.054  71.593  1.00  0.00    -0.430 C  
HETATM   13  C   UNL     1     -10.270   7.942  71.908  1.00  0.00    -0.202 C  
HETATM   14  N   UNL     1      -9.596   8.249  73.186  1.00  0.00    -0.228 NA 
BRANCH   8  15
HETATM   15  O   UNL     1      -8.000   9.696  70.152  1.00  0.00    -0.146 OA 
BRANCH  15  16
HETATM   16  C   UNL     1      -7.116  10.241  69.178  1.00  0.00    -0.074 C  
BRANCH  16  17
HETATM   17  C   UNL     1      -7.326   9.425  67.889  1.00  0.00    -0.083 C  
HETATM   18  C   UNL     1      -6.455   9.904  66.732  1.00  0.00    -0.070 C  
ENDBRANCH  16  17
BRANCH  16  19
HETATM   19  C   UNL     1      -5.645  10.215  69.627  1.00  0.00    -0.038 C  
HETATM   20  C   UNL     1      -5.339  11.086  70.840  1.00  0.00    -0.118 C  
ENDBRANCH  16  19
ENDBRANCH  15  16
ENDBRANCH   8  15
BRANCH  10  21
HETATM   21  N   UNL     1      -9.648   6.333  70.104  1.00  0.00    -0.162 N  
HETATM   22  H   UNL     1     -10.269   6.375  69.295  1.00  0.00     0.000 HD 
HETATM   23  C   UNL     1      -9.192   5.110  70.545  1.00  0.00    -0.146 C  
HETATM   24  C   UNL     1      -9.649   3.935  69.722  1.00  0.00    -0.271 C  
HETATM   25  O   UNL     1      -8.466   4.969  71.520  1.00  0.00    -0.118 OA 
ENDBRANCH  10  21
ENDBRANCH   4   6
ENDBRANCH   3   4
ENDBRANCH   2   3
TORSDOF 8
ENDMDL
MODEL      184
REMARK 921   NORMALIZED FREE ENERGY PREDICTED BY IDOCK:   -3.22 KCAL/MOL
REMARK 922        TOTAL FREE ENERGY PREDICTED BY IDOCK:   -5.67 KCAL/MOL
REMARK 923 INTER-LIGAND FREE ENERGY PREDICTED BY IDOCK:   -4.91 KCAL/MOL
REMARK 924 INTRA-LIGAND FREE ENERGY PREDICTED BY IDOCK:   -0.76 KCAL/MOL
REMARK 927      BINDING AFFINITY PREDICTED BY RF-SCORE:    0.00 PKD
ROOT
HETATM    1  C   UNL     1     -13.249  11.588  71.893  1.00  0.00    -0.479 C  
HETATM    2  C   UNL     1     -12.488  10.582  71.048  1.00  0.00    -0.400 C  
ENDROOT
BRANCH   2   3
HETATM    3  O   UNL     1     -12.094   9.510  71.909  1.00  0.00    -0.371 OA 
BRANCH   3   4
HETATM    4  C   UNL     1     -11.796   8.348  71.277  1.00  0.00    -0.289 C  
HETATM    5  O   UNL     1     -12.456   7.321  71.323  1.00  0.00    -0.344 OA 
BRANCH   4   6
HETATM    6  C   UNL     1     -10.579   8.493  70.431  1.00  0.00    -0.242 C  
HETATM    7  C   UNL     1     -10.655   8.566  69.094  1.00  0.00    -0.188 C  
HETATM    8  C   UNL     1      -9.502   8.956  68.230  1.00  0.00    -0.140 C  
HETATM    9  H2  UNL     1      -7.738  10.795  70.369  1.00  0.00     0.000 HD 
HETATM   10  C   UNL     1      -8.116   8.601  68.835  1.00  0.00    -0.118 C  
HETATM   11  H1  UNL     1      -7.212  10.060  71.790  1.00  0.00     0.000 HD 
HETATM   12  C   UNL     1      -9.298   8.607  71.195  1.00  0.00    -0.274 C  
HETATM   13  C   UNL     1      -7.993   8.734  70.383  1.00  0.00    -0.112 C  
HETATM   14  N   UNL     1      -7.293   9.974  70.777  1.00  0.00    -0.282 NA 
BRANCH   8  15
HETATM   15  O   UNL     1      -9.763  10.343  68.019  1.00  0.00    -0.148 OA 
BRANCH  15  16
HETATM   16  C   UNL     1      -9.469  10.921  66.751  1.00  0.00    -0.177 C  
BRANCH  16  17
HETATM   17  C   UNL     1      -9.881   9.885  65.689  1.00  0.00    -0.368 C  
HETATM   18  C   UNL     1      -9.906  10.457  64.275  1.00  0.00    -0.388 C  
ENDBRANCH  16  17
BRANCH  16  19
HETATM   19  C   UNL     1      -7.989  11.317  66.605  1.00  0.00    -0.159 C  
HETATM   20  C   UNL     1      -7.544  12.446  67.527  1.00  0.00    -0.155 C  
ENDBRANCH  16  19
ENDBRANCH  15  16
ENDBRANCH   8  15
BRANCH  10  21
HETATM   21  N   UNL     1      -7.666   7.262  68.393  1.00  0.00    -0.118 N  
HETATM   22  H   UNL     1      -8.089   6.430  68.805  1.00  0.00     0.000 HD 
HETATM   23  C   UNL     1      -6.687   7.121  67.435  1.00  0.00    -0.068 C  
HETATM   24  C   UNL     1      -6.372   5.697  67.062  1.00  0.00    -0.039 C  
HETATM   25  O   UNL     1      -6.112   8.065  66.909  1.00  0.00    -0.050 OA 
ENDBRANCH  10  21
ENDBRANCH   4   6
ENDBRANCH   3   4
ENDBRANCH   2   3
TORSDOF 8
ENDMDL
MODEL      185
REMARK 921   NORMALIZED FREE ENERGY PREDICTED BY IDOCK:   -3.21 KCAL/MOL
REMARK 922        TOTAL FREE ENERGY PREDICTED BY IDOCK:   -5.65 KCAL/MOL
REMARK 923 INTER-LIGAND FREE ENERGY PREDICTED BY IDOCK:   -6.40 KCAL/MOL
REMARK 924 INTRA-LIGAND FREE ENERGY PREDICTED BY IDOCK:    0.75 KCAL/MOL
REMARK 927      BINDING AFFINITY PREDICTED BY RF-SCORE:    0.00 PKD
ROOT
HETATM    1  C   UNL     1      -5.152  15.734  68.634  1.00  0.00    -0.088 C  
HETATM    2  C   UNL     1      -6.199  15.746  67.535  1.00  0.00    -0.143 C  
ENDROOT
BRANCH   2   3
HETATM    3  O   UNL     1      -6.639  14.398  67.346  1.00  0.00    -0.287 OA 
BRANCH   3   4
HETATM    4  C   UNL     1      -7.461  13.923  68.314  1.00  0.00    -0.118 C  
HETATM    5  O   UNL     1      -7.186  13.043  69.117  1.00  0.00    -0.039 OA 
BRANCH   4   6
HETATM    6  C   UNL     1      -8.748  14.671  68.340  1.00  0.00    -0.175 C  
HETATM    7  C   UNL     1      -8.909  15.771  69.090  1.00  0.00    -0.250 C  
HETATM    8  C   UNL     1     -10.082  16.684  68.961  1.00  0.00    -0.293 C  
HETATM    9  H2  UNL     1     -10.945  16.117  65.798  1.00  0.00     0.000 HD 
HETATM   10  C   UNL     1     -11.375  15.980  68.464  1.00  0.00    -0.382 C  
HETATM   11  H1  UNL     1     -11.350  14.540  65.364  1.00  0.00     0.000 HD 
HETATM   12  C   UNL     1      -9.803  14.130  67.427  1.00  0.00    -0.239 C  
HETATM   13  C   UNL     1     -11.172  14.840  67.421  1.00  0.00    -0.339 C  
HETATM   14  N   UNL     1     -11.482  15.287  66.047  1.00  0.00    -0.169 NA 
BRANCH   8  15
HETATM   15  O   UNL     1      -9.554  17.706  68.116  1.00  0.00    -0.276 OA 
BRANCH  15  16
HETATM   16  C   UNL     1      -9.187  18.959  68.685  1.00  0.00    -0.356 C  
BRANCH  16  17
HETATM   17  C   UNL     1      -9.932  20.041  67.881  1.00  0.00    -0.558 C  
HETATM   18  C   UNL     1     -10.661  19.483  66.663  1.00  0.00    -0.583 C  
ENDBRANCH  16  17
BRANCH  16  19
HETATM   19  C   UNL     1      -7.667  19.196  68.674  1.00  0.00    -0.387 C  
HETATM   20  C   UNL     1      -7.060  19.335  67.283  1.00  0.00    -0.222 C  
ENDBRANCH  16  19
ENDBRANCH  15  16
ENDBRANCH   8  15
BRANCH  10  21
HETATM   21  N   UNL     1     -12.194  15.502  69.600  1.00  0.00    -0.527 N  
HETATM   22  H   UNL     1     -12.746  16.172  70.137  1.00  0.00     0.000 HD 
HETATM   23  C   UNL     1     -12.224  14.169  69.945  1.00  0.00    -0.359 C  
HETATM   24  C   UNL     1     -13.138  13.836  71.094  1.00  0.00    -0.324 C  
HETATM   25  O   UNL     1     -11.573  13.305  69.370  1.00  0.00    -0.281 OA 
ENDBRANCH  10  21
ENDBRANCH   4   6
ENDBRANCH   3   4
ENDBRANCH   2   3
TORSDOF 8
ENDMDL
MODEL      186
REMARK 921   NORMALIZED FREE ENERGY PREDICTED BY IDOCK:   -3.20 KCAL/MOL
REMARK 922        TOTAL FREE ENERGY PREDICTED BY IDOCK:   -5.64 KCAL/MOL
REMARK 923 INTER-LIGAND FREE ENERGY PREDICTED BY IDOCK:   -4.99 KCAL/MOL
REMARK 924 INTRA-LIGAND FREE ENERGY PREDICTED BY IDOCK:   -0.65 KCAL/MOL
REMARK 927      BINDING AFFINITY PREDICTED BY RF-SCORE:    0.00 PKD
ROOT
HETATM    1  C   UNL     1     -12.609  12.382  64.894  1.00  0.00    -0.372 C  
HETATM    2  C   UNL     1     -12.843  13.866  64.672  1.00  0.00     0.009 C  
ENDROOT
BRANCH   2   3
HETATM    3  O   UNL     1     -12.016  14.574  65.600  1.00  0.00    -0.359 OA 
BRANCH   3   4
HETATM    4  C   UNL     1     -10.686  14.518  65.340  1.00  0.00    -0.361 C  
HETATM    5  O   UNL     1     -10.180  14.328  64.244  1.00  0.00    -0.090 OA 
BRANCH   4   6
HETATM    6  C   UNL     1      -9.887  14.801  66.564  1.00  0.00    -0.287 C  
HETATM    7  C   UNL     1      -8.627  15.254  66.494  1.00  0.00    -0.264 C  
HETATM    8  C   UNL     1      -7.880  15.781  67.674  1.00  0.00    -0.150 C  
HETATM    9  H2  UNL     1     -10.409  16.800  69.582  1.00  0.00     0.000 HD 
HETATM   10  C   UNL     1      -8.328  15.163  69.027  1.00  0.00    -0.209 C  
HETATM   11  H1  UNL     1     -11.553  15.655  70.048  1.00  0.00     0.000 HD 
HETATM   12  C   UNL     1     -10.622  14.595  67.851  1.00  0.00    -0.244 C  
HETATM   13  C   UNL     1      -9.848  14.844  69.161  1.00  0.00    -0.199 C  
HETATM   14  N   UNL     1     -10.559  15.864  69.960  1.00  0.00    -0.315 NA 
BRANCH   8  15
HETATM   15  O   UNL     1      -8.074  17.187  67.526  1.00  0.00    -0.181 OA 
BRANCH  15  16
HETATM   16  C   UNL     1      -6.969  18.066  67.721  1.00  0.00    -0.208 C  
BRANCH  16  17
HETATM   17  C   UNL     1      -7.561  19.453  68.029  1.00  0.00    -0.324 C  
HETATM   18  C   UNL     1      -6.808  20.190  69.132  1.00  0.00    -0.234 C  
ENDBRANCH  16  17
BRANCH  16  19
HETATM   19  C   UNL     1      -6.025  18.114  66.507  1.00  0.00    -0.197 C  
HETATM   20  C   UNL     1      -6.417  19.131  65.442  1.00  0.00    -0.313 C  
ENDBRANCH  16  19
ENDBRANCH  15  16
ENDBRANCH   8  15
BRANCH  10  21
HETATM   21  N   UNL     1      -7.518  13.973  69.367  1.00  0.00    -0.338 N  
HETATM   22  H   UNL     1      -7.945  13.048  69.328  1.00  0.00     0.000 HD 
HETATM   23  C   UNL     1      -6.195  14.094  69.734  1.00  0.00    -0.138 C  
HETATM   24  C   UNL     1      -5.496  12.789  70.005  1.00  0.00    -0.113 C  
HETATM   25  O   UNL     1      -5.614  15.167  69.830  1.00  0.00    -0.101 OA 
ENDBRANCH  10  21
ENDBRANCH   4   6
ENDBRANCH   3   4
ENDBRANCH   2   3
TORSDOF 8
ENDMDL
MODEL      187
REMARK 921   NORMALIZED FREE ENERGY PREDICTED BY IDOCK:   -3.20 KCAL/MOL
REMARK 922        TOTAL FREE ENERGY PREDICTED BY IDOCK:   -5.63 KCAL/MOL
REMARK 923 INTER-LIGAND FREE ENERGY PREDICTED BY IDOCK:   -5.05 KCAL/MOL
REMARK 924 INTRA-LIGAND FREE ENERGY PREDICTED BY IDOCK:   -0.59 KCAL/MOL
REMARK 927      BINDING AFFINITY PREDICTED BY RF-SCORE:    0.00 PKD
ROOT
HETATM    1  C   UNL     1      -5.746   8.605  67.922  1.00  0.00    -0.039 C  
HETATM    2  C   UNL     1      -7.005   7.968  68.482  1.00  0.00    -0.072 C  
ENDROOT
BRANCH   2   3
HETATM    3  O   UNL     1      -7.015   8.203  69.893  1.00  0.00    -0.046 OA 
BRANCH   3   4
HETATM    4  C   UNL     1      -7.260   9.486  70.258  1.00  0.00    -0.118 C  
HETATM    5  O   UNL     1      -6.428  10.285  70.661  1.00  0.00    -0.216 OA 
BRANCH   4   6
HETATM    6  C   UNL     1      -8.687   9.846  70.031  1.00  0.00    -0.188 C  
HETATM    7  C   UNL     1      -9.048  10.738  69.097  1.00  0.00    -0.109 C  
HETATM    8  C   UNL     1     -10.463  10.945  68.668  1.00  0.00    -0.194 C  
HETATM    9  H2  UNL     1     -11.751   7.960  69.375  1.00  0.00     0.000 HD 
HETATM   10  C   UNL     1     -11.508  10.624  69.772  1.00  0.00    -0.302 C  
HETATM   11  H1  UNL     1     -11.671   7.427  70.971  1.00  0.00     0.000 HD 
HETATM   12  C   UNL     1      -9.663   9.093  70.879  1.00  0.00    -0.352 C  
HETATM   13  C   UNL     1     -11.159   9.433  70.715  1.00  0.00    -0.300 C  
HETATM   14  N   UNL     1     -11.899   8.206  70.354  1.00  0.00    -0.006 NA 
BRANCH   8  15
HETATM   15  O   UNL     1     -10.521  10.142  67.490  1.00  0.00    -0.217 OA 
BRANCH  15  16
HETATM   16  C   UNL     1      -9.831  10.572  66.320  1.00  0.00    -0.217 C  
BRANCH  16  17
HETATM   17  C   UNL     1     -10.882  11.232  65.408  1.00  0.00    -0.255 C  
HETATM   18  C   UNL     1     -10.360  12.481  64.704  1.00  0.00    -0.341 C  
ENDBRANCH  16  17
BRANCH  16  19
HETATM   19  C   UNL     1      -9.104   9.423  65.600  1.00  0.00    -0.258 C  
HETATM   20  C   UNL     1      -9.437   8.034  66.132  1.00  0.00    -0.193 C  
ENDBRANCH  16  19
ENDBRANCH  15  16
ENDBRANCH   8  15
BRANCH  10  21
HETATM   21  N   UNL     1     -11.839  11.829  70.562  1.00  0.00    -0.500 N  
HETATM   22  H   UNL     1     -11.331  12.698  70.389  1.00  0.00     0.000 HD 
HETATM   23  C   UNL     1     -12.821  11.800  71.528  1.00  0.00    -0.345 C  
HETATM   24  C   UNL     1     -13.070  13.117  72.213  1.00  0.00    -0.458 C  
HETATM   25  O   UNL     1     -13.459  10.795  71.815  1.00  0.00    -0.320 OA 
ENDBRANCH  10  21
ENDBRANCH   4   6
ENDBRANCH   3   4
ENDBRANCH   2   3
TORSDOF 8
ENDMDL
MODEL      188
REMARK 921   NORMALIZED FREE ENERGY PREDICTED BY IDOCK:   -3.17 KCAL/MOL
REMARK 922        TOTAL FREE ENERGY PREDICTED BY IDOCK:   -5.60 KCAL/MOL
REMARK 923 INTER-LIGAND FREE ENERGY PREDICTED BY IDOCK:   -4.78 KCAL/MOL
REMARK 924 INTRA-LIGAND FREE ENERGY PREDICTED BY IDOCK:   -0.82 KCAL/MOL
REMARK 927      BINDING AFFINITY PREDICTED BY RF-SCORE:    0.00 PKD
ROOT
HETATM    1  C   UNL     1      -8.942   8.768  68.233  1.00  0.00    -0.141 C  
HETATM    2  C   UNL     1      -7.792   8.815  67.243  1.00  0.00    -0.097 C  
ENDROOT
BRANCH   2   3
HETATM    3  O   UNL     1      -7.046  10.006  67.508  1.00  0.00    -0.085 OA 
BRANCH   3   4
HETATM    4  C   UNL     1      -7.055  10.923  66.509  1.00  0.00    -0.139 C  
HETATM    5  O   UNL     1      -6.578  10.768  65.394  1.00  0.00    -0.071 OA 
BRANCH   4   6
HETATM    6  C   UNL     1      -7.802  12.147  66.908  1.00  0.00    -0.069 C  
HETATM    7  C   UNL     1      -7.321  12.997  67.828  1.00  0.00    -0.139 C  
HETATM    8  C   UNL     1      -7.906  14.347  68.079  1.00  0.00    -0.140 C  
HETATM    9  H2  UNL     1      -9.281  14.969  65.113  1.00  0.00     0.000 HD 
HETATM   10  C   UNL     1      -9.424  14.442  67.762  1.00  0.00    -0.211 C  
HETATM   11  H1  UNL     1     -10.449  13.895  64.548  1.00  0.00     0.000 HD 
HETATM   12  C   UNL     1      -9.080  12.369  66.164  1.00  0.00    -0.044 C  
HETATM   13  C   UNL     1      -9.920  13.605  66.545  1.00  0.00    -0.288 C  
HETATM   14  N   UNL     1     -10.124  14.443  65.344  1.00  0.00    -0.362 NA 
BRANCH   8  15
HETATM   15  O   UNL     1      -7.044  15.177  67.300  1.00  0.00    -0.195 OA 
BRANCH  15  16
HETATM   16  C   UNL     1      -7.314  16.573  67.216  1.00  0.00    -0.166 C  
BRANCH  16  17
HETATM   17  C   UNL     1      -6.069  17.224  66.585  1.00  0.00    -0.247 C  
HETATM   18  C   UNL     1      -6.412  18.319  65.581  1.00  0.00    -0.309 C  
ENDBRANCH  16  17
BRANCH  16  19
HETATM   19  C   UNL     1      -7.646  17.199  68.581  1.00  0.00    -0.258 C  
HETATM   20  C   UNL     1      -8.404  18.519  68.503  1.00  0.00    -0.359 C  
ENDBRANCH  16  19
ENDBRANCH  15  16
ENDBRANCH   8  15
BRANCH  10  21
HETATM   21  N   UNL     1     -10.239  14.146  68.960  1.00  0.00    -0.390 N  
HETATM   22  H   UNL     1      -9.973  13.373  69.570  1.00  0.00     0.000 HD 
HETATM   23  C   UNL     1     -11.353  14.898  69.266  1.00  0.00    -0.296 C  
HETATM   24  C   UNL     1     -12.050  14.500  70.540  1.00  0.00    -0.395 C  
HETATM   25  O   UNL     1     -11.755  15.826  68.576  1.00  0.00    -0.383 OA 
ENDBRANCH  10  21
ENDBRANCH   4   6
ENDBRANCH   3   4
ENDBRANCH   2   3
TORSDOF 8
ENDMDL
MODEL      189
REMARK 921   NORMALIZED FREE ENERGY PREDICTED BY IDOCK:   -3.14 KCAL/MOL
REMARK 922        TOTAL FREE ENERGY PREDICTED BY IDOCK:   -5.55 KCAL/MOL
REMARK 923 INTER-LIGAND FREE ENERGY PREDICTED BY IDOCK:   -5.10 KCAL/MOL
REMARK 924 INTRA-LIGAND FREE ENERGY PREDICTED BY IDOCK:   -0.45 KCAL/MOL
REMARK 927      BINDING AFFINITY PREDICTED BY RF-SCORE:    0.00 PKD
ROOT
HETATM    1  C   UNL     1     -12.183  11.142  70.778  1.00  0.00    -0.484 C  
HETATM    2  C   UNL     1     -11.573  10.372  69.621  1.00  0.00    -0.239 C  
ENDROOT
BRANCH   2   3
HETATM    3  O   UNL     1     -11.137  11.330  68.651  1.00  0.00    -0.195 OA 
BRANCH   3   4
HETATM    4  C   UNL     1      -9.814  11.623  68.690  1.00  0.00    -0.165 C  
HETATM    5  O   UNL     1      -8.911  10.823  68.888  1.00  0.00    -0.158 OA 
BRANCH   4   6
HETATM    6  C   UNL     1      -9.572  13.058  68.377  1.00  0.00    -0.178 C  
HETATM    7  C   UNL     1      -8.655  13.437  67.474  1.00  0.00    -0.200 C  
HETATM    8  C   UNL     1      -8.550  14.831  66.952  1.00  0.00    -0.224 C  
HETATM    9  H2  UNL     1     -11.681  15.873  67.378  1.00  0.00     0.000 HD 
HETATM   10  C   UNL     1      -9.039  15.915  67.952  1.00  0.00    -0.190 C  
HETATM   11  H1  UNL     1     -12.310  15.854  68.940  1.00  0.00     0.000 HD 
HETATM   12  C   UNL     1     -10.465  14.014  69.101  1.00  0.00    -0.103 C  
HETATM   13  C   UNL     1     -10.254  15.520  68.845  1.00  0.00    -0.210 C  
HETATM   14  N   UNL     1     -11.515  16.112  68.355  1.00  0.00    -0.351 NA 
BRANCH   8  15
HETATM   15  O   UNL     1      -9.275  14.729  65.726  1.00  0.00    -0.184 OA 
BRANCH  15  16
HETATM   16  C   UNL     1     -10.641  15.129  65.691  1.00  0.00    -0.356 C  
BRANCH  16  17
HETATM   17  C   UNL     1     -11.438  13.925  65.155  1.00  0.00    -0.324 C  
HETATM   18  C   UNL     1     -12.589  13.517  66.069  1.00  0.00    -0.408 C  
ENDBRANCH  16  17
BRANCH  16  19
HETATM   19  C   UNL     1     -10.873  16.384  64.832  1.00  0.00    -0.268 C  
HETATM   20  C   UNL     1     -10.857  17.694  65.610  1.00  0.00     0.035 C  
ENDBRANCH  16  19
ENDBRANCH  15  16
ENDBRANCH   8  15
BRANCH  10  21
HETATM   21  N   UNL     1      -7.924  16.415  68.786  1.00  0.00    -0.220 N  
HETATM   22  H   UNL     1      -7.671  15.913  69.638  1.00  0.00     0.000 HD 
HETATM   23  C   UNL     1      -7.222  17.546  68.431  1.00  0.00    -0.226 C  
HETATM   24  C   UNL     1      -6.090  17.900  69.358  1.00  0.00    -0.243 C  
HETATM   25  O   UNL     1      -7.476  18.219  67.441  1.00  0.00    -0.210 OA 
ENDBRANCH  10  21
ENDBRANCH   4   6
ENDBRANCH   3   4
ENDBRANCH   2   3
TORSDOF 8
ENDMDL
MODEL      190
REMARK 921   NORMALIZED FREE ENERGY PREDICTED BY IDOCK:   -3.14 KCAL/MOL
REMARK 922        TOTAL FREE ENERGY PREDICTED BY IDOCK:   -5.55 KCAL/MOL
REMARK 923 INTER-LIGAND FREE ENERGY PREDICTED BY IDOCK:   -4.50 KCAL/MOL
REMARK 924 INTRA-LIGAND FREE ENERGY PREDICTED BY IDOCK:   -1.05 KCAL/MOL
REMARK 927      BINDING AFFINITY PREDICTED BY RF-SCORE:    0.00 PKD
ROOT
HETATM    1  C   UNL     1     -14.291   7.431  71.627  1.00  0.00    -0.614 C  
HETATM    2  C   UNL     1     -14.095   8.836  72.166  1.00  0.00    -0.450 C  
ENDROOT
BRANCH   2   3
HETATM    3  O   UNL     1     -13.883   9.700  71.046  1.00  0.00    -0.219 OA 
BRANCH   3   4
HETATM    4  C   UNL     1     -12.905  10.624  71.212  1.00  0.00    -0.434 C  
HETATM    5  O   UNL     1     -12.933  11.560  71.997  1.00  0.00    -0.433 OA 
BRANCH   4   6
HETATM    6  C   UNL     1     -11.724  10.315  70.360  1.00  0.00    -0.404 C  
HETATM    7  C   UNL     1     -10.559   9.915  70.890  1.00  0.00    -0.254 C  
HETATM    8  C   UNL     1      -9.437   9.362  70.075  1.00  0.00    -0.228 C  
HETATM    9  H2  UNL     1     -11.120   8.158  67.470  1.00  0.00     0.000 HD 
HETATM   10  C   UNL     1      -9.397   9.897  68.617  1.00  0.00    -0.149 C  
HETATM   11  H1  UNL     1     -12.053   9.234  66.570  1.00  0.00     0.000 HD 
HETATM   12  C   UNL     1     -11.968  10.432  68.889  1.00  0.00     0.076 C  
HETATM   13  C   UNL     1     -10.780  10.151  67.945  1.00  0.00    -0.269 C  
HETATM   14  N   UNL     1     -11.147   9.068  67.010  1.00  0.00     0.230 NA 
BRANCH   8  15
HETATM   15  O   UNL     1      -9.642   7.958  70.227  1.00  0.00    -0.171 OA 
BRANCH  15  16
HETATM   16  C   UNL     1      -8.541   7.129  70.589  1.00  0.00    -0.143 C  
BRANCH  16  17
HETATM   17  C   UNL     1      -9.045   6.188  71.698  1.00  0.00    -0.147 C  
HETATM   18  C   UNL     1      -9.428   4.806  71.179  1.00  0.00    -0.218 C  
ENDBRANCH  16  17
BRANCH  16  19
HETATM   19  C   UNL     1      -7.315   7.936  71.050  1.00  0.00    -0.062 C  
HETATM   20  C   UNL     1      -7.101   7.952  72.559  1.00  0.00    -0.095 C  
ENDBRANCH  16  19
ENDBRANCH  15  16
ENDBRANCH   8  15
BRANCH  10  21
HETATM   21  N   UNL     1      -8.542  11.101  68.512  1.00  0.00    -0.152 N  
HETATM   22  H   UNL     1      -8.638  11.845  69.203  1.00  0.00     0.000 HD 
HETATM   23  C   UNL     1      -7.620  11.232  67.498  1.00  0.00    -0.110 C  
HETATM   24  C   UNL     1      -6.798  12.492  67.554  1.00  0.00    -0.150 C  
HETATM   25  O   UNL     1      -7.459  10.399  66.615  1.00  0.00    -0.105 OA 
ENDBRANCH  10  21
ENDBRANCH   4   6
ENDBRANCH   3   4
ENDBRANCH   2   3
TORSDOF 8
ENDMDL
MODEL      191
REMARK 921   NORMALIZED FREE ENERGY PREDICTED BY IDOCK:   -3.09 KCAL/MOL
REMARK 922        TOTAL FREE ENERGY PREDICTED BY IDOCK:   -5.48 KCAL/MOL
REMARK 923 INTER-LIGAND FREE ENERGY PREDICTED BY IDOCK:   -6.23 KCAL/MOL
REMARK 924 INTRA-LIGAND FREE ENERGY PREDICTED BY IDOCK:    0.75 KCAL/MOL
REMARK 927      BINDING AFFINITY PREDICTED BY RF-SCORE:    0.00 PKD
ROOT
HETATM    1  C   UNL     1     -11.267  16.330  64.795  1.00  0.00    -0.267 C  
HETATM    2  C   UNL     1     -12.102  15.214  64.194  1.00  0.00    -0.176 C  
ENDROOT
BRANCH   2   3
HETATM    3  O   UNL     1     -12.795  14.571  65.268  1.00  0.00    -0.471 OA 
BRANCH   3   4
HETATM    4  C   UNL     1     -12.587  13.234  65.364  1.00  0.00    -0.468 C  
HETATM    5  O   UNL     1     -12.849  12.407  64.503  1.00  0.00    -0.680 OA 
BRANCH   4   6
HETATM    6  C   UNL     1     -11.911  12.887  66.644  1.00  0.00    -0.436 C  
HETATM    7  C   UNL     1     -11.879  11.628  67.105  1.00  0.00    -0.090 C  
HETATM    8  C   UNL     1     -11.013  11.194  68.241  1.00  0.00    -0.226 C  
HETATM    9  H2  UNL     1      -8.579  13.453  68.040  1.00  0.00     0.000 HD 
HETATM   10  C   UNL     1     -10.708  12.322  69.264  1.00  0.00     0.039 C  
HETATM   11  H1  UNL     1      -9.000  15.078  68.181  1.00  0.00     0.000 HD 
HETATM   12  C   UNL     1     -11.235  14.034  67.324  1.00  0.00    -0.328 C  
HETATM   13  C   UNL     1     -10.535  13.753  68.670  1.00  0.00    -0.239 C  
HETATM   14  N   UNL     1      -9.113  14.141  68.570  1.00  0.00    -0.192 NA 
BRANCH   8  15
HETATM   15  O   UNL     1      -9.891  10.648  67.548  1.00  0.00    -0.164 OA 
BRANCH  15  16
HETATM   16  C   UNL     1      -9.722   9.235  67.502  1.00  0.00    -0.158 C  
BRANCH  16  17
HETATM   17  C   UNL     1     -10.267   8.684  68.833  1.00  0.00    -0.221 C  
HETATM   18  C   UNL     1     -10.615   7.200  68.765  1.00  0.00    -0.219 C  
ENDBRANCH  16  17
BRANCH  16  19
HETATM   19  C   UNL     1      -8.258   8.817  67.277  1.00  0.00    -0.104 C  
HETATM   20  C   UNL     1      -7.338   9.078  68.463  1.00  0.00    -0.077 C  
ENDBRANCH  16  19
ENDBRANCH  15  16
ENDBRANCH   8  15
BRANCH  10  21
HETATM   21  N   UNL     1     -11.703  12.334  70.360  1.00  0.00    -0.534 N  
HETATM   22  H   UNL     1     -11.867  11.482  70.896  1.00  0.00     0.000 HD 
HETATM   23  C   UNL     1     -12.409  13.476  70.667  1.00  0.00    -0.358 C  
HETATM   24  C   UNL     1     -13.350  13.338  71.835  1.00  0.00    -0.540 C  
HETATM   25  O   UNL     1     -12.291  14.531  70.058  1.00  0.00    -0.321 OA 
ENDBRANCH  10  21
ENDBRANCH   4   6
ENDBRANCH   3   4
ENDBRANCH   2   3
TORSDOF 8
ENDMDL
MODEL      192
REMARK 921   NORMALIZED FREE ENERGY PREDICTED BY IDOCK:   -3.08 KCAL/MOL
REMARK 922        TOTAL FREE ENERGY PREDICTED BY IDOCK:   -5.47 KCAL/MOL
REMARK 923 INTER-LIGAND FREE ENERGY PREDICTED BY IDOCK:   -5.19 KCAL/MOL
REMARK 924 INTRA-LIGAND FREE ENERGY PREDICTED BY IDOCK:   -0.27 KCAL/MOL
REMARK 927      BINDING AFFINITY PREDICTED BY RF-SCORE:    0.00 PKD
ROOT
HETATM    1  C   UNL     1     -14.272   7.505  71.909  1.00  0.00    -0.477 C  
HETATM    2  C   UNL     1     -13.151   7.077  70.979  1.00  0.00    -0.092 C  
ENDROOT
BRANCH   2   3
HETATM    3  O   UNL     1     -12.098   6.550  71.790  1.00  0.00    -0.338 OA 
BRANCH   3   4
HETATM    4  C   UNL     1     -11.172   7.457  72.188  1.00  0.00    -0.262 C  
HETATM    5  O   UNL     1     -10.892   7.730  73.346  1.00  0.00    -0.341 OA 
BRANCH   4   6
HETATM    6  C   UNL     1     -10.459   8.045  71.020  1.00  0.00    -0.229 C  
HETATM    7  C   UNL     1     -11.119   8.664  70.031  1.00  0.00    -0.161 C  
HETATM    8  C   UNL     1     -10.440   9.476  68.978  1.00  0.00    -0.213 C  
HETATM    9  H2  UNL     1      -7.686  10.392  70.604  1.00  0.00     0.000 HD 
HETATM   10  C   UNL     1      -8.987   9.018  68.672  1.00  0.00    -0.137 C  
HETATM   11  H1  UNL     1      -6.673   9.177  71.183  1.00  0.00     0.000 HD 
HETATM   12  C   UNL     1      -8.968   7.936  71.080  1.00  0.00    -0.153 C  
HETATM   13  C   UNL     1      -8.165   8.500  69.890  1.00  0.00    -0.121 C  
HETATM   14  N   UNL     1      -7.212   9.516  70.385  1.00  0.00    -0.112 NA 
BRANCH   8  15
HETATM   15  O   UNL     1     -10.591  10.796  69.498  1.00  0.00    -0.223 OA 
BRANCH  15  16
HETATM   16  C   UNL     1     -11.890  11.380  69.546  1.00  0.00    -0.357 C  
BRANCH  16  17
HETATM   17  C   UNL     1     -11.972  12.368  68.368  1.00  0.00    -0.269 C  
HETATM   18  C   UNL     1     -11.898  13.827  68.806  1.00  0.00    -0.398 C  
ENDBRANCH  16  17
BRANCH  16  19
HETATM   19  C   UNL     1     -12.179  12.078  70.886  1.00  0.00    -0.325 C  
HETATM   20  C   UNL     1     -13.115  11.308  71.810  1.00  0.00    -0.527 C  
ENDBRANCH  16  19
ENDBRANCH  15  16
ENDBRANCH   8  15
BRANCH  10  21
HETATM   21  N   UNL     1      -8.958   8.031  67.571  1.00  0.00    -0.137 N  
HETATM   22  H   UNL     1      -9.524   7.184  67.641  1.00  0.00     0.000 HD 
HETATM   23  C   UNL     1      -8.180   8.235  66.453  1.00  0.00    -0.107 C  
HETATM   24  C   UNL     1      -8.293   7.162  65.403  1.00  0.00    -0.122 C  
HETATM   25  O   UNL     1      -7.454   9.209  66.301  1.00  0.00    -0.090 OA 
ENDBRANCH  10  21
ENDBRANCH   4   6
ENDBRANCH   3   4
ENDBRANCH   2   3
TORSDOF 8
ENDMDL
MODEL      193
REMARK 921   NORMALIZED FREE ENERGY PREDICTED BY IDOCK:   -3.05 KCAL/MOL
REMARK 922        TOTAL FREE ENERGY PREDICTED BY IDOCK:   -5.42 KCAL/MOL
REMARK 923 INTER-LIGAND FREE ENERGY PREDICTED BY IDOCK:   -6.17 KCAL/MOL
REMARK 924 INTRA-LIGAND FREE ENERGY PREDICTED BY IDOCK:    0.74 KCAL/MOL
REMARK 927      BINDING AFFINITY PREDICTED BY RF-SCORE:    0.00 PKD
ROOT
HETATM    1  C   UNL     1     -13.329  11.858  72.017  1.00  0.00    -0.425 C  
HETATM    2  C   UNL     1     -12.988  10.491  71.450  1.00  0.00    -0.440 C  
ENDROOT
BRANCH   2   3
HETATM    3  O   UNL     1     -11.939  10.673  70.495  1.00  0.00    -0.291 OA 
BRANCH   3   4
HETATM    4  C   UNL     1     -10.929   9.772  70.574  1.00  0.00    -0.321 C  
HETATM    5  O   UNL     1     -10.554   9.208  71.592  1.00  0.00    -0.339 OA 
BRANCH   4   6
HETATM    6  C   UNL     1     -10.362   9.479  69.229  1.00  0.00    -0.219 C  
HETATM    7  C   UNL     1     -10.971   9.886  68.105  1.00  0.00    -0.261 C  
HETATM    8  C   UNL     1     -10.324   9.834  66.761  1.00  0.00    -0.218 C  
HETATM    9  H2  UNL     1      -7.116   9.998  67.628  1.00  0.00     0.000 HD 
HETATM   10  C   UNL     1      -9.266   8.706  66.616  1.00  0.00    -0.181 C  
HETATM   11  H1  UNL     1      -6.512   8.795  68.640  1.00  0.00     0.000 HD 
HETATM   12  C   UNL     1      -9.052   8.759  69.247  1.00  0.00    -0.145 C  
HETATM   13  C   UNL     1      -8.417   8.400  67.888  1.00  0.00    -0.131 C  
HETATM   14  N   UNL     1      -7.068   8.995  67.808  1.00  0.00    -0.078 NA 
BRANCH   8  15
HETATM   15  O   UNL     1      -9.845  11.172  66.626  1.00  0.00    -0.191 OA 
BRANCH  15  16
HETATM   16  C   UNL     1     -10.208  11.927  65.474  1.00  0.00    -0.254 C  
BRANCH  16  17
HETATM   17  C   UNL     1     -11.471  12.723  65.850  1.00  0.00    -0.399 C  
HETATM   18  C   UNL     1     -11.998  13.581  64.705  1.00  0.00    -0.424 C  
ENDBRANCH  16  17
BRANCH  16  19
HETATM   19  C   UNL     1     -10.446  11.047  64.235  1.00  0.00    -0.427 C  
HETATM   20  C   UNL     1      -9.615  11.433  63.017  1.00  0.00    -0.397 C  
ENDBRANCH  16  19
ENDBRANCH  15  16
ENDBRANCH   8  15
BRANCH  10  21
HETATM   21  N   UNL     1      -9.875   7.465  66.090  1.00  0.00    -0.435 N  
HETATM   22  H   UNL     1      -9.936   7.325  65.081  1.00  0.00     0.000 HD 
HETATM   23  C   UNL     1     -10.360   6.495  66.939  1.00  0.00    -0.243 C  
HETATM   24  C   UNL     1     -10.909   5.273  66.250  1.00  0.00    -0.181 C  
HETATM   25  O   UNL     1     -10.348   6.594  68.159  1.00  0.00    -0.161 OA 
ENDBRANCH  10  21
ENDBRANCH   4   6
ENDBRANCH   3   4
ENDBRANCH   2   3
TORSDOF 8
ENDMDL
MODEL      194
REMARK 921   NORMALIZED FREE ENERGY PREDICTED BY IDOCK:   -3.04 KCAL/MOL
REMARK 922        TOTAL FREE ENERGY PREDICTED BY IDOCK:   -5.40 KCAL/MOL
REMARK 923 INTER-LIGAND FREE ENERGY PREDICTED BY IDOCK:   -4.38 KCAL/MOL
REMARK 924 INTRA-LIGAND FREE ENERGY PREDICTED BY IDOCK:   -1.03 KCAL/MOL
REMARK 927      BINDING AFFINITY PREDICTED BY RF-SCORE:    0.00 PKD
ROOT
HETATM    1  C   UNL     1      -6.946   4.605  66.616  1.00  0.00    -0.063 C  
HETATM    2  C   UNL     1      -6.831   4.356  68.109  1.00  0.00    -0.055 C  
ENDROOT
BRANCH   2   3
HETATM    3  O   UNL     1      -6.564   5.615  68.734  1.00  0.00    -0.044 OA 
BRANCH   3   4
HETATM    4  C   UNL     1      -7.310   5.876  69.836  1.00  0.00    -0.075 C  
HETATM    5  O   UNL     1      -7.463   5.126  70.789  1.00  0.00    -0.069 OA 
BRANCH   4   6
HETATM    6  C   UNL     1      -7.876   7.253  69.788  1.00  0.00    -0.117 C  
HETATM    7  C   UNL     1      -9.182   7.485  69.985  1.00  0.00    -0.151 C  
HETATM    8  C   UNL     1      -9.748   8.850  70.190  1.00  0.00    -0.179 C  
HETATM    9  H2  UNL     1      -7.093  10.423  71.433  1.00  0.00     0.000 HD 
HETATM   10  C   UNL     1      -8.932   9.979  69.501  1.00  0.00    -0.205 C  
HETATM   11  H1  UNL     1      -5.698  10.478  70.490  1.00  0.00     0.000 HD 
HETATM   12  C   UNL     1      -6.867   8.334  69.565  1.00  0.00    -0.042 C  
HETATM   13  C   UNL     1      -7.385   9.785  69.478  1.00  0.00    -0.092 C  
HETATM   14  N   UNL     1      -6.711  10.605  70.506  1.00  0.00    -0.317 NA 
BRANCH   8  15
HETATM   15  O   UNL     1      -9.832   8.910  71.614  1.00  0.00    -0.281 OA 
BRANCH  15  16
HETATM   16  C   UNL     1     -11.091   8.696  72.246  1.00  0.00    -0.325 C  
BRANCH  16  17
HETATM   17  C   UNL     1     -10.909   7.495  73.192  1.00  0.00    -0.448 C  
HETATM   18  C   UNL     1      -9.499   7.395  73.764  1.00  0.00    -0.328 C  
ENDBRANCH  16  17
BRANCH  16  19
HETATM   19  C   UNL     1     -12.229   8.451  71.239  1.00  0.00    -0.305 C  
HETATM   20  C   UNL     1     -12.936   7.111  71.399  1.00  0.00    -0.419 C  
ENDBRANCH  16  19
ENDBRANCH  15  16
ENDBRANCH   8  15
BRANCH  10  21
HETATM   21  N   UNL     1      -9.440  10.250  68.139  1.00  0.00    -0.145 N  
HETATM   22  H   UNL     1      -9.068   9.720  67.350  1.00  0.00     0.000 HD 
HETATM   23  C   UNL     1     -10.406  11.207  67.917  1.00  0.00    -0.185 C  
HETATM   24  C   UNL     1     -10.849  11.334  66.484  1.00  0.00    -0.319 C  
HETATM   25  O   UNL     1     -10.886  11.903  68.802  1.00  0.00    -0.216 OA 
ENDBRANCH  10  21
ENDBRANCH   4   6
ENDBRANCH   3   4
ENDBRANCH   2   3
TORSDOF 8
ENDMDL
MODEL      195
REMARK 921   NORMALIZED FREE ENERGY PREDICTED BY IDOCK:   -3.04 KCAL/MOL
REMARK 922        TOTAL FREE ENERGY PREDICTED BY IDOCK:   -5.40 KCAL/MOL
REMARK 923 INTER-LIGAND FREE ENERGY PREDICTED BY IDOCK:   -4.50 KCAL/MOL
REMARK 924 INTRA-LIGAND FREE ENERGY PREDICTED BY IDOCK:   -0.90 KCAL/MOL
REMARK 927      BINDING AFFINITY PREDICTED BY RF-SCORE:    0.00 PKD
ROOT
HETATM    1  C   UNL     1      -5.504   9.482  68.206  1.00  0.00    -0.037 C  
HETATM    2  C   UNL     1      -6.248   8.995  66.975  1.00  0.00    -0.059 C  
ENDROOT
BRANCH   2   3
HETATM    3  O   UNL     1      -7.180   7.998  67.404  1.00  0.00    -0.084 OA 
BRANCH   3   4
HETATM    4  C   UNL     1      -8.481   8.379  67.373  1.00  0.00    -0.124 C  
HETATM    5  O   UNL     1      -9.042   8.927  66.436  1.00  0.00    -0.152 OA 
BRANCH   4   6
HETATM    6  C   UNL     1      -9.191   7.971  68.616  1.00  0.00    -0.143 C  
HETATM    7  C   UNL     1      -9.677   6.731  68.775  1.00  0.00    -0.132 C  
HETATM    8  C   UNL     1     -10.171   6.207  70.083  1.00  0.00    -0.199 C  
HETATM    9  H2  UNL     1      -8.417   8.094  72.189  1.00  0.00     0.000 HD 
HETATM   10  C   UNL     1     -10.729   7.306  71.029  1.00  0.00    -0.231 C  
HETATM   11  H1  UNL     1      -8.606   9.765  72.092  1.00  0.00     0.000 HD 
HETATM   12  C   UNL     1      -9.257   9.027  69.673  1.00  0.00    -0.160 C  
HETATM   13  C   UNL     1     -10.000   8.683  70.980  1.00  0.00    -0.215 C  
HETATM   14  N   UNL     1      -9.083   8.864  72.124  1.00  0.00    -0.380 NA 
BRANCH   8  15
HETATM   15  O   UNL     1      -9.027   5.492  70.550  1.00  0.00    -0.132 OA 
BRANCH  15  16
HETATM   16  C   UNL     1      -8.927   5.167  71.933  1.00  0.00    -0.134 C  
BRANCH  16  17
HETATM   17  C   UNL     1      -7.431   4.956  72.228  1.00  0.00    -0.089 C  
HETATM   18  C   UNL     1      -6.546   6.044  71.629  1.00  0.00    -0.054 C  
ENDBRANCH  16  17
BRANCH  16  19
HETATM   19  C   UNL     1      -9.756   3.928  72.315  1.00  0.00    -0.217 C  
HETATM   20  C   UNL     1     -10.943   4.219  73.226  1.00  0.00    -0.334 C  
ENDBRANCH  16  19
ENDBRANCH  15  16
ENDBRANCH   8  15
BRANCH  10  21
HETATM   21  N   UNL     1     -12.185   7.484  70.841  1.00  0.00    -0.485 N  
HETATM   22  H   UNL     1     -12.649   7.028  70.054  1.00  0.00     0.000 HD 
HETATM   23  C   UNL     1     -12.926   8.255  71.709  1.00  0.00    -0.344 C  
HETATM   24  C   UNL     1     -14.400   8.302  71.408  1.00  0.00    -0.461 C  
HETATM   25  O   UNL     1     -12.445   8.856  72.661  1.00  0.00    -0.331 OA 
ENDBRANCH  10  21
ENDBRANCH   4   6
ENDBRANCH   3   4
ENDBRANCH   2   3
TORSDOF 8
ENDMDL
MODEL      196
REMARK 921   NORMALIZED FREE ENERGY PREDICTED BY IDOCK:   -3.02 KCAL/MOL
REMARK 922        TOTAL FREE ENERGY PREDICTED BY IDOCK:   -5.38 KCAL/MOL
REMARK 923 INTER-LIGAND FREE ENERGY PREDICTED BY IDOCK:   -4.73 KCAL/MOL
REMARK 924 INTRA-LIGAND FREE ENERGY PREDICTED BY IDOCK:   -0.65 KCAL/MOL
REMARK 927      BINDING AFFINITY PREDICTED BY RF-SCORE:    0.00 PKD
ROOT
HETATM    1  C   UNL     1      -6.253   8.426  72.494  1.00  0.00    -0.074 C  
HETATM    2  C   UNL     1      -5.925   8.606  71.022  1.00  0.00    -0.038 C  
ENDROOT
BRANCH   2   3
HETATM    3  O   UNL     1      -7.165   8.682  70.313  1.00  0.00    -0.045 OA 
BRANCH   3   4
HETATM    4  C   UNL     1      -7.519   9.928  69.911  1.00  0.00    -0.154 C  
HETATM    5  O   UNL     1      -6.986  10.970  70.264  1.00  0.00    -0.177 OA 
BRANCH   4   6
HETATM    6  C   UNL     1      -8.613   9.877  68.902  1.00  0.00    -0.135 C  
HETATM    7  C   UNL     1      -8.708   8.874  68.017  1.00  0.00    -0.133 C  
HETATM    8  C   UNL     1      -9.909   8.651  67.160  1.00  0.00    -0.207 C  
HETATM    9  H2  UNL     1     -12.262  10.065  69.040  1.00  0.00     0.000 HD 
HETATM   10  C   UNL     1     -10.699   9.949  66.836  1.00  0.00    -0.125 C  
HETATM   11  H1  UNL     1     -12.085  11.695  69.427  1.00  0.00     0.000 HD 
HETATM   12  C   UNL     1      -9.607  10.989  69.003  1.00  0.00    -0.136 C  
HETATM   13  C   UNL     1     -10.754  11.015  67.972  1.00  0.00    -0.217 C  
HETATM   14  N   UNL     1     -12.049  10.997  68.684  1.00  0.00    -0.555 NA 
BRANCH   8  15
HETATM   15  O   UNL     1     -10.608   7.655  67.907  1.00  0.00    -0.212 OA 
BRANCH  15  16
HETATM   16  C   UNL     1     -10.125   7.285  69.195  1.00  0.00    -0.183 C  
BRANCH  16  17
HETATM   17  C   UNL     1      -9.768   5.789  69.118  1.00  0.00    -0.189 C  
HETATM   18  C   UNL     1      -8.495   5.440  69.881  1.00  0.00    -0.103 C  
ENDBRANCH  16  17
BRANCH  16  19
HETATM   19  C   UNL     1     -11.141   7.565  70.315  1.00  0.00    -0.263 C  
HETATM   20  C   UNL     1     -10.577   8.335  71.503  1.00  0.00    -0.296 C  
ENDBRANCH  16  19
ENDBRANCH  15  16
ENDBRANCH   8  15
BRANCH  10  21
HETATM   21  N   UNL     1     -10.228  10.561  65.574  1.00  0.00    -0.272 N  
HETATM   22  H   UNL     1      -9.378  10.209  65.133  1.00  0.00     0.000 HD 
HETATM   23  C   UNL     1     -10.918  11.597  64.985  1.00  0.00    -0.273 C  
HETATM   24  C   UNL     1     -10.336  12.082  63.684  1.00  0.00    -0.482 C  
HETATM   25  O   UNL     1     -11.931  12.094  65.461  1.00  0.00    -0.461 OA 
ENDBRANCH  10  21
ENDBRANCH   4   6
ENDBRANCH   3   4
ENDBRANCH   2   3
TORSDOF 8
ENDMDL
MODEL      197
REMARK 921   NORMALIZED FREE ENERGY PREDICTED BY IDOCK:   -3.02 KCAL/MOL
REMARK 922        TOTAL FREE ENERGY PREDICTED BY IDOCK:   -5.38 KCAL/MOL
REMARK 923 INTER-LIGAND FREE ENERGY PREDICTED BY IDOCK:   -5.32 KCAL/MOL
REMARK 924 INTRA-LIGAND FREE ENERGY PREDICTED BY IDOCK:   -0.06 KCAL/MOL
REMARK 927      BINDING AFFINITY PREDICTED BY RF-SCORE:    0.00 PKD
ROOT
HETATM    1  C   UNL     1      -9.971  17.931  65.955  1.00  0.00    -0.217 C  
HETATM    2  C   UNL     1     -11.270  17.295  65.492  1.00  0.00     0.502 C  
ENDROOT
BRANCH   2   3
HETATM    3  O   UNL     1     -10.930  16.150  64.706  1.00  0.00    -0.594 OA 
BRANCH   3   4
HETATM    4  C   UNL     1     -11.742  15.077  64.875  1.00  0.00    -0.336 C  
HETATM    5  O   UNL     1     -12.936  15.037  64.614  1.00  0.00    -0.229 OA 
BRANCH   4   6
HETATM    6  C   UNL     1     -10.977  13.894  65.356  1.00  0.00    -0.316 C  
HETATM    7  C   UNL     1     -10.734  13.695  66.660  1.00  0.00    -0.280 C  
HETATM    8  C   UNL     1     -10.194  12.415  67.205  1.00  0.00    -0.215 C  
HETATM    9  H2  UNL     1     -11.248  10.278  64.882  1.00  0.00     0.000 HD 
HETATM   10  C   UNL     1      -9.310  11.628  66.199  1.00  0.00    -0.224 C  
HETATM   11  H1  UNL     1     -10.739  10.527  63.296  1.00  0.00     0.000 HD 
HETATM   12  C   UNL     1     -10.565  12.939  64.282  1.00  0.00    -0.430 C  
HETATM   13  C   UNL     1      -9.746  11.702  64.705  1.00  0.00    -0.185 C  
HETATM   14  N   UNL     1     -10.454  10.479  64.275  1.00  0.00    -0.172 NA 
BRANCH   8  15
HETATM   15  O   UNL     1     -11.390  11.766  67.638  1.00  0.00    -0.262 OA 
BRANCH  15  16
HETATM   16  C   UNL     1     -11.888  12.028  68.947  1.00  0.00    -0.299 C  
BRANCH  16  17
HETATM   17  C   UNL     1     -11.534  13.493  69.266  1.00  0.00    -0.345 C  
HETATM   18  C   UNL     1     -12.412  14.093  70.360  1.00  0.00    -0.424 C  
ENDBRANCH  16  17
BRANCH  16  19
HETATM   19  C   UNL     1     -11.317  11.068  70.005  1.00  0.00    -0.358 C  
HETATM   20  C   UNL     1     -11.006   9.669  69.486  1.00  0.00    -0.233 C  
ENDBRANCH  16  19
ENDBRANCH  15  16
ENDBRANCH   8  15
BRANCH  10  21
HETATM   21  N   UNL     1      -7.884  11.994  66.341  1.00  0.00    -0.375 N  
HETATM   22  H   UNL     1      -7.501  12.752  65.774  1.00  0.00     0.000 HD 
HETATM   23  C   UNL     1      -7.063  11.329  67.226  1.00  0.00    -0.114 C  
HETATM   24  C   UNL     1      -5.651  11.848  67.285  1.00  0.00    -0.125 C  
HETATM   25  O   UNL     1      -7.434  10.394  67.924  1.00  0.00    -0.086 OA 
ENDBRANCH  10  21
ENDBRANCH   4   6
ENDBRANCH   3   4
ENDBRANCH   2   3
TORSDOF 8
ENDMDL
MODEL      198
REMARK 921   NORMALIZED FREE ENERGY PREDICTED BY IDOCK:   -3.01 KCAL/MOL
REMARK 922        TOTAL FREE ENERGY PREDICTED BY IDOCK:   -5.36 KCAL/MOL
REMARK 923 INTER-LIGAND FREE ENERGY PREDICTED BY IDOCK:   -4.41 KCAL/MOL
REMARK 924 INTRA-LIGAND FREE ENERGY PREDICTED BY IDOCK:   -0.95 KCAL/MOL
REMARK 927      BINDING AFFINITY PREDICTED BY RF-SCORE:    0.00 PKD
ROOT
HETATM    1  C   UNL     1      -9.627   5.002  72.329  1.00  0.00    -0.184 C  
HETATM    2  C   UNL     1     -10.407   6.304  72.348  1.00  0.00    -0.191 C  
ENDROOT
BRANCH   2   3
HETATM    3  O   UNL     1     -10.029   7.047  71.185  1.00  0.00    -0.184 OA 
BRANCH   3   4
HETATM    4  C   UNL     1     -10.808   6.838  70.094  1.00  0.00    -0.266 C  
HETATM    5  O   UNL     1     -11.978   6.487  70.110  1.00  0.00    -0.383 OA 
BRANCH   4   6
HETATM    6  C   UNL     1     -10.077   7.171  68.841  1.00  0.00    -0.177 C  
HETATM    7  C   UNL     1     -10.627   7.936  67.887  1.00  0.00    -0.215 C  
HETATM    8  C   UNL     1      -9.853   8.495  66.739  1.00  0.00    -0.257 C  
HETATM    9  H2  UNL     1      -6.803   8.604  68.065  1.00  0.00     0.000 HD 
HETATM   10  C   UNL     1      -8.630   7.630  66.326  1.00  0.00    -0.144 C  
HETATM   11  H1  UNL     1      -6.129   7.159  68.608  1.00  0.00     0.000 HD 
HETATM   12  C   UNL     1      -8.682   6.635  68.771  1.00  0.00    -0.128 C  
HETATM   13  C   UNL     1      -7.873   6.919  67.489  1.00  0.00    -0.112 C  
HETATM   14  N   UNL     1      -6.625   7.624  67.847  1.00  0.00    -0.057 NA 
BRANCH   8  15
HETATM   15  O   UNL     1      -9.566   9.812  67.207  1.00  0.00    -0.150 OA 
BRANCH  15  16
HETATM   16  C   UNL     1      -9.530  10.889  66.275  1.00  0.00    -0.194 C  
BRANCH  16  17
HETATM   17  C   UNL     1     -10.100  12.120  67.003  1.00  0.00    -0.219 C  
HETATM   18  C   UNL     1     -11.177  11.763  68.023  1.00  0.00    -0.324 C  
ENDBRANCH  16  17
BRANCH  16  19
HETATM   19  C   UNL     1     -10.312  10.586  64.985  1.00  0.00    -0.310 C  
HETATM   20  C   UNL     1      -9.584  10.965  63.701  1.00  0.00    -0.339 C  
ENDBRANCH  16  19
ENDBRANCH  15  16
ENDBRANCH   8  15
BRANCH  10  21
HETATM   21  N   UNL     1      -8.996   6.655  65.275  1.00  0.00    -0.357 N  
HETATM   22  H   UNL     1      -9.963   6.340  65.197  1.00  0.00     0.000 HD 
HETATM   23  C   UNL     1      -8.051   6.165  64.399  1.00  0.00    -0.102 C  
HETATM   24  C   UNL     1      -8.588   5.216  63.361  1.00  0.00    -0.081 C  
HETATM   25  O   UNL     1      -6.866   6.471  64.440  1.00  0.00    -0.040 OA 
ENDBRANCH  10  21
ENDBRANCH   4   6
ENDBRANCH   3   4
ENDBRANCH   2   3
TORSDOF 8
ENDMDL
MODEL      199
REMARK 921   NORMALIZED FREE ENERGY PREDICTED BY IDOCK:   -2.97 KCAL/MOL
REMARK 922        TOTAL FREE ENERGY PREDICTED BY IDOCK:   -5.30 KCAL/MOL
REMARK 923 INTER-LIGAND FREE ENERGY PREDICTED BY IDOCK:   -4.28 KCAL/MOL
REMARK 924 INTRA-LIGAND FREE ENERGY PREDICTED BY IDOCK:   -1.02 KCAL/MOL
REMARK 927      BINDING AFFINITY PREDICTED BY RF-SCORE:    0.00 PKD
ROOT
HETATM    1  C   UNL     1     -12.138  13.405  66.481  1.00  0.00    -0.444 C  
HETATM    2  C   UNL     1     -11.434  12.980  67.757  1.00  0.00    -0.316 C  
ENDROOT
BRANCH   2   3
HETATM    3  O   UNL     1     -11.293  11.557  67.716  1.00  0.00    -0.260 OA 
BRANCH   3   4
HETATM    4  C   UNL     1     -11.704  10.908  68.834  1.00  0.00    -0.306 C  
HETATM    5  O   UNL     1     -12.764  11.089  69.415  1.00  0.00    -0.279 OA 
BRANCH   4   6
HETATM    6  C   UNL     1     -10.723   9.866  69.242  1.00  0.00    -0.247 C  
HETATM    7  C   UNL     1      -9.766   9.434  68.407  1.00  0.00    -0.163 C  
HETATM    8  C   UNL     1      -8.621   8.582  68.845  1.00  0.00    -0.127 C  
HETATM    9  H2  UNL     1      -8.421   9.446  72.052  1.00  0.00     0.000 HD 
HETATM   10  C   UNL     1      -8.942   7.682  70.070  1.00  0.00    -0.143 C  
HETATM   11  H1  UNL     1      -9.775   9.191  73.021  1.00  0.00     0.000 HD 
HETATM   12  C   UNL     1     -10.861   9.398  70.656  1.00  0.00    -0.346 C  
HETATM   13  C   UNL     1      -9.893   8.298  71.139  1.00  0.00    -0.175 C  
HETATM   14  N   UNL     1      -9.153   8.787  72.321  1.00  0.00    -0.390 NA 
BRANCH   8  15
HETATM   15  O   UNL     1      -7.597   9.560  69.029  1.00  0.00    -0.072 OA 
BRANCH  15  16
HETATM   16  C   UNL     1      -6.489   9.583  68.135  1.00  0.00    -0.057 C  
BRANCH  16  17
HETATM   17  C   UNL     1      -6.644  10.851  67.276  1.00  0.00    -0.078 C  
HETATM   18  C   UNL     1      -7.247  10.572  65.903  1.00  0.00    -0.135 C  
ENDBRANCH  16  17
BRANCH  16  19
HETATM   19  C   UNL     1      -6.403   8.319  67.261  1.00  0.00    -0.057 C  
HETATM   20  C   UNL     1      -5.242   7.393  67.604  1.00  0.00    -0.021 C  
ENDBRANCH  16  19
ENDBRANCH  15  16
ENDBRANCH   8  15
BRANCH  10  21
HETATM   21  N   UNL     1      -9.435   6.354  69.642  1.00  0.00    -0.147 N  
HETATM   22  H   UNL     1     -10.039   6.283  68.823  1.00  0.00     0.000 HD 
HETATM   23  C   UNL     1      -9.092   5.212  70.332  1.00  0.00    -0.134 C  
HETATM   24  C   UNL     1      -9.637   3.936  69.747  1.00  0.00    -0.271 C  
HETATM   25  O   UNL     1      -8.393   5.211  71.337  1.00  0.00    -0.115 OA 
ENDBRANCH  10  21
ENDBRANCH   4   6
ENDBRANCH   3   4
ENDBRANCH   2   3
TORSDOF 8
ENDMDL
MODEL      200
REMARK 921   NORMALIZED FREE ENERGY PREDICTED BY IDOCK:   -2.96 KCAL/MOL
REMARK 922        TOTAL FREE ENERGY PREDICTED BY IDOCK:   -5.29 KCAL/MOL
REMARK 923 INTER-LIGAND FREE ENERGY PREDICTED BY IDOCK:   -4.42 KCAL/MOL
REMARK 924 INTRA-LIGAND FREE ENERGY PREDICTED BY IDOCK:   -0.87 KCAL/MOL
REMARK 927      BINDING AFFINITY PREDICTED BY RF-SCORE:    0.00 PKD
ROOT
HETATM    1  C   UNL     1     -10.479   2.687  72.949  1.00  0.00    -0.236 C  
HETATM    2  C   UNL     1      -9.949   4.109  72.919  1.00  0.00    -0.150 C  
ENDROOT
BRANCH   2   3
HETATM    3  O   UNL     1     -10.165   4.619  71.600  1.00  0.00    -0.195 OA 
BRANCH   3   4
HETATM    4  C   UNL     1     -10.932   5.736  71.536  1.00  0.00    -0.239 C  
HETATM    5  O   UNL     1     -11.753   6.086  72.371  1.00  0.00    -0.309 OA 
BRANCH   4   6
HETATM    6  C   UNL     1     -10.594   6.552  70.338  1.00  0.00    -0.282 C  
HETATM    7  C   UNL     1      -9.673   7.526  70.386  1.00  0.00    -0.179 C  
HETATM    8  C   UNL     1      -9.128   8.197  69.169  1.00  0.00    -0.148 C  
HETATM    9  H2  UNL     1      -9.581   5.800  66.905  1.00  0.00     0.000 HD 
HETATM   10  C   UNL     1     -10.118   8.227  67.972  1.00  0.00    -0.198 C  
HETATM   11  H1  UNL     1     -11.152   5.251  66.646  1.00  0.00     0.000 HD 
HETATM   12  C   UNL     1     -11.316   6.156  69.089  1.00  0.00    -0.303 C  
HETATM   13  C   UNL     1     -11.034   6.976  67.813  1.00  0.00    -0.164 C  
HETATM   14  N   UNL     1     -10.553   6.070  66.750  1.00  0.00    -0.283 NA 
BRANCH   8  15
HETATM   15  O   UNL     1      -7.914   7.473  68.967  1.00  0.00    -0.117 OA 
BRANCH  15  16
HETATM   16  C   UNL     1      -6.742   8.178  68.568  1.00  0.00    -0.063 C  
BRANCH  16  17
HETATM   17  C   UNL     1      -6.655   9.428  69.463  1.00  0.00    -0.044 C  
HETATM   18  C   UNL     1      -6.903  10.725  68.701  1.00  0.00    -0.060 C  
ENDBRANCH  16  17
BRANCH  16  19
HETATM   19  C   UNL     1      -6.753   8.554  67.076  1.00  0.00    -0.062 C  
HETATM   20  C   UNL     1      -7.122   7.410  66.139  1.00  0.00    -0.069 C  
ENDBRANCH  16  19
ENDBRANCH  15  16
ENDBRANCH   8  15
BRANCH  10  21
HETATM   21  N   UNL     1     -10.928   9.464  67.980  1.00  0.00    -0.497 N  
HETATM   22  H   UNL     1     -11.732   9.533  68.605  1.00  0.00     0.000 HD 
HETATM   23  C   UNL     1     -10.616  10.524  67.158  1.00  0.00    -0.264 C  
HETATM   24  C   UNL     1     -11.509  11.726  67.315  1.00  0.00    -0.373 C  
HETATM   25  O   UNL     1      -9.686  10.514  66.362  1.00  0.00    -0.184 OA 
ENDBRANCH  10  21
ENDBRANCH   4   6
ENDBRANCH   3   4
ENDBRANCH   2   3
TORSDOF 8
ENDMDL
MODEL      201
REMARK 921   NORMALIZED FREE ENERGY PREDICTED BY IDOCK:   -2.96 KCAL/MOL
REMARK 922        TOTAL FREE ENERGY PREDICTED BY IDOCK:   -5.29 KCAL/MOL
REMARK 923 INTER-LIGAND FREE ENERGY PREDICTED BY IDOCK:   -4.29 KCAL/MOL
REMARK 924 INTRA-LIGAND FREE ENERGY PREDICTED BY IDOCK:   -1.00 KCAL/MOL
REMARK 927      BINDING AFFINITY PREDICTED BY RF-SCORE:    0.00 PKD
ROOT
HETATM    1  C   UNL     1     -11.340   6.710  71.457  1.00  0.00    -0.326 C  
HETATM    2  C   UNL     1     -11.869   7.771  72.404  1.00  0.00    -0.321 C  
ENDROOT
BRANCH   2   3
HETATM    3  O   UNL     1     -11.231   9.006  72.065  1.00  0.00    -0.361 OA 
BRANCH   3   4
HETATM    4  C   UNL     1     -11.975   9.844  71.302  1.00  0.00    -0.402 C  
HETATM    5  O   UNL     1     -13.125  10.188  71.534  1.00  0.00    -0.374 OA 
BRANCH   4   6
HETATM    6  C   UNL     1     -11.184  10.376  70.159  1.00  0.00    -0.393 C  
HETATM    7  C   UNL     1      -9.844  10.324  70.145  1.00  0.00     0.011 C  
HETATM    8  C   UNL     1      -9.027  10.614  68.930  1.00  0.00    -0.168 C  
HETATM    9  H2  UNL     1     -11.215   9.862  66.538  1.00  0.00     0.000 HD 
HETATM   10  C   UNL     1      -9.700  11.607  67.943  1.00  0.00    -0.179 C  
HETATM   11  H1  UNL     1     -12.670  10.710  66.509  1.00  0.00     0.000 HD 
HETATM   12  C   UNL     1     -12.004  10.907  69.026  1.00  0.00    -0.322 C  
HETATM   13  C   UNL     1     -11.250  11.499  67.817  1.00  0.00    -0.279 C  
HETATM   14  N   UNL     1     -11.656  10.780  66.592  1.00  0.00     0.034 NA 
BRANCH   8  15
HETATM   15  O   UNL     1      -8.782   9.298  68.433  1.00  0.00    -0.127 OA 
BRANCH  15  16
HETATM   16  C   UNL     1      -7.757   8.509  69.031  1.00  0.00    -0.096 C  
BRANCH  16  17
HETATM   17  C   UNL     1      -6.720   8.228  67.928  1.00  0.00    -0.065 C  
HETATM   18  C   UNL     1      -5.961   9.477  67.492  1.00  0.00    -0.052 C  
ENDBRANCH  16  17
BRANCH  16  19
HETATM   19  C   UNL     1      -8.292   7.204  69.645  1.00  0.00    -0.133 C  
HETATM   20  C   UNL     1      -8.019   5.956  68.814  1.00  0.00    -0.103 C  
ENDBRANCH  16  19
ENDBRANCH  15  16
ENDBRANCH   8  15
BRANCH  10  21
HETATM   21  N   UNL     1      -9.301  13.002  68.232  1.00  0.00    -0.246 N  
HETATM   22  H   UNL     1      -9.238  13.315  69.202  1.00  0.00     0.000 HD 
HETATM   23  C   UNL     1      -9.012  13.885  67.215  1.00  0.00    -0.221 C  
HETATM   24  C   UNL     1      -8.579  15.252  67.673  1.00  0.00    -0.178 C  
HETATM   25  O   UNL     1      -9.086  13.599  66.027  1.00  0.00     0.010 OA 
ENDBRANCH  10  21
ENDBRANCH   4   6
ENDBRANCH   3   4
ENDBRANCH   2   3
TORSDOF 8
ENDMDL
MODEL      202
REMARK 921   NORMALIZED FREE ENERGY PREDICTED BY IDOCK:   -2.94 KCAL/MOL
REMARK 922        TOTAL FREE ENERGY PREDICTED BY IDOCK:   -5.25 KCAL/MOL
REMARK 923 INTER-LIGAND FREE ENERGY PREDICTED BY IDOCK:   -4.43 KCAL/MOL
REMARK 924 INTRA-LIGAND FREE ENERGY PREDICTED BY IDOCK:   -0.82 KCAL/MOL
REMARK 927      BINDING AFFINITY PREDICTED BY RF-SCORE:    0.00 PKD
ROOT
HETATM    1  C   UNL     1      -6.664  14.725  68.414  1.00  0.00    -0.102 C  
HETATM    2  C   UNL     1      -6.291  13.255  68.356  1.00  0.00    -0.086 C  
ENDROOT
BRANCH   2   3
HETATM    3  O   UNL     1      -7.507  12.502  68.400  1.00  0.00    -0.114 OA 
BRANCH   3   4
HETATM    4  C   UNL     1      -7.443  11.352  69.115  1.00  0.00    -0.057 C  
HETATM    5  O   UNL     1      -6.773  11.174  70.122  1.00  0.00    -0.165 OA 
BRANCH   4   6
HETATM    6  C   UNL     1      -8.369  10.325  68.565  1.00  0.00    -0.116 C  
HETATM    7  C   UNL     1      -9.316   9.752  69.323  1.00  0.00    -0.198 C  
HETATM    8  C   UNL     1     -10.414   8.911  68.762  1.00  0.00    -0.200 C  
HETATM    9  H2  UNL     1     -10.611  10.151  65.681  1.00  0.00     0.000 HD 
HETATM   10  C   UNL     1     -10.036   8.182  67.443  1.00  0.00    -0.233 C  
HETATM   11  H1  UNL     1      -9.234  10.077  64.714  1.00  0.00     0.000 HD 
HETATM   12  C   UNL     1      -8.191  10.040  67.107  1.00  0.00    -0.117 C  
HETATM   13  C   UNL     1      -9.100   8.966  66.475  1.00  0.00    -0.166 C  
HETATM   14  N   UNL     1      -9.846   9.564  65.348  1.00  0.00    -0.266 NA 
BRANCH   8  15
HETATM   15  O   UNL     1     -11.480   9.857  68.679  1.00  0.00    -0.066 OA 
BRANCH  15  16
HETATM   16  C   UNL     1     -11.433  11.030  69.485  1.00  0.00    -0.299 C  
BRANCH  16  17
HETATM   17  C   UNL     1     -12.575  10.905  70.510  1.00  0.00    -0.409 C  
HETATM   18  C   UNL     1     -12.306   9.847  71.576  1.00  0.00    -0.504 C  
ENDBRANCH  16  17
BRANCH  16  19
HETATM   19  C   UNL     1     -11.556  12.324  68.662  1.00  0.00    -0.372 C  
HETATM   20  C   UNL     1     -11.183  13.592  69.420  1.00  0.00    -0.252 C  
ENDBRANCH  16  19
ENDBRANCH  15  16
ENDBRANCH   8  15
BRANCH  10  21
HETATM   21  N   UNL     1      -9.488   6.835  67.715  1.00  0.00    -0.119 N  
HETATM   22  H   UNL     1      -8.652   6.741  68.292  1.00  0.00     0.000 HD 
HETATM   23  C   UNL     1     -10.088   5.706  67.201  1.00  0.00    -0.183 C  
HETATM   24  C   UNL     1      -9.437   4.410  67.604  1.00  0.00    -0.204 C  
HETATM   25  O   UNL     1     -11.077   5.732  66.480  1.00  0.00    -0.200 OA 
ENDBRANCH  10  21
ENDBRANCH   4   6
ENDBRANCH   3   4
ENDBRANCH   2   3
TORSDOF 8
ENDMDL
MODEL      203
REMARK 921   NORMALIZED FREE ENERGY PREDICTED BY IDOCK:   -2.92 KCAL/MOL
REMARK 922        TOTAL FREE ENERGY PREDICTED BY IDOCK:   -5.22 KCAL/MOL
REMARK 923 INTER-LIGAND FREE ENERGY PREDICTED BY IDOCK:   -4.34 KCAL/MOL
REMARK 924 INTRA-LIGAND FREE ENERGY PREDICTED BY IDOCK:   -0.88 KCAL/MOL
REMARK 927      BINDING AFFINITY PREDICTED BY RF-SCORE:    0.00 PKD
ROOT
HETATM    1  C   UNL     1      -7.540   6.838  64.284  1.00  0.00    -0.105 C  
HETATM    2  C   UNL     1      -8.508   6.674  65.442  1.00  0.00    -0.107 C  
ENDROOT
BRANCH   2   3
HETATM    3  O   UNL     1      -7.730   6.510  66.631  1.00  0.00    -0.096 OA 
BRANCH   3   4
HETATM    4  C   UNL     1      -7.696   7.593  67.447  1.00  0.00    -0.117 C  
HETATM    5  O   UNL     1      -7.366   8.723  67.118  1.00  0.00    -0.079 OA 
BRANCH   4   6
HETATM    6  C   UNL     1      -8.196   7.257  68.808  1.00  0.00    -0.129 C  
HETATM    7  C   UNL     1      -8.391   8.201  69.740  1.00  0.00    -0.124 C  
HETATM    8  C   UNL     1      -9.115   7.950  71.020  1.00  0.00    -0.143 C  
HETATM    9  H2  UNL     1     -11.065   5.408  70.120  1.00  0.00     0.000 HD 
HETATM   10  C   UNL     1      -9.016   6.482  71.520  1.00  0.00    -0.140 C  
HETATM   11  H1  UNL     1     -10.320   4.007  69.557  1.00  0.00     0.000 HD 
HETATM   12  C   UNL     1      -8.511   5.810  69.017  1.00  0.00    -0.104 C  
HETATM   13  C   UNL     1      -9.009   5.384  70.414  1.00  0.00    -0.133 C  
HETATM   14  N   UNL     1     -10.325   4.726  70.281  1.00  0.00    -0.194 NA 
BRANCH   8  15
HETATM   15  O   UNL     1     -10.424   8.422  70.701  1.00  0.00    -0.194 OA 
BRANCH  15  16
HETATM   16  C   UNL     1     -11.104   9.264  71.627  1.00  0.00    -0.368 C  
BRANCH  16  17
HETATM   17  C   UNL     1     -12.079   8.362  72.408  1.00  0.00    -0.443 C  
HETATM   18  C   UNL     1     -12.708   7.275  71.542  1.00  0.00    -0.422 C  
ENDBRANCH  16  17
BRANCH  16  19
HETATM   19  C   UNL     1     -11.841  10.429  70.943  1.00  0.00    -0.475 C  
HETATM   20  C   UNL     1     -13.052  10.947  71.710  1.00  0.00    -0.564 C  
ENDBRANCH  16  19
ENDBRANCH  15  16
ENDBRANCH   8  15
BRANCH  10  21
HETATM   21  N   UNL     1      -7.865   6.305  72.432  1.00  0.00    -0.103 N  
HETATM   22  H   UNL     1      -6.991   6.794  72.238  1.00  0.00     0.000 HD 
HETATM   23  C   UNL     1      -7.954   5.490  73.540  1.00  0.00    -0.113 C  
HETATM   24  C   UNL     1      -6.713   5.448  74.391  1.00  0.00    -0.077 C  
HETATM   25  O   UNL     1      -8.955   4.848  73.830  1.00  0.00    -0.114 OA 
ENDBRANCH  10  21
ENDBRANCH   4   6
ENDBRANCH   3   4
ENDBRANCH   2   3
TORSDOF 8
ENDMDL
MODEL      204
REMARK 921   NORMALIZED FREE ENERGY PREDICTED BY IDOCK:   -2.91 KCAL/MOL
REMARK 922        TOTAL FREE ENERGY PREDICTED BY IDOCK:   -5.22 KCAL/MOL
REMARK 923 INTER-LIGAND FREE ENERGY PREDICTED BY IDOCK:   -4.30 KCAL/MOL
REMARK 924 INTRA-LIGAND FREE ENERGY PREDICTED BY IDOCK:   -0.92 KCAL/MOL
REMARK 927      BINDING AFFINITY PREDICTED BY RF-SCORE:    0.00 PKD
ROOT
HETATM    1  C   UNL     1     -11.586   5.119  73.089  1.00  0.00    -0.281 C  
HETATM    2  C   UNL     1     -10.122   4.772  72.880  1.00  0.00    -0.168 C  
ENDROOT
BRANCH   2   3
HETATM    3  O   UNL     1      -9.765   5.196  71.562  1.00  0.00    -0.154 OA 
BRANCH   3   4
HETATM    4  C   UNL     1      -9.628   4.197  70.655  1.00  0.00    -0.194 C  
HETATM    5  O   UNL     1      -9.637   3.001  70.906  1.00  0.00    -0.153 OA 
BRANCH   4   6
HETATM    6  C   UNL     1      -9.541   4.736  69.270  1.00  0.00    -0.243 C  
HETATM    7  C   UNL     1     -10.443   5.607  68.796  1.00  0.00    -0.289 C  
HETATM    8  C   UNL     1     -10.263   6.356  67.517  1.00  0.00    -0.170 C  
HETATM    9  H2  UNL     1      -6.943   6.398  67.306  1.00  0.00     0.000 HD 
HETATM   10  C   UNL     1      -9.391   5.610  66.470  1.00  0.00    -0.150 C  
HETATM   11  H1  UNL     1      -6.139   4.918  67.263  1.00  0.00     0.000 HD 
HETATM   12  C   UNL     1      -8.349   4.273  68.494  1.00  0.00    -0.091 C  
HETATM   13  C   UNL     1      -8.208   4.771  67.041  1.00  0.00    -0.106 C  
HETATM   14  N   UNL     1      -6.914   5.467  66.889  1.00  0.00    -0.064 NA 
BRANCH   8  15
HETATM   15  O   UNL     1      -9.755   7.604  67.990  1.00  0.00    -0.146 OA 
BRANCH  15  16
HETATM   16  C   UNL     1     -10.653   8.692  68.184  1.00  0.00    -0.133 C  
BRANCH  16  17
HETATM   17  C   UNL     1     -10.518   9.599  66.946  1.00  0.00    -0.282 C  
HETATM   18  C   UNL     1     -11.124  10.983  67.152  1.00  0.00    -0.333 C  
ENDBRANCH  16  17
BRANCH  16  19
HETATM   19  C   UNL     1     -10.377   9.468  69.483  1.00  0.00    -0.229 C  
HETATM   20  C   UNL     1     -10.778   8.732  70.756  1.00  0.00    -0.277 C  
ENDBRANCH  16  19
ENDBRANCH  15  16
ENDBRANCH   8  15
BRANCH  10  21
HETATM   21  N   UNL     1     -10.226   4.783  65.572  1.00  0.00    -0.401 N  
HETATM   22  H   UNL     1     -11.166   4.515  65.865  1.00  0.00     0.000 HD 
HETATM   23  C   UNL     1      -9.755   4.369  64.345  1.00  0.00    -0.060 C  
HETATM   24  C   UNL     1     -10.739   3.571  63.530  1.00  0.00    -0.254 C  
HETATM   25  O   UNL     1      -8.633   4.625  63.927  1.00  0.00    -0.123 OA 
ENDBRANCH  10  21
ENDBRANCH   4   6
ENDBRANCH   3   4
ENDBRANCH   2   3
TORSDOF 8
ENDMDL
MODEL      205
REMARK 921   NORMALIZED FREE ENERGY PREDICTED BY IDOCK:   -2.88 KCAL/MOL
REMARK 922        TOTAL FREE ENERGY PREDICTED BY IDOCK:   -5.17 KCAL/MOL
REMARK 923 INTER-LIGAND FREE ENERGY PREDICTED BY IDOCK:   -4.40 KCAL/MOL
REMARK 924 INTRA-LIGAND FREE ENERGY PREDICTED BY IDOCK:   -0.77 KCAL/MOL
REMARK 927      BINDING AFFINITY PREDICTED BY RF-SCORE:    0.00 PKD
ROOT
HETATM    1  C   UNL     1      -6.240   9.814  62.602  1.00  0.00    -0.104 C  
HETATM    2  C   UNL     1      -7.114   9.619  63.829  1.00  0.00    -0.115 C  
ENDROOT
BRANCH   2   3
HETATM    3  O   UNL     1      -6.446  10.235  64.934  1.00  0.00    -0.126 OA 
BRANCH   3   4
HETATM    4  C   UNL     1      -7.034  10.039  66.140  1.00  0.00    -0.107 C  
HETATM    5  O   UNL     1      -7.171   8.961  66.700  1.00  0.00    -0.083 OA 
BRANCH   4   6
HETATM    6  C   UNL     1      -7.436  11.332  66.758  1.00  0.00    -0.146 C  
HETATM    7  C   UNL     1      -8.708  11.757  66.738  1.00  0.00    -0.192 C  
HETATM    8  C   UNL     1      -9.198  12.910  67.549  1.00  0.00    -0.192 C  
HETATM    9  H2  UNL     1      -7.006  12.861  70.053  1.00  0.00     0.000 HD 
HETATM   10  C   UNL     1      -8.107  13.975  67.848  1.00  0.00    -0.156 C  
HETATM   11  H1  UNL     1      -5.375  13.033  69.673  1.00  0.00     0.000 HD 
HETATM   12  C   UNL     1      -6.328  12.068  67.442  1.00  0.00    -0.138 C  
HETATM   13  C   UNL     1      -6.667  13.429  68.083  1.00  0.00    -0.117 C  
HETATM   14  N   UNL     1      -6.318  13.390  69.519  1.00  0.00    -0.112 NA 
BRANCH   8  15
HETATM   15  O   UNL     1      -9.757  12.242  68.680  1.00  0.00    -0.170 OA 
BRANCH  15  16
HETATM   16  C   UNL     1     -11.141  12.410  68.973  1.00  0.00    -0.235 C  
BRANCH  16  17
HETATM   17  C   UNL     1     -11.726  10.998  69.156  1.00  0.00    -0.403 C  
HETATM   18  C   UNL     1     -10.995  10.184  70.219  1.00  0.00    -0.380 C  
ENDBRANCH  16  17
BRANCH  16  19
HETATM   19  C   UNL     1     -11.890  13.192  67.880  1.00  0.00    -0.390 C  
HETATM   20  C   UNL     1     -11.893  14.704  68.074  1.00  0.00    -0.343 C  
ENDBRANCH  16  19
ENDBRANCH  15  16
ENDBRANCH   8  15
BRANCH  10  21
HETATM   21  N   UNL     1      -8.097  15.034  66.816  1.00  0.00    -0.348 N  
HETATM   22  H   UNL     1      -7.941  14.782  65.839  1.00  0.00     0.000 HD 
HETATM   23  C   UNL     1      -8.294  16.356  67.150  1.00  0.00    -0.187 C  
HETATM   24  C   UNL     1      -8.299  17.307  65.982  1.00  0.00    -0.154 C  
HETATM   25  O   UNL     1      -8.463  16.747  68.298  1.00  0.00    -0.206 OA 
ENDBRANCH  10  21
ENDBRANCH   4   6
ENDBRANCH   3   4
ENDBRANCH   2   3
TORSDOF 8
ENDMDL
MODEL      206
REMARK 921   NORMALIZED FREE ENERGY PREDICTED BY IDOCK:   -2.88 KCAL/MOL
REMARK 922        TOTAL FREE ENERGY PREDICTED BY IDOCK:   -5.17 KCAL/MOL
REMARK 923 INTER-LIGAND FREE ENERGY PREDICTED BY IDOCK:   -4.32 KCAL/MOL
REMARK 924 INTRA-LIGAND FREE ENERGY PREDICTED BY IDOCK:   -0.85 KCAL/MOL
REMARK 927      BINDING AFFINITY PREDICTED BY RF-SCORE:    0.00 PKD
ROOT
HETATM    1  C   UNL     1     -12.800  13.477  71.496  1.00  0.00    -0.440 C  
HETATM    2  C   UNL     1     -12.166  13.374  70.121  1.00  0.00    -0.315 C  
ENDROOT
BRANCH   2   3
HETATM    3  O   UNL     1     -12.176  11.994  69.745  1.00  0.00    -0.244 OA 
BRANCH   3   4
HETATM    4  C   UNL     1     -11.697  11.735  68.503  1.00  0.00    -0.330 C  
HETATM    5  O   UNL     1     -12.192  12.117  67.453  1.00  0.00    -0.486 OA 
BRANCH   4   6
HETATM    6  C   UNL     1     -10.419  10.975  68.568  1.00  0.00    -0.210 C  
HETATM    7  C   UNL     1     -10.387   9.678  68.905  1.00  0.00    -0.220 C  
HETATM    8  C   UNL     1      -9.175   8.820  68.745  1.00  0.00    -0.141 C  
HETATM    9  H2  UNL     1      -7.627  10.419  66.272  1.00  0.00     0.000 HD 
HETATM   10  C   UNL     1      -7.836   9.602  68.841  1.00  0.00    -0.081 C  
HETATM   11  H1  UNL     1      -7.205  12.031  66.520  1.00  0.00     0.000 HD 
HETATM   12  C   UNL     1      -9.207  11.758  68.174  1.00  0.00    -0.186 C  
HETATM   13  C   UNL     1      -7.842  11.041  68.242  1.00  0.00    -0.121 C  
HETATM   14  N   UNL     1      -7.201  11.089  66.912  1.00  0.00    -0.125 NA 
BRANCH   8  15
HETATM   15  O   UNL     1      -9.445   8.179  67.499  1.00  0.00    -0.147 OA 
BRANCH  15  16
HETATM   16  C   UNL     1      -9.193   6.783  67.366  1.00  0.00    -0.127 C  
BRANCH  16  17
HETATM   17  C   UNL     1     -10.568   6.097  67.258  1.00  0.00    -0.362 C  
HETATM   18  C   UNL     1     -10.617   5.030  66.170  1.00  0.00    -0.321 C  
ENDBRANCH  16  17
BRANCH  16  19
HETATM   19  C   UNL     1      -8.370   6.213  68.534  1.00  0.00    -0.114 C  
HETATM   20  C   UNL     1      -7.467   5.044  68.159  1.00  0.00    -0.075 C  
ENDBRANCH  16  19
ENDBRANCH  15  16
ENDBRANCH   8  15
BRANCH  10  21
HETATM   21  N   UNL     1      -7.327   9.622  70.230  1.00  0.00    -0.133 N  
HETATM   22  H   UNL     1      -7.806  10.188  70.932  1.00  0.00     0.000 HD 
HETATM   23  C   UNL     1      -6.217   8.890  70.591  1.00  0.00    -0.042 C  
HETATM   24  C   UNL     1      -5.851   8.980  72.049  1.00  0.00    -0.074 C  
HETATM   25  O   UNL     1      -5.571   8.206  69.807  1.00  0.00    -0.026 OA 
ENDBRANCH  10  21
ENDBRANCH   4   6
ENDBRANCH   3   4
ENDBRANCH   2   3
TORSDOF 8
ENDMDL
MODEL      207
REMARK 921   NORMALIZED FREE ENERGY PREDICTED BY IDOCK:   -2.87 KCAL/MOL
REMARK 922        TOTAL FREE ENERGY PREDICTED BY IDOCK:   -5.16 KCAL/MOL
REMARK 923 INTER-LIGAND FREE ENERGY PREDICTED BY IDOCK:   -3.83 KCAL/MOL
REMARK 924 INTRA-LIGAND FREE ENERGY PREDICTED BY IDOCK:   -1.33 KCAL/MOL
REMARK 927      BINDING AFFINITY PREDICTED BY RF-SCORE:    0.00 PKD
ROOT
HETATM    1  C   UNL     1     -12.057   6.451  72.051  1.00  0.00    -0.353 C  
HETATM    2  C   UNL     1     -10.701   6.553  71.376  1.00  0.00    -0.238 C  
ENDROOT
BRANCH   2   3
HETATM    3  O   UNL     1     -10.834   6.005  70.061  1.00  0.00    -0.294 OA 
BRANCH   3   4
HETATM    4  C   UNL     1     -10.116   4.876  69.837  1.00  0.00    -0.262 C  
HETATM    5  O   UNL     1      -9.832   4.033  70.674  1.00  0.00    -0.198 OA 
BRANCH   4   6
HETATM    6  C   UNL     1      -9.770   4.738  68.395  1.00  0.00    -0.209 C  
HETATM    7  C   UNL     1     -10.291   5.550  67.465  1.00  0.00    -0.268 C  
HETATM    8  C   UNL     1      -9.791   5.611  66.059  1.00  0.00    -0.018 C  
HETATM    9  H2  UNL     1      -6.650   4.603  66.492  1.00  0.00     0.000 HD 
HETATM   10  C   UNL     1      -9.167   4.280  65.557  1.00  0.00    -0.150 C  
HETATM   11  H1  UNL     1      -6.398   3.078  67.163  1.00  0.00     0.000 HD 
HETATM   12  C   UNL     1      -8.764   3.672  68.095  1.00  0.00    -0.130 C  
HETATM   13  C   UNL     1      -8.376   3.455  66.618  1.00  0.00    -0.101 C  
HETATM   14  N   UNL     1      -6.916   3.619  66.469  1.00  0.00    -0.057 NA 
BRANCH   8  15
HETATM   15  O   UNL     1      -8.916   6.737  66.119  1.00  0.00    -0.153 OA 
BRANCH  15  16
HETATM   16  C   UNL     1      -7.875   6.860  65.155  1.00  0.00    -0.120 C  
BRANCH  16  17
HETATM   17  C   UNL     1      -6.580   7.143  65.940  1.00  0.00    -0.052 C  
HETATM   18  C   UNL     1      -6.799   7.203  67.448  1.00  0.00    -0.070 C  
ENDBRANCH  16  17
BRANCH  16  19
HETATM   19  C   UNL     1      -8.153   7.959  64.114  1.00  0.00    -0.093 C  
HETATM   20  C   UNL     1      -8.846   9.196  64.672  1.00  0.00    -0.183 C  
ENDBRANCH  16  19
ENDBRANCH  15  16
ENDBRANCH   8  15
BRANCH  10  21
HETATM   21  N   UNL     1     -10.179   3.432  64.891  1.00  0.00    -0.398 N  
HETATM   22  H   UNL     1     -11.106   3.336  65.308  1.00  0.00     0.000 HD 
HETATM   23  C   UNL     1      -9.892   2.769  63.718  1.00  0.00    -0.143 C  
HETATM   24  C   UNL     1     -11.040   1.983  63.142  1.00  0.00    -0.249 C  
HETATM   25  O   UNL     1      -8.800   2.810  63.166  1.00  0.00    -0.088 OA 
ENDBRANCH  10  21
ENDBRANCH   4   6
ENDBRANCH   3   4
ENDBRANCH   2   3
TORSDOF 8
ENDMDL
MODEL      208
REMARK 921   NORMALIZED FREE ENERGY PREDICTED BY IDOCK:   -2.85 KCAL/MOL
REMARK 922        TOTAL FREE ENERGY PREDICTED BY IDOCK:   -5.13 KCAL/MOL
REMARK 923 INTER-LIGAND FREE ENERGY PREDICTED BY IDOCK:   -4.54 KCAL/MOL
REMARK 924 INTRA-LIGAND FREE ENERGY PREDICTED BY IDOCK:   -0.59 KCAL/MOL
REMARK 927      BINDING AFFINITY PREDICTED BY RF-SCORE:    0.00 PKD
ROOT
HETATM    1  C   UNL     1      -5.593  10.533  63.884  1.00  0.00    -0.123 C  
HETATM    2  C   UNL     1      -6.828  10.093  64.650  1.00  0.00    -0.117 C  
ENDROOT
BRANCH   2   3
HETATM    3  O   UNL     1      -6.509  10.141  66.043  1.00  0.00    -0.085 OA 
BRANCH   3   4
HETATM    4  C   UNL     1      -6.473   8.936  66.664  1.00  0.00    -0.063 C  
HETATM    5  O   UNL     1      -5.778   7.985  66.337  1.00  0.00    -0.038 OA 
BRANCH   4   6
HETATM    6  C   UNL     1      -7.344   8.928  67.872  1.00  0.00    -0.084 C  
HETATM    7  C   UNL     1      -8.496   8.243  67.905  1.00  0.00    -0.132 C  
HETATM    8  C   UNL     1      -9.270   8.005  69.159  1.00  0.00    -0.151 C  
HETATM    9  H2  UNL     1      -6.833   8.187  71.417  1.00  0.00     0.000 HD 
HETATM   10  C   UNL     1      -9.082   9.111  70.233  1.00  0.00    -0.218 C  
HETATM   11  H1  UNL     1      -5.952   9.620  71.508  1.00  0.00     0.000 HD 
HETATM   12  C   UNL     1      -6.799   9.688  69.039  1.00  0.00    -0.050 C  
HETATM   13  C   UNL     1      -7.660   9.744  70.318  1.00  0.00    -0.172 C  
HETATM   14  N   UNL     1      -6.882   9.205  71.452  1.00  0.00    -0.230 NA 
BRANCH   8  15
HETATM   15  O   UNL     1      -8.831   6.694  69.517  1.00  0.00    -0.137 OA 
BRANCH  15  16
HETATM   16  C   UNL     1      -9.594   5.567  69.098  1.00  0.00    -0.143 C  
BRANCH  16  17
HETATM   17  C   UNL     1     -10.849   6.120  68.398  1.00  0.00    -0.382 C  
HETATM   18  C   UNL     1     -10.927   5.736  66.924  1.00  0.00    -0.242 C  
ENDBRANCH  16  17
BRANCH  16  19
HETATM   19  C   UNL     1      -9.965   4.633  70.263  1.00  0.00    -0.309 C  
HETATM   20  C   UNL     1     -10.468   5.349  71.510  1.00  0.00    -0.289 C  
ENDBRANCH  16  19
ENDBRANCH  15  16
ENDBRANCH   8  15
BRANCH  10  21
HETATM   21  N   UNL     1     -10.111  10.166  70.100  1.00  0.00    -0.409 N  
HETATM   22  H   UNL     1      -9.975  10.917  69.422  1.00  0.00     0.000 HD 
HETATM   23  C   UNL     1     -11.249  10.151  70.876  1.00  0.00    -0.307 C  
HETATM   24  C   UNL     1     -12.219  11.267  70.591  1.00  0.00    -0.489 C  
HETATM   25  O   UNL     1     -11.477   9.303  71.728  1.00  0.00    -0.366 OA 
ENDBRANCH  10  21
ENDBRANCH   4   6
ENDBRANCH   3   4
ENDBRANCH   2   3
TORSDOF 8
ENDMDL
MODEL      209
REMARK 921   NORMALIZED FREE ENERGY PREDICTED BY IDOCK:   -2.85 KCAL/MOL
REMARK 922        TOTAL FREE ENERGY PREDICTED BY IDOCK:   -5.12 KCAL/MOL
REMARK 923 INTER-LIGAND FREE ENERGY PREDICTED BY IDOCK:   -4.32 KCAL/MOL
REMARK 924 INTRA-LIGAND FREE ENERGY PREDICTED BY IDOCK:   -0.80 KCAL/MOL
REMARK 927      BINDING AFFINITY PREDICTED BY RF-SCORE:    0.00 PKD
ROOT
HETATM    1  C   UNL     1     -12.744  13.621  71.414  1.00  0.00    -0.437 C  
HETATM    2  C   UNL     1     -11.922  13.344  70.168  1.00  0.00    -0.326 C  
ENDROOT
BRANCH   2   3
HETATM    3  O   UNL     1     -12.120  11.971  69.819  1.00  0.00    -0.294 OA 
BRANCH   3   4
HETATM    4  C   UNL     1     -11.614  11.607  68.615  1.00  0.00    -0.312 C  
HETATM    5  O   UNL     1     -11.872  12.136  67.543  1.00  0.00    -0.499 OA 
BRANCH   4   6
HETATM    6  C   UNL     1     -10.621  10.508  68.759  1.00  0.00    -0.233 C  
HETATM    7  C   UNL     1     -10.224   9.775  67.709  1.00  0.00    -0.254 C  
HETATM    8  C   UNL     1      -9.062   8.839  67.757  1.00  0.00    -0.135 C  
HETATM    9  H2  UNL     1      -7.264  10.235  70.184  1.00  0.00     0.000 HD 
HETATM   10  C   UNL     1      -8.790   8.247  69.167  1.00  0.00    -0.143 C  
HETATM   11  H1  UNL     1      -7.979  10.394  71.700  1.00  0.00     0.000 HD 
HETATM   12  C   UNL     1     -10.073  10.339  70.141  1.00  0.00    -0.099 C  
HETATM   13  C   UNL     1      -9.057   9.202  70.370  1.00  0.00    -0.233 C  
HETATM   14  N   UNL     1      -7.805   9.770  70.912  1.00  0.00    -0.237 NA 
BRANCH   8  15
HETATM   15  O   UNL     1      -8.025   9.647  67.200  1.00  0.00    -0.105 OA 
BRANCH  15  16
HETATM   16  C   UNL     1      -7.164   9.089  66.212  1.00  0.00    -0.090 C  
BRANCH  16  17
HETATM   17  C   UNL     1      -5.732   9.195  66.768  1.00  0.00    -0.047 C  
HETATM   18  C   UNL     1      -5.389   8.079  67.749  1.00  0.00    -0.033 C  
ENDBRANCH  16  17
BRANCH  16  19
HETATM   19  C   UNL     1      -7.291   9.788  64.847  1.00  0.00    -0.129 C  
HETATM   20  C   UNL     1      -5.963  10.191  64.218  1.00  0.00    -0.139 C  
ENDBRANCH  16  19
ENDBRANCH  15  16
ENDBRANCH   8  15
BRANCH  10  21
HETATM   21  N   UNL     1      -9.504   6.965  69.356  1.00  0.00    -0.149 N  
HETATM   22  H   UNL     1     -10.409   6.960  69.829  1.00  0.00     0.000 HD 
HETATM   23  C   UNL     1      -8.969   5.779  68.904  1.00  0.00    -0.113 C  
HETATM   24  C   UNL     1      -9.836   4.570  69.133  1.00  0.00    -0.222 C  
HETATM   25  O   UNL     1      -7.880   5.694  68.350  1.00  0.00    -0.091 OA 
ENDBRANCH  10  21
ENDBRANCH   4   6
ENDBRANCH   3   4
ENDBRANCH   2   3
TORSDOF 8
ENDMDL
MODEL      210
REMARK 921   NORMALIZED FREE ENERGY PREDICTED BY IDOCK:   -2.84 KCAL/MOL
REMARK 922        TOTAL FREE ENERGY PREDICTED BY IDOCK:   -5.10 KCAL/MOL
REMARK 923 INTER-LIGAND FREE ENERGY PREDICTED BY IDOCK:   -4.33 KCAL/MOL
REMARK 924 INTRA-LIGAND FREE ENERGY PREDICTED BY IDOCK:   -0.78 KCAL/MOL
REMARK 927      BINDING AFFINITY PREDICTED BY RF-SCORE:    0.00 PKD
ROOT
HETATM    1  C   UNL     1     -11.373   2.529  73.794  1.00  0.00    -0.259 C  
HETATM    2  C   UNL     1     -11.020   3.932  73.335  1.00  0.00    -0.233 C  
ENDROOT
BRANCH   2   3
HETATM    3  O   UNL     1      -9.689   3.891  72.814  1.00  0.00    -0.128 OA 
BRANCH   3   4
HETATM    4  C   UNL     1      -9.604   3.729  71.470  1.00  0.00    -0.161 C  
HETATM    5  O   UNL     1      -9.829   2.694  70.861  1.00  0.00    -0.111 OA 
BRANCH   4   6
HETATM    6  C   UNL     1      -9.274   5.014  70.794  1.00  0.00    -0.192 C  
HETATM    7  C   UNL     1     -10.226   5.800  70.271  1.00  0.00    -0.295 C  
HETATM    8  C   UNL     1      -9.972   7.196  69.809  1.00  0.00    -0.178 C  
HETATM    9  H2  UNL     1      -7.355   7.991  71.705  1.00  0.00     0.000 HD 
HETATM   10  C   UNL     1      -8.516   7.442  69.325  1.00  0.00    -0.136 C  
HETATM   11  H1  UNL     1      -5.970   7.043  71.570  1.00  0.00     0.000 HD 
HETATM   12  C   UNL     1      -7.821   5.369  70.804  1.00  0.00    -0.095 C  
HETATM   13  C   UNL     1      -7.402   6.675  70.099  1.00  0.00    -0.085 C  
HETATM   14  N   UNL     1      -6.700   7.545  71.064  1.00  0.00    -0.043 NA 
BRANCH   8  15
HETATM   15  O   UNL     1     -10.397   7.951  70.944  1.00  0.00    -0.199 OA 
BRANCH  15  16
HETATM   16  C   UNL     1     -11.672   8.585  70.920  1.00  0.00    -0.245 C  
BRANCH  16  17
HETATM   17  C   UNL     1     -11.411  10.099  71.023  1.00  0.00    -0.385 C  
HETATM   18  C   UNL     1     -11.586  10.827  69.694  1.00  0.00    -0.388 C  
ENDBRANCH  16  17
BRANCH  16  19
HETATM   19  C   UNL     1     -12.602   8.097  72.043  1.00  0.00    -0.366 C  
HETATM   20  C   UNL     1     -13.544   6.970  71.637  1.00  0.00    -0.346 C  
ENDBRANCH  16  19
ENDBRANCH  15  16
ENDBRANCH   8  15
BRANCH  10  21
HETATM   21  N   UNL     1      -8.390   7.209  67.870  1.00  0.00    -0.118 N  
HETATM   22  H   UNL     1      -7.871   6.397  67.535  1.00  0.00     0.000 HD 
HETATM   23  C   UNL     1      -8.962   8.070  66.959  1.00  0.00    -0.138 C  
HETATM   24  C   UNL     1      -8.782   7.673  65.518  1.00  0.00    -0.079 C  
HETATM   25  O   UNL     1      -9.579   9.080  67.275  1.00  0.00    -0.147 OA 
ENDBRANCH  10  21
ENDBRANCH   4   6
ENDBRANCH   3   4
ENDBRANCH   2   3
TORSDOF 8
ENDMDL
MODEL      211
REMARK 921   NORMALIZED FREE ENERGY PREDICTED BY IDOCK:   -2.84 KCAL/MOL
REMARK 922        TOTAL FREE ENERGY PREDICTED BY IDOCK:   -5.10 KCAL/MOL
REMARK 923 INTER-LIGAND FREE ENERGY PREDICTED BY IDOCK:   -4.85 KCAL/MOL
REMARK 924 INTRA-LIGAND FREE ENERGY PREDICTED BY IDOCK:   -0.26 KCAL/MOL
REMARK 927      BINDING AFFINITY PREDICTED BY RF-SCORE:    0.00 PKD
ROOT
HETATM    1  C   UNL     1      -9.603  15.898  66.059  1.00  0.00    -0.385 C  
HETATM    2  C   UNL     1     -10.298  14.805  65.267  1.00  0.00    -0.398 C  
ENDROOT
BRANCH   2   3
HETATM    3  O   UNL     1     -10.662  13.773  66.187  1.00  0.00    -0.280 OA 
BRANCH   3   4
HETATM    4  C   UNL     1     -10.992  12.587  65.617  1.00  0.00    -0.288 C  
HETATM    5  O   UNL     1     -11.828  12.425  64.741  1.00  0.00    -0.356 OA 
BRANCH   4   6
HETATM    6  C   UNL     1     -10.140  11.484  66.141  1.00  0.00    -0.266 C  
HETATM    7  C   UNL     1      -9.036  11.728  66.861  1.00  0.00    -0.192 C  
HETATM    8  C   UNL     1      -8.296  10.668  67.608  1.00  0.00    -0.114 C  
HETATM    9  H2  UNL     1     -10.747   8.480  68.137  1.00  0.00     0.000 HD 
HETATM   10  C   UNL     1      -8.426   9.252  66.982  1.00  0.00    -0.124 C  
HETATM   11  H1  UNL     1     -11.534   7.841  66.792  1.00  0.00     0.000 HD 
HETATM   12  C   UNL     1     -10.651  10.109  65.847  1.00  0.00    -0.042 C  
HETATM   13  C   UNL     1      -9.805   8.915  66.337  1.00  0.00    -0.283 C  
HETATM   14  N   UNL     1     -10.632   8.061  67.215  1.00  0.00    -0.313 NA 
BRANCH   8  15
HETATM   15  O   UNL     1      -8.825  10.829  68.924  1.00  0.00    -0.154 OA 
BRANCH  15  16
HETATM   16  C   UNL     1      -9.934  10.033  69.330  1.00  0.00    -0.213 C  
BRANCH  16  17
HETATM   17  C   UNL     1     -11.120  10.997  69.519  1.00  0.00    -0.322 C  
HETATM   18  C   UNL     1     -12.233  10.411  70.382  1.00  0.00    -0.389 C  
ENDBRANCH  16  17
BRANCH  16  19
HETATM   19  C   UNL     1      -9.654   9.228  70.611  1.00  0.00    -0.334 C  
HETATM   20  C   UNL     1      -8.669   8.079  70.431  1.00  0.00    -0.136 C  
ENDBRANCH  16  19
ENDBRANCH  15  16
ENDBRANCH   8  15
BRANCH  10  21
HETATM   21  N   UNL     1      -7.329   8.987  66.026  1.00  0.00    -0.093 N  
HETATM   22  H   UNL     1      -6.929   9.760  65.494  1.00  0.00     0.000 HD 
HETATM   23  C   UNL     1      -6.838   7.713  65.842  1.00  0.00    -0.057 C  
HETATM   24  C   UNL     1      -5.694   7.614  64.869  1.00  0.00    -0.037 C  
HETATM   25  O   UNL     1      -7.277   6.727  66.421  1.00  0.00    -0.069 OA 
ENDBRANCH  10  21
ENDBRANCH   4   6
ENDBRANCH   3   4
ENDBRANCH   2   3
TORSDOF 8
ENDMDL
MODEL      212
REMARK 921   NORMALIZED FREE ENERGY PREDICTED BY IDOCK:   -2.82 KCAL/MOL
REMARK 922        TOTAL FREE ENERGY PREDICTED BY IDOCK:   -5.08 KCAL/MOL
REMARK 923 INTER-LIGAND FREE ENERGY PREDICTED BY IDOCK:   -5.87 KCAL/MOL
REMARK 924 INTRA-LIGAND FREE ENERGY PREDICTED BY IDOCK:    0.79 KCAL/MOL
REMARK 927      BINDING AFFINITY PREDICTED BY RF-SCORE:    0.00 PKD
ROOT
HETATM    1  C   UNL     1     -12.269  11.693  63.630  1.00  0.00    -0.348 C  
HETATM    2  C   UNL     1     -12.517  13.136  63.228  1.00  0.00    -0.162 C  
ENDROOT
BRANCH   2   3
HETATM    3  O   UNL     1     -11.903  13.968  64.216  1.00  0.00    -0.421 OA 
BRANCH   3   4
HETATM    4  C   UNL     1     -10.641  13.612  64.562  1.00  0.00    -0.411 C  
HETATM    5  O   UNL     1      -9.853  13.002  63.854  1.00  0.00    -0.220 OA 
BRANCH   4   6
HETATM    6  C   UNL     1     -10.286  14.130  65.911  1.00  0.00    -0.326 C  
HETATM    7  C   UNL     1      -9.291  13.595  66.632  1.00  0.00    -0.265 C  
HETATM    8  C   UNL     1      -8.742  14.229  67.867  1.00  0.00    -0.178 C  
HETATM    9  H2  UNL     1      -9.468  17.423  67.277  1.00  0.00     0.000 HD 
HETATM   10  C   UNL     1      -9.771  15.103  68.634  1.00  0.00    -0.216 C  
HETATM   11  H1  UNL     1     -11.086  17.832  67.050  1.00  0.00     0.000 HD 
HETATM   12  C   UNL     1     -11.084  15.316  66.354  1.00  0.00    -0.273 C  
HETATM   13  C   UNL     1     -10.788  15.891  67.754  1.00  0.00    -0.324 C  
HETATM   14  N   UNL     1     -10.420  17.316  67.626  1.00  0.00    -0.356 NA 
BRANCH   8  15
HETATM   15  O   UNL     1      -7.597  14.908  67.350  1.00  0.00    -0.181 OA 
BRANCH  15  16
HETATM   16  C   UNL     1      -6.402  14.943  68.125  1.00  0.00    -0.136 C  
BRANCH  16  17
HETATM   17  C   UNL     1      -6.821  14.729  69.591  1.00  0.00    -0.173 C  
HETATM   18  C   UNL     1      -5.877  13.805  70.352  1.00  0.00    -0.162 C  
ENDBRANCH  16  17
BRANCH  16  19
HETATM   19  C   UNL     1      -5.617  16.255  67.950  1.00  0.00    -0.136 C  
HETATM   20  C   UNL     1      -6.467  17.516  68.047  1.00  0.00    -0.172 C  
ENDBRANCH  16  19
ENDBRANCH  15  16
ENDBRANCH   8  15
BRANCH  10  21
HETATM   21  N   UNL     1     -10.482  14.313  69.663  1.00  0.00    -0.439 N  
HETATM   22  H   UNL     1     -10.119  13.398  69.932  1.00  0.00     0.000 HD 
HETATM   23  C   UNL     1     -11.625  14.792  70.265  1.00  0.00    -0.282 C  
HETATM   24  C   UNL     1     -12.205  13.891  71.322  1.00  0.00    -0.353 C  
HETATM   25  O   UNL     1     -12.139  15.867  69.984  1.00  0.00    -0.336 OA 
ENDBRANCH  10  21
ENDBRANCH   4   6
ENDBRANCH   3   4
ENDBRANCH   2   3
TORSDOF 8
ENDMDL
MODEL      213
REMARK 921   NORMALIZED FREE ENERGY PREDICTED BY IDOCK:   -2.81 KCAL/MOL
REMARK 922        TOTAL FREE ENERGY PREDICTED BY IDOCK:   -5.07 KCAL/MOL
REMARK 923 INTER-LIGAND FREE ENERGY PREDICTED BY IDOCK:   -6.12 KCAL/MOL
REMARK 924 INTRA-LIGAND FREE ENERGY PREDICTED BY IDOCK:    1.05 KCAL/MOL
REMARK 927      BINDING AFFINITY PREDICTED BY RF-SCORE:    0.00 PKD
ROOT
HETATM    1  C   UNL     1      -5.815  20.486  66.270  1.00  0.00    -0.222 C  
HETATM    2  C   UNL     1      -6.938  19.839  65.479  1.00  0.00    -0.304 C  
ENDROOT
BRANCH   2   3
HETATM    3  O   UNL     1      -6.429  18.622  64.927  1.00  0.00    -0.494 OA 
BRANCH   3   4
HETATM    4  C   UNL     1      -6.227  17.626  65.824  1.00  0.00    -0.099 C  
HETATM    5  O   UNL     1      -5.155  17.091  66.067  1.00  0.00    -0.348 OA 
BRANCH   4   6
HETATM    6  C   UNL     1      -7.481  17.301  66.558  1.00  0.00    -0.315 C  
HETATM    7  C   UNL     1      -8.680  17.353  65.960  1.00  0.00    -0.097 C  
HETATM    8  C   UNL     1      -9.925  16.805  66.575  1.00  0.00    -0.298 C  
HETATM    9  H2  UNL     1      -8.635  14.474  68.570  1.00  0.00     0.000 HD 
HETATM   10  C   UNL     1      -9.915  16.816  68.129  1.00  0.00    -0.270 C  
HETATM   11  H1  UNL     1      -7.540  14.968  69.750  1.00  0.00     0.000 HD 
HETATM   12  C   UNL     1      -7.280  16.864  67.974  1.00  0.00    -0.168 C  
HETATM   13  C   UNL     1      -8.538  16.536  68.804  1.00  0.00    -0.262 C  
HETATM   14  N   UNL     1      -8.441  15.151  69.308  1.00  0.00    -0.219 NA 
BRANCH   8  15
HETATM   15  O   UNL     1     -10.006  15.523  65.952  1.00  0.00    -0.296 OA 
BRANCH  15  16
HETATM   16  C   UNL     1     -11.131  14.691  66.219  1.00  0.00    -0.336 C  
BRANCH  16  17
HETATM   17  C   UNL     1     -10.601  13.473  66.999  1.00  0.00    -0.269 C  
HETATM   18  C   UNL     1     -11.685  12.763  67.804  1.00  0.00    -0.412 C  
ENDBRANCH  16  17
BRANCH  16  19
HETATM   19  C   UNL     1     -11.871  14.261  64.941  1.00  0.00    -0.414 C  
HETATM   20  C   UNL     1     -11.314  13.006  64.280  1.00  0.00    -0.419 C  
ENDBRANCH  16  19
ENDBRANCH  15  16
ENDBRANCH   8  15
BRANCH  10  21
HETATM   21  N   UNL     1     -10.507  18.063  68.658  1.00  0.00    -0.366 N  
HETATM   22  H   UNL     1     -11.512  18.109  68.828  1.00  0.00     0.000 HD 
HETATM   23  C   UNL     1      -9.724  19.165  68.926  1.00  0.00    -0.414 C  
HETATM   24  C   UNL     1     -10.468  20.341  69.502  1.00  0.00     0.259 C  
HETATM   25  O   UNL     1      -8.516  19.203  68.728  1.00  0.00    -0.362 OA 
ENDBRANCH  10  21
ENDBRANCH   4   6
ENDBRANCH   3   4
ENDBRANCH   2   3
TORSDOF 8
ENDMDL
MODEL      214
REMARK 921   NORMALIZED FREE ENERGY PREDICTED BY IDOCK:   -2.79 KCAL/MOL
REMARK 922        TOTAL FREE ENERGY PREDICTED BY IDOCK:   -5.03 KCAL/MOL
REMARK 923 INTER-LIGAND FREE ENERGY PREDICTED BY IDOCK:   -4.16 KCAL/MOL
REMARK 924 INTRA-LIGAND FREE ENERGY PREDICTED BY IDOCK:   -0.87 KCAL/MOL
REMARK 927      BINDING AFFINITY PREDICTED BY RF-SCORE:    0.00 PKD
ROOT
HETATM    1  C   UNL     1      -5.327   6.764  72.007  1.00  0.00    -0.036 C  
HETATM    2  C   UNL     1      -5.219   8.275  71.901  1.00  0.00    -0.035 C  
ENDROOT
BRANCH   2   3
HETATM    3  O   UNL     1      -6.474   8.825  72.311  1.00  0.00    -0.114 OA 
BRANCH   3   4
HETATM    4  C   UNL     1      -7.220   9.358  71.311  1.00  0.00     0.092 C  
HETATM    5  O   UNL     1      -6.925  10.340  70.647  1.00  0.00    -0.323 OA 
BRANCH   4   6
HETATM    6  C   UNL     1      -8.437   8.540  71.056  1.00  0.00    -0.185 C  
HETATM    7  C   UNL     1      -9.014   8.495  69.846  1.00  0.00    -0.145 C  
HETATM    8  C   UNL     1     -10.075   7.510  69.481  1.00  0.00    -0.189 C  
HETATM    9  H2  UNL     1      -9.357   5.041  71.593  1.00  0.00     0.000 HD 
HETATM   10  C   UNL     1     -10.936   7.040  70.686  1.00  0.00    -0.260 C  
HETATM   11  H1  UNL     1      -9.385   5.384  73.242  1.00  0.00     0.000 HD 
HETATM   12  C   UNL     1      -8.912   7.744  72.229  1.00  0.00    -0.194 C  
HETATM   13  C   UNL     1     -10.185   6.892  72.044  1.00  0.00    -0.187 C  
HETATM   14  N   UNL     1      -9.876   5.481  72.353  1.00  0.00    -0.161 NA 
BRANCH   8  15
HETATM   15  O   UNL     1      -9.310   6.503  68.820  1.00  0.00    -0.131 OA 
BRANCH  15  16
HETATM   16  C   UNL     1      -9.974   5.568  67.975  1.00  0.00    -0.149 C  
BRANCH  16  17
HETATM   17  C   UNL     1      -9.498   4.169  68.408  1.00  0.00    -0.212 C  
HETATM   18  C   UNL     1      -9.219   3.243  67.229  1.00  0.00    -0.221 C  
ENDBRANCH  16  17
BRANCH  16  19
HETATM   19  C   UNL     1      -9.702   5.818  66.481  1.00  0.00    -0.185 C  
HETATM   20  C   UNL     1      -8.523   6.740  66.200  1.00  0.00    -0.135 C  
ENDBRANCH  16  19
ENDBRANCH  15  16
ENDBRANCH   8  15
BRANCH  10  21
HETATM   21  N   UNL     1     -12.137   7.889  70.849  1.00  0.00    -0.468 N  
HETATM   22  H   UNL     1     -12.172   8.801  70.392  1.00  0.00     0.000 HD 
HETATM   23  C   UNL     1     -13.208   7.468  71.606  1.00  0.00    -0.356 C  
HETATM   24  C   UNL     1     -14.370   8.425  71.638  1.00  0.00    -0.536 C  
HETATM   25  O   UNL     1     -13.237   6.402  72.207  1.00  0.00    -0.030 OA 
ENDBRANCH  10  21
ENDBRANCH   4   6
ENDBRANCH   3   4
ENDBRANCH   2   3
TORSDOF 8
ENDMDL
MODEL      215
REMARK 921   NORMALIZED FREE ENERGY PREDICTED BY IDOCK:   -2.77 KCAL/MOL
REMARK 922        TOTAL FREE ENERGY PREDICTED BY IDOCK:   -5.01 KCAL/MOL
REMARK 923 INTER-LIGAND FREE ENERGY PREDICTED BY IDOCK:   -4.63 KCAL/MOL
REMARK 924 INTRA-LIGAND FREE ENERGY PREDICTED BY IDOCK:   -0.38 KCAL/MOL
REMARK 927      BINDING AFFINITY PREDICTED BY RF-SCORE:    0.00 PKD
ROOT
HETATM    1  C   UNL     1      -5.846  17.493  69.986  1.00  0.00    -0.234 C  
HETATM    2  C   UNL     1      -6.003  16.711  68.694  1.00  0.00    -0.134 C  
ENDROOT
BRANCH   2   3
HETATM    3  O   UNL     1      -7.328  16.172  68.677  1.00  0.00    -0.156 OA 
BRANCH   3   4
HETATM    4  C   UNL     1      -7.859  15.994  67.442  1.00  0.00    -0.161 C  
HETATM    5  O   UNL     1      -7.522  16.588  66.428  1.00  0.00    -0.262 OA 
BRANCH   4   6
HETATM    6  C   UNL     1      -8.872  14.904  67.445  1.00  0.00    -0.204 C  
HETATM    7  C   UNL     1      -8.671  13.753  66.787  1.00  0.00    -0.108 C  
HETATM    8  C   UNL     1      -9.536  12.549  66.961  1.00  0.00    -0.216 C  
HETATM    9  H2  UNL     1     -10.685  13.072  70.040  1.00  0.00     0.000 HD 
HETATM   10  C   UNL     1     -11.000  12.881  67.361  1.00  0.00    -0.260 C  
HETATM   11  H1  UNL     1     -11.549  14.489  70.327  1.00  0.00     0.000 HD 
HETATM   12  C   UNL     1     -10.083  15.179  68.279  1.00  0.00    -0.223 C  
HETATM   13  C   UNL     1     -11.188  14.104  68.308  1.00  0.00    -0.272 C  
HETATM   14  N   UNL     1     -11.425  13.688  69.706  1.00  0.00    -0.226 NA 
BRANCH   8  15
HETATM   15  O   UNL     1      -8.779  11.791  67.905  1.00  0.00    -0.150 OA 
BRANCH  15  16
HETATM   16  C   UNL     1      -7.361  11.921  67.923  1.00  0.00    -0.104 C  
BRANCH  16  17
HETATM   17  C   UNL     1      -6.804  10.774  67.059  1.00  0.00    -0.094 C  
HETATM   18  C   UNL     1      -5.391  11.044  66.550  1.00  0.00    -0.103 C  
ENDBRANCH  16  17
BRANCH  16  19
HETATM   19  C   UNL     1      -6.778  11.888  69.346  1.00  0.00    -0.081 C  
HETATM   20  C   UNL     1      -6.059  13.165  69.764  1.00  0.00    -0.126 C  
ENDBRANCH  16  19
ENDBRANCH  15  16
ENDBRANCH   8  15
BRANCH  10  21
HETATM   21  N   UNL     1     -11.864  13.014  66.167  1.00  0.00    -0.390 N  
HETATM   22  H   UNL     1     -12.577  13.743  66.143  1.00  0.00     0.000 HD 
HETATM   23  C   UNL     1     -11.721  12.170  65.088  1.00  0.00    -0.310 C  
HETATM   24  C   UNL     1     -12.643  12.462  63.934  1.00  0.00    -0.528 C  
HETATM   25  O   UNL     1     -10.909  11.254  65.046  1.00  0.00    -0.282 OA 
ENDBRANCH  10  21
ENDBRANCH   4   6
ENDBRANCH   3   4
ENDBRANCH   2   3
TORSDOF 8
ENDMDL
MODEL      216
REMARK 921   NORMALIZED FREE ENERGY PREDICTED BY IDOCK:   -2.75 KCAL/MOL
REMARK 922        TOTAL FREE ENERGY PREDICTED BY IDOCK:   -4.98 KCAL/MOL
REMARK 923 INTER-LIGAND FREE ENERGY PREDICTED BY IDOCK:   -4.13 KCAL/MOL
REMARK 924 INTRA-LIGAND FREE ENERGY PREDICTED BY IDOCK:   -0.85 KCAL/MOL
REMARK 927      BINDING AFFINITY PREDICTED BY RF-SCORE:    0.00 PKD
ROOT
HETATM    1  C   UNL     1      -5.156   6.467  71.279  1.00  0.00    -0.019 C  
HETATM    2  C   UNL     1      -6.626   6.532  70.906  1.00  0.00    -0.053 C  
ENDROOT
BRANCH   2   3
HETATM    3  O   UNL     1      -7.348   6.931  72.074  1.00  0.00    -0.084 OA 
BRANCH   3   4
HETATM    4  C   UNL     1      -7.491   8.271  72.229  1.00  0.00    -0.117 C  
HETATM    5  O   UNL     1      -7.068   8.930  73.167  1.00  0.00    -0.344 OA 
BRANCH   4   6
HETATM    6  C   UNL     1      -8.175   8.877  71.054  1.00  0.00    -0.217 C  
HETATM    7  C   UNL     1      -7.580   9.811  70.297  1.00  0.00    -0.184 C  
HETATM    8  C   UNL     1      -8.119  10.264  68.981  1.00  0.00    -0.132 C  
HETATM    9  H2  UNL     1      -9.838   7.564  68.073  1.00  0.00     0.000 HD 
HETATM   10  C   UNL     1      -9.663  10.145  68.861  1.00  0.00    -0.187 C  
HETATM   11  H1  UNL     1     -11.075   7.040  69.090  1.00  0.00     0.000 HD 
HETATM   12  C   UNL     1      -9.532   8.319  70.764  1.00  0.00    -0.185 C  
HETATM   13  C   UNL     1     -10.310   8.920  69.575  1.00  0.00    -0.213 C  
HETATM   14  N   UNL     1     -10.651   7.842  68.623  1.00  0.00    -0.164 NA 
BRANCH   8  15
HETATM   15  O   UNL     1      -7.351   9.473  68.074  1.00  0.00    -0.081 OA 
BRANCH  15  16
HETATM   16  C   UNL     1      -7.579   9.603  66.674  1.00  0.00    -0.098 C  
BRANCH  16  17
HETATM   17  C   UNL     1      -6.974   8.351  66.013  1.00  0.00    -0.065 C  
HETATM   18  C   UNL     1      -7.899   7.140  66.071  1.00  0.00    -0.107 C  
ENDBRANCH  16  17
BRANCH  16  19
HETATM   19  C   UNL     1      -6.979  10.893  66.090  1.00  0.00    -0.099 C  
HETATM   20  C   UNL     1      -5.523  10.773  65.656  1.00  0.00    -0.141 C  
ENDBRANCH  16  19
ENDBRANCH  15  16
ENDBRANCH   8  15
BRANCH  10  21
HETATM   21  N   UNL     1     -10.330  11.398  69.278  1.00  0.00    -0.419 N  
HETATM   22  H   UNL     1      -9.923  11.957  70.028  1.00  0.00     0.000 HD 
HETATM   23  C   UNL     1     -11.491  11.822  68.669  1.00  0.00    -0.288 C  
HETATM   24  C   UNL     1     -12.022  13.137  69.175  1.00  0.00    -0.329 C  
HETATM   25  O   UNL     1     -12.058  11.199  67.781  1.00  0.00    -0.606 OA 
ENDBRANCH  10  21
ENDBRANCH   4   6
ENDBRANCH   3   4
ENDBRANCH   2   3
TORSDOF 8
ENDMDL
MODEL      217
REMARK 921   NORMALIZED FREE ENERGY PREDICTED BY IDOCK:   -2.74 KCAL/MOL
REMARK 922        TOTAL FREE ENERGY PREDICTED BY IDOCK:   -4.97 KCAL/MOL
REMARK 923 INTER-LIGAND FREE ENERGY PREDICTED BY IDOCK:   -4.14 KCAL/MOL
REMARK 924 INTRA-LIGAND FREE ENERGY PREDICTED BY IDOCK:   -0.83 KCAL/MOL
REMARK 927      BINDING AFFINITY PREDICTED BY RF-SCORE:    0.00 PKD
ROOT
HETATM    1  C   UNL     1     -13.022  12.190  71.832  1.00  0.00    -0.419 C  
HETATM    2  C   UNL     1     -13.204  10.720  71.498  1.00  0.00    -0.334 C  
ENDROOT
BRANCH   2   3
HETATM    3  O   UNL     1     -11.928  10.210  71.100  1.00  0.00    -0.335 OA 
BRANCH   3   4
HETATM    4  C   UNL     1     -11.737  10.127  69.760  1.00  0.00    -0.139 C  
HETATM    5  O   UNL     1     -12.287  10.820  68.916  1.00  0.00    -0.433 OA 
BRANCH   4   6
HETATM    6  C   UNL     1     -10.692   9.120  69.427  1.00  0.00    -0.210 C  
HETATM    7  C   UNL     1     -10.351   8.852  68.159  1.00  0.00    -0.261 C  
HETATM    8  C   UNL     1      -9.153   8.043  67.787  1.00  0.00    -0.131 C  
HETATM    9  H2  UNL     1      -7.225   8.564  70.449  1.00  0.00     0.000 HD 
HETATM   10  C   UNL     1      -8.747   6.994  68.859  1.00  0.00    -0.131 C  
HETATM   11  H1  UNL     1      -7.824   8.108  71.955  1.00  0.00     0.000 HD 
HETATM   12  C   UNL     1     -10.031   8.492  70.613  1.00  0.00    -0.222 C  
HETATM   13  C   UNL     1      -8.955   7.420  70.343  1.00  0.00    -0.150 C  
HETATM   14  N   UNL     1      -7.688   7.830  70.983  1.00  0.00    -0.082 NA 
BRANCH   8  15
HETATM   15  O   UNL     1      -8.196   9.066  67.510  1.00  0.00    -0.108 OA 
BRANCH  15  16
HETATM   16  C   UNL     1      -8.502  10.058  66.535  1.00  0.00    -0.126 C  
BRANCH  16  17
HETATM   17  C   UNL     1      -7.602   9.773  65.319  1.00  0.00    -0.119 C  
HETATM   18  C   UNL     1      -8.219   8.778  64.342  1.00  0.00    -0.169 C  
ENDBRANCH  16  17
BRANCH  16  19
HETATM   19  C   UNL     1      -8.301  11.491  67.060  1.00  0.00    -0.165 C  
HETATM   20  C   UNL     1      -6.848  11.949  67.103  1.00  0.00    -0.144 C  
ENDBRANCH  16  19
ENDBRANCH  15  16
ENDBRANCH   8  15
BRANCH  10  21
HETATM   21  N   UNL     1      -9.393   5.688  68.600  1.00  0.00    -0.121 N  
HETATM   22  H   UNL     1     -10.335   5.516  68.951  1.00  0.00     0.000 HD 
HETATM   23  C   UNL     1      -8.743   4.701  67.892  1.00  0.00    -0.104 C  
HETATM   24  C   UNL     1      -9.549   3.448  67.675  1.00  0.00    -0.160 C  
HETATM   25  O   UNL     1      -7.604   4.816  67.457  1.00  0.00    -0.081 OA 
ENDBRANCH  10  21
ENDBRANCH   4   6
ENDBRANCH   3   4
ENDBRANCH   2   3
TORSDOF 8
ENDMDL
MODEL      218
REMARK 921   NORMALIZED FREE ENERGY PREDICTED BY IDOCK:   -2.70 KCAL/MOL
REMARK 922        TOTAL FREE ENERGY PREDICTED BY IDOCK:   -4.90 KCAL/MOL
REMARK 923 INTER-LIGAND FREE ENERGY PREDICTED BY IDOCK:   -4.52 KCAL/MOL
REMARK 924 INTRA-LIGAND FREE ENERGY PREDICTED BY IDOCK:   -0.38 KCAL/MOL
REMARK 927      BINDING AFFINITY PREDICTED BY RF-SCORE:    0.00 PKD
ROOT
HETATM    1  C   UNL     1     -14.313   8.120  72.076  1.00  0.00    -0.524 C  
HETATM    2  C   UNL     1     -13.250   7.755  71.056  1.00  0.00     0.019 C  
ENDROOT
BRANCH   2   3
HETATM    3  O   UNL     1     -12.286   6.930  71.716  1.00  0.00    -0.326 OA 
BRANCH   3   4
HETATM    4  C   UNL     1     -11.037   7.454  71.789  1.00  0.00    -0.238 C  
HETATM    5  O   UNL     1     -10.516   7.921  72.791  1.00  0.00    -0.292 OA 
BRANCH   4   6
HETATM    6  C   UNL     1     -10.322   7.320  70.490  1.00  0.00    -0.215 C  
HETATM    7  C   UNL     1     -10.860   7.758  69.342  1.00  0.00    -0.121 C  
HETATM    8  C   UNL     1     -10.089   7.870  68.068  1.00  0.00    -0.192 C  
HETATM    9  H2  UNL     1      -7.006   8.252  69.261  1.00  0.00     0.000 HD 
HETATM   10  C   UNL     1      -8.917   6.856  67.952  1.00  0.00    -0.121 C  
HETATM   11  H1  UNL     1      -6.386   7.032  70.243  1.00  0.00     0.000 HD 
HETATM   12  C   UNL     1      -8.955   6.721  70.589  1.00  0.00    -0.151 C  
HETATM   13  C   UNL     1      -8.165   6.528  69.278  1.00  0.00    -0.123 C  
HETATM   14  N   UNL     1      -6.878   7.247  69.375  1.00  0.00    -0.049 NA 
BRANCH   8  15
HETATM   15  O   UNL     1      -9.731   9.252  68.076  1.00  0.00    -0.144 OA 
BRANCH  15  16
HETATM   16  C   UNL     1     -10.754  10.235  67.949  1.00  0.00    -0.264 C  
BRANCH  16  17
HETATM   17  C   UNL     1     -10.461  11.008  66.649  1.00  0.00    -0.307 C  
HETATM   18  C   UNL     1     -11.644  11.847  66.176  1.00  0.00    -0.299 C  
ENDBRANCH  16  17
BRANCH  16  19
HETATM   19  C   UNL     1     -10.825  11.180  69.161  1.00  0.00    -0.284 C  
HETATM   20  C   UNL     1     -12.096  11.048  69.991  1.00  0.00    -0.441 C  
ENDBRANCH  16  19
ENDBRANCH  15  16
ENDBRANCH   8  15
BRANCH  10  21
HETATM   21  N   UNL     1      -9.352   5.611  67.282  1.00  0.00    -0.112 N  
HETATM   22  H   UNL     1     -10.262   5.210  67.510  1.00  0.00     0.000 HD 
HETATM   23  C   UNL     1      -8.547   4.984  66.356  1.00  0.00    -0.111 C  
HETATM   24  C   UNL     1      -9.149   3.753  65.731  1.00  0.00    -0.149 C  
HETATM   25  O   UNL     1      -7.433   5.383  66.045  1.00  0.00    -0.080 OA 
ENDBRANCH  10  21
ENDBRANCH   4   6
ENDBRANCH   3   4
ENDBRANCH   2   3
TORSDOF 8
ENDMDL
MODEL      219
REMARK 921   NORMALIZED FREE ENERGY PREDICTED BY IDOCK:   -2.70 KCAL/MOL
REMARK 922        TOTAL FREE ENERGY PREDICTED BY IDOCK:   -4.90 KCAL/MOL
REMARK 923 INTER-LIGAND FREE ENERGY PREDICTED BY IDOCK:   -3.74 KCAL/MOL
REMARK 924 INTRA-LIGAND FREE ENERGY PREDICTED BY IDOCK:   -1.16 KCAL/MOL
REMARK 927      BINDING AFFINITY PREDICTED BY RF-SCORE:    0.00 PKD
ROOT
HETATM    1  C   UNL     1      -9.250   2.866  65.064  1.00  0.00    -0.148 C  
HETATM    2  C   UNL     1      -9.954   4.173  65.384  1.00  0.00    -0.205 C  
ENDROOT
BRANCH   2   3
HETATM    3  O   UNL     1      -9.799   4.412  66.786  1.00  0.00    -0.202 OA 
BRANCH   3   4
HETATM    4  C   UNL     1     -10.612   5.370  67.297  1.00  0.00    -0.176 C  
HETATM    5  O   UNL     1     -11.472   5.979  66.679  1.00  0.00     0.056 OA 
BRANCH   4   6
HETATM    6  C   UNL     1     -10.383   5.545  68.757  1.00  0.00    -0.271 C  
HETATM    7  C   UNL     1      -9.236   5.170  69.341  1.00  0.00    -0.155 C  
HETATM    8  C   UNL     1      -8.867   5.546  70.737  1.00  0.00    -0.134 C  
HETATM    9  H2  UNL     1     -10.618   8.354  71.088  1.00  0.00     0.000 HD 
HETATM   10  C   UNL     1     -10.088   5.767  71.671  1.00  0.00    -0.194 C  
HETATM   11  H1  UNL     1     -12.290   8.266  70.902  1.00  0.00     0.000 HD 
HETATM   12  C   UNL     1     -11.502   6.217  69.488  1.00  0.00    -0.387 C  
HETATM   13  C   UNL     1     -11.345   6.409  71.010  1.00  0.00    -0.328 C  
HETATM   14  N   UNL     1     -11.467   7.845  71.335  1.00  0.00    -0.255 NA 
BRANCH   8  15
HETATM   15  O   UNL     1      -8.030   6.680  70.512  1.00  0.00    -0.107 OA 
BRANCH  15  16
HETATM   16  C   UNL     1      -7.741   7.557  71.597  1.00  0.00    -0.085 C  
BRANCH  16  17
HETATM   17  C   UNL     1      -7.756   8.986  71.023  1.00  0.00    -0.153 C  
HETATM   18  C   UNL     1      -7.984   9.021  69.516  1.00  0.00    -0.099 C  
ENDBRANCH  16  17
BRANCH  16  19
HETATM   19  C   UNL     1      -6.399   7.239  72.278  1.00  0.00    -0.047 C  
HETATM   20  C   UNL     1      -6.524   6.495  73.603  1.00  0.00    -0.065 C  
ENDBRANCH  16  19
ENDBRANCH  15  16
ENDBRANCH   8  15
BRANCH  10  21
HETATM   21  N   UNL     1     -10.455   4.519  72.376  1.00  0.00    -0.190 N  
HETATM   22  H   UNL     1     -10.802   3.723  71.839  1.00  0.00     0.000 HD 
HETATM   23  C   UNL     1     -10.336   4.413  73.744  1.00  0.00    -0.194 C  
HETATM   24  C   UNL     1     -10.707   3.066  74.306  1.00  0.00    -0.207 C  
HETATM   25  O   UNL     1      -9.954   5.326  74.464  1.00  0.00    -0.191 OA 
ENDBRANCH  10  21
ENDBRANCH   4   6
ENDBRANCH   3   4
ENDBRANCH   2   3
TORSDOF 8
ENDMDL
MODEL      220
REMARK 921   NORMALIZED FREE ENERGY PREDICTED BY IDOCK:   -2.69 KCAL/MOL
REMARK 922        TOTAL FREE ENERGY PREDICTED BY IDOCK:   -4.89 KCAL/MOL
REMARK 923 INTER-LIGAND FREE ENERGY PREDICTED BY IDOCK:   -4.81 KCAL/MOL
REMARK 924 INTRA-LIGAND FREE ENERGY PREDICTED BY IDOCK:   -0.08 KCAL/MOL
REMARK 927      BINDING AFFINITY PREDICTED BY RF-SCORE:    0.00 PKD
ROOT
HETATM    1  C   UNL     1     -13.301  12.978  71.813  1.00  0.00    -0.468 C  
HETATM    2  C   UNL     1     -12.705  11.874  70.958  1.00  0.00    -0.258 C  
ENDROOT
BRANCH   2   3
HETATM    3  O   UNL     1     -11.564  12.418  70.289  1.00  0.00    -0.180 OA 
BRANCH   3   4
HETATM    4  C   UNL     1     -11.584  12.304  68.938  1.00  0.00    -0.316 C  
HETATM    5  O   UNL     1     -12.277  12.964  68.176  1.00  0.00    -0.211 OA 
BRANCH   4   6
HETATM    6  C   UNL     1     -10.580  11.311  68.467  1.00  0.00    -0.227 C  
HETATM    7  C   UNL     1     -10.948  10.128  67.954  1.00  0.00    -0.335 C  
HETATM    8  C   UNL     1     -10.002   9.213  67.248  1.00  0.00    -0.211 C  
HETATM    9  H2  UNL     1      -7.747  11.403  66.156  1.00  0.00     0.000 HD 
HETATM   10  C   UNL     1      -8.529   9.344  67.726  1.00  0.00    -0.116 C  
HETATM   11  H1  UNL     1      -6.945  12.343  67.301  1.00  0.00     0.000 HD 
HETATM   12  C   UNL     1      -9.159  11.768  68.560  1.00  0.00    -0.144 C  
HETATM   13  C   UNL     1      -8.062  10.779  68.113  1.00  0.00    -0.117 C  
HETATM   14  N   UNL     1      -7.251  11.403  67.047  1.00  0.00    -0.133 NA 
BRANCH   8  15
HETATM   15  O   UNL     1     -10.256   9.542  65.883  1.00  0.00    -0.266 OA 
BRANCH  15  16
HETATM   16  C   UNL     1      -9.606  10.672  65.308  1.00  0.00    -0.241 C  
BRANCH  16  17
HETATM   17  C   UNL     1     -10.717  11.649  64.882  1.00  0.00    -0.352 C  
HETATM   18  C   UNL     1     -10.917  11.703  63.371  1.00  0.00    -0.442 C  
ENDBRANCH  16  17
BRANCH  16  19
HETATM   19  C   UNL     1      -8.701  10.298  64.121  1.00  0.00    -0.214 C  
HETATM   20  C   UNL     1      -8.374   8.813  64.020  1.00  0.00    -0.146 C  
ENDBRANCH  16  19
ENDBRANCH  15  16
ENDBRANCH   8  15
BRANCH  10  21
HETATM   21  N   UNL     1      -8.235   8.391  68.819  1.00  0.00    -0.118 N  
HETATM   22  H   UNL     1      -8.309   8.702  69.788  1.00  0.00     0.000 HD 
HETATM   23  C   UNL     1      -7.863   7.092  68.550  1.00  0.00    -0.122 C  
HETATM   24  C   UNL     1      -7.641   6.237  69.768  1.00  0.00    -0.086 C  
HETATM   25  O   UNL     1      -7.726   6.647  67.418  1.00  0.00    -0.105 OA 
ENDBRANCH  10  21
ENDBRANCH   4   6
ENDBRANCH   3   4
ENDBRANCH   2   3
TORSDOF 8
ENDMDL
MODEL      221
REMARK 921   NORMALIZED FREE ENERGY PREDICTED BY IDOCK:   -2.69 KCAL/MOL
REMARK 922        TOTAL FREE ENERGY PREDICTED BY IDOCK:   -4.89 KCAL/MOL
REMARK 923 INTER-LIGAND FREE ENERGY PREDICTED BY IDOCK:   -4.05 KCAL/MOL
REMARK 924 INTRA-LIGAND FREE ENERGY PREDICTED BY IDOCK:   -0.84 KCAL/MOL
REMARK 927      BINDING AFFINITY PREDICTED BY RF-SCORE:    0.00 PKD
ROOT
HETATM    1  C   UNL     1     -13.233  12.337  71.935  1.00  0.00    -0.481 C  
HETATM    2  C   UNL     1     -13.314  10.823  71.860  1.00  0.00    -0.340 C  
ENDROOT
BRANCH   2   3
HETATM    3  O   UNL     1     -11.977  10.326  71.756  1.00  0.00    -0.271 OA 
BRANCH   3   4
HETATM    4  C   UNL     1     -11.625   9.881  70.525  1.00  0.00    -0.309 C  
HETATM    5  O   UNL     1     -12.143  10.217  69.470  1.00  0.00    -0.111 OA 
BRANCH   4   6
HETATM    6  C   UNL     1     -10.451   8.969  70.598  1.00  0.00    -0.285 C  
HETATM    7  C   UNL     1     -10.002   8.311  69.519  1.00  0.00    -0.187 C  
HETATM    8  C   UNL     1      -8.696   7.588  69.487  1.00  0.00    -0.137 C  
HETATM    9  H2  UNL     1      -7.012   9.281  71.805  1.00  0.00     0.000 HD 
HETATM   10  C   UNL     1      -8.238   7.057  70.873  1.00  0.00    -0.121 C  
HETATM   11  H1  UNL     1      -7.647   9.321  73.365  1.00  0.00     0.000 HD 
HETATM   12  C   UNL     1      -9.795   8.902  71.941  1.00  0.00    -0.364 C  
HETATM   13  C   UNL     1      -8.586   7.957  72.097  1.00  0.00    -0.140 C  
HETATM   14  N   UNL     1      -7.419   8.733  72.563  1.00  0.00    -0.350 NA 
BRANCH   8  15
HETATM   15  O   UNL     1      -7.851   8.560  68.871  1.00  0.00    -0.105 OA 
BRANCH  15  16
HETATM   16  C   UNL     1      -7.032   8.172  67.772  1.00  0.00    -0.078 C  
BRANCH  16  17
HETATM   17  C   UNL     1      -6.520   9.473  67.125  1.00  0.00    -0.066 C  
HETATM   18  C   UNL     1      -5.250  10.005  67.781  1.00  0.00    -0.035 C  
ENDBRANCH  16  17
BRANCH  16  19
HETATM   19  C   UNL     1      -7.778   7.294  66.753  1.00  0.00    -0.109 C  
HETATM   20  C   UNL     1      -8.329   8.050  65.551  1.00  0.00    -0.153 C  
ENDBRANCH  16  19
ENDBRANCH  15  16
ENDBRANCH   8  15
BRANCH  10  21
HETATM   21  N   UNL     1      -8.708   5.673  71.098  1.00  0.00    -0.133 N  
HETATM   22  H   UNL     1      -9.592   5.370  70.687  1.00  0.00     0.000 HD 
HETATM   23  C   UNL     1      -7.973   4.785  71.852  1.00  0.00    -0.105 C  
HETATM   24  C   UNL     1      -8.563   3.403  71.950  1.00  0.00    -0.104 C  
HETATM   25  O   UNL     1      -6.916   5.073  72.400  1.00  0.00    -0.066 OA 
ENDBRANCH  10  21
ENDBRANCH   4   6
ENDBRANCH   3   4
ENDBRANCH   2   3
TORSDOF 8
ENDMDL
MODEL      222
REMARK 921   NORMALIZED FREE ENERGY PREDICTED BY IDOCK:   -2.68 KCAL/MOL
REMARK 922        TOTAL FREE ENERGY PREDICTED BY IDOCK:   -4.88 KCAL/MOL
REMARK 923 INTER-LIGAND FREE ENERGY PREDICTED BY IDOCK:   -4.36 KCAL/MOL
REMARK 924 INTRA-LIGAND FREE ENERGY PREDICTED BY IDOCK:   -0.51 KCAL/MOL
REMARK 927      BINDING AFFINITY PREDICTED BY RF-SCORE:    0.00 PKD
ROOT
HETATM    1  C   UNL     1     -11.543  13.058  65.729  1.00  0.00    -0.396 C  
HETATM    2  C   UNL     1     -11.156  12.522  67.096  1.00  0.00    -0.276 C  
ENDROOT
BRANCH   2   3
HETATM    3  O   UNL     1     -11.563  11.152  67.152  1.00  0.00    -0.495 OA 
BRANCH   3   4
HETATM    4  C   UNL     1     -10.735  10.283  66.521  1.00  0.00    -0.078 C  
HETATM    5  O   UNL     1     -10.376  10.357  65.355  1.00  0.00    -0.275 OA 
BRANCH   4   6
HETATM    6  C   UNL     1     -10.236   9.240  67.459  1.00  0.00    -0.300 C  
HETATM    7  C   UNL     1     -10.540   7.944  67.297  1.00  0.00    -0.365 C  
HETATM    8  C   UNL     1      -9.870   6.846  68.055  1.00  0.00    -0.139 C  
HETATM    9  H2  UNL     1      -6.947   8.282  68.740  1.00  0.00     0.000 HD 
HETATM   10  C   UNL     1      -9.353   7.275  69.456  1.00  0.00    -0.152 C  
HETATM   11  H1  UNL     1      -6.964   9.713  69.628  1.00  0.00     0.000 HD 
HETATM   12  C   UNL     1      -9.336   9.751  68.539  1.00  0.00    -0.142 C  
HETATM   13  C   UNL     1      -8.802   8.729  69.563  1.00  0.00    -0.144 C  
HETATM   14  N   UNL     1      -7.324   8.761  69.557  1.00  0.00    -0.066 NA 
BRANCH   8  15
HETATM   15  O   UNL     1      -8.880   6.419  67.119  1.00  0.00    -0.113 OA 
BRANCH  15  16
HETATM   16  C   UNL     1      -8.407   5.077  67.171  1.00  0.00    -0.106 C  
BRANCH  16  17
HETATM   17  C   UNL     1      -6.921   5.150  67.569  1.00  0.00    -0.065 C  
HETATM   18  C   UNL     1      -5.993   5.350  66.375  1.00  0.00    -0.022 C  
ENDBRANCH  16  17
BRANCH  16  19
HETATM   19  C   UNL     1      -8.597   4.327  65.841  1.00  0.00    -0.114 C  
HETATM   20  C   UNL     1     -10.035   4.286  65.339  1.00  0.00    -0.233 C  
ENDBRANCH  16  19
ENDBRANCH  15  16
ENDBRANCH   8  15
BRANCH  10  21
HETATM   21  N   UNL     1     -10.372   7.030  70.500  1.00  0.00    -0.200 N  
HETATM   22  H   UNL     1     -11.099   7.727  70.665  1.00  0.00     0.000 HD 
HETATM   23  C   UNL     1     -10.356   5.876  71.253  1.00  0.00    -0.221 C  
HETATM   24  C   UNL     1     -11.484   5.755  72.242  1.00  0.00    -0.320 C  
HETATM   25  O   UNL     1      -9.507   5.002  71.136  1.00  0.00    -0.143 OA 
ENDBRANCH  10  21
ENDBRANCH   4   6
ENDBRANCH   3   4
ENDBRANCH   2   3
TORSDOF 8
ENDMDL
MODEL      223
REMARK 921   NORMALIZED FREE ENERGY PREDICTED BY IDOCK:   -2.66 KCAL/MOL
REMARK 922        TOTAL FREE ENERGY PREDICTED BY IDOCK:   -4.85 KCAL/MOL
REMARK 923 INTER-LIGAND FREE ENERGY PREDICTED BY IDOCK:   -3.81 KCAL/MOL
REMARK 924 INTRA-LIGAND FREE ENERGY PREDICTED BY IDOCK:   -1.04 KCAL/MOL
REMARK 927      BINDING AFFINITY PREDICTED BY RF-SCORE:    0.00 PKD
ROOT
HETATM    1  C   UNL     1      -9.577   2.945  73.700  1.00  0.00    -0.126 C  
HETATM    2  C   UNL     1      -8.908   4.016  74.543  1.00  0.00    -0.093 C  
ENDROOT
BRANCH   2   3
HETATM    3  O   UNL     1      -9.136   5.273  73.900  1.00  0.00    -0.122 OA 
BRANCH   3   4
HETATM    4  C   UNL     1      -8.305   5.546  72.864  1.00  0.00    -0.116 C  
HETATM    5  O   UNL     1      -7.123   5.240  72.798  1.00  0.00    -0.083 OA 
BRANCH   4   6
HETATM    6  C   UNL     1      -9.034   6.213  71.750  1.00  0.00    -0.141 C  
HETATM    7  C   UNL     1      -8.525   6.272  70.511  1.00  0.00    -0.138 C  
HETATM    8  C   UNL     1      -9.316   6.704  69.321  1.00  0.00    -0.142 C  
HETATM    9  H2  UNL     1     -12.391   5.926  70.328  1.00  0.00     0.000 HD 
HETATM   10  C   UNL     1     -10.461   7.699  69.657  1.00  0.00    -0.235 C  
HETATM   11  H1  UNL     1     -12.964   6.651  71.736  1.00  0.00     0.000 HD 
HETATM   12  C   UNL     1     -10.383   6.744  72.118  1.00  0.00    -0.221 C  
HETATM   13  C   UNL     1     -11.185   7.471  71.018  1.00  0.00    -0.263 C  
HETATM   14  N   UNL     1     -12.490   6.800  70.845  1.00  0.00    -0.313 NA 
BRANCH   8  15
HETATM   15  O   UNL     1      -9.711   5.447  68.773  1.00  0.00    -0.126 OA 
BRANCH  15  16
HETATM   16  C   UNL     1      -9.296   5.103  67.454  1.00  0.00    -0.120 C  
BRANCH  16  17
HETATM   17  C   UNL     1     -10.540   5.226  66.556  1.00  0.00    -0.348 C  
HETATM   18  C   UNL     1     -10.478   4.326  65.326  1.00  0.00    -0.196 C  
ENDBRANCH  16  17
BRANCH  16  19
HETATM   19  C   UNL     1      -8.679   3.696  67.372  1.00  0.00    -0.129 C  
HETATM   20  C   UNL     1      -8.385   3.055  68.724  1.00  0.00    -0.086 C  
ENDBRANCH  16  19
ENDBRANCH  15  16
ENDBRANCH   8  15
BRANCH  10  21
HETATM   21  N   UNL     1     -10.003   9.101  69.543  1.00  0.00    -0.182 N  
HETATM   22  H   UNL     1      -9.596   9.563  70.357  1.00  0.00     0.000 HD 
HETATM   23  C   UNL     1     -10.117   9.792  68.357  1.00  0.00    -0.166 C  
HETATM   24  C   UNL     1      -9.565  11.193  68.390  1.00  0.00    -0.192 C  
HETATM   25  O   UNL     1     -10.615   9.322  67.343  1.00  0.00    -0.272 OA 
ENDBRANCH  10  21
ENDBRANCH   4   6
ENDBRANCH   3   4
ENDBRANCH   2   3
TORSDOF 8
ENDMDL
MODEL      224
REMARK 921   NORMALIZED FREE ENERGY PREDICTED BY IDOCK:   -2.64 KCAL/MOL
REMARK 922        TOTAL FREE ENERGY PREDICTED BY IDOCK:   -4.82 KCAL/MOL
REMARK 923 INTER-LIGAND FREE ENERGY PREDICTED BY IDOCK:   -4.03 KCAL/MOL
REMARK 924 INTRA-LIGAND FREE ENERGY PREDICTED BY IDOCK:   -0.79 KCAL/MOL
REMARK 927      BINDING AFFINITY PREDICTED BY RF-SCORE:    0.00 PKD
ROOT
HETATM    1  C   UNL     1      -9.481   4.908  73.342  1.00  0.00    -0.141 C  
HETATM    2  C   UNL     1     -10.739   5.664  73.731  1.00  0.00    -0.242 C  
ENDROOT
BRANCH   2   3
HETATM    3  O   UNL     1     -10.714   6.920  73.046  1.00  0.00    -0.253 OA 
BRANCH   3   4
HETATM    4  C   UNL     1     -11.274   6.910  71.812  1.00  0.00    -0.252 C  
HETATM    5  O   UNL     1     -12.336   6.381  71.514  1.00  0.00    -0.281 OA 
BRANCH   4   6
HETATM    6  C   UNL     1     -10.466   7.705  70.847  1.00  0.00    -0.210 C  
HETATM    7  C   UNL     1     -11.036   8.379  69.838  1.00  0.00    -0.109 C  
HETATM    8  C   UNL     1     -10.304   9.378  69.004  1.00  0.00    -0.210 C  
HETATM    9  H2  UNL     1      -7.950  10.342  71.149  1.00  0.00     0.000 HD 
HETATM   10  C   UNL     1      -8.779   9.104  68.892  1.00  0.00    -0.132 C  
HETATM   11  H1  UNL     1      -6.903   9.166  71.748  1.00  0.00     0.000 HD 
HETATM   12  C   UNL     1      -8.999   7.734  71.137  1.00  0.00    -0.146 C  
HETATM   13  C   UNL     1      -8.095   8.518  70.164  1.00  0.00    -0.111 C  
HETATM   14  N   UNL     1      -7.351   9.550  70.916  1.00  0.00    -0.295 NA 
BRANCH   8  15
HETATM   15  O   UNL     1     -10.682  10.602  69.634  1.00  0.00    -0.243 OA 
BRANCH  15  16
HETATM   16  C   UNL     1     -10.827  11.776  68.841  1.00  0.00    -0.223 C  
BRANCH  16  17
HETATM   17  C   UNL     1     -11.763  11.407  67.675  1.00  0.00    -0.246 C  
HETATM   18  C   UNL     1     -11.128  11.632  66.307  1.00  0.00    -0.345 C  
ENDBRANCH  16  17
BRANCH  16  19
HETATM   19  C   UNL     1      -9.481  12.319  68.331  1.00  0.00    -0.175 C  
HETATM   20  C   UNL     1      -9.235  13.791  68.641  1.00  0.00    -0.069 C  
ENDBRANCH  16  19
ENDBRANCH  15  16
ENDBRANCH   8  15
BRANCH  10  21
HETATM   21  N   UNL     1      -8.471   8.271  67.709  1.00  0.00    -0.130 N  
HETATM   22  H   UNL     1      -9.081   7.488  67.474  1.00  0.00     0.000 HD 
HETATM   23  C   UNL     1      -7.374   8.536  66.918  1.00  0.00    -0.083 C  
HETATM   24  C   UNL     1      -7.222   7.626  65.728  1.00  0.00    -0.065 C  
HETATM   25  O   UNL     1      -6.578   9.439  67.143  1.00  0.00    -0.069 OA 
ENDBRANCH  10  21
ENDBRANCH   4   6
ENDBRANCH   3   4
ENDBRANCH   2   3
TORSDOF 8
ENDMDL
MODEL      225
REMARK 921   NORMALIZED FREE ENERGY PREDICTED BY IDOCK:   -2.63 KCAL/MOL
REMARK 922        TOTAL FREE ENERGY PREDICTED BY IDOCK:   -4.80 KCAL/MOL
REMARK 923 INTER-LIGAND FREE ENERGY PREDICTED BY IDOCK:   -3.97 KCAL/MOL
REMARK 924 INTRA-LIGAND FREE ENERGY PREDICTED BY IDOCK:   -0.83 KCAL/MOL
REMARK 927      BINDING AFFINITY PREDICTED BY RF-SCORE:    0.00 PKD
ROOT
HETATM    1  C   UNL     1     -11.531   2.285  73.662  1.00  0.00    -0.297 C  
HETATM    2  C   UNL     1     -10.352   3.219  73.450  1.00  0.00    -0.158 C  
ENDROOT
BRANCH   2   3
HETATM    3  O   UNL     1     -10.387   3.650  72.086  1.00  0.00    -0.144 OA 
BRANCH   3   4
HETATM    4  C   UNL     1      -9.400   3.150  71.302  1.00  0.00    -0.137 C  
HETATM    5  O   UNL     1      -8.719   2.167  71.553  1.00  0.00    -0.061 OA 
BRANCH   4   6
HETATM    6  C   UNL     1      -9.290   3.911  70.027  1.00  0.00    -0.247 C  
HETATM    7  C   UNL     1     -10.094   4.948  69.754  1.00  0.00    -0.319 C  
HETATM    8  C   UNL     1      -9.863   5.885  68.615  1.00  0.00    -0.136 C  
HETATM    9  H2  UNL     1      -6.569   5.588  68.250  1.00  0.00     0.000 HD 
HETATM   10  C   UNL     1      -9.117   5.241  67.414  1.00  0.00    -0.112 C  
HETATM   11  H1  UNL     1      -5.950   4.058  67.915  1.00  0.00     0.000 HD 
HETATM   12  C   UNL     1      -8.184   3.460  69.125  1.00  0.00    -0.075 C  
HETATM   13  C   UNL     1      -8.027   4.187  67.774  1.00  0.00    -0.090 C  
HETATM   14  N   UNL     1      -6.663   4.749  67.680  1.00  0.00    -0.050 NA 
BRANCH   8  15
HETATM   15  O   UNL     1      -9.195   6.965  69.269  1.00  0.00    -0.140 OA 
BRANCH  15  16
HETATM   16  C   UNL     1      -9.735   8.279  69.168  1.00  0.00    -0.171 C  
BRANCH  16  17
HETATM   17  C   UNL     1     -10.660   8.469  70.384  1.00  0.00    -0.242 C  
HETATM   18  C   UNL     1      -9.901   8.808  71.663  1.00  0.00    -0.378 C  
ENDBRANCH  16  17
BRANCH  16  19
HETATM   19  C   UNL     1     -10.487   8.514  67.846  1.00  0.00    -0.262 C  
HETATM   20  C   UNL     1     -10.318   9.912  67.264  1.00  0.00    -0.303 C  
ENDBRANCH  16  19
ENDBRANCH  15  16
ENDBRANCH   8  15
BRANCH  10  21
HETATM   21  N   UNL     1     -10.070   4.684  66.429  1.00  0.00    -0.243 N  
HETATM   22  H   UNL     1     -10.969   4.324  66.750  1.00  0.00     0.000 HD 
HETATM   23  C   UNL     1      -9.764   4.644  65.087  1.00  0.00    -0.106 C  
HETATM   24  C   UNL     1     -10.854   4.089  64.209  1.00  0.00    -0.149 C  
HETATM   25  O   UNL     1      -8.699   5.032  64.622  1.00  0.00    -0.151 OA 
ENDBRANCH  10  21
ENDBRANCH   4   6
ENDBRANCH   3   4
ENDBRANCH   2   3
TORSDOF 8
ENDMDL
MODEL      226
REMARK 921   NORMALIZED FREE ENERGY PREDICTED BY IDOCK:   -2.56 KCAL/MOL
REMARK 922        TOTAL FREE ENERGY PREDICTED BY IDOCK:   -4.70 KCAL/MOL
REMARK 923 INTER-LIGAND FREE ENERGY PREDICTED BY IDOCK:   -4.87 KCAL/MOL
REMARK 924 INTRA-LIGAND FREE ENERGY PREDICTED BY IDOCK:    0.16 KCAL/MOL
REMARK 927      BINDING AFFINITY PREDICTED BY RF-SCORE:    0.00 PKD
ROOT
HETATM    1  C   UNL     1      -7.907   7.285  63.825  1.00  0.00    -0.109 C  
HETATM    2  C   UNL     1      -8.375   8.407  62.915  1.00  0.00    -0.117 C  
ENDROOT
BRANCH   2   3
HETATM    3  O   UNL     1      -8.995   9.398  63.739  1.00  0.00    -0.213 OA 
BRANCH   3   4
HETATM    4  C   UNL     1      -8.137  10.153  64.469  1.00  0.00    -0.160 C  
HETATM    5  O   UNL     1      -7.061  10.586  64.084  1.00  0.00    -0.026 OA 
BRANCH   4   6
HETATM    6  C   UNL     1      -8.707  10.470  65.808  1.00  0.00    -0.188 C  
HETATM    7  C   UNL     1      -7.938  10.913  66.813  1.00  0.00    -0.143 C  
HETATM    8  C   UNL     1      -8.492  11.474  68.081  1.00  0.00    -0.154 C  
HETATM    9  H2  UNL     1     -11.447  12.570  67.014  1.00  0.00     0.000 HD 
HETATM   10  C   UNL     1      -9.886  10.903  68.463  1.00  0.00    -0.184 C  
HETATM   11  H1  UNL     1     -12.502  11.448  66.332  1.00  0.00     0.000 HD 
HETATM   12  C   UNL     1     -10.191  10.311  65.908  1.00  0.00    -0.293 C  
HETATM   13  C   UNL     1     -10.847  10.598  67.274  1.00  0.00    -0.287 C  
HETATM   14  N   UNL     1     -11.873  11.648  67.110  1.00  0.00    -0.607 NA 
BRANCH   8  15
HETATM   15  O   UNL     1      -8.433  12.876  67.819  1.00  0.00    -0.159 OA 
BRANCH  15  16
HETATM   16  C   UNL     1      -9.644  13.595  67.606  1.00  0.00    -0.221 C  
BRANCH  16  17
HETATM   17  C   UNL     1      -9.438  14.434  66.331  1.00  0.00    -0.309 C  
HETATM   18  C   UNL     1     -10.330  13.989  65.176  1.00  0.00    -0.422 C  
ENDBRANCH  16  17
BRANCH  16  19
HETATM   19  C   UNL     1     -10.030  14.479  68.805  1.00  0.00    -0.232 C  
HETATM   20  C   UNL     1     -11.055  15.561  68.487  1.00  0.00    -0.307 C  
ENDBRANCH  16  19
ENDBRANCH  15  16
ENDBRANCH   8  15
BRANCH  10  21
HETATM   21  N   UNL     1      -9.757   9.720  69.341  1.00  0.00    -0.190 N  
HETATM   22  H   UNL     1     -10.483   9.003  69.326  1.00  0.00     0.000 HD 
HETATM   23  C   UNL     1      -8.673   9.570  70.178  1.00  0.00    -0.230 C  
HETATM   24  C   UNL     1      -8.666   8.293  70.975  1.00  0.00    -0.169 C  
HETATM   25  O   UNL     1      -7.773  10.394  70.276  1.00  0.00    -0.144 OA 
ENDBRANCH  10  21
ENDBRANCH   4   6
ENDBRANCH   3   4
ENDBRANCH   2   3
TORSDOF 8
ENDMDL
MODEL      227
REMARK 921   NORMALIZED FREE ENERGY PREDICTED BY IDOCK:   -2.55 KCAL/MOL
REMARK 922        TOTAL FREE ENERGY PREDICTED BY IDOCK:   -4.68 KCAL/MOL
REMARK 923 INTER-LIGAND FREE ENERGY PREDICTED BY IDOCK:   -4.71 KCAL/MOL
REMARK 924 INTRA-LIGAND FREE ENERGY PREDICTED BY IDOCK:    0.02 KCAL/MOL
REMARK 927      BINDING AFFINITY PREDICTED BY RF-SCORE:    0.00 PKD
ROOT
HETATM    1  C   UNL     1      -5.596   6.862  72.740  1.00  0.00    -0.038 C  
HETATM    2  C   UNL     1      -5.518   8.338  73.089  1.00  0.00    -0.052 C  
ENDROOT
BRANCH   2   3
HETATM    3  O   UNL     1      -6.824   8.892  72.909  1.00  0.00    -0.321 OA 
BRANCH   3   4
HETATM    4  C   UNL     1      -7.098   9.318  71.651  1.00  0.00     0.196 C  
HETATM    5  O   UNL     1      -6.308   9.864  70.895  1.00  0.00    -0.153 OA 
BRANCH   4   6
HETATM    6  C   UNL     1      -8.488   8.964  71.254  1.00  0.00    -0.239 C  
HETATM    7  C   UNL     1      -9.099   9.562  70.221  1.00  0.00    -0.296 C  
HETATM    8  C   UNL     1     -10.384   9.075  69.637  1.00  0.00    -0.212 C  
HETATM    9  H2  UNL     1     -10.230   5.852  70.447  1.00  0.00     0.000 HD 
HETATM   10  C   UNL     1     -11.293   8.330  70.653  1.00  0.00    -0.244 C  
HETATM   11  H1  UNL     1     -10.116   5.456  72.080  1.00  0.00     0.000 HD 
HETATM   12  C   UNL     1      -9.106   7.864  72.057  1.00  0.00    -0.198 C  
HETATM   13  C   UNL     1     -10.556   7.463  71.718  1.00  0.00    -0.201 C  
HETATM   14  N   UNL     1     -10.597   6.024  71.383  1.00  0.00    -0.237 NA 
BRANCH   8  15
HETATM   15  O   UNL     1      -9.917   8.310  68.526  1.00  0.00    -0.179 OA 
BRANCH  15  16
HETATM   16  C   UNL     1     -10.591   8.415  67.276  1.00  0.00    -0.257 C  
BRANCH  16  17
HETATM   17  C   UNL     1     -11.153   7.017  66.960  1.00  0.00    -0.247 C  
HETATM   18  C   UNL     1     -10.418   5.900  67.694  1.00  0.00    -0.301 C  
ENDBRANCH  16  17
BRANCH  16  19
HETATM   19  C   UNL     1      -9.677   8.922  66.147  1.00  0.00    -0.338 C  
HETATM   20  C   UNL     1     -10.112  10.245  65.528  1.00  0.00    -0.351 C  
ENDBRANCH  16  19
ENDBRANCH  15  16
ENDBRANCH   8  15
BRANCH  10  21
HETATM   21  N   UNL     1     -12.238   9.261  71.307  1.00  0.00    -0.320 N  
HETATM   22  H   UNL     1     -12.675   8.993  72.190  1.00  0.00     0.000 HD 
HETATM   23  C   UNL     1     -12.538  10.482  70.745  1.00  0.00    -0.382 C  
HETATM   24  C   UNL     1     -13.482  11.332  71.554  1.00  0.00    -0.014 C  
HETATM   25  O   UNL     1     -12.078  10.869  69.678  1.00  0.00    -0.319 OA 
ENDBRANCH  10  21
ENDBRANCH   4   6
ENDBRANCH   3   4
ENDBRANCH   2   3
TORSDOF 8
ENDMDL
MODEL      228
REMARK 921   NORMALIZED FREE ENERGY PREDICTED BY IDOCK:   -2.54 KCAL/MOL
REMARK 922        TOTAL FREE ENERGY PREDICTED BY IDOCK:   -4.66 KCAL/MOL
REMARK 923 INTER-LIGAND FREE ENERGY PREDICTED BY IDOCK:   -3.63 KCAL/MOL
REMARK 924 INTRA-LIGAND FREE ENERGY PREDICTED BY IDOCK:   -1.03 KCAL/MOL
REMARK 927      BINDING AFFINITY PREDICTED BY RF-SCORE:    0.00 PKD
ROOT
HETATM    1  C   UNL     1     -11.603  13.744  69.146  1.00  0.00    -0.363 C  
HETATM    2  C   UNL     1     -11.639  12.227  69.096  1.00  0.00    -0.318 C  
ENDROOT
BRANCH   2   3
HETATM    3  O   UNL     1     -10.417  11.788  68.495  1.00  0.00    -0.203 OA 
BRANCH   3   4
HETATM    4  C   UNL     1     -10.542  11.298  67.236  1.00  0.00    -0.233 C  
HETATM    5  O   UNL     1     -11.016  11.896  66.281  1.00  0.00    -0.278 OA 
BRANCH   4   6
HETATM    6  C   UNL     1      -9.947   9.938  67.128  1.00  0.00    -0.252 C  
HETATM    7  C   UNL     1      -8.623   9.740  67.208  1.00  0.00    -0.128 C  
HETATM    8  C   UNL     1      -8.006   8.389  67.352  1.00  0.00    -0.106 C  
HETATM    9  H2  UNL     1     -10.501   6.738  68.809  1.00  0.00     0.000 HD 
HETATM   10  C   UNL     1      -8.849   7.243  66.728  1.00  0.00    -0.134 C  
HETATM   11  H1  UNL     1     -11.970   6.651  67.990  1.00  0.00     0.000 HD 
HETATM   12  C   UNL     1     -10.943   8.831  66.985  1.00  0.00     0.186 C  
HETATM   13  C   UNL     1     -10.396   7.396  66.841  1.00  0.00    -0.296 C  
HETATM   14  N   UNL     1     -10.958   6.552  67.916  1.00  0.00    -0.299 NA 
BRANCH   8  15
HETATM   15  O   UNL     1      -7.796   8.323  68.763  1.00  0.00    -0.111 OA 
BRANCH  15  16
HETATM   16  C   UNL     1      -7.575   7.056  69.375  1.00  0.00    -0.099 C  
BRANCH  16  17
HETATM   17  C   UNL     1      -8.660   6.894  70.455  1.00  0.00    -0.143 C  
HETATM   18  C   UNL     1      -8.672   8.038  71.464  1.00  0.00    -0.168 C  
ENDBRANCH  16  17
BRANCH  16  19
HETATM   19  C   UNL     1      -6.163   6.920  69.971  1.00  0.00    -0.031 C  
HETATM   20  C   UNL     1      -5.210   8.050  69.600  1.00  0.00    -0.023 C  
ENDBRANCH  16  19
ENDBRANCH  15  16
ENDBRANCH   8  15
BRANCH  10  21
HETATM   21  N   UNL     1      -8.456   6.993  65.324  1.00  0.00    -0.291 N  
HETATM   22  H   UNL     1      -8.377   7.779  64.678  1.00  0.00     0.000 HD 
HETATM   23  C   UNL     1      -8.193   5.717  64.875  1.00  0.00    -0.137 C  
HETATM   24  C   UNL     1      -7.762   5.633  63.435  1.00  0.00    -0.090 C  
HETATM   25  O   UNL     1      -8.288   4.719  65.577  1.00  0.00    -0.114 OA 
ENDBRANCH  10  21
ENDBRANCH   4   6
ENDBRANCH   3   4
ENDBRANCH   2   3
TORSDOF 8
ENDMDL
MODEL      229
REMARK 921   NORMALIZED FREE ENERGY PREDICTED BY IDOCK:   -2.49 KCAL/MOL
REMARK 922        TOTAL FREE ENERGY PREDICTED BY IDOCK:   -4.60 KCAL/MOL
REMARK 923 INTER-LIGAND FREE ENERGY PREDICTED BY IDOCK:   -3.84 KCAL/MOL
REMARK 924 INTRA-LIGAND FREE ENERGY PREDICTED BY IDOCK:   -0.76 KCAL/MOL
REMARK 927      BINDING AFFINITY PREDICTED BY RF-SCORE:    0.00 PKD
ROOT
HETATM    1  C   UNL     1     -11.784   3.808  73.579  1.00  0.00     0.019 C  
HETATM    2  C   UNL     1     -10.422   3.503  74.177  1.00  0.00    -0.198 C  
ENDROOT
BRANCH   2   3
HETATM    3  O   UNL     1      -9.463   4.321  73.500  1.00  0.00    -0.113 OA 
BRANCH   3   4
HETATM    4  C   UNL     1      -8.855   3.733  72.440  1.00  0.00    -0.100 C  
HETATM    5  O   UNL     1      -8.340   2.625  72.437  1.00  0.00    -0.061 OA 
BRANCH   4   6
HETATM    6  C   UNL     1      -8.958   4.584  71.223  1.00  0.00    -0.167 C  
HETATM    7  C   UNL     1     -10.133   5.080  70.807  1.00  0.00    -0.307 C  
HETATM    8  C   UNL     1     -10.251   6.126  69.749  1.00  0.00    -0.195 C  
HETATM    9  H2  UNL     1      -7.292   7.619  70.046  1.00  0.00     0.000 HD 
HETATM   10  C   UNL     1      -9.093   6.105  68.713  1.00  0.00    -0.126 C  
HETATM   11  H1  UNL     1      -5.911   6.680  69.822  1.00  0.00     0.000 HD 
HETATM   12  C   UNL     1      -7.652   4.878  70.554  1.00  0.00    -0.062 C  
HETATM   13  C   UNL     1      -7.686   5.732  69.271  1.00  0.00    -0.089 C  
HETATM   14  N   UNL     1      -6.832   6.924  69.458  1.00  0.00    -0.050 NA 
BRANCH   8  15
HETATM   15  O   UNL     1     -10.373   7.311  70.537  1.00  0.00    -0.203 OA 
BRANCH  15  16
HETATM   16  C   UNL     1     -10.046   8.569  69.955  1.00  0.00    -0.195 C  
BRANCH  16  17
HETATM   17  C   UNL     1      -9.013   9.229  70.887  1.00  0.00    -0.273 C  
HETATM   18  C   UNL     1      -7.943  10.011  70.132  1.00  0.00    -0.123 C  
ENDBRANCH  16  17
BRANCH  16  19
HETATM   19  C   UNL     1     -11.276   9.470  69.752  1.00  0.00    -0.173 C  
HETATM   20  C   UNL     1     -11.679  10.275  70.981  1.00  0.00    -0.461 C  
ENDBRANCH  16  19
ENDBRANCH  15  16
ENDBRANCH   8  15
BRANCH  10  21
HETATM   21  N   UNL     1      -9.431   5.254  67.551  1.00  0.00    -0.120 N  
HETATM   22  H   UNL     1      -8.878   4.417  67.365  1.00  0.00     0.000 HD 
HETATM   23  C   UNL     1     -10.479   5.574  66.716  1.00  0.00    -0.296 C  
HETATM   24  C   UNL     1     -10.722   4.587  65.606  1.00  0.00    -0.160 C  
HETATM   25  O   UNL     1     -11.174   6.573  66.853  1.00  0.00    -0.387 OA 
ENDBRANCH  10  21
ENDBRANCH   4   6
ENDBRANCH   3   4
ENDBRANCH   2   3
TORSDOF 8
ENDMDL
MODEL      230
REMARK 921   NORMALIZED FREE ENERGY PREDICTED BY IDOCK:   -2.48 KCAL/MOL
REMARK 922        TOTAL FREE ENERGY PREDICTED BY IDOCK:   -4.58 KCAL/MOL
REMARK 923 INTER-LIGAND FREE ENERGY PREDICTED BY IDOCK:   -5.23 KCAL/MOL
REMARK 924 INTRA-LIGAND FREE ENERGY PREDICTED BY IDOCK:    0.65 KCAL/MOL
REMARK 927      BINDING AFFINITY PREDICTED BY RF-SCORE:    0.00 PKD
ROOT
HETATM    1  C   UNL     1      -5.618  14.223  69.328  1.00  0.00    -0.082 C  
HETATM    2  C   UNL     1      -5.589  12.716  69.145  1.00  0.00    -0.072 C  
ENDROOT
BRANCH   2   3
HETATM    3  O   UNL     1      -6.944  12.270  69.038  1.00  0.00    -0.103 OA 
BRANCH   3   4
HETATM    4  C   UNL     1      -7.150  10.976  69.389  1.00  0.00    -0.128 C  
HETATM    5  O   UNL     1      -6.609  10.393  70.317  1.00  0.00    -0.128 OA 
BRANCH   4   6
HETATM    6  C   UNL     1      -8.199  10.350  68.538  1.00  0.00    -0.119 C  
HETATM    7  C   UNL     1      -9.445  10.843  68.479  1.00  0.00    -0.185 C  
HETATM    8  C   UNL     1     -10.451  10.406  67.466  1.00  0.00    -0.245 C  
HETATM    9  H2  UNL     1      -8.438   9.398  65.015  1.00  0.00     0.000 HD 
HETATM   10  C   UNL     1     -10.250   8.947  66.972  1.00  0.00    -0.275 C  
HETATM   11  H1  UNL     1      -7.342   8.166  65.355  1.00  0.00     0.000 HD 
HETATM   12  C   UNL     1      -7.732   9.183  67.728  1.00  0.00    -0.093 C  
HETATM   13  C   UNL     1      -8.773   8.468  66.843  1.00  0.00    -0.128 C  
HETATM   14  N   UNL     1      -8.309   8.480  65.440  1.00  0.00    -0.148 NA 
BRANCH   8  15
HETATM   15  O   UNL     1     -10.322  11.431  66.481  1.00  0.00    -0.221 OA 
BRANCH  15  16
HETATM   16  C   UNL     1     -11.498  12.022  65.935  1.00  0.00    -0.333 C  
BRANCH  16  17
HETATM   17  C   UNL     1     -11.278  12.112  64.414  1.00  0.00    -0.400 C  
HETATM   18  C   UNL     1     -12.262  13.052  63.724  1.00  0.00    -0.536 C  
ENDBRANCH  16  17
BRANCH  16  19
HETATM   19  C   UNL     1     -11.808  13.401  66.542  1.00  0.00    -0.443 C  
HETATM   20  C   UNL     1     -10.595  14.129  67.108  1.00  0.00    -0.278 C  
ENDBRANCH  16  19
ENDBRANCH  15  16
ENDBRANCH   8  15
BRANCH  10  21
HETATM   21  N   UNL     1     -11.034   7.994  67.787  1.00  0.00    -0.497 N  
HETATM   22  H   UNL     1     -12.022   7.849  67.578  1.00  0.00     0.000 HD 
HETATM   23  C   UNL     1     -10.452   7.298  68.824  1.00  0.00    -0.200 C  
HETATM   24  C   UNL     1     -11.370   6.335  69.529  1.00  0.00    -0.475 C  
HETATM   25  O   UNL     1      -9.282   7.431  69.157  1.00  0.00    -0.147 OA 
ENDBRANCH  10  21
ENDBRANCH   4   6
ENDBRANCH   3   4
ENDBRANCH   2   3
TORSDOF 8
ENDMDL
MODEL      231
REMARK 921   NORMALIZED FREE ENERGY PREDICTED BY IDOCK:   -2.39 KCAL/MOL
REMARK 922        TOTAL FREE ENERGY PREDICTED BY IDOCK:   -4.45 KCAL/MOL
REMARK 923 INTER-LIGAND FREE ENERGY PREDICTED BY IDOCK:   -5.10 KCAL/MOL
REMARK 924 INTRA-LIGAND FREE ENERGY PREDICTED BY IDOCK:    0.65 KCAL/MOL
REMARK 927      BINDING AFFINITY PREDICTED BY RF-SCORE:    0.00 PKD
ROOT
HETATM    1  C   UNL     1      -6.346   8.611  68.198  1.00  0.00    -0.052 C  
HETATM    2  C   UNL     1      -7.380   8.082  67.221  1.00  0.00    -0.089 C  
ENDROOT
BRANCH   2   3
HETATM    3  O   UNL     1      -8.341   7.337  67.975  1.00  0.00    -0.122 OA 
BRANCH   3   4
HETATM    4  C   UNL     1      -9.423   8.046  68.383  1.00  0.00    -0.145 C  
HETATM    5  O   UNL     1     -10.115   8.762  67.675  1.00  0.00    -0.187 OA 
BRANCH   4   6
HETATM    6  C   UNL     1      -9.727   7.784  69.816  1.00  0.00    -0.176 C  
HETATM    7  C   UNL     1     -10.314   6.646  70.215  1.00  0.00    -0.235 C  
HETATM    8  C   UNL     1     -10.414   6.235  71.646  1.00  0.00    -0.217 C  
HETATM    9  H2  UNL     1      -7.791   7.840  72.918  1.00  0.00     0.000 HD 
HETATM   10  C   UNL     1     -10.450   7.428  72.641  1.00  0.00    -0.255 C  
HETATM   11  H1  UNL     1      -7.747   9.517  72.768  1.00  0.00     0.000 HD 
HETATM   12  C   UNL     1      -9.275   8.856  70.756  1.00  0.00    -0.272 C  
HETATM   13  C   UNL     1      -9.580   8.663  72.256  1.00  0.00    -0.278 C  
HETATM   14  N   UNL     1      -8.316   8.709  73.020  1.00  0.00    -0.407 NA 
BRANCH   8  15
HETATM   15  O   UNL     1      -9.302   5.347  71.763  1.00  0.00    -0.144 OA 
BRANCH  15  16
HETATM   16  C   UNL     1      -9.369   4.267  72.689  1.00  0.00    -0.122 C  
BRANCH  16  17
HETATM   17  C   UNL     1     -10.848   3.846  72.766  1.00  0.00    -0.116 C  
HETATM   18  C   UNL     1     -11.110   2.779  73.825  1.00  0.00    -0.304 C  
ENDBRANCH  16  17
BRANCH  16  19
HETATM   19  C   UNL     1      -8.816   4.636  74.077  1.00  0.00    -0.107 C  
HETATM   20  C   UNL     1      -7.352   5.059  74.081  1.00  0.00    -0.083 C  
ENDBRANCH  16  19
ENDBRANCH  15  16
ENDBRANCH   8  15
BRANCH  10  21
HETATM   21  N   UNL     1     -11.840   7.843  72.928  1.00  0.00    -0.616 N  
HETATM   22  H   UNL     1     -12.304   7.496  73.768  1.00  0.00     0.000 HD 
HETATM   23  C   UNL     1     -12.519   8.692  72.081  1.00  0.00    -0.389 C  
HETATM   24  C   UNL     1     -13.908   9.055  72.534  1.00  0.00    -0.491 C  
HETATM   25  O   UNL     1     -12.045   9.133  71.041  1.00  0.00    -0.290 OA 
ENDBRANCH  10  21
ENDBRANCH   4   6
ENDBRANCH   3   4
ENDBRANCH   2   3
TORSDOF 8
ENDMDL
MODEL      232
REMARK 921   NORMALIZED FREE ENERGY PREDICTED BY IDOCK:   -2.39 KCAL/MOL
REMARK 922        TOTAL FREE ENERGY PREDICTED BY IDOCK:   -4.44 KCAL/MOL
REMARK 923 INTER-LIGAND FREE ENERGY PREDICTED BY IDOCK:   -5.33 KCAL/MOL
REMARK 924 INTRA-LIGAND FREE ENERGY PREDICTED BY IDOCK:    0.89 KCAL/MOL
REMARK 927      BINDING AFFINITY PREDICTED BY RF-SCORE:    0.00 PKD
ROOT
HETATM    1  C   UNL     1     -13.124  13.932  65.452  1.00  0.00    -0.236 C  
HETATM    2  C   UNL     1     -12.335  14.394  64.239  1.00  0.00    -0.373 C  
ENDROOT
BRANCH   2   3
HETATM    3  O   UNL     1     -11.042  13.786  64.311  1.00  0.00    -0.372 OA 
BRANCH   3   4
HETATM    4  C   UNL     1     -10.227  14.287  65.272  1.00  0.00    -0.382 C  
HETATM    5  O   UNL     1      -9.934  15.465  65.416  1.00  0.00    -0.344 OA 
BRANCH   4   6
HETATM    6  C   UNL     1      -9.777  13.219  66.206  1.00  0.00    -0.274 C  
HETATM    7  C   UNL     1     -10.127  11.937  66.030  1.00  0.00    -0.261 C  
HETATM    8  C   UNL     1      -9.508  10.808  66.786  1.00  0.00    -0.173 C  
HETATM    9  H2  UNL     1      -6.540  12.127  67.513  1.00  0.00     0.000 HD 
HETATM   10  C   UNL     1      -8.990  11.207  68.196  1.00  0.00    -0.159 C  
HETATM   11  H1  UNL     1      -6.512  13.551  68.412  1.00  0.00     0.000 HD 
HETATM   12  C   UNL     1      -8.870  13.687  67.299  1.00  0.00    -0.227 C  
HETATM   13  C   UNL     1      -8.385  12.638  68.321  1.00  0.00    -0.165 C  
HETATM   14  N   UNL     1      -6.907  12.614  68.330  1.00  0.00    -0.076 NA 
BRANCH   8  15
HETATM   15  O   UNL     1      -8.525  10.352  65.857  1.00  0.00    -0.144 OA 
BRANCH  15  16
HETATM   16  C   UNL     1      -8.770   9.162  65.114  1.00  0.00    -0.195 C  
BRANCH  16  17
HETATM   17  C   UNL     1      -7.840   8.081  65.695  1.00  0.00    -0.104 C  
HETATM   18  C   UNL     1      -8.268   6.665  65.325  1.00  0.00    -0.133 C  
ENDBRANCH  16  17
BRANCH  16  19
HETATM   19  C   UNL     1      -8.544   9.346  63.603  1.00  0.00    -0.220 C  
HETATM   20  C   UNL     1      -7.110   9.688  63.217  1.00  0.00    -0.109 C  
ENDBRANCH  16  19
ENDBRANCH  15  16
ENDBRANCH   8  15
BRANCH  10  21
HETATM   21  N   UNL     1     -10.028  10.992  69.227  1.00  0.00    -0.406 N  
HETATM   22  H   UNL     1      -9.900  10.256  69.922  1.00  0.00     0.000 HD 
HETATM   23  C   UNL     1     -11.165  11.769  69.266  1.00  0.00    -0.256 C  
HETATM   24  C   UNL     1     -12.103  11.456  70.401  1.00  0.00    -0.473 C  
HETATM   25  O   UNL     1     -11.408  12.655  68.456  1.00  0.00    -0.252 OA 
ENDBRANCH  10  21
ENDBRANCH   4   6
ENDBRANCH   3   4
ENDBRANCH   2   3
TORSDOF 8
ENDMDL
MODEL      233
REMARK 921   NORMALIZED FREE ENERGY PREDICTED BY IDOCK:   -2.39 KCAL/MOL
REMARK 922        TOTAL FREE ENERGY PREDICTED BY IDOCK:   -4.44 KCAL/MOL
REMARK 923 INTER-LIGAND FREE ENERGY PREDICTED BY IDOCK:   -3.54 KCAL/MOL
REMARK 924 INTRA-LIGAND FREE ENERGY PREDICTED BY IDOCK:   -0.90 KCAL/MOL
REMARK 927      BINDING AFFINITY PREDICTED BY RF-SCORE:    0.00 PKD
ROOT
HETATM    1  C   UNL     1      -5.732  13.977  67.946  1.00  0.00    -0.116 C  
HETATM    2  C   UNL     1      -5.136  12.662  67.476  1.00  0.00    -0.075 C  
ENDROOT
BRANCH   2   3
HETATM    3  O   UNL     1      -6.204  11.716  67.383  1.00  0.00    -0.075 OA 
BRANCH   3   4
HETATM    4  C   UNL     1      -6.126  10.676  68.251  1.00  0.00    -0.046 C  
HETATM    5  O   UNL     1      -5.219  10.477  69.045  1.00  0.00    -0.042 OA 
BRANCH   4   6
HETATM    6  C   UNL     1      -7.343   9.823  68.178  1.00  0.00    -0.080 C  
HETATM    7  C   UNL     1      -7.609   8.895  69.109  1.00  0.00    -0.080 C  
HETATM    8  C   UNL     1      -8.924   8.195  69.214  1.00  0.00    -0.148 C  
HETATM    9  H2  UNL     1     -10.927  10.464  67.831  1.00  0.00     0.000 HD 
HETATM   10  C   UNL     1      -9.676   8.066  67.861  1.00  0.00    -0.160 C  
HETATM   11  H1  UNL     1     -10.610  10.929  66.244  1.00  0.00     0.000 HD 
HETATM   12  C   UNL     1      -8.253  10.129  67.031  1.00  0.00    -0.118 C  
HETATM   13  C   UNL     1      -9.522   9.266  66.878  1.00  0.00    -0.161 C  
HETATM   14  N   UNL     1     -10.711  10.144  66.887  1.00  0.00    -0.200 NA 
BRANCH   8  15
HETATM   15  O   UNL     1      -9.572   8.963  70.228  1.00  0.00    -0.168 OA 
BRANCH  15  16
HETATM   16  C   UNL     1     -10.001   8.316  71.422  1.00  0.00    -0.194 C  
BRANCH  16  17
HETATM   17  C   UNL     1     -11.319   8.994  71.840  1.00  0.00    -0.438 C  
HETATM   18  C   UNL     1     -12.545   8.129  71.569  1.00  0.00    -0.326 C  
ENDBRANCH  16  17
BRANCH  16  19
HETATM   19  C   UNL     1      -8.952   8.386  72.546  1.00  0.00    -0.308 C  
HETATM   20  C   UNL     1      -8.170   7.095  72.761  1.00  0.00    -0.121 C  
ENDBRANCH  16  19
ENDBRANCH  15  16
ENDBRANCH   8  15
BRANCH  10  21
HETATM   21  N   UNL     1      -9.341   6.795  67.182  1.00  0.00    -0.132 N  
HETATM   22  H   UNL     1      -8.362   6.545  67.040  1.00  0.00     0.000 HD 
HETATM   23  C   UNL     1     -10.330   5.944  66.738  1.00  0.00    -0.244 C  
HETATM   24  C   UNL     1      -9.828   4.673  66.107  1.00  0.00    -0.240 C  
HETATM   25  O   UNL     1     -11.526   6.181  66.845  1.00  0.00    -0.067 OA 
ENDBRANCH  10  21
ENDBRANCH   4   6
ENDBRANCH   3   4
ENDBRANCH   2   3
TORSDOF 8
ENDMDL
MODEL      234
REMARK 921   NORMALIZED FREE ENERGY PREDICTED BY IDOCK:   -2.37 KCAL/MOL
REMARK 922        TOTAL FREE ENERGY PREDICTED BY IDOCK:   -4.41 KCAL/MOL
REMARK 923 INTER-LIGAND FREE ENERGY PREDICTED BY IDOCK:   -3.81 KCAL/MOL
REMARK 924 INTRA-LIGAND FREE ENERGY PREDICTED BY IDOCK:   -0.60 KCAL/MOL
REMARK 927      BINDING AFFINITY PREDICTED BY RF-SCORE:    0.00 PKD
ROOT
HETATM    1  C   UNL     1     -10.729  12.014  68.777  1.00  0.00    -0.252 C  
HETATM    2  C   UNL     1      -9.813  10.805  68.837  1.00  0.00    -0.199 C  
ENDROOT
BRANCH   2   3
HETATM    3  O   UNL     1      -9.183  10.680  67.559  1.00  0.00    -0.142 OA 
BRANCH   3   4
HETATM    4  C   UNL     1      -9.913  10.024  66.623  1.00  0.00    -0.216 C  
HETATM    5  O   UNL     1     -10.604  10.549  65.761  1.00  0.00    -0.176 OA 
BRANCH   4   6
HETATM    6  C   UNL     1      -9.711   8.553  66.717  1.00  0.00    -0.303 C  
HETATM    7  C   UNL     1      -8.568   7.972  66.323  1.00  0.00    -0.156 C  
HETATM    8  C   UNL     1      -8.227   6.550  66.623  1.00  0.00    -0.112 C  
HETATM    9  H2  UNL     1     -10.022   6.070  69.384  1.00  0.00     0.000 HD 
HETATM   10  C   UNL     1      -9.467   5.626  66.775  1.00  0.00    -0.141 C  
HETATM   11  H1  UNL     1     -11.689   6.288  69.286  1.00  0.00     0.000 HD 
HETATM   12  C   UNL     1     -10.851   7.804  67.332  1.00  0.00    -0.207 C  
HETATM   13  C   UNL     1     -10.722   6.271  67.438  1.00  0.00    -0.331 C  
HETATM   14  N   UNL     1     -10.868   5.867  68.852  1.00  0.00    -0.311 NA 
BRANCH   8  15
HETATM   15  O   UNL     1      -7.402   6.696  67.779  1.00  0.00    -0.091 OA 
BRANCH  15  16
HETATM   16  C   UNL     1      -7.304   7.970  68.407  1.00  0.00    -0.098 C  
BRANCH  16  17
HETATM   17  C   UNL     1      -5.817   8.369  68.361  1.00  0.00    -0.041 C  
HETATM   18  C   UNL     1      -5.595   9.780  67.825  1.00  0.00    -0.039 C  
ENDBRANCH  16  17
BRANCH  16  19
HETATM   19  C   UNL     1      -7.841   7.967  69.849  1.00  0.00    -0.102 C  
HETATM   20  C   UNL     1      -7.101   8.900  70.801  1.00  0.00    -0.078 C  
ENDBRANCH  16  19
ENDBRANCH  15  16
ENDBRANCH   8  15
BRANCH  10  21
HETATM   21  N   UNL     1      -9.828   5.000  65.484  1.00  0.00    -0.345 N  
HETATM   22  H   UNL     1     -10.283   5.563  64.764  1.00  0.00     0.000 HD 
HETATM   23  C   UNL     1      -9.560   3.672  65.237  1.00  0.00    -0.160 C  
HETATM   24  C   UNL     1      -9.948   3.196  63.863  1.00  0.00    -0.168 C  
HETATM   25  O   UNL     1      -9.041   2.922  66.054  1.00  0.00    -0.143 OA 
ENDBRANCH  10  21
ENDBRANCH   4   6
ENDBRANCH   3   4
ENDBRANCH   2   3
TORSDOF 8
ENDMDL
MODEL      235
REMARK 921   NORMALIZED FREE ENERGY PREDICTED BY IDOCK:   -2.37 KCAL/MOL
REMARK 922        TOTAL FREE ENERGY PREDICTED BY IDOCK:   -4.41 KCAL/MOL
REMARK 923 INTER-LIGAND FREE ENERGY PREDICTED BY IDOCK:   -4.89 KCAL/MOL
REMARK 924 INTRA-LIGAND FREE ENERGY PREDICTED BY IDOCK:    0.47 KCAL/MOL
REMARK 927      BINDING AFFINITY PREDICTED BY RF-SCORE:    0.00 PKD
ROOT
HETATM    1  C   UNL     1     -12.075  12.121  63.341  1.00  0.00    -0.608 C  
HETATM    2  C   UNL     1     -12.254  13.477  64.001  1.00  0.00    -0.402 C  
ENDROOT
BRANCH   2   3
HETATM    3  O   UNL     1     -10.969  13.900  64.465  1.00  0.00    -0.388 OA 
BRANCH   3   4
HETATM    4  C   UNL     1     -10.994  14.825  65.456  1.00  0.00    -0.346 C  
HETATM    5  O   UNL     1     -11.092  16.033  65.303  1.00  0.00    -0.297 OA 
BRANCH   4   6
HETATM    6  C   UNL     1     -10.966  14.176  66.796  1.00  0.00    -0.300 C  
HETATM    7  C   UNL     1     -10.122  13.172  67.075  1.00  0.00    -0.241 C  
HETATM    8  C   UNL     1      -9.886  12.661  68.457  1.00  0.00    -0.148 C  
HETATM    9  H2  UNL     1     -10.633  15.373  70.236  1.00  0.00     0.000 HD 
HETATM   10  C   UNL     1     -11.101  12.841  69.409  1.00  0.00    -0.065 C  
HETATM   11  H1  UNL     1     -12.182  16.013  70.080  1.00  0.00     0.000 HD 
HETATM   12  C   UNL     1     -11.900  14.775  67.799  1.00  0.00    -0.322 C  
HETATM   13  C   UNL     1     -11.943  14.136  69.202  1.00  0.00    -0.349 C  
HETATM   14  N   UNL     1     -11.631  15.166  70.215  1.00  0.00    -0.268 NA 
BRANCH   8  15
HETATM   15  O   UNL     1      -8.694  13.360  68.816  1.00  0.00    -0.035 OA 
BRANCH  15  16
HETATM   16  C   UNL     1      -7.431  12.819  68.437  1.00  0.00    -0.124 C  
BRANCH  16  17
HETATM   17  C   UNL     1      -7.656  11.318  68.178  1.00  0.00    -0.105 C  
HETATM   18  C   UNL     1      -8.108  10.559  69.421  1.00  0.00    -0.136 C  
ENDBRANCH  16  17
BRANCH  16  19
HETATM   19  C   UNL     1      -6.342  13.050  69.499  1.00  0.00    -0.103 C  
HETATM   20  C   UNL     1      -5.479  11.829  69.794  1.00  0.00    -0.082 C  
ENDBRANCH  16  19
ENDBRANCH  15  16
ENDBRANCH   8  15
BRANCH  10  21
HETATM   21  N   UNL     1     -11.975  11.648  69.392  1.00  0.00    -0.323 N  
HETATM   22  H   UNL     1     -12.137  11.157  68.512  1.00  0.00     0.000 HD 
HETATM   23  C   UNL     1     -12.573  11.187  70.544  1.00  0.00    -0.274 C  
HETATM   24  C   UNL     1     -13.395   9.938  70.371  1.00  0.00     0.206 C  
HETATM   25  O   UNL     1     -12.451  11.730  71.635  1.00  0.00    -0.178 OA 
ENDBRANCH  10  21
ENDBRANCH   4   6
ENDBRANCH   3   4
ENDBRANCH   2   3
TORSDOF 8
ENDMDL
MODEL      236
REMARK 921   NORMALIZED FREE ENERGY PREDICTED BY IDOCK:   -2.36 KCAL/MOL
REMARK 922        TOTAL FREE ENERGY PREDICTED BY IDOCK:   -4.40 KCAL/MOL
REMARK 923 INTER-LIGAND FREE ENERGY PREDICTED BY IDOCK:   -3.27 KCAL/MOL
REMARK 924 INTRA-LIGAND FREE ENERGY PREDICTED BY IDOCK:   -1.13 KCAL/MOL
REMARK 927      BINDING AFFINITY PREDICTED BY RF-SCORE:    0.00 PKD
ROOT
HETATM    1  C   UNL     1      -9.205   2.171  64.989  1.00  0.00    -0.110 C  
HETATM    2  C   UNL     1      -9.608   3.630  65.107  1.00  0.00    -0.167 C  
ENDROOT
BRANCH   2   3
HETATM    3  O   UNL     1      -9.664   3.948  66.501  1.00  0.00    -0.207 OA 
BRANCH   3   4
HETATM    4  C   UNL     1     -10.366   5.068  66.805  1.00  0.00    -0.244 C  
HETATM    5  O   UNL     1     -11.265   5.552  66.132  1.00  0.00     0.008 OA 
BRANCH   4   6
HETATM    6  C   UNL     1      -9.958   5.615  68.128  1.00  0.00    -0.186 C  
HETATM    7  C   UNL     1      -8.688   5.960  68.387  1.00  0.00    -0.112 C  
HETATM    8  C   UNL     1      -8.281   6.734  69.597  1.00  0.00    -0.131 C  
HETATM    9  H2  UNL     1     -11.108   8.362  70.251  1.00  0.00     0.000 HD 
HETATM   10  C   UNL     1      -9.212   6.519  70.821  1.00  0.00    -0.155 C  
HETATM   11  H1  UNL     1     -12.491   7.447  70.550  1.00  0.00     0.000 HD 
HETATM   12  C   UNL     1     -11.080   5.796  69.101  1.00  0.00    -0.218 C  
HETATM   13  C   UNL     1     -10.727   6.335  70.503  1.00  0.00    -0.269 C  
HETATM   14  N   UNL     1     -11.500   7.568  70.758  1.00  0.00    -0.284 NA 
BRANCH   8  15
HETATM   15  O   UNL     1      -8.218   8.061  69.075  1.00  0.00    -0.124 OA 
BRANCH  15  16
HETATM   16  C   UNL     1      -8.151   9.160  69.978  1.00  0.00    -0.128 C  
BRANCH  16  17
HETATM   17  C   UNL     1      -9.275  10.131  69.572  1.00  0.00    -0.223 C  
HETATM   18  C   UNL     1     -10.104   9.624  68.396  1.00  0.00    -0.199 C  
ENDBRANCH  16  17
BRANCH  16  19
HETATM   19  C   UNL     1      -6.779   9.855  69.972  1.00  0.00    -0.100 C  
HETATM   20  C   UNL     1      -6.029   9.784  71.297  1.00  0.00    -0.029 C  
ENDBRANCH  16  19
ENDBRANCH  15  16
ENDBRANCH   8  15
BRANCH  10  21
HETATM   21  N   UNL     1      -8.726   5.415  71.677  1.00  0.00    -0.134 N  
HETATM   22  H   UNL     1      -9.057   4.465  71.506  1.00  0.00     0.000 HD 
HETATM   23  C   UNL     1      -7.833   5.648  72.700  1.00  0.00    -0.102 C  
HETATM   24  C   UNL     1      -7.400   4.416  73.450  1.00  0.00    -0.077 C  
HETATM   25  O   UNL     1      -7.406   6.759  72.988  1.00  0.00    -0.079 OA 
ENDBRANCH  10  21
ENDBRANCH   4   6
ENDBRANCH   3   4
ENDBRANCH   2   3
TORSDOF 8
ENDMDL
MODEL      237
REMARK 921   NORMALIZED FREE ENERGY PREDICTED BY IDOCK:   -2.35 KCAL/MOL
REMARK 922        TOTAL FREE ENERGY PREDICTED BY IDOCK:   -4.39 KCAL/MOL
REMARK 923 INTER-LIGAND FREE ENERGY PREDICTED BY IDOCK:   -3.55 KCAL/MOL
REMARK 924 INTRA-LIGAND FREE ENERGY PREDICTED BY IDOCK:   -0.84 KCAL/MOL
REMARK 927      BINDING AFFINITY PREDICTED BY RF-SCORE:    0.00 PKD
ROOT
HETATM    1  C   UNL     1     -10.410   8.259  66.789  1.00  0.00    -0.361 C  
HETATM    2  C   UNL     1     -10.934   7.271  67.816  1.00  0.00    -0.070 C  
ENDROOT
BRANCH   2   3
HETATM    3  O   UNL     1     -10.864   5.967  67.233  1.00  0.00    -0.288 OA 
BRANCH   3   4
HETATM    4  C   UNL     1      -9.657   5.357  67.338  1.00  0.00    -0.129 C  
HETATM    5  O   UNL     1      -8.988   4.935  66.407  1.00  0.00    -0.115 OA 
BRANCH   4   6
HETATM    6  C   UNL     1      -9.191   5.329  68.751  1.00  0.00    -0.145 C  
HETATM    7  C   UNL     1      -8.158   6.077  69.167  1.00  0.00    -0.111 C  
HETATM    8  C   UNL     1      -7.815   6.268  70.607  1.00  0.00    -0.107 C  
HETATM    9  H2  UNL     1     -10.793   5.779  72.008  1.00  0.00     0.000 HD 
HETATM   10  C   UNL     1      -8.229   5.077  71.515  1.00  0.00    -0.114 C  
HETATM   11  H1  UNL     1     -11.547   4.294  71.754  1.00  0.00     0.000 HD 
HETATM   12  C   UNL     1      -9.999   4.455  69.658  1.00  0.00    -0.209 C  
HETATM   13  C   UNL     1      -9.557   4.357  71.132  1.00  0.00    -0.175 C  
HETATM   14  N   UNL     1     -10.678   4.766  72.004  1.00  0.00    -0.108 NA 
BRANCH   8  15
HETATM   15  O   UNL     1      -8.442   7.521  70.883  1.00  0.00    -0.123 OA 
BRANCH  15  16
HETATM   16  C   UNL     1      -8.975   7.761  72.182  1.00  0.00    -0.137 C  
BRANCH  16  17
HETATM   17  C   UNL     1     -10.129   8.764  72.004  1.00  0.00    -0.397 C  
HETATM   18  C   UNL     1     -11.505   8.119  72.135  1.00  0.00    -0.412 C  
ENDBRANCH  16  17
BRANCH  16  19
HETATM   19  C   UNL     1      -7.920   8.285  73.171  1.00  0.00    -0.199 C  
HETATM   20  C   UNL     1      -7.857   7.523  74.489  1.00  0.00    -0.212 C  
ENDBRANCH  16  19
ENDBRANCH  15  16
ENDBRANCH   8  15
BRANCH  10  21
HETATM   21  N   UNL     1      -7.128   4.098  71.646  1.00  0.00    -0.044 N  
HETATM   22  H   UNL     1      -6.688   3.722  70.805  1.00  0.00     0.000 HD 
HETATM   23  C   UNL     1      -6.688   3.684  72.884  1.00  0.00    -0.037 C  
HETATM   24  C   UNL     1      -5.533   2.718  72.851  1.00  0.00     0.000 C  
HETATM   25  O   UNL     1      -7.177   4.065  73.940  1.00  0.00    -0.059 OA 
ENDBRANCH  10  21
ENDBRANCH   4   6
ENDBRANCH   3   4
ENDBRANCH   2   3
TORSDOF 8
ENDMDL
MODEL      238
REMARK 921   NORMALIZED FREE ENERGY PREDICTED BY IDOCK:   -2.29 KCAL/MOL
REMARK 922        TOTAL FREE ENERGY PREDICTED BY IDOCK:   -4.31 KCAL/MOL
REMARK 923 INTER-LIGAND FREE ENERGY PREDICTED BY IDOCK:   -4.79 KCAL/MOL
REMARK 924 INTRA-LIGAND FREE ENERGY PREDICTED BY IDOCK:    0.48 KCAL/MOL
REMARK 927      BINDING AFFINITY PREDICTED BY RF-SCORE:    0.00 PKD
ROOT
HETATM    1  C   UNL     1     -12.372  13.929  64.828  1.00  0.00    -0.429 C  
HETATM    2  C   UNL     1     -12.188  13.098  63.571  1.00  0.00    -0.476 C  
ENDROOT
BRANCH   2   3
HETATM    3  O   UNL     1     -12.013  11.738  63.976  1.00  0.00    -0.348 OA 
BRANCH   3   4
HETATM    4  C   UNL     1     -10.727  11.309  64.005  1.00  0.00    -0.377 C  
HETATM    5  O   UNL     1     -10.047  11.028  63.029  1.00  0.00    -0.315 OA 
BRANCH   4   6
HETATM    6  C   UNL     1     -10.196  11.294  65.396  1.00  0.00    -0.323 C  
HETATM    7  C   UNL     1      -9.168  12.072  65.765  1.00  0.00    -0.064 C  
HETATM    8  C   UNL     1      -8.765  12.273  67.188  1.00  0.00    -0.193 C  
HETATM    9  H2  UNL     1     -11.661  11.698  68.722  1.00  0.00     0.000 HD 
HETATM   10  C   UNL     1      -9.102  11.071  68.112  1.00  0.00    -0.155 C  
HETATM   11  H1  UNL     1     -12.382  10.192  68.501  1.00  0.00     0.000 HD 
HETATM   12  C   UNL     1     -10.936  10.398  66.337  1.00  0.00     0.031 C  
HETATM   13  C   UNL     1     -10.425  10.313  67.790  1.00  0.00    -0.226 C  
HETATM   14  N   UNL     1     -11.517  10.688  68.712  1.00  0.00    -0.272 NA 
BRANCH   8  15
HETATM   15  O   UNL     1      -9.415  13.507  67.493  1.00  0.00    -0.209 OA 
BRANCH  15  16
HETATM   16  C   UNL     1      -8.626  14.640  67.844  1.00  0.00    -0.165 C  
BRANCH  16  17
HETATM   17  C   UNL     1      -8.554  15.530  66.589  1.00  0.00    -0.325 C  
HETATM   18  C   UNL     1      -9.292  16.855  66.755  1.00  0.00    -0.267 C  
ENDBRANCH  16  17
BRANCH  16  19
HETATM   19  C   UNL     1      -7.222  14.257  68.343  1.00  0.00    -0.113 C  
HETATM   20  C   UNL     1      -6.101  15.149  67.821  1.00  0.00    -0.164 C  
ENDBRANCH  16  19
ENDBRANCH  15  16
ENDBRANCH   8  15
BRANCH  10  21
HETATM   21  N   UNL     1      -7.969  10.124  68.192  1.00  0.00    -0.103 N  
HETATM   22  H   UNL     1      -7.184  10.332  68.810  1.00  0.00     0.000 HD 
HETATM   23  C   UNL     1      -7.956   8.965  67.446  1.00  0.00    -0.101 C  
HETATM   24  C   UNL     1      -6.755   8.085  67.672  1.00  0.00    -0.069 C  
HETATM   25  O   UNL     1      -8.844   8.653  66.664  1.00  0.00    -0.124 OA 
ENDBRANCH  10  21
ENDBRANCH   4   6
ENDBRANCH   3   4
ENDBRANCH   2   3
TORSDOF 8
ENDMDL
MODEL      239
REMARK 921   NORMALIZED FREE ENERGY PREDICTED BY IDOCK:   -2.28 KCAL/MOL
REMARK 922        TOTAL FREE ENERGY PREDICTED BY IDOCK:   -4.29 KCAL/MOL
REMARK 923 INTER-LIGAND FREE ENERGY PREDICTED BY IDOCK:   -3.90 KCAL/MOL
REMARK 924 INTRA-LIGAND FREE ENERGY PREDICTED BY IDOCK:   -0.39 KCAL/MOL
REMARK 927      BINDING AFFINITY PREDICTED BY RF-SCORE:    0.00 PKD
ROOT
HETATM    1  C   UNL     1      -5.669   9.400  68.258  1.00  0.00    -0.037 C  
HETATM    2  C   UNL     1      -6.400   8.815  67.062  1.00  0.00    -0.060 C  
ENDROOT
BRANCH   2   3
HETATM    3  O   UNL     1      -7.327   7.846  67.558  1.00  0.00    -0.088 OA 
BRANCH   3   4
HETATM    4  C   UNL     1      -8.624   8.241  67.558  1.00  0.00    -0.129 C  
HETATM    5  O   UNL     1      -9.191   8.830  66.649  1.00  0.00    -0.156 OA 
BRANCH   4   6
HETATM    6  C   UNL     1      -9.321   7.795  68.795  1.00  0.00    -0.146 C  
HETATM    7  C   UNL     1      -9.879   6.579  68.890  1.00  0.00    -0.142 C  
HETATM    8  C   UNL     1     -10.366   6.000  70.177  1.00  0.00    -0.224 C  
HETATM    9  H2  UNL     1      -8.439   7.637  72.341  1.00  0.00     0.000 HD 
HETATM   10  C   UNL     1     -10.828   7.066  71.209  1.00  0.00    -0.235 C  
HETATM   11  H1  UNL     1      -8.529   9.319  72.357  1.00  0.00     0.000 HD 
HETATM   12  C   UNL     1      -9.292   8.782  69.919  1.00  0.00    -0.165 C  
HETATM   13  C   UNL     1     -10.018   8.397  71.224  1.00  0.00    -0.204 C  
HETATM   14  N   UNL     1      -9.059   8.448  72.347  1.00  0.00    -0.239 NA 
BRANCH   8  15
HETATM   15  O   UNL     1      -9.255   5.189  70.560  1.00  0.00    -0.137 OA 
BRANCH  15  16
HETATM   16  C   UNL     1      -8.652   4.335  69.593  1.00  0.00    -0.072 C  
BRANCH  16  17
HETATM   17  C   UNL     1      -8.638   2.921  70.203  1.00  0.00    -0.111 C  
HETATM   18  C   UNL     1      -9.133   1.850  69.237  1.00  0.00    -0.164 C  
ENDBRANCH  16  17
BRANCH  16  19
HETATM   19  C   UNL     1      -7.237   4.790  69.196  1.00  0.00    -0.053 C  
HETATM   20  C   UNL     1      -6.126   3.832  69.608  1.00  0.00    -0.024 C  
ENDBRANCH  16  19
ENDBRANCH  15  16
ENDBRANCH   8  15
BRANCH  10  21
HETATM   21  N   UNL     1     -12.275   7.342  71.080  1.00  0.00    -0.368 N  
HETATM   22  H   UNL     1     -12.796   6.938  70.301  1.00  0.00     0.000 HD 
HETATM   23  C   UNL     1     -12.932   8.136  71.995  1.00  0.00    -0.305 C  
HETATM   24  C   UNL     1     -14.410   8.286  71.751  1.00  0.00    -0.574 C  
HETATM   25  O   UNL     1     -12.379   8.678  72.943  1.00  0.00    -0.265 OA 
ENDBRANCH  10  21
ENDBRANCH   4   6
ENDBRANCH   3   4
ENDBRANCH   2   3
TORSDOF 8
ENDMDL
MODEL      240
REMARK 921   NORMALIZED FREE ENERGY PREDICTED BY IDOCK:   -2.28 KCAL/MOL
REMARK 922        TOTAL FREE ENERGY PREDICTED BY IDOCK:   -4.28 KCAL/MOL
REMARK 923 INTER-LIGAND FREE ENERGY PREDICTED BY IDOCK:   -4.85 KCAL/MOL
REMARK 924 INTRA-LIGAND FREE ENERGY PREDICTED BY IDOCK:    0.56 KCAL/MOL
REMARK 927      BINDING AFFINITY PREDICTED BY RF-SCORE:    0.00 PKD
ROOT
HETATM    1  C   UNL     1      -7.480   5.326  65.857  1.00  0.00    -0.082 C  
HETATM    2  C   UNL     1      -8.375   4.852  66.988  1.00  0.00    -0.106 C  
ENDROOT
BRANCH   2   3
HETATM    3  O   UNL     1      -8.135   5.705  68.111  1.00  0.00    -0.096 OA 
BRANCH   3   4
HETATM    4  C   UNL     1      -9.245   6.080  68.794  1.00  0.00    -0.123 C  
HETATM    5  O   UNL     1     -10.025   5.326  69.357  1.00  0.00    -0.178 OA 
BRANCH   4   6
HETATM    6  C   UNL     1      -9.368   7.563  68.847  1.00  0.00    -0.142 C  
HETATM    7  C   UNL     1     -10.513   8.162  69.203  1.00  0.00    -0.217 C  
HETATM    8  C   UNL     1     -10.614   9.620  69.507  1.00  0.00    -0.229 C  
HETATM    9  H2  UNL     1      -7.490  10.252  70.464  1.00  0.00     0.000 HD 
HETATM   10  C   UNL     1      -9.571  10.491  68.754  1.00  0.00    -0.179 C  
HETATM   11  H1  UNL     1      -6.253   9.943  69.364  1.00  0.00     0.000 HD 
HETATM   12  C   UNL     1      -8.108   8.305  68.532  1.00  0.00    -0.123 C  
HETATM   13  C   UNL     1      -8.168   9.846  68.543  1.00  0.00    -0.106 C  
HETATM   14  N   UNL     1      -7.171  10.365  69.502  1.00  0.00    -0.114 NA 
BRANCH   8  15
HETATM   15  O   UNL     1     -10.525   9.617  70.932  1.00  0.00    -0.300 OA 
BRANCH  15  16
HETATM   16  C   UNL     1     -11.684   9.921  71.701  1.00  0.00    -0.252 C  
BRANCH  16  17
HETATM   17  C   UNL     1     -12.279   8.573  72.150  1.00  0.00    -0.446 C  
HETATM   18  C   UNL     1     -13.774   8.458  71.871  1.00  0.00    -0.433 C  
ENDBRANCH  16  17
BRANCH  16  19
HETATM   19  C   UNL     1     -12.714  10.758  70.923  1.00  0.00    -0.478 C  
HETATM   20  C   UNL     1     -12.628  12.258  71.176  1.00  0.00    -0.353 C  
ENDBRANCH  16  19
ENDBRANCH  15  16
ENDBRANCH   8  15
BRANCH  10  21
HETATM   21  N   UNL     1     -10.113  10.982  67.468  1.00  0.00    -0.177 N  
HETATM   22  H   UNL     1     -10.709  11.811  67.459  1.00  0.00     0.000 HD 
HETATM   23  C   UNL     1      -9.827  10.340  66.284  1.00  0.00    -0.219 C  
HETATM   24  C   UNL     1     -10.417  10.987  65.059  1.00  0.00    -0.344 C  
HETATM   25  O   UNL     1      -9.143   9.327  66.209  1.00  0.00    -0.151 OA 
ENDBRANCH  10  21
ENDBRANCH   4   6
ENDBRANCH   3   4
ENDBRANCH   2   3
TORSDOF 8
ENDMDL
MODEL      241
REMARK 921   NORMALIZED FREE ENERGY PREDICTED BY IDOCK:   -2.26 KCAL/MOL
REMARK 922        TOTAL FREE ENERGY PREDICTED BY IDOCK:   -4.26 KCAL/MOL
REMARK 923 INTER-LIGAND FREE ENERGY PREDICTED BY IDOCK:   -3.81 KCAL/MOL
REMARK 924 INTRA-LIGAND FREE ENERGY PREDICTED BY IDOCK:   -0.45 KCAL/MOL
REMARK 927      BINDING AFFINITY PREDICTED BY RF-SCORE:    0.00 PKD
ROOT
HETATM    1  C   UNL     1      -8.995   3.533  65.476  1.00  0.00    -0.141 C  
HETATM    2  C   UNL     1      -9.800   4.001  66.676  1.00  0.00    -0.143 C  
ENDROOT
BRANCH   2   3
HETATM    3  O   UNL     1      -8.872   4.458  67.663  1.00  0.00    -0.103 OA 
BRANCH   3   4
HETATM    4  C   UNL     1      -9.193   4.141  68.942  1.00  0.00    -0.147 C  
HETATM    5  O   UNL     1      -9.071   3.038  69.456  1.00  0.00    -0.103 OA 
BRANCH   4   6
HETATM    6  C   UNL     1      -9.653   5.340  69.694  1.00  0.00    -0.225 C  
HETATM    7  C   UNL     1      -9.577   5.404  71.032  1.00  0.00    -0.224 C  
HETATM    8  C   UNL     1      -9.791   6.663  71.804  1.00  0.00    -0.161 C  
HETATM    9  H2  UNL     1      -8.954   8.925  69.512  1.00  0.00     0.000 HD 
HETATM   10  C   UNL     1     -10.743   7.674  71.107  1.00  0.00    -0.227 C  
HETATM   11  H1  UNL     1      -9.822   8.941  68.069  1.00  0.00     0.000 HD 
HETATM   12  C   UNL     1     -10.138   6.466  68.838  1.00  0.00    -0.187 C  
HETATM   13  C   UNL     1     -10.654   7.733  69.552  1.00  0.00    -0.221 C  
HETATM   14  N   UNL     1      -9.880   8.902  69.087  1.00  0.00    -0.175 NA 
BRANCH   8  15
HETATM   15  O   UNL     1      -8.447   7.100  72.010  1.00  0.00    -0.108 OA 
BRANCH  15  16
HETATM   16  C   UNL     1      -7.375   6.315  71.496  1.00  0.00    -0.088 C  
BRANCH  16  17
HETATM   17  C   UNL     1      -6.652   5.708  72.712  1.00  0.00    -0.067 C  
HETATM   18  C   UNL     1      -6.149   6.762  73.693  1.00  0.00    -0.063 C  
ENDBRANCH  16  17
BRANCH  16  19
HETATM   19  C   UNL     1      -6.411   7.129  70.616  1.00  0.00    -0.039 C  
HETATM   20  C   UNL     1      -6.581   8.639  70.722  1.00  0.00    -0.045 C  
ENDBRANCH  16  19
ENDBRANCH  15  16
ENDBRANCH   8  15
BRANCH  10  21
HETATM   21  N   UNL     1     -12.144   7.473  71.537  1.00  0.00    -0.302 N  
HETATM   22  H   UNL     1     -12.534   6.530  71.553  1.00  0.00     0.000 HD 
HETATM   23  C   UNL     1     -12.931   8.538  71.917  1.00  0.00    -0.362 C  
HETATM   24  C   UNL     1     -14.318   8.165  72.370  1.00  0.00    -0.302 C  
HETATM   25  O   UNL     1     -12.551   9.701  71.903  1.00  0.00    -0.377 OA 
ENDBRANCH  10  21
ENDBRANCH   4   6
ENDBRANCH   3   4
ENDBRANCH   2   3
TORSDOF 8
ENDMDL
MODEL      242
REMARK 921   NORMALIZED FREE ENERGY PREDICTED BY IDOCK:   -2.24 KCAL/MOL
REMARK 922        TOTAL FREE ENERGY PREDICTED BY IDOCK:   -4.23 KCAL/MOL
REMARK 923 INTER-LIGAND FREE ENERGY PREDICTED BY IDOCK:   -4.84 KCAL/MOL
REMARK 924 INTRA-LIGAND FREE ENERGY PREDICTED BY IDOCK:    0.60 KCAL/MOL
REMARK 927      BINDING AFFINITY PREDICTED BY RF-SCORE:    0.00 PKD
ROOT
HETATM    1  C   UNL     1      -6.292   8.962  71.881  1.00  0.00    -0.062 C  
HETATM    2  C   UNL     1      -5.669   7.793  71.139  1.00  0.00    -0.034 C  
ENDROOT
BRANCH   2   3
HETATM    3  O   UNL     1      -6.720   7.119  70.441  1.00  0.00    -0.050 OA 
BRANCH   3   4
HETATM    4  C   UNL     1      -6.700   7.268  69.094  1.00  0.00    -0.049 C  
HETATM    5  O   UNL     1      -5.699   7.281  68.392  1.00  0.00    -0.021 OA 
BRANCH   4   6
HETATM    6  C   UNL     1      -8.080   7.337  68.540  1.00  0.00    -0.125 C  
HETATM    7  C   UNL     1      -9.137   6.875  69.224  1.00  0.00    -0.140 C  
HETATM    8  C   UNL     1     -10.550   7.142  68.825  1.00  0.00    -0.196 C  
HETATM    9  H2  UNL     1     -10.174   9.995  67.154  1.00  0.00     0.000 HD 
HETATM   10  C   UNL     1     -10.741   7.355  67.298  1.00  0.00    -0.308 C  
HETATM   11  H1  UNL     1      -9.153   9.993  65.814  1.00  0.00     0.000 HD 
HETATM   12  C   UNL     1      -8.185   8.009  67.208  1.00  0.00    -0.122 C  
HETATM   13  C   UNL     1      -9.583   8.094  66.561  1.00  0.00    -0.234 C  
HETATM   14  N   UNL     1      -9.911   9.510  66.296  1.00  0.00    -0.268 NA 
BRANCH   8  15
HETATM   15  O   UNL     1     -10.875   8.251  69.663  1.00  0.00    -0.226 OA 
BRANCH  15  16
HETATM   16  C   UNL     1     -11.048   8.038  71.061  1.00  0.00    -0.253 C  
BRANCH  16  17
HETATM   17  C   UNL     1     -12.012   6.846  71.207  1.00  0.00    -0.402 C  
HETATM   18  C   UNL     1     -11.464   5.745  72.110  1.00  0.00    -0.295 C  
ENDBRANCH  16  17
BRANCH  16  19
HETATM   19  C   UNL     1     -11.579   9.284  71.791  1.00  0.00    -0.458 C  
HETATM   20  C   UNL     1     -12.891   9.829  71.238  1.00  0.00    -0.472 C  
ENDBRANCH  16  19
ENDBRANCH  15  16
ENDBRANCH   8  15
BRANCH  10  21
HETATM   21  N   UNL     1     -11.058   6.081  66.616  1.00  0.00    -0.747 N  
HETATM   22  H   UNL     1     -12.022   5.746  66.602  1.00  0.00     0.000 HD 
HETATM   23  C   UNL     1     -10.074   5.340  65.998  1.00  0.00    -0.129 C  
HETATM   24  C   UNL     1     -10.563   4.093  65.312  1.00  0.00    -0.112 C  
HETATM   25  O   UNL     1      -8.892   5.658  65.990  1.00  0.00    -0.138 OA 
ENDBRANCH  10  21
ENDBRANCH   4   6
ENDBRANCH   3   4
ENDBRANCH   2   3
TORSDOF 8
ENDMDL
MODEL      243
REMARK 921   NORMALIZED FREE ENERGY PREDICTED BY IDOCK:   -2.24 KCAL/MOL
REMARK 922        TOTAL FREE ENERGY PREDICTED BY IDOCK:   -4.23 KCAL/MOL
REMARK 923 INTER-LIGAND FREE ENERGY PREDICTED BY IDOCK:   -3.65 KCAL/MOL
REMARK 924 INTRA-LIGAND FREE ENERGY PREDICTED BY IDOCK:   -0.57 KCAL/MOL
REMARK 927      BINDING AFFINITY PREDICTED BY RF-SCORE:    0.00 PKD
ROOT
HETATM    1  C   UNL     1      -6.052   7.215  71.210  1.00  0.00    -0.036 C  
HETATM    2  C   UNL     1      -6.848   5.985  71.607  1.00  0.00    -0.068 C  
ENDROOT
BRANCH   2   3
HETATM    3  O   UNL     1      -7.758   5.700  70.541  1.00  0.00    -0.089 OA 
BRANCH   3   4
HETATM    4  C   UNL     1      -7.335   4.754  69.665  1.00  0.00    -0.055 C  
HETATM    5  O   UNL     1      -6.563   3.841  69.918  1.00  0.00    -0.032 OA 
BRANCH   4   6
HETATM    6  C   UNL     1      -7.999   4.913  68.342  1.00  0.00    -0.085 C  
HETATM    7  C   UNL     1      -9.266   4.523  68.138  1.00  0.00    -0.170 C  
HETATM    8  C   UNL     1     -10.046   4.882  66.917  1.00  0.00    -0.222 C  
HETATM    9  H2  UNL     1      -8.512   7.699  66.029  1.00  0.00     0.000 HD 
HETATM   10  C   UNL     1      -9.168   5.102  65.654  1.00  0.00    -0.151 C  
HETATM   11  H1  UNL     1      -6.863   7.625  65.698  1.00  0.00     0.000 HD 
HETATM   12  C   UNL     1      -7.162   5.586  67.301  1.00  0.00    -0.075 C  
HETATM   13  C   UNL     1      -7.776   5.761  65.896  1.00  0.00    -0.092 C  
HETATM   14  N   UNL     1      -7.774   7.195  65.540  1.00  0.00    -0.101 NA 
BRANCH   8  15
HETATM   15  O   UNL     1     -10.786   6.013  67.377  1.00  0.00    -0.250 OA 
BRANCH  15  16
HETATM   16  C   UNL     1     -10.386   6.662  68.580  1.00  0.00    -0.192 C  
BRANCH  16  17
HETATM   17  C   UNL     1     -11.529   6.457  69.591  1.00  0.00    -0.446 C  
HETATM   18  C   UNL     1     -11.188   6.965  70.988  1.00  0.00    -0.323 C  
ENDBRANCH  16  17
BRANCH  16  19
HETATM   19  C   UNL     1     -10.077   8.156  68.376  1.00  0.00    -0.226 C  
HETATM   20  C   UNL     1     -10.658   8.752  67.099  1.00  0.00    -0.303 C  
ENDBRANCH  16  19
ENDBRANCH  15  16
ENDBRANCH   8  15
BRANCH  10  21
HETATM   21  N   UNL     1      -9.020   3.850  64.881  1.00  0.00    -0.125 N  
HETATM   22  H   UNL     1      -8.114   3.381  64.854  1.00  0.00     0.000 HD 
HETATM   23  C   UNL     1     -10.085   3.306  64.196  1.00  0.00    -0.175 C  
HETATM   24  C   UNL     1      -9.785   2.008  63.495  1.00  0.00    -0.117 C  
HETATM   25  O   UNL     1     -11.197   3.817  64.155  1.00  0.00    -0.317 OA 
ENDBRANCH  10  21
ENDBRANCH   4   6
ENDBRANCH   3   4
ENDBRANCH   2   3
TORSDOF 8
ENDMDL
MODEL      244
REMARK 921   NORMALIZED FREE ENERGY PREDICTED BY IDOCK:   -2.21 KCAL/MOL
REMARK 922        TOTAL FREE ENERGY PREDICTED BY IDOCK:   -4.19 KCAL/MOL
REMARK 923 INTER-LIGAND FREE ENERGY PREDICTED BY IDOCK:   -3.74 KCAL/MOL
REMARK 924 INTRA-LIGAND FREE ENERGY PREDICTED BY IDOCK:   -0.45 KCAL/MOL
REMARK 927      BINDING AFFINITY PREDICTED BY RF-SCORE:    0.00 PKD
ROOT
HETATM    1  C   UNL     1      -6.608   5.457  73.461  1.00  0.00    -0.076 C  
HETATM    2  C   UNL     1      -6.755   6.501  74.554  1.00  0.00    -0.085 C  
ENDROOT
BRANCH   2   3
HETATM    3  O   UNL     1      -7.787   7.405  74.149  1.00  0.00    -0.117 OA 
BRANCH   3   4
HETATM    4  C   UNL     1      -7.458   8.225  73.120  1.00  0.00    -0.105 C  
HETATM    5  O   UNL     1      -6.417   8.856  73.015  1.00  0.00    -0.288 OA 
BRANCH   4   6
HETATM    6  C   UNL     1      -8.507   8.208  72.063  1.00  0.00    -0.206 C  
HETATM    7  C   UNL     1      -8.417   8.978  70.969  1.00  0.00    -0.254 C  
HETATM    8  C   UNL     1      -9.305   8.817  69.780  1.00  0.00    -0.163 C  
HETATM    9  H2  UNL     1     -10.115   5.602  70.064  1.00  0.00     0.000 HD 
HETATM   10  C   UNL     1     -10.707   8.240  70.118  1.00  0.00    -0.239 C  
HETATM   11  H1  UNL     1     -10.891   5.108  71.474  1.00  0.00     0.000 HD 
HETATM   12  C   UNL     1      -9.615   7.231  72.300  1.00  0.00    -0.173 C  
HETATM   13  C   UNL     1     -10.752   7.178  71.258  1.00  0.00    -0.226 C  
HETATM   14  N   UNL     1     -10.862   5.803  70.728  1.00  0.00    -0.274 NA 
BRANCH   8  15
HETATM   15  O   UNL     1      -8.485   8.025  68.921  1.00  0.00    -0.128 OA 
BRANCH  15  16
HETATM   16  C   UNL     1      -8.014   8.585  67.699  1.00  0.00    -0.107 C  
BRANCH  16  17
HETATM   17  C   UNL     1      -8.540   7.681  66.569  1.00  0.00    -0.142 C  
HETATM   18  C   UNL     1      -9.601   6.692  67.042  1.00  0.00    -0.183 C  
ENDBRANCH  16  17
BRANCH  16  19
HETATM   19  C   UNL     1      -6.481   8.708  67.653  1.00  0.00    -0.061 C  
HETATM   20  C   UNL     1      -5.737   7.382  67.760  1.00  0.00    -0.030 C  
ENDBRANCH  16  19
ENDBRANCH  15  16
ENDBRANCH   8  15
BRANCH  10  21
HETATM   21  N   UNL     1     -11.682   9.322  70.380  1.00  0.00    -0.441 N  
HETATM   22  H   UNL     1     -12.301   9.254  71.188  1.00  0.00     0.000 HD 
HETATM   23  C   UNL     1     -11.767  10.419  69.552  1.00  0.00    -0.188 C  
HETATM   24  C   UNL     1     -12.776  11.452  69.977  1.00  0.00    -0.015 C  
HETATM   25  O   UNL     1     -11.080  10.567  68.549  1.00  0.00    -0.242 OA 
ENDBRANCH  10  21
ENDBRANCH   4   6
ENDBRANCH   3   4
ENDBRANCH   2   3
TORSDOF 8
ENDMDL
MODEL      245
REMARK 921   NORMALIZED FREE ENERGY PREDICTED BY IDOCK:   -2.16 KCAL/MOL
REMARK 922        TOTAL FREE ENERGY PREDICTED BY IDOCK:   -4.11 KCAL/MOL
REMARK 923 INTER-LIGAND FREE ENERGY PREDICTED BY IDOCK:   -5.01 KCAL/MOL
REMARK 924 INTRA-LIGAND FREE ENERGY PREDICTED BY IDOCK:    0.90 KCAL/MOL
REMARK 927      BINDING AFFINITY PREDICTED BY RF-SCORE:    0.00 PKD
ROOT
HETATM    1  C   UNL     1      -5.441   6.200  72.682  1.00  0.00    -0.032 C  
HETATM    2  C   UNL     1      -5.796   7.671  72.567  1.00  0.00    -0.040 C  
ENDROOT
BRANCH   2   3
HETATM    3  O   UNL     1      -7.219   7.779  72.670  1.00  0.00    -0.074 OA 
BRANCH   3   4
HETATM    4  C   UNL     1      -7.856   8.064  71.507  1.00  0.00    -0.100 C  
HETATM    5  O   UNL     1      -7.363   8.628  70.542  1.00  0.00    -0.048 OA 
BRANCH   4   6
HETATM    6  C   UNL     1      -9.245   7.526  71.510  1.00  0.00    -0.149 C  
HETATM    7  C   UNL     1     -10.003   7.527  70.404  1.00  0.00    -0.184 C  
HETATM    8  C   UNL     1     -11.293   6.784  70.296  1.00  0.00    -0.352 C  
HETATM    9  H2  UNL     1     -10.789   4.373  72.534  1.00  0.00     0.000 HD 
HETATM   10  C   UNL     1     -12.031   6.607  71.652  1.00  0.00    -0.347 C  
HETATM   11  H1  UNL     1     -10.481   4.830  74.125  1.00  0.00     0.000 HD 
HETATM   12  C   UNL     1      -9.685   6.943  72.816  1.00  0.00    -0.171 C  
HETATM   13  C   UNL     1     -11.123   6.391  72.900  1.00  0.00    -0.226 C  
HETATM   14  N   UNL     1     -11.075   4.971  73.308  1.00  0.00    -0.316 NA 
BRANCH   8  15
HETATM   15  O   UNL     1     -10.874   5.585  69.643  1.00  0.00    -0.328 OA 
BRANCH  15  16
HETATM   16  C   UNL     1      -9.918   5.664  68.591  1.00  0.00    -0.162 C  
BRANCH  16  17
HETATM   17  C   UNL     1     -10.709   5.931  67.297  1.00  0.00    -0.380 C  
HETATM   18  C   UNL     1     -10.528   7.351  66.771  1.00  0.00    -0.316 C  
ENDBRANCH  16  17
BRANCH  16  19
HETATM   19  C   UNL     1      -9.057   4.395  68.472  1.00  0.00    -0.168 C  
HETATM   20  C   UNL     1      -8.834   3.914  67.043  1.00  0.00    -0.135 C  
ENDBRANCH  16  19
ENDBRANCH  15  16
ENDBRANCH   8  15
BRANCH  10  21
HETATM   21  N   UNL     1     -12.983   7.715  71.890  1.00  0.00    -0.435 N  
HETATM   22  H   UNL     1     -13.980   7.512  71.960  1.00  0.00     0.000 HD 
HETATM   23  C   UNL     1     -12.544   9.014  72.020  1.00  0.00    -0.394 C  
HETATM   24  C   UNL     1     -13.629  10.019  72.303  1.00  0.00    -0.282 C  
HETATM   25  O   UNL     1     -11.369   9.346  71.925  1.00  0.00    -0.370 OA 
ENDBRANCH  10  21
ENDBRANCH   4   6
ENDBRANCH   3   4
ENDBRANCH   2   3
TORSDOF 8
ENDMDL
MODEL      246
REMARK 921   NORMALIZED FREE ENERGY PREDICTED BY IDOCK:   -2.12 KCAL/MOL
REMARK 922        TOTAL FREE ENERGY PREDICTED BY IDOCK:   -4.05 KCAL/MOL
REMARK 923 INTER-LIGAND FREE ENERGY PREDICTED BY IDOCK:   -3.56 KCAL/MOL
REMARK 924 INTRA-LIGAND FREE ENERGY PREDICTED BY IDOCK:   -0.49 KCAL/MOL
REMARK 927      BINDING AFFINITY PREDICTED BY RF-SCORE:    0.00 PKD
ROOT
HETATM    1  C   UNL     1     -11.765  13.980  66.662  1.00  0.00    -0.420 C  
HETATM    2  C   UNL     1     -11.923  12.939  67.755  1.00  0.00    -0.283 C  
ENDROOT
BRANCH   2   3
HETATM    3  O   UNL     1     -11.883  11.652  67.131  1.00  0.00    -0.608 OA 
BRANCH   3   4
HETATM    4  C   UNL     1     -11.517  10.631  67.946  1.00  0.00    -0.181 C  
HETATM    5  O   UNL     1     -12.136  10.243  68.925  1.00  0.00    -0.089 OA 
BRANCH   4   6
HETATM    6  C   UNL     1     -10.279   9.968  67.452  1.00  0.00    -0.269 C  
HETATM    7  C   UNL     1     -10.327   8.932  66.602  1.00  0.00    -0.294 C  
HETATM    8  C   UNL     1      -9.126   8.398  65.894  1.00  0.00    -0.171 C  
HETATM    9  H2  UNL     1      -7.204  11.114  65.838  1.00  0.00     0.000 HD 
HETATM   10  C   UNL     1      -7.796   8.609  66.668  1.00  0.00    -0.097 C  
HETATM   11  H1  UNL     1      -6.782  11.809  67.313  1.00  0.00     0.000 HD 
HETATM   12  C   UNL     1      -9.005  10.587  67.932  1.00  0.00    -0.137 C  
HETATM   13  C   UNL     1      -7.682   9.934  67.480  1.00  0.00    -0.091 C  
HETATM   14  N   UNL     1      -6.857  10.942  66.781  1.00  0.00    -0.112 NA 
BRANCH   8  15
HETATM   15  O   UNL     1      -9.232   9.051  64.629  1.00  0.00    -0.082 OA 
BRANCH  15  16
HETATM   16  C   UNL     1      -8.386   8.636  63.560  1.00  0.00    -0.114 C  
BRANCH  16  17
HETATM   17  C   UNL     1      -7.750   7.303  63.995  1.00  0.00    -0.120 C  
HETATM   18  C   UNL     1      -8.006   6.170  63.007  1.00  0.00    -0.098 C  
ENDBRANCH  16  17
BRANCH  16  19
HETATM   19  C   UNL     1      -7.315   9.683  63.207  1.00  0.00    -0.117 C  
HETATM   20  C   UNL     1      -5.881   9.221  63.437  1.00  0.00    -0.088 C  
ENDBRANCH  16  19
ENDBRANCH  15  16
ENDBRANCH   8  15
BRANCH  10  21
HETATM   21  N   UNL     1      -7.489   7.446  67.529  1.00  0.00    -0.098 N  
HETATM   22  H   UNL     1      -8.253   6.931  67.968  1.00  0.00     0.000 HD 
HETATM   23  C   UNL     1      -6.188   7.047  67.749  1.00  0.00    -0.042 C  
HETATM   24  C   UNL     1      -6.044   5.822  68.612  1.00  0.00    -0.025 C  
HETATM   25  O   UNL     1      -5.215   7.623  67.282  1.00  0.00    -0.024 OA 
ENDBRANCH  10  21
ENDBRANCH   4   6
ENDBRANCH   3   4
ENDBRANCH   2   3
TORSDOF 8
ENDMDL
MODEL      247
REMARK 921   NORMALIZED FREE ENERGY PREDICTED BY IDOCK:   -2.05 KCAL/MOL
REMARK 922        TOTAL FREE ENERGY PREDICTED BY IDOCK:   -3.95 KCAL/MOL
REMARK 923 INTER-LIGAND FREE ENERGY PREDICTED BY IDOCK:   -3.15 KCAL/MOL
REMARK 924 INTRA-LIGAND FREE ENERGY PREDICTED BY IDOCK:   -0.80 KCAL/MOL
REMARK 927      BINDING AFFINITY PREDICTED BY RF-SCORE:    0.00 PKD
ROOT
HETATM    1  C   UNL     1     -11.902  12.786  68.290  1.00  0.00    -0.357 C  
HETATM    2  C   UNL     1     -10.870  11.989  69.068  1.00  0.00    -0.177 C  
ENDROOT
BRANCH   2   3
HETATM    3  O   UNL     1      -9.827  11.633  68.156  1.00  0.00    -0.178 OA 
BRANCH   3   4
HETATM    4  C   UNL     1     -10.117  10.598  67.330  1.00  0.00    -0.199 C  
HETATM    5  O   UNL     1     -10.500  10.694  66.173  1.00  0.00    -0.243 OA 
BRANCH   4   6
HETATM    6  C   UNL     1      -9.835   9.291  67.985  1.00  0.00    -0.191 C  
HETATM    7  C   UNL     1      -8.589   8.927  68.321  1.00  0.00    -0.134 C  
HETATM    8  C   UNL     1      -8.286   7.753  69.192  1.00  0.00    -0.134 C  
HETATM    9  H2  UNL     1     -11.110   7.557  70.941  1.00  0.00     0.000 HD 
HETATM   10  C   UNL     1      -9.350   6.623  69.113  1.00  0.00    -0.134 C  
HETATM   11  H1  UNL     1     -12.547   7.331  70.092  1.00  0.00     0.000 HD 
HETATM   12  C   UNL     1     -11.047   8.467  68.282  1.00  0.00     0.327 C  
HETATM   13  C   UNL     1     -10.827   7.088  68.937  1.00  0.00    -0.167 C  
HETATM   14  N   UNL     1     -11.580   7.028  70.207  1.00  0.00    -0.287 NA 
BRANCH   8  15
HETATM   15  O   UNL     1      -8.123   8.380  70.464  1.00  0.00    -0.097 OA 
BRANCH  15  16
HETATM   16  C   UNL     1      -7.360   7.721  71.471  1.00  0.00    -0.069 C  
BRANCH  16  17
HETATM   17  C   UNL     1      -8.361   7.250  72.543  1.00  0.00    -0.124 C  
HETATM   18  C   UNL     1      -9.631   8.095  72.584  1.00  0.00    -0.352 C  
ENDBRANCH  16  17
BRANCH  16  19
HETATM   19  C   UNL     1      -6.269   8.620  72.077  1.00  0.00    -0.072 C  
HETATM   20  C   UNL     1      -5.158   7.867  72.797  1.00  0.00    -0.036 C  
ENDBRANCH  16  19
ENDBRANCH  15  16
ENDBRANCH   8  15
BRANCH  10  21
HETATM   21  N   UNL     1      -8.994   5.626  68.080  1.00  0.00    -0.111 N  
HETATM   22  H   UNL     1      -8.696   5.944  67.157  1.00  0.00     0.000 HD 
HETATM   23  C   UNL     1      -9.059   4.275  68.343  1.00  0.00    -0.128 C  
HETATM   24  C   UNL     1      -8.624   3.391  67.205  1.00  0.00    -0.117 C  
HETATM   25  O   UNL     1      -9.430   3.810  69.413  1.00  0.00    -0.170 OA 
ENDBRANCH  10  21
ENDBRANCH   4   6
ENDBRANCH   3   4
ENDBRANCH   2   3
TORSDOF 8
ENDMDL
MODEL      248
REMARK 921   NORMALIZED FREE ENERGY PREDICTED BY IDOCK:   -1.95 KCAL/MOL
REMARK 922        TOTAL FREE ENERGY PREDICTED BY IDOCK:   -3.80 KCAL/MOL
REMARK 923 INTER-LIGAND FREE ENERGY PREDICTED BY IDOCK:   -2.89 KCAL/MOL
REMARK 924 INTRA-LIGAND FREE ENERGY PREDICTED BY IDOCK:   -0.90 KCAL/MOL
REMARK 927      BINDING AFFINITY PREDICTED BY RF-SCORE:    0.00 PKD
ROOT
HETATM    1  C   UNL     1      -5.987  14.469  69.094  1.00  0.00    -0.094 C  
HETATM    2  C   UNL     1      -5.245  13.164  69.320  1.00  0.00    -0.074 C  
ENDROOT
BRANCH   2   3
HETATM    3  O   UNL     1      -6.222  12.124  69.411  1.00  0.00    -0.088 OA 
BRANCH   3   4
HETATM    4  C   UNL     1      -6.111  11.327  70.502  1.00  0.00    -0.070 C  
HETATM    5  O   UNL     1      -5.583  11.636  71.560  1.00  0.00    -0.366 OA 
BRANCH   4   6
HETATM    6  C   UNL     1      -6.796  10.023  70.287  1.00  0.00    -0.147 C  
HETATM    7  C   UNL     1      -6.839   9.084  71.244  1.00  0.00    -0.088 C  
HETATM    8  C   UNL     1      -7.713   7.876  71.166  1.00  0.00    -0.085 C  
HETATM    9  H2  UNL     1     -10.131   9.009  69.181  1.00  0.00     0.000 HD 
HETATM   10  C   UNL     1      -8.015   7.412  69.715  1.00  0.00    -0.125 C  
HETATM   11  H1  UNL     1      -9.699   9.548  67.645  1.00  0.00     0.000 HD 
HETATM   12  C   UNL     1      -7.468   9.882  68.958  1.00  0.00    -0.083 C  
HETATM   13  C   UNL     1      -8.175   8.545  68.656  1.00  0.00    -0.122 C  
HETATM   14  N   UNL     1      -9.594   8.807  68.338  1.00  0.00    -0.145 NA 
BRANCH   8  15
HETATM   15  O   UNL     1      -8.836   8.290  71.945  1.00  0.00    -0.142 OA 
BRANCH  15  16
HETATM   16  C   UNL     1      -9.980   7.445  72.018  1.00  0.00    -0.166 C  
BRANCH  16  17
HETATM   17  C   UNL     1     -11.197   8.369  72.209  1.00  0.00    -0.446 C  
HETATM   18  C   UNL     1     -11.866   8.752  70.893  1.00  0.00    -0.267 C  
ENDBRANCH  16  17
BRANCH  16  19
HETATM   19  C   UNL     1      -9.881   6.405  73.147  1.00  0.00    -0.178 C  
HETATM   20  C   UNL     1     -10.173   6.954  74.539  1.00  0.00     0.043 C  
ENDBRANCH  16  19
ENDBRANCH  15  16
ENDBRANCH   8  15
BRANCH  10  21
HETATM   21  N   UNL     1      -7.026   6.412  69.256  1.00  0.00    -0.065 N  
HETATM   22  H   UNL     1      -6.042   6.674  69.190  1.00  0.00     0.000 HD 
HETATM   23  C   UNL     1      -7.412   5.134  68.918  1.00  0.00    -0.069 C  
HETATM   24  C   UNL     1      -6.283   4.223  68.513  1.00  0.00    -0.032 C  
HETATM   25  O   UNL     1      -8.573   4.746  68.945  1.00  0.00    -0.084 OA 
ENDBRANCH  10  21
ENDBRANCH   4   6
ENDBRANCH   3   4
ENDBRANCH   2   3
TORSDOF 8
ENDMDL
MODEL      249
REMARK 921   NORMALIZED FREE ENERGY PREDICTED BY IDOCK:   -1.82 KCAL/MOL
REMARK 922        TOTAL FREE ENERGY PREDICTED BY IDOCK:   -3.61 KCAL/MOL
REMARK 923 INTER-LIGAND FREE ENERGY PREDICTED BY IDOCK:   -2.82 KCAL/MOL
REMARK 924 INTRA-LIGAND FREE ENERGY PREDICTED BY IDOCK:   -0.79 KCAL/MOL
REMARK 927      BINDING AFFINITY PREDICTED BY RF-SCORE:    0.00 PKD
ROOT
HETATM    1  C   UNL     1      -9.500  16.880  67.930  1.00  0.00    -0.239 C  
HETATM    2  C   UNL     1      -8.120  16.748  67.310  1.00  0.00    -0.177 C  
ENDROOT
BRANCH   2   3
HETATM    3  O   UNL     1      -7.827  15.352  67.208  1.00  0.00    -0.171 OA 
BRANCH   3   4
HETATM    4  C   UNL     1      -7.405  14.769  68.357  1.00  0.00    -0.116 C  
HETATM    5  O   UNL     1      -7.115  15.356  69.390  1.00  0.00    -0.162 OA 
BRANCH   4   6
HETATM    6  C   UNL     1      -7.409  13.285  68.241  1.00  0.00    -0.113 C  
HETATM    7  C   UNL     1      -8.545  12.597  68.058  1.00  0.00    -0.189 C  
HETATM    8  C   UNL     1      -8.575  11.150  67.692  1.00  0.00    -0.126 C  
HETATM    9  H2  UNL     1      -5.634  10.855  66.163  1.00  0.00     0.000 HD 
HETATM   10  C   UNL     1      -7.343  10.349  68.197  1.00  0.00    -0.088 C  
HETATM   11  H1  UNL     1      -4.248  11.232  67.044  1.00  0.00     0.000 HD 
HETATM   12  C   UNL     1      -6.055  12.652  68.284  1.00  0.00    -0.068 C  
HETATM   13  C   UNL     1      -5.985  11.114  68.195  1.00  0.00    -0.045 C  
HETATM   14  N   UNL     1      -5.138  10.732  67.046  1.00  0.00    -0.042 NA 
BRANCH   8  15
HETATM   15  O   UNL     1      -8.746  11.220  66.276  1.00  0.00    -0.179 OA 
BRANCH  15  16
HETATM   16  C   UNL     1      -9.638  10.312  65.638  1.00  0.00    -0.232 C  
BRANCH  16  17
HETATM   17  C   UNL     1     -10.295   9.483  66.756  1.00  0.00    -0.298 C  
HETATM   18  C   UNL     1     -10.533   8.029  66.359  1.00  0.00     0.199 C  
ENDBRANCH  16  17
BRANCH  16  19
HETATM   19  C   UNL     1      -8.935   9.411  64.608  1.00  0.00    -0.233 C  
HETATM   20  C   UNL     1      -7.416   9.377  64.731  1.00  0.00    -0.107 C  
ENDBRANCH  16  19
ENDBRANCH  15  16
ENDBRANCH   8  15
BRANCH  10  21
HETATM   21  N   UNL     1      -7.600   9.756  69.528  1.00  0.00    -0.100 N  
HETATM   22  H   UNL     1      -7.515  10.338  70.361  1.00  0.00     0.000 HD 
HETATM   23  C   UNL     1      -7.953   8.430  69.659  1.00  0.00    -0.106 C  
HETATM   24  C   UNL     1      -8.223   7.989  71.073  1.00  0.00    -0.106 C  
HETATM   25  O   UNL     1      -8.052   7.658  68.715  1.00  0.00    -0.123 OA 
ENDBRANCH  10  21
ENDBRANCH   4   6
ENDBRANCH   3   4
ENDBRANCH   2   3
TORSDOF 8
ENDMDL
MODEL      250
REMARK 921   NORMALIZED FREE ENERGY PREDICTED BY IDOCK:   -1.79 KCAL/MOL
REMARK 922        TOTAL FREE ENERGY PREDICTED BY IDOCK:   -3.57 KCAL/MOL
REMARK 923 INTER-LIGAND FREE ENERGY PREDICTED BY IDOCK:   -3.84 KCAL/MOL
REMARK 924 INTRA-LIGAND FREE ENERGY PREDICTED BY IDOCK:    0.27 KCAL/MOL
REMARK 927      BINDING AFFINITY PREDICTED BY RF-SCORE:    0.00 PKD
ROOT
HETATM    1  C   UNL     1     -10.949  13.729  67.537  1.00  0.00    -0.285 C  
HETATM    2  C   UNL     1     -11.201  13.042  68.867  1.00  0.00    -0.278 C  
ENDROOT
BRANCH   2   3
HETATM    3  O   UNL     1     -11.859  11.802  68.592  1.00  0.00    -0.309 OA 
BRANCH   3   4
HETATM    4  C   UNL     1     -11.782  10.880  69.583  1.00  0.00    -0.331 C  
HETATM    5  O   UNL     1     -12.671  10.611  70.378  1.00  0.00    -0.333 OA 
BRANCH   4   6
HETATM    6  C   UNL     1     -10.482  10.156  69.543  1.00  0.00    -0.263 C  
HETATM    7  C   UNL     1      -9.796   9.879  70.662  1.00  0.00    -0.039 C  
HETATM    8  C   UNL     1      -8.627   8.951  70.696  1.00  0.00    -0.194 C  
HETATM    9  H2  UNL     1      -9.325   7.007  68.086  1.00  0.00     0.000 HD 
HETATM   10  C   UNL     1      -7.843   8.880  69.356  1.00  0.00    -0.098 C  
HETATM   11  H1  UNL     1      -9.476   7.741  66.578  1.00  0.00     0.000 HD 
HETATM   12  C   UNL     1     -10.051   9.722  68.178  1.00  0.00    -0.193 C  
HETATM   13  C   UNL     1      -8.699   8.988  68.058  1.00  0.00    -0.129 C  
HETATM   14  N   UNL     1      -8.916   7.670  67.428  1.00  0.00    -0.126 NA 
BRANCH   8  15
HETATM   15  O   UNL     1      -9.242   7.739  71.134  1.00  0.00    -0.145 OA 
BRANCH  15  16
HETATM   16  C   UNL     1      -8.512   6.519  71.048  1.00  0.00    -0.127 C  
BRANCH  16  17
HETATM   17  C   UNL     1      -9.544   5.381  71.153  1.00  0.00    -0.214 C  
HETATM   18  C   UNL     1     -10.978   5.856  70.943  1.00  0.00    -0.335 C  
ENDBRANCH  16  17
BRANCH  16  19
HETATM   19  C   UNL     1      -7.427   6.396  72.131  1.00  0.00    -0.093 C  
HETATM   20  C   UNL     1      -7.689   7.223  73.384  1.00  0.00    -0.111 C  
ENDBRANCH  16  19
ENDBRANCH  15  16
ENDBRANCH   8  15
BRANCH  10  21
HETATM   21  N   UNL     1      -6.738   9.862  69.331  1.00  0.00    -0.053 N  
HETATM   22  H   UNL     1      -6.219  10.056  70.188  1.00  0.00     0.000 HD 
HETATM   23  C   UNL     1      -6.398  10.521  68.169  1.00  0.00    -0.058 C  
HETATM   24  C   UNL     1      -5.224  11.455  68.296  1.00  0.00    -0.039 C  
HETATM   25  O   UNL     1      -6.984  10.366  67.106  1.00  0.00    -0.084 OA 
ENDBRANCH  10  21
ENDBRANCH   4   6
ENDBRANCH   3   4
ENDBRANCH   2   3
TORSDOF 8
ENDMDL
MODEL      251
REMARK 921   NORMALIZED FREE ENERGY PREDICTED BY IDOCK:   -1.77 KCAL/MOL
REMARK 922        TOTAL FREE ENERGY PREDICTED BY IDOCK:   -3.55 KCAL/MOL
REMARK 923 INTER-LIGAND FREE ENERGY PREDICTED BY IDOCK:   -3.96 KCAL/MOL
REMARK 924 INTRA-LIGAND FREE ENERGY PREDICTED BY IDOCK:    0.41 KCAL/MOL
REMARK 927      BINDING AFFINITY PREDICTED BY RF-SCORE:    0.00 PKD
ROOT
HETATM    1  C   UNL     1      -5.848   6.491  71.148  1.00  0.00    -0.028 C  
HETATM    2  C   UNL     1      -5.136   5.434  70.323  1.00  0.00    -0.004 C  
ENDROOT
BRANCH   2   3
HETATM    3  O   UNL     1      -6.102   4.852  69.444  1.00  0.00    -0.017 OA 
BRANCH   3   4
HETATM    4  C   UNL     1      -6.279   5.511  68.271  1.00  0.00    -0.030 C  
HETATM    5  O   UNL     1      -5.401   5.779  67.464  1.00  0.00    -0.004 OA 
BRANCH   4   6
HETATM    6  C   UNL     1      -7.718   5.810  68.034  1.00  0.00    -0.096 C  
HETATM    7  C   UNL     1      -8.689   5.175  68.706  1.00  0.00    -0.092 C  
HETATM    8  C   UNL     1     -10.117   5.609  68.684  1.00  0.00    -0.183 C  
HETATM    9  H2  UNL     1      -9.753   8.848  68.017  1.00  0.00     0.000 HD 
HETATM   10  C   UNL     1     -10.531   6.339  67.377  1.00  0.00    -0.248 C  
HETATM   11  H1  UNL     1      -8.966   9.274  66.591  1.00  0.00     0.000 HD 
HETATM   12  C   UNL     1      -7.973   6.901  67.044  1.00  0.00    -0.116 C  
HETATM   13  C   UNL     1      -9.443   7.248  66.729  1.00  0.00    -0.171 C  
HETATM   14  N   UNL     1      -9.677   8.679  67.015  1.00  0.00    -0.182 NA 
BRANCH   8  15
HETATM   15  O   UNL     1     -10.199   6.372  69.888  1.00  0.00    -0.173 OA 
BRANCH  15  16
HETATM   16  C   UNL     1     -11.319   7.229  70.093  1.00  0.00    -0.207 C  
BRANCH  16  17
HETATM   17  C   UNL     1     -10.751   8.617  70.439  1.00  0.00    -0.248 C  
HETATM   18  C   UNL     1     -11.768   9.522  71.129  1.00  0.00    -0.438 C  
ENDBRANCH  16  17
BRANCH  16  19
HETATM   19  C   UNL     1     -12.266   6.718  71.192  1.00  0.00    -0.413 C  
HETATM   20  C   UNL     1     -11.589   5.882  72.271  1.00  0.00    -0.338 C  
ENDBRANCH  16  19
ENDBRANCH  15  16
ENDBRANCH   8  15
BRANCH  10  21
HETATM   21  N   UNL     1     -11.070   5.387  66.381  1.00  0.00    -0.673 N  
HETATM   22  H   UNL     1     -12.072   5.192  66.363  1.00  0.00     0.000 HD 
HETATM   23  C   UNL     1     -10.242   4.760  65.475  1.00  0.00    -0.135 C  
HETATM   24  C   UNL     1     -10.947   3.856  64.500  1.00  0.00    -0.020 C  
HETATM   25  O   UNL     1      -9.028   4.918  65.444  1.00  0.00    -0.144 OA 
ENDBRANCH  10  21
ENDBRANCH   4   6
ENDBRANCH   3   4
ENDBRANCH   2   3
TORSDOF 8
ENDMDL
MODEL      252
REMARK 921   NORMALIZED FREE ENERGY PREDICTED BY IDOCK:   -1.64 KCAL/MOL
REMARK 922        TOTAL FREE ENERGY PREDICTED BY IDOCK:   -3.35 KCAL/MOL
REMARK 923 INTER-LIGAND FREE ENERGY PREDICTED BY IDOCK:   -4.14 KCAL/MOL
REMARK 924 INTRA-LIGAND FREE ENERGY PREDICTED BY IDOCK:    0.79 KCAL/MOL
REMARK 927      BINDING AFFINITY PREDICTED BY RF-SCORE:    0.00 PKD
ROOT
HETATM    1  C   UNL     1      -7.823   7.354  64.312  1.00  0.00    -0.127 C  
HETATM    2  C   UNL     1      -8.273   8.269  63.188  1.00  0.00    -0.104 C  
ENDROOT
BRANCH   2   3
HETATM    3  O   UNL     1      -8.450   9.576  63.743  1.00  0.00    -0.169 OA 
BRANCH   3   4
HETATM    4  C   UNL     1      -7.499   9.953  64.633  1.00  0.00    -0.140 C  
HETATM    5  O   UNL     1      -6.303   9.717  64.543  1.00  0.00    -0.097 OA 
BRANCH   4   6
HETATM    6  C   UNL     1      -8.083  10.779  65.725  1.00  0.00    -0.135 C  
HETATM    7  C   UNL     1      -7.317  11.335  66.675  1.00  0.00    -0.131 C  
HETATM    8  C   UNL     1      -7.820  12.361  67.635  1.00  0.00    -0.163 C  
HETATM    9  H2  UNL     1     -10.307  13.679  65.861  1.00  0.00     0.000 HD 
HETATM   10  C   UNL     1      -9.339  12.245  67.939  1.00  0.00    -0.190 C  
HETATM   11  H1  UNL     1     -11.546  12.653  65.362  1.00  0.00     0.000 HD 
HETATM   12  C   UNL     1      -9.563  10.977  65.634  1.00  0.00    -0.265 C  
HETATM   13  C   UNL     1     -10.241  11.802  66.748  1.00  0.00    -0.211 C  
HETATM   14  N   UNL     1     -10.956  12.944  66.141  1.00  0.00    -0.277 NA 
BRANCH   8  15
HETATM   15  O   UNL     1      -7.391  13.569  67.007  1.00  0.00     0.035 OA 
BRANCH  15  16
HETATM   16  C   UNL     1      -7.088  14.703  67.815  1.00  0.00    -0.177 C  
BRANCH  16  17
HETATM   17  C   UNL     1      -7.471  15.945  66.989  1.00  0.00    -0.254 C  
HETATM   18  C   UNL     1      -8.978  16.164  66.906  1.00  0.00    -0.248 C  
ENDBRANCH  16  17
BRANCH  16  19
HETATM   19  C   UNL     1      -5.613  14.749  68.249  1.00  0.00    -0.117 C  
HETATM   20  C   UNL     1      -5.400  14.843  69.755  1.00  0.00    -0.095 C  
ENDBRANCH  16  19
ENDBRANCH  15  16
ENDBRANCH   8  15
BRANCH  10  21
HETATM   21  N   UNL     1      -9.584  11.389  69.120  1.00  0.00    -0.410 N  
HETATM   22  H   UNL     1      -8.961  11.455  69.926  1.00  0.00     0.000 HD 
HETATM   23  C   UNL     1     -10.640  10.505  69.151  1.00  0.00    -0.229 C  
HETATM   24  C   UNL     1     -10.781   9.738  70.439  1.00  0.00    -0.368 C  
HETATM   25  O   UNL     1     -11.419  10.346  68.220  1.00  0.00    -0.273 OA 
ENDBRANCH  10  21
ENDBRANCH   4   6
ENDBRANCH   3   4
ENDBRANCH   2   3
TORSDOF 8
ENDMDL
MODEL      253
REMARK 921   NORMALIZED FREE ENERGY PREDICTED BY IDOCK:   -1.61 KCAL/MOL
REMARK 922        TOTAL FREE ENERGY PREDICTED BY IDOCK:   -3.30 KCAL/MOL
REMARK 923 INTER-LIGAND FREE ENERGY PREDICTED BY IDOCK:   -2.26 KCAL/MOL
REMARK 924 INTRA-LIGAND FREE ENERGY PREDICTED BY IDOCK:   -1.04 KCAL/MOL
REMARK 927      BINDING AFFINITY PREDICTED BY RF-SCORE:    0.00 PKD
ROOT
HETATM    1  C   UNL     1      -6.599   4.407  67.175  1.00  0.00    -0.046 C  
HETATM    2  C   UNL     1      -5.695   4.194  68.376  1.00  0.00    -0.025 C  
ENDROOT
BRANCH   2   3
HETATM    3  O   UNL     1      -5.237   5.481  68.801  1.00  0.00     0.000 OA 
BRANCH   3   4
HETATM    4  C   UNL     1      -5.807   5.943  69.942  1.00  0.00    -0.024 C  
HETATM    5  O   UNL     1      -5.665   5.461  71.056  1.00  0.00    -0.015 OA 
BRANCH   4   6
HETATM    6  C   UNL     1      -6.585   7.187  69.689  1.00  0.00    -0.044 C  
HETATM    7  C   UNL     1      -6.997   7.521  68.458  1.00  0.00    -0.079 C  
HETATM    8  C   UNL     1      -7.978   8.614  68.192  1.00  0.00    -0.107 C  
HETATM    9  H2  UNL     1      -9.634   8.652  71.079  1.00  0.00     0.000 HD 
HETATM   10  C   UNL     1      -7.961   9.745  69.257  1.00  0.00    -0.112 C  
HETATM   11  H1  UNL     1      -8.756   8.950  72.485  1.00  0.00     0.000 HD 
HETATM   12  C   UNL     1      -6.908   7.980  70.915  1.00  0.00    -0.041 C  
HETATM   13  C   UNL     1      -7.691   9.296  70.725  1.00  0.00    -0.139 C  
HETATM   14  N   UNL     1      -8.933   9.243  71.524  1.00  0.00    -0.289 NA 
BRANCH   8  15
HETATM   15  O   UNL     1      -9.195   7.878  68.072  1.00  0.00    -0.132 OA 
BRANCH  15  16
HETATM   16  C   UNL     1      -9.897   7.893  66.832  1.00  0.00    -0.239 C  
BRANCH  16  17
HETATM   17  C   UNL     1     -10.210   6.425  66.487  1.00  0.00    -0.147 C  
HETATM   18  C   UNL     1     -10.113   5.495  67.692  1.00  0.00    -0.217 C  
ENDBRANCH  16  17
BRANCH  16  19
HETATM   19  C   UNL     1      -9.104   8.579  65.707  1.00  0.00    -0.222 C  
HETATM   20  C   UNL     1      -8.194   7.647  64.917  1.00  0.00    -0.098 C  
ENDBRANCH  16  19
ENDBRANCH  15  16
ENDBRANCH   8  15
BRANCH  10  21
HETATM   21  N   UNL     1      -7.033  10.831  68.869  1.00  0.00    -0.070 N  
HETATM   22  H   UNL     1      -6.041  10.624  68.752  1.00  0.00     0.000 HD 
HETATM   23  C   UNL     1      -7.487  12.115  68.662  1.00  0.00    -0.105 C  
HETATM   24  C   UNL     1      -6.429  13.094  68.230  1.00  0.00    -0.096 C  
HETATM   25  O   UNL     1      -8.655  12.452  68.805  1.00  0.00    -0.015 OA 
ENDBRANCH  10  21
ENDBRANCH   4   6
ENDBRANCH   3   4
ENDBRANCH   2   3
TORSDOF 8
ENDMDL
MODEL      254
REMARK 921   NORMALIZED FREE ENERGY PREDICTED BY IDOCK:   -1.36 KCAL/MOL
REMARK 922        TOTAL FREE ENERGY PREDICTED BY IDOCK:   -2.94 KCAL/MOL
REMARK 923 INTER-LIGAND FREE ENERGY PREDICTED BY IDOCK:   -2.70 KCAL/MOL
REMARK 924 INTRA-LIGAND FREE ENERGY PREDICTED BY IDOCK:   -0.24 KCAL/MOL
REMARK 927      BINDING AFFINITY PREDICTED BY RF-SCORE:    0.00 PKD
ROOT
HETATM    1  C   UNL     1      -6.318   4.129  66.746  1.00  0.00    -0.037 C  
HETATM    2  C   UNL     1      -5.494   3.897  68.000  1.00  0.00    -0.016 C  
ENDROOT
BRANCH   2   3
HETATM    3  O   UNL     1      -5.217   5.177  68.575  1.00  0.00     0.000 OA 
BRANCH   3   4
HETATM    4  C   UNL     1      -5.619   5.326  69.861  1.00  0.00    -0.012 C  
HETATM    5  O   UNL     1      -5.221   4.672  70.814  1.00  0.00    -0.003 OA 
BRANCH   4   6
HETATM    6  C   UNL     1      -6.570   6.463  69.999  1.00  0.00    -0.048 C  
HETATM    7  C   UNL     1      -7.834   6.381  69.560  1.00  0.00    -0.101 C  
HETATM    8  C   UNL     1      -8.883   7.390  69.892  1.00  0.00    -0.141 C  
HETATM    9  H2  UNL     1      -7.698   8.563  72.772  1.00  0.00     0.000 HD 
HETATM   10  C   UNL     1      -8.322   8.815  70.153  1.00  0.00    -0.131 C  
HETATM   11  H1  UNL     1      -6.164   9.259  72.767  1.00  0.00     0.000 HD 
HETATM   12  C   UNL     1      -6.016   7.657  70.710  1.00  0.00    -0.034 C  
HETATM   13  C   UNL     1      -6.938   8.884  70.866  1.00  0.00    -0.080 C  
HETATM   14  N   UNL     1      -7.070   9.213  72.300  1.00  0.00    -0.303 NA 
BRANCH   8  15
HETATM   15  O   UNL     1      -9.542   6.760  70.990  1.00  0.00    -0.170 OA 
BRANCH  15  16
HETATM   16  C   UNL     1     -10.635   5.883  70.734  1.00  0.00    -0.265 C  
BRANCH  16  17
HETATM   17  C   UNL     1     -10.626   4.829  71.856  1.00  0.00    -0.150 C  
HETATM   18  C   UNL     1      -9.768   5.236  73.049  1.00  0.00    -0.164 C  
ENDBRANCH  16  17
BRANCH  16  19
HETATM   19  C   UNL     1     -10.559   5.226  69.344  1.00  0.00    -0.215 C  
HETATM   20  C   UNL     1      -9.729   3.949  69.295  1.00  0.00    -0.157 C  
ENDBRANCH  16  19
ENDBRANCH  15  16
ENDBRANCH   8  15
BRANCH  10  21
HETATM   21  N   UNL     1      -8.305   9.619  68.911  1.00  0.00    -0.112 N  
HETATM   22  H   UNL     1      -7.546   9.491  68.242  1.00  0.00     0.000 HD 
HETATM   23  C   UNL     1      -9.298  10.536  68.643  1.00  0.00    -0.172 C  
HETATM   24  C   UNL     1      -9.162  11.241  67.320  1.00  0.00    -0.170 C  
HETATM   25  O   UNL     1     -10.230  10.768  69.403  1.00  0.00    -0.217 OA 
ENDBRANCH  10  21
ENDBRANCH   4   6
ENDBRANCH   3   4
ENDBRANCH   2   3
TORSDOF 8
ENDMDL
MODEL      255
REMARK 921   NORMALIZED FREE ENERGY PREDICTED BY IDOCK:   -1.29 KCAL/MOL
REMARK 922        TOTAL FREE ENERGY PREDICTED BY IDOCK:   -2.83 KCAL/MOL
REMARK 923 INTER-LIGAND FREE ENERGY PREDICTED BY IDOCK:   -2.95 KCAL/MOL
REMARK 924 INTRA-LIGAND FREE ENERGY PREDICTED BY IDOCK:    0.13 KCAL/MOL
REMARK 927      BINDING AFFINITY PREDICTED BY RF-SCORE:    0.00 PKD
ROOT
HETATM    1  C   UNL     1     -14.402   7.617  71.678  1.00  0.00    -0.613 C  
HETATM    2  C   UNL     1     -13.566   8.486  70.755  1.00  0.00     0.512 C  
ENDROOT
BRANCH   2   3
HETATM    3  O   UNL     1     -12.413   8.906  71.490  1.00  0.00    -0.302 OA 
BRANCH   3   4
HETATM    4  C   UNL     1     -11.605   9.778  70.837  1.00  0.00    -0.361 C  
HETATM    5  O   UNL     1     -11.801  10.978  70.713  1.00  0.00    -0.329 OA 
BRANCH   4   6
HETATM    6  C   UNL     1     -10.375   9.102  70.341  1.00  0.00    -0.269 C  
HETATM    7  C   UNL     1      -9.223   9.143  71.027  1.00  0.00    -0.321 C  
HETATM    8  C   UNL     1      -8.046   8.285  70.700  1.00  0.00    -0.110 C  
HETATM    9  H2  UNL     1      -9.561   5.714  69.229  1.00  0.00     0.000 HD 
HETATM   10  C   UNL     1      -7.955   7.889  69.201  1.00  0.00    -0.118 C  
HETATM   11  H1  UNL     1     -10.486   6.027  67.857  1.00  0.00     0.000 HD 
HETATM   12  C   UNL     1     -10.552   8.340  69.066  1.00  0.00    -0.167 C  
HETATM   13  C   UNL     1      -9.312   7.635  68.479  1.00  0.00    -0.147 C  
HETATM   14  N   UNL     1      -9.598   6.193  68.330  1.00  0.00    -0.120 NA 
BRANCH   8  15
HETATM   15  O   UNL     1      -8.210   7.214  71.629  1.00  0.00    -0.102 OA 
BRANCH  15  16
HETATM   16  C   UNL     1      -7.662   5.936  71.319  1.00  0.00    -0.110 C  
BRANCH  16  17
HETATM   17  C   UNL     1      -7.875   5.054  72.564  1.00  0.00    -0.097 C  
HETATM   18  C   UNL     1      -6.695   5.093  73.530  1.00  0.00    -0.074 C  
ENDBRANCH  16  17
BRANCH  16  19
HETATM   19  C   UNL     1      -6.177   6.004  70.925  1.00  0.00    -0.039 C  
HETATM   20  C   UNL     1      -5.530   4.649  70.663  1.00  0.00    -0.011 C  
ENDBRANCH  16  19
ENDBRANCH  15  16
ENDBRANCH   8  15
BRANCH  10  21
HETATM   21  N   UNL     1      -7.137   8.859  68.440  1.00  0.00    -0.076 N  
HETATM   22  H   UNL     1      -7.542   9.759  68.178  1.00  0.00     0.000 HD 
HETATM   23  C   UNL     1      -5.840   8.569  68.079  1.00  0.00    -0.042 C  
HETATM   24  C   UNL     1      -5.128   9.675  67.347  1.00  0.00    -0.035 C  
HETATM   25  O   UNL     1      -5.289   7.505  68.330  1.00  0.00    -0.024 OA 
ENDBRANCH  10  21
ENDBRANCH   4   6
ENDBRANCH   3   4
ENDBRANCH   2   3
TORSDOF 8
ENDMDL
MODEL      256
REMARK 921   NORMALIZED FREE ENERGY PREDICTED BY IDOCK:   -1.10 KCAL/MOL
REMARK 922        TOTAL FREE ENERGY PREDICTED BY IDOCK:   -2.56 KCAL/MOL
REMARK 923 INTER-LIGAND FREE ENERGY PREDICTED BY IDOCK:   -3.23 KCAL/MOL
REMARK 924 INTRA-LIGAND FREE ENERGY PREDICTED BY IDOCK:    0.67 KCAL/MOL
REMARK 927      BINDING AFFINITY PREDICTED BY RF-SCORE:    0.00 PKD
ROOT
HETATM    1  C   UNL     1      -9.626   5.330  71.148  1.00  0.00    -0.218 C  
HETATM    2  C   UNL     1     -10.241   6.717  71.081  1.00  0.00    -0.194 C  
ENDROOT
BRANCH   2   3
HETATM    3  O   UNL     1      -9.775   7.335  69.879  1.00  0.00    -0.173 OA 
BRANCH   3   4
HETATM    4  C   UNL     1     -10.457   6.994  68.758  1.00  0.00    -0.206 C  
HETATM    5  O   UNL     1     -11.659   6.778  68.691  1.00  0.00     0.023 OA 
BRANCH   4   6
HETATM    6  C   UNL     1      -9.564   6.987  67.567  1.00  0.00    -0.155 C  
HETATM    7  C   UNL     1      -9.791   7.783  66.512  1.00  0.00    -0.255 C  
HETATM    8  C   UNL     1      -8.800   7.990  65.415  1.00  0.00    -0.014 C  
HETATM    9  H2  UNL     1      -5.964   7.356  67.038  1.00  0.00     0.000 HD 
HETATM   10  C   UNL     1      -7.852   6.779  65.189  1.00  0.00    -0.119 C  
HETATM   11  H1  UNL     1      -5.784   5.837  67.743  1.00  0.00     0.000 HD 
HETATM   12  C   UNL     1      -8.384   6.075  67.677  1.00  0.00    -0.108 C  
HETATM   13  C   UNL     1      -7.428   5.997  66.468  1.00  0.00    -0.090 C  
HETATM   14  N   UNL     1      -6.062   6.350  66.905  1.00  0.00    -0.024 NA 
BRANCH   8  15
HETATM   15  O   UNL     1      -8.181   9.210  65.820  1.00  0.00    -0.108 OA 
BRANCH  15  16
HETATM   16  C   UNL     1      -8.116  10.296  64.900  1.00  0.00    -0.154 C  
BRANCH  16  17
HETATM   17  C   UNL     1      -9.522  10.921  64.859  1.00  0.00    -0.277 C  
HETATM   18  C   UNL     1      -9.748  11.953  65.959  1.00  0.00    -0.257 C  
ENDBRANCH  16  17
BRANCH  16  19
HETATM   19  C   UNL     1      -7.651   9.862  63.499  1.00  0.00    -0.143 C  
HETATM   20  C   UNL     1      -6.298  10.425  63.080  1.00  0.00    -0.109 C  
ENDBRANCH  16  19
ENDBRANCH  15  16
ENDBRANCH   8  15
BRANCH  10  21
HETATM   21  N   UNL     1      -8.400   5.853  64.174  1.00  0.00    -0.289 N  
HETATM   22  H   UNL     1      -8.195   6.013  63.187  1.00  0.00     0.000 HD 
HETATM   23  C   UNL     1      -9.181   4.779  64.539  1.00  0.00    -0.057 C  
HETATM   24  C   UNL     1      -9.625   3.907  63.395  1.00  0.00    -0.149 C  
HETATM   25  O   UNL     1      -9.495   4.531  65.696  1.00  0.00    -0.151 OA 
ENDBRANCH  10  21
ENDBRANCH   4   6
ENDBRANCH   3   4
ENDBRANCH   2   3
TORSDOF 8
ENDMDL
MODEL      257
REMARK 921   NORMALIZED FREE ENERGY PREDICTED BY IDOCK:   -1.07 KCAL/MOL
REMARK 922        TOTAL FREE ENERGY PREDICTED BY IDOCK:   -2.51 KCAL/MOL
REMARK 923 INTER-LIGAND FREE ENERGY PREDICTED BY IDOCK:   -2.47 KCAL/MOL
REMARK 924 INTRA-LIGAND FREE ENERGY PREDICTED BY IDOCK:   -0.04 KCAL/MOL
REMARK 927      BINDING AFFINITY PREDICTED BY RF-SCORE:    0.00 PKD
ROOT
HETATM    1  C   UNL     1      -7.939   7.212  64.468  1.00  0.00    -0.104 C  
HETATM    2  C   UNL     1      -8.214   8.556  63.818  1.00  0.00    -0.125 C  
ENDROOT
BRANCH   2   3
HETATM    3  O   UNL     1      -7.771   9.569  64.725  1.00  0.00    -0.110 OA 
BRANCH   3   4
HETATM    4  C   UNL     1      -6.758   9.199  65.547  1.00  0.00    -0.073 C  
HETATM    5  O   UNL     1      -5.682   8.740  65.191  1.00  0.00    -0.046 OA 
BRANCH   4   6
HETATM    6  C   UNL     1      -7.083   9.496  66.969  1.00  0.00    -0.086 C  
HETATM    7  C   UNL     1      -6.140   9.499  67.921  1.00  0.00    -0.052 C  
HETATM    8  C   UNL     1      -6.369  10.027  69.299  1.00  0.00    -0.045 C  
HETATM    9  H2  UNL     1      -8.808  12.212  68.708  1.00  0.00     0.000 HD 
HETATM   10  C   UNL     1      -7.845   9.921  69.773  1.00  0.00    -0.163 C  
HETATM   11  H1  UNL     1     -10.238  11.631  68.032  1.00  0.00     0.000 HD 
HETATM   12  C   UNL     1      -8.516   9.844  67.221  1.00  0.00    -0.121 C  
HETATM   13  C   UNL     1      -8.931  10.138  68.677  1.00  0.00    -0.136 C  
HETATM   14  N   UNL     1      -9.526  11.489  68.749  1.00  0.00    -0.141 NA 
BRANCH   8  15
HETATM   15  O   UNL     1      -5.834  11.345  69.189  1.00  0.00    -0.044 OA 
BRANCH  15  16
HETATM   16  C   UNL     1      -6.216  12.332  70.142  1.00  0.00    -0.048 C  
BRANCH  16  17
HETATM   17  C   UNL     1      -6.385  13.651  69.365  1.00  0.00    -0.108 C  
HETATM   18  C   UNL     1      -7.619  13.661  68.470  1.00  0.00    -0.130 C  
ENDBRANCH  16  17
BRANCH  16  19
HETATM   19  C   UNL     1      -5.198  12.480  71.287  1.00  0.00    -0.133 C  
HETATM   20  C   UNL     1      -5.282  13.803  72.039  1.00  0.00    -0.196 C  
ENDBRANCH  16  19
ENDBRANCH  15  16
ENDBRANCH   8  15
BRANCH  10  21
HETATM   21  N   UNL     1      -8.085   8.652  70.495  1.00  0.00    -0.102 N  
HETATM   22  H   UNL     1      -8.661   7.930  70.061  1.00  0.00     0.000 HD 
HETATM   23  C   UNL     1      -7.543   8.428  71.741  1.00  0.00    -0.112 C  
HETATM   24  C   UNL     1      -7.842   7.073  72.324  1.00  0.00    -0.091 C  
HETATM   25  O   UNL     1      -6.862   9.250  72.342  1.00  0.00    -0.302 OA 
ENDBRANCH  10  21
ENDBRANCH   4   6
ENDBRANCH   3   4
ENDBRANCH   2   3
TORSDOF 8
ENDMDL
MODEL      258
REMARK 921   NORMALIZED FREE ENERGY PREDICTED BY IDOCK:   -1.07 KCAL/MOL
REMARK 922        TOTAL FREE ENERGY PREDICTED BY IDOCK:   -2.51 KCAL/MOL
REMARK 923 INTER-LIGAND FREE ENERGY PREDICTED BY IDOCK:   -4.49 KCAL/MOL
REMARK 924 INTRA-LIGAND FREE ENERGY PREDICTED BY IDOCK:    1.98 KCAL/MOL
REMARK 927      BINDING AFFINITY PREDICTED BY RF-SCORE:    0.00 PKD
ROOT
HETATM    1  C   UNL     1     -11.254  15.434  64.595  1.00  0.00    -0.374 C  
HETATM    2  C   UNL     1     -11.593  13.974  64.841  1.00  0.00    -0.367 C  
ENDROOT
BRANCH   2   3
HETATM    3  O   UNL     1     -10.385  13.313  65.229  1.00  0.00    -0.298 OA 
BRANCH   3   4
HETATM    4  C   UNL     1     -10.332  11.992  64.925  1.00  0.00    -0.278 C  
HETATM    5  O   UNL     1     -10.376  11.517  63.800  1.00  0.00    -0.319 OA 
BRANCH   4   6
HETATM    6  C   UNL     1     -10.130  11.167  66.148  1.00  0.00    -0.284 C  
HETATM    7  C   UNL     1      -9.046  10.393  66.303  1.00  0.00    -0.180 C  
HETATM    8  C   UNL     1      -8.681   9.748  67.599  1.00  0.00    -0.125 C  
HETATM    9  H2  UNL     1     -10.134  11.837  69.743  1.00  0.00     0.000 HD 
HETATM   10  C   UNL     1      -9.899   9.440  68.512  1.00  0.00    -0.156 C  
HETATM   11  H1  UNL     1     -11.800  12.056  69.620  1.00  0.00     0.000 HD 
HETATM   12  C   UNL     1     -11.192  11.324  67.189  1.00  0.00    -0.344 C  
HETATM   13  C   UNL     1     -11.061  10.479  68.473  1.00  0.00    -0.275 C  
HETATM   14  N   UNL     1     -11.039  11.377  69.646  1.00  0.00    -0.214 NA 
BRANCH   8  15
HETATM   15  O   UNL     1      -7.722  10.672  68.114  1.00  0.00    -0.096 OA 
BRANCH  15  16
HETATM   16  C   UNL     1      -6.475  10.182  68.598  1.00  0.00    -0.052 C  
BRANCH  16  17
HETATM   17  C   UNL     1      -6.464   8.666  68.329  1.00  0.00    -0.060 C  
HETATM   18  C   UNL     1      -6.361   7.836  69.604  1.00  0.00    -0.031 C  
ENDBRANCH  16  17
BRANCH  16  19
HETATM   19  C   UNL     1      -6.252  10.491  70.088  1.00  0.00    -0.117 C  
HETATM   20  C   UNL     1      -5.991   9.265  70.955  1.00  0.00    -0.064 C  
ENDBRANCH  16  19
ENDBRANCH  15  16
ENDBRANCH   8  15
BRANCH  10  21
HETATM   21  N   UNL     1     -10.417   8.076  68.271  1.00  0.00    -0.312 N  
HETATM   22  H   UNL     1     -10.542   7.749  67.312  1.00  0.00     0.000 HD 
HETATM   23  C   UNL     1     -10.733   7.239  69.319  1.00  0.00    -0.198 C  
HETATM   24  C   UNL     1     -11.205   5.869  68.910  1.00  0.00    -0.124 C  
HETATM   25  O   UNL     1     -10.637   7.561  70.496  1.00  0.00    -0.217 OA 
ENDBRANCH  10  21
ENDBRANCH   4   6
ENDBRANCH   3   4
ENDBRANCH   2   3
TORSDOF 8
ENDMDL
MODEL      259
REMARK 921   NORMALIZED FREE ENERGY PREDICTED BY IDOCK:   -0.98 KCAL/MOL
REMARK 922        TOTAL FREE ENERGY PREDICTED BY IDOCK:   -2.38 KCAL/MOL
REMARK 923 INTER-LIGAND FREE ENERGY PREDICTED BY IDOCK:   -2.02 KCAL/MOL
REMARK 924 INTRA-LIGAND FREE ENERGY PREDICTED BY IDOCK:   -0.36 KCAL/MOL
REMARK 927      BINDING AFFINITY PREDICTED BY RF-SCORE:    0.00 PKD
ROOT
HETATM    1  C   UNL     1     -10.679  11.420  68.766  1.00  0.00    -0.240 C  
HETATM    2  C   UNL     1      -9.304  11.079  69.312  1.00  0.00     0.066 C  
ENDROOT
BRANCH   2   3
HETATM    3  O   UNL     1      -8.338  11.557  68.371  1.00  0.00    -0.143 OA 
BRANCH   3   4
HETATM    4  C   UNL     1      -7.175  10.860  68.340  1.00  0.00    -0.087 C  
HETATM    5  O   UNL     1      -6.114  11.220  68.828  1.00  0.00    -0.043 OA 
BRANCH   4   6
HETATM    6  C   UNL     1      -7.361   9.532  67.694  1.00  0.00    -0.083 C  
HETATM    7  C   UNL     1      -8.057   9.394  66.555  1.00  0.00    -0.111 C  
HETATM    8  C   UNL     1      -8.063   8.140  65.746  1.00  0.00    -0.115 C  
HETATM    9  H2  UNL     1      -5.122   6.848  66.618  1.00  0.00     0.000 HD 
HETATM   10  C   UNL     1      -7.827   6.852  66.584  1.00  0.00    -0.107 C  
HETATM   11  H1  UNL     1      -4.860   6.519  68.249  1.00  0.00     0.000 HD 
HETATM   12  C   UNL     1      -6.667   8.399  68.382  1.00  0.00    -0.064 C  
HETATM   13  C   UNL     1      -6.838   6.989  67.781  1.00  0.00    -0.074 C  
HETATM   14  N   UNL     1      -5.507   6.430  67.465  1.00  0.00    -0.005 NA 
BRANCH   8  15
HETATM   15  O   UNL     1      -7.080   8.438  64.755  1.00  0.00    -0.077 OA 
BRANCH  15  16
HETATM   16  C   UNL     1      -7.495   8.985  63.507  1.00  0.00    -0.103 C  
BRANCH  16  17
HETATM   17  C   UNL     1      -6.384   9.953  63.060  1.00  0.00    -0.120 C  
HETATM   18  C   UNL     1      -5.554  10.486  64.224  1.00  0.00    -0.115 C  
ENDBRANCH  16  17
BRANCH  16  19
HETATM   19  C   UNL     1      -8.858   9.694  63.591  1.00  0.00    -0.256 C  
HETATM   20  C   UNL     1      -9.095  10.737  62.506  1.00  0.00    -0.344 C  
ENDBRANCH  16  19
ENDBRANCH  15  16
ENDBRANCH   8  15
BRANCH  10  21
HETATM   21  N   UNL     1      -9.107   6.266  67.035  1.00  0.00    -0.120 N  
HETATM   22  H   UNL     1      -9.973   6.789  66.902  1.00  0.00     0.000 HD 
HETATM   23  C   UNL     1      -9.151   5.024  67.630  1.00  0.00    -0.113 C  
HETATM   24  C   UNL     1     -10.532   4.548  67.992  1.00  0.00     0.326 C  
HETATM   25  O   UNL     1      -8.158   4.342  67.849  1.00  0.00    -0.093 OA 
ENDBRANCH  10  21
ENDBRANCH   4   6
ENDBRANCH   3   4
ENDBRANCH   2   3
TORSDOF 8
ENDMDL
MODEL      260
REMARK 921   NORMALIZED FREE ENERGY PREDICTED BY IDOCK:   -0.78 KCAL/MOL
REMARK 922        TOTAL FREE ENERGY PREDICTED BY IDOCK:   -2.09 KCAL/MOL
REMARK 923 INTER-LIGAND FREE ENERGY PREDICTED BY IDOCK:   -2.76 KCAL/MOL
REMARK 924 INTRA-LIGAND FREE ENERGY PREDICTED BY IDOCK:    0.67 KCAL/MOL
REMARK 927      BINDING AFFINITY PREDICTED BY RF-SCORE:    0.00 PKD
ROOT
HETATM    1  C   UNL     1     -13.482   8.135  72.319  1.00  0.00    -0.184 C  
HETATM    2  C   UNL     1     -12.236   8.079  71.454  1.00  0.00    -0.309 C  
ENDROOT
BRANCH   2   3
HETATM    3  O   UNL     1     -11.193   7.495  72.240  1.00  0.00    -0.252 OA 
BRANCH   3   4
HETATM    4  C   UNL     1     -10.122   8.298  72.459  1.00  0.00    -0.306 C  
HETATM    5  O   UNL     1      -9.736   8.692  73.550  1.00  0.00     0.380 OA 
BRANCH   4   6
HETATM    6  C   UNL     1      -9.402   8.591  71.189  1.00  0.00    -0.249 C  
HETATM    7  C   UNL     1      -8.503   7.739  70.677  1.00  0.00    -0.126 C  
HETATM    8  C   UNL     1      -7.945   7.869  69.299  1.00  0.00    -0.117 C  
HETATM    9  H2  UNL     1     -10.418   9.514  67.800  1.00  0.00     0.000 HD 
HETATM   10  C   UNL     1      -7.903   9.331  68.774  1.00  0.00    -0.088 C  
HETATM   11  H1  UNL     1     -10.856  11.016  68.424  1.00  0.00     0.000 HD 
HETATM   12  C   UNL     1      -9.808   9.867  70.522  1.00  0.00    -0.122 C  
HETATM   13  C   UNL     1      -9.084  10.248  69.214  1.00  0.00    -0.194 C  
HETATM   14  N   UNL     1     -10.082  10.416  68.137  1.00  0.00    -0.151 NA 
BRANCH   8  15
HETATM   15  O   UNL     1      -8.771   6.961  68.572  1.00  0.00    -0.126 OA 
BRANCH  15  16
HETATM   16  C   UNL     1      -8.865   7.086  67.156  1.00  0.00    -0.121 C  
BRANCH  16  17
HETATM   17  C   UNL     1     -10.228   6.494  66.751  1.00  0.00    -0.257 C  
HETATM   18  C   UNL     1     -10.174   4.991  66.502  1.00  0.00    -0.307 C  
ENDBRANCH  16  17
BRANCH  16  19
HETATM   19  C   UNL     1      -7.708   6.390  66.418  1.00  0.00    -0.099 C  
HETATM   20  C   UNL     1      -7.653   6.672  64.922  1.00  0.00    -0.101 C  
ENDBRANCH  16  19
ENDBRANCH  15  16
ENDBRANCH   8  15
BRANCH  10  21
HETATM   21  N   UNL     1      -6.607   9.974  69.085  1.00  0.00    -0.051 N  
HETATM   22  H   UNL     1      -5.753   9.416  69.064  1.00  0.00     0.000 HD 
HETATM   23  C   UNL     1      -6.534  11.312  69.403  1.00  0.00    -0.105 C  
HETATM   24  C   UNL     1      -5.141  11.826  69.650  1.00  0.00    -0.062 C  
HETATM   25  O   UNL     1      -7.512  12.046  69.475  1.00  0.00     0.184 OA 
ENDBRANCH  10  21
ENDBRANCH   4   6
ENDBRANCH   3   4
ENDBRANCH   2   3
TORSDOF 8
ENDMDL
MODEL      261
REMARK 921   NORMALIZED FREE ENERGY PREDICTED BY IDOCK:   -0.56 KCAL/MOL
REMARK 922        TOTAL FREE ENERGY PREDICTED BY IDOCK:   -1.76 KCAL/MOL
REMARK 923 INTER-LIGAND FREE ENERGY PREDICTED BY IDOCK:   -2.16 KCAL/MOL
REMARK 924 INTRA-LIGAND FREE ENERGY PREDICTED BY IDOCK:    0.40 KCAL/MOL
REMARK 927      BINDING AFFINITY PREDICTED BY RF-SCORE:    0.00 PKD
ROOT
HETATM    1  C   UNL     1     -11.443   9.933  68.188  1.00  0.00     0.153 C  
HETATM    2  C   UNL     1     -10.098   9.908  68.891  1.00  0.00    -0.184 C  
ENDROOT
BRANCH   2   3
HETATM    3  O   UNL     1      -9.118  10.373  67.959  1.00  0.00    -0.134 OA 
BRANCH   3   4
HETATM    4  C   UNL     1      -9.125   9.744  66.758  1.00  0.00    -0.146 C  
HETATM    5  O   UNL     1      -9.237  10.286  65.668  1.00  0.00    -0.165 OA 
BRANCH   4   6
HETATM    6  C   UNL     1      -8.897   8.281  66.917  1.00  0.00    -0.155 C  
HETATM    7  C   UNL     1      -7.939   7.801  67.722  1.00  0.00    -0.124 C  
HETATM    8  C   UNL     1      -7.834   6.361  68.101  1.00  0.00    -0.105 C  
HETATM    9  H2  UNL     1     -11.007   5.417  67.765  1.00  0.00     0.000 HD 
HETATM   10  C   UNL     1      -8.404   5.388  67.033  1.00  0.00    -0.107 C  
HETATM   11  H1  UNL     1     -11.725   5.598  66.252  1.00  0.00     0.000 HD 
HETATM   12  C   UNL     1      -9.852   7.415  66.159  1.00  0.00     0.087 C  
HETATM   13  C   UNL     1      -9.659   5.887  66.256  1.00  0.00    -0.119 C  
HETATM   14  N   UNL     1     -10.903   5.271  66.761  1.00  0.00    -0.158 NA 
BRANCH   8  15
HETATM   15  O   UNL     1      -8.484   6.356  69.372  1.00  0.00    -0.124 OA 
BRANCH  15  16
HETATM   16  C   UNL     1      -7.814   6.915  70.498  1.00  0.00    -0.105 C  
BRANCH  16  17
HETATM   17  C   UNL     1      -6.925   5.799  71.078  1.00  0.00    -0.066 C  
HETATM   18  C   UNL     1      -7.660   4.472  71.236  1.00  0.00    -0.075 C  
ENDBRANCH  16  17
BRANCH  16  19
HETATM   19  C   UNL     1      -8.785   7.467  71.556  1.00  0.00    -0.122 C  
HETATM   20  C   UNL     1      -8.151   7.740  72.914  1.00  0.00    -0.169 C  
ENDBRANCH  16  19
ENDBRANCH  15  16
ENDBRANCH   8  15
BRANCH  10  21
HETATM   21  N   UNL     1      -7.350   4.953  66.090  1.00  0.00    -0.077 N  
HETATM   22  H   UNL     1      -6.374   4.963  66.388  1.00  0.00     0.000 HD 
HETATM   23  C   UNL     1      -7.665   4.536  64.815  1.00  0.00    -0.081 C  
HETATM   24  C   UNL     1      -6.487   4.084  63.992  1.00  0.00    -0.041 C  
HETATM   25  O   UNL     1      -8.805   4.518  64.369  1.00  0.00    -0.143 OA 
ENDBRANCH  10  21
ENDBRANCH   4   6
ENDBRANCH   3   4
ENDBRANCH   2   3
TORSDOF 8
ENDMDL
MODEL      262
REMARK 921   NORMALIZED FREE ENERGY PREDICTED BY IDOCK:   -0.11 KCAL/MOL
REMARK 922        TOTAL FREE ENERGY PREDICTED BY IDOCK:   -1.10 KCAL/MOL
REMARK 923 INTER-LIGAND FREE ENERGY PREDICTED BY IDOCK:   -2.22 KCAL/MOL
REMARK 924 INTRA-LIGAND FREE ENERGY PREDICTED BY IDOCK:    1.12 KCAL/MOL
REMARK 927      BINDING AFFINITY PREDICTED BY RF-SCORE:    0.00 PKD
ROOT
HETATM    1  C   UNL     1     -11.625  16.042  63.457  1.00  0.00     1.756 C  
HETATM    2  C   UNL     1     -11.893  16.079  64.951  1.00  0.00     0.261 C  
ENDROOT
BRANCH   2   3
HETATM    3  O   UNL     1     -10.700  16.543  65.589  1.00  0.00    -0.331 OA 
BRANCH   3   4
HETATM    4  C   UNL     1     -10.894  17.184  66.768  1.00  0.00     0.022 C  
HETATM    5  O   UNL     1     -11.176  18.366  66.899  1.00  0.00     0.096 OA 
BRANCH   4   6
HETATM    6  C   UNL     1     -10.798  16.241  67.916  1.00  0.00    -0.330 C  
HETATM    7  C   UNL     1     -11.880  15.626  68.415  1.00  0.00    -0.211 C  
HETATM    8  C   UNL     1     -11.804  14.499  69.390  1.00  0.00    -0.325 C  
HETATM    9  H2  UNL     1      -8.803  13.265  68.650  1.00  0.00     0.000 HD 
HETATM   10  C   UNL     1     -10.539  14.533  70.291  1.00  0.00     0.317 C  
HETATM   11  H1  UNL     1      -7.474  14.288  68.798  1.00  0.00     0.000 HD 
HETATM   12  C   UNL     1      -9.407  16.000  68.411  1.00  0.00    -0.207 C  
HETATM   13  C   UNL     1      -9.234  15.053  69.616  1.00  0.00     0.006 C  
HETATM   14  N   UNL     1      -8.328  13.948  69.240  1.00  0.00     0.323 NA 
BRANCH   8  15
HETATM   15  O   UNL     1     -11.934  13.370  68.526  1.00  0.00    -0.348 OA 
BRANCH  15  16
HETATM   16  C   UNL     1     -11.953  12.061  69.089  1.00  0.00    -0.268 C  
BRANCH  16  17
HETATM   17  C   UNL     1     -12.409  12.220  70.552  1.00  0.00    -0.349 C  
HETATM   18  C   UNL     1     -12.287  10.930  71.357  1.00  0.00    -0.403 C  
ENDBRANCH  16  17
BRANCH  16  19
HETATM   19  C   UNL     1     -10.590  11.354  68.999  1.00  0.00    -0.224 C  
HETATM   20  C   UNL     1     -10.051  11.200  67.581  1.00  0.00    -0.203 C  
ENDBRANCH  16  19
ENDBRANCH  15  16
ENDBRANCH   8  15
BRANCH  10  21
HETATM   21  N   UNL     1     -10.799  15.266  71.549  1.00  0.00    -0.444 N  
HETATM   22  H   UNL     1     -10.014  15.540  72.141  1.00  0.00     0.000 HD 
HETATM   23  C   UNL     1     -12.082  15.586  71.935  1.00  0.00    -0.412 C  
HETATM   24  C   UNL     1     -12.177  16.371  73.216  1.00  0.00    -0.558 C  
HETATM   25  O   UNL     1     -13.079  15.273  71.297  1.00  0.00    -0.395 OA 
ENDBRANCH  10  21
ENDBRANCH   4   6
ENDBRANCH   3   4
ENDBRANCH   2   3
TORSDOF 8
ENDMDL
MODEL      263
REMARK 921   NORMALIZED FREE ENERGY PREDICTED BY IDOCK:   -0.00 KCAL/MOL
REMARK 922        TOTAL FREE ENERGY PREDICTED BY IDOCK:   -0.94 KCAL/MOL
REMARK 923 INTER-LIGAND FREE ENERGY PREDICTED BY IDOCK:   -1.37 KCAL/MOL
REMARK 924 INTRA-LIGAND FREE ENERGY PREDICTED BY IDOCK:    0.43 KCAL/MOL
REMARK 927      BINDING AFFINITY PREDICTED BY RF-SCORE:    0.00 PKD
ROOT
HETATM    1  C   UNL     1     -10.845   7.922  66.851  1.00  0.00    -0.050 C  
HETATM    2  C   UNL     1      -9.618   7.661  67.706  1.00  0.00    -0.144 C  
ENDROOT
BRANCH   2   3
HETATM    3  O   UNL     1      -8.469   7.957  66.908  1.00  0.00    -0.123 OA 
BRANCH   3   4
HETATM    4  C   UNL     1      -8.405   7.295  65.726  1.00  0.00    -0.139 C  
HETATM    5  O   UNL     1      -8.476   7.804  64.618  1.00  0.00    -0.071 OA 
BRANCH   4   6
HETATM    6  C   UNL     1      -8.155   5.842  65.937  1.00  0.00    -0.118 C  
HETATM    7  C   UNL     1      -7.316   5.403  66.887  1.00  0.00    -0.083 C  
HETATM    8  C   UNL     1      -7.222   3.971  67.296  1.00  0.00    -0.068 C  
HETATM    9  H2  UNL     1     -10.273   2.913  66.492  1.00  0.00     0.000 HD 
HETATM   10  C   UNL     1      -7.589   2.969  66.167  1.00  0.00    -0.077 C  
HETATM   11  H1  UNL     1     -10.756   3.056  64.885  1.00  0.00     0.000 HD 
HETATM   12  C   UNL     1      -8.954   4.937  65.054  1.00  0.00    -0.147 C  
HETATM   13  C   UNL     1      -8.726   3.418  65.200  1.00  0.00    -0.119 C  
HETATM   14  N   UNL     1     -10.012   2.762  65.518  1.00  0.00     0.366 NA 
BRANCH   8  15
HETATM   15  O   UNL     1      -8.058   3.953  68.453  1.00  0.00    -0.075 OA 
BRANCH  15  16
HETATM   16  C   UNL     1      -7.463   4.062  69.743  1.00  0.00    -0.052 C  
BRANCH  16  17
HETATM   17  C   UNL     1      -6.612   2.794  69.943  1.00  0.00    -0.033 C  
HETATM   18  C   UNL     1      -7.102   1.923  71.095  1.00  0.00    -0.032 C  
ENDBRANCH  16  17
BRANCH  16  19
HETATM   19  C   UNL     1      -8.502   4.225  70.866  1.00  0.00    -0.103 C  
HETATM   20  C   UNL     1      -9.295   5.525  70.808  1.00  0.00    -0.199 C  
ENDBRANCH  16  19
ENDBRANCH  15  16
ENDBRANCH   8  15
BRANCH  10  21
HETATM   21  N   UNL     1      -6.389   2.564  65.401  1.00  0.00    -0.023 N  
HETATM   22  H   UNL     1      -5.499   2.449  65.887  1.00  0.00     0.000 HD 
HETATM   23  C   UNL     1      -6.454   2.340  64.043  1.00  0.00    -0.022 C  
HETATM   24  C   UNL     1      -5.160   1.892  63.417  1.00  0.00    -0.003 C  
HETATM   25  O   UNL     1      -7.474   2.480  63.381  1.00  0.00    -0.054 OA 
ENDBRANCH  10  21
ENDBRANCH   4   6
ENDBRANCH   3   4
ENDBRANCH   2   3
TORSDOF 8
ENDMDL
MODEL      264
REMARK 921   NORMALIZED FREE ENERGY PREDICTED BY IDOCK:    0.28 KCAL/MOL
REMARK 922        TOTAL FREE ENERGY PREDICTED BY IDOCK:   -0.53 KCAL/MOL
REMARK 923 INTER-LIGAND FREE ENERGY PREDICTED BY IDOCK:   -4.66 KCAL/MOL
REMARK 924 INTRA-LIGAND FREE ENERGY PREDICTED BY IDOCK:    4.13 KCAL/MOL
REMARK 927      BINDING AFFINITY PREDICTED BY RF-SCORE:    0.00 PKD
ROOT
HETATM    1  C   UNL     1      -9.575  12.850  65.916  1.00  0.00    -0.133 C  
HETATM    2  C   UNL     1     -10.212  14.192  66.232  1.00  0.00    -0.295 C  
ENDROOT
BRANCH   2   3
HETATM    3  O   UNL     1     -10.378  14.890  64.995  1.00  0.00    -0.390 OA 
BRANCH   3   4
HETATM    4  C   UNL     1     -10.674  16.208  65.117  1.00  0.00    -0.371 C  
HETATM    5  O   UNL     1     -11.557  16.800  64.514  1.00  0.00    -0.721 OA 
BRANCH   4   6
HETATM    6  C   UNL     1      -9.828  16.855  66.157  1.00  0.00    -0.318 C  
HETATM    7  C   UNL     1     -10.330  17.758  67.013  1.00  0.00    -0.344 C  
HETATM    8  C   UNL     1      -9.592  18.243  68.216  1.00  0.00    -0.318 C  
HETATM    9  H2  UNL     1      -7.597  15.643  68.790  1.00  0.00     0.000 HD 
HETATM   10  C   UNL     1      -8.047  18.208  68.061  1.00  0.00    -0.258 C  
HETATM   11  H1  UNL     1      -6.533  15.184  67.567  1.00  0.00     0.000 HD 
HETATM   12  C   UNL     1      -8.413  16.372  66.200  1.00  0.00    -0.329 C  
HETATM   13  C   UNL     1      -7.471  17.018  67.237  1.00  0.00    -0.163 C  
HETATM   14  N   UNL     1      -6.910  15.963  68.107  1.00  0.00    -0.116 NA 
BRANCH   8  15
HETATM   15  O   UNL     1     -10.144  17.415  69.239  1.00  0.00    -0.264 OA 
BRANCH  15  16
HETATM   16  C   UNL     1     -10.373  16.035  68.968  1.00  0.00    -0.242 C  
BRANCH  16  17
HETATM   17  C   UNL     1     -11.756  15.696  69.553  1.00  0.00    -0.382 C  
HETATM   18  C   UNL     1     -12.397  14.477  68.898  1.00  0.00    -0.091 C  
ENDBRANCH  16  17
BRANCH  16  19
HETATM   19  C   UNL     1      -9.277  15.125  69.550  1.00  0.00    -0.139 C  
HETATM   20  C   UNL     1      -9.255  13.715  68.972  1.00  0.00     0.300 C  
ENDBRANCH  16  19
ENDBRANCH  15  16
ENDBRANCH   8  15
BRANCH  10  21
HETATM   21  N   UNL     1      -7.532  19.494  67.541  1.00  0.00    -0.240 N  
HETATM   22  H   UNL     1      -6.865  20.030  68.098  1.00  0.00     0.000 HD 
HETATM   23  C   UNL     1      -7.938  19.981  66.318  1.00  0.00    -0.295 C  
HETATM   24  C   UNL     1      -7.291  21.278  65.911  1.00  0.00     0.775 C  
HETATM   25  O   UNL     1      -8.752  19.415  65.599  1.00  0.00    -0.327 OA 
ENDBRANCH  10  21
ENDBRANCH   4   6
ENDBRANCH   3   4
ENDBRANCH   2   3
TORSDOF 8
ENDMDL
MODEL      265
REMARK 921   NORMALIZED FREE ENERGY PREDICTED BY IDOCK:    0.34 KCAL/MOL
REMARK 922        TOTAL FREE ENERGY PREDICTED BY IDOCK:   -0.44 KCAL/MOL
REMARK 923 INTER-LIGAND FREE ENERGY PREDICTED BY IDOCK:   -1.79 KCAL/MOL
REMARK 924 INTRA-LIGAND FREE ENERGY PREDICTED BY IDOCK:    1.34 KCAL/MOL
REMARK 927      BINDING AFFINITY PREDICTED BY RF-SCORE:    0.00 PKD
ROOT
HETATM    1  C   UNL     1     -10.073  12.032  69.196  1.00  0.00     0.182 C  
HETATM    2  C   UNL     1      -8.628  11.854  68.768  1.00  0.00     0.050 C  
ENDROOT
BRANCH   2   3
HETATM    3  O   UNL     1      -8.540  12.221  67.389  1.00  0.00    -0.161 OA 
BRANCH   3   4
HETATM    4  C   UNL     1      -7.423  11.790  66.751  1.00  0.00    -0.057 C  
HETATM    5  O   UNL     1      -6.341  12.356  66.746  1.00  0.00    -0.139 OA 
BRANCH   4   6
HETATM    6  C   UNL     1      -7.651  10.468  66.104  1.00  0.00    -0.135 C  
HETATM    7  C   UNL     1      -8.877  10.065  65.739  1.00  0.00    -0.172 C  
HETATM    8  C   UNL     1      -9.122   8.873  64.874  1.00  0.00    -0.000 C  
HETATM    9  H2  UNL     1      -6.248   8.741  63.202  1.00  0.00     0.000 HD 
HETATM   10  C   UNL     1      -8.029   7.775  64.994  1.00  0.00    -0.134 C  
HETATM   11  H1  UNL     1      -4.828   8.566  64.091  1.00  0.00     0.000 HD 
HETATM   12  C   UNL     1      -6.408   9.676  65.848  1.00  0.00    -0.077 C  
HETATM   13  C   UNL     1      -6.570   8.285  65.203  1.00  0.00    -0.055 C  
HETATM   14  N   UNL     1      -5.783   8.233  63.954  1.00  0.00    -0.064 NA 
BRANCH   8  15
HETATM   15  O   UNL     1      -9.270   9.481  63.591  1.00  0.00    -0.206 OA 
BRANCH  15  16
HETATM   16  C   UNL     1     -10.261  10.488  63.409  1.00  0.00     0.032 C  
BRANCH  16  17
HETATM   17  C   UNL     1      -9.637  11.558  62.495  1.00  0.00     0.108 C  
HETATM   18  C   UNL     1      -8.125  11.417  62.357  1.00  0.00     0.057 C  
ENDBRANCH  16  17
BRANCH  16  19
HETATM   19  C   UNL     1     -10.745  11.094  64.738  1.00  0.00    -0.334 C  
HETATM   20  C   UNL     1     -10.891  12.611  64.723  1.00  0.00    -0.332 C  
ENDBRANCH  16  19
ENDBRANCH  15  16
ENDBRANCH   8  15
BRANCH  10  21
HETATM   21  N   UNL     1      -8.382   6.779  66.028  1.00  0.00    -0.128 N  
HETATM   22  H   UNL     1      -9.340   6.737  66.378  1.00  0.00     0.000 HD 
HETATM   23  C   UNL     1      -7.440   5.907  66.527  1.00  0.00    -0.087 C  
HETATM   24  C   UNL     1      -7.965   4.926  67.542  1.00  0.00    -0.095 C  
HETATM   25  O   UNL     1      -6.265   5.907  66.181  1.00  0.00    -0.037 OA 
ENDBRANCH  10  21
ENDBRANCH   4   6
ENDBRANCH   3   4
ENDBRANCH   2   3
TORSDOF 8
ENDMDL
MODEL      266
REMARK 921   NORMALIZED FREE ENERGY PREDICTED BY IDOCK:    1.77 KCAL/MOL
REMARK 922        TOTAL FREE ENERGY PREDICTED BY IDOCK:    1.66 KCAL/MOL
REMARK 923 INTER-LIGAND FREE ENERGY PREDICTED BY IDOCK:   -2.70 KCAL/MOL
REMARK 924 INTRA-LIGAND FREE ENERGY PREDICTED BY IDOCK:    4.37 KCAL/MOL
REMARK 927      BINDING AFFINITY PREDICTED BY RF-SCORE:    0.00 PKD
ROOT
HETATM    1  C   UNL     1      -7.242  19.272  66.586  1.00  0.00    -0.228 C  
HETATM    2  C   UNL     1      -8.640  19.663  66.140  1.00  0.00    -0.333 C  
ENDROOT
BRANCH   2   3
HETATM    3  O   UNL     1      -9.326  18.463  65.775  1.00  0.00    -0.438 OA 
BRANCH   3   4
HETATM    4  C   UNL     1      -8.551  17.351  65.729  1.00  0.00     0.266 C  
HETATM    5  O   UNL     1      -7.337  17.333  65.589  1.00  0.00    -0.299 OA 
BRANCH   4   6
HETATM    6  C   UNL     1      -9.360  16.122  65.955  1.00  0.00    -0.368 C  
HETATM    7  C   UNL     1      -9.072  15.261  66.942  1.00  0.00    -0.263 C  
HETATM    8  C   UNL     1      -9.989  14.159  67.360  1.00  0.00    -0.240 C  
HETATM    9  H2  UNL     1     -12.920  15.425  66.421  1.00  0.00     0.000 HD 
HETATM   10  C   UNL     1     -10.902  13.636  66.217  1.00  0.00    -0.282 C  
HETATM   11  H1  UNL     1     -13.127  15.806  64.794  1.00  0.00     0.000 HD 
HETATM   12  C   UNL     1     -10.533  15.970  65.039  1.00  0.00    -0.250 C  
HETATM   13  C   UNL     1     -11.402  14.705  65.199  1.00  0.00    -0.375 C  
HETATM   14  N   UNL     1     -12.800  15.106  65.460  1.00  0.00     0.548 NA 
BRANCH   8  15
HETATM   15  O   UNL     1     -10.651  14.750  68.477  1.00  0.00    -0.236 OA 
BRANCH  15  16
HETATM   16  C   UNL     1      -9.954  15.704  69.274  1.00  0.00    -0.265 C  
BRANCH  16  17
HETATM   17  C   UNL     1     -10.156  17.073  68.598  1.00  0.00    -0.303 C  
HETATM   18  C   UNL     1      -9.270  18.165  69.187  1.00  0.00     0.051 C  
ENDBRANCH  16  17
BRANCH  16  19
HETATM   19  C   UNL     1      -8.460  15.370  69.431  1.00  0.00    -0.253 C  
HETATM   20  C   UNL     1      -8.175  14.144  70.290  1.00  0.00     1.867 C  
ENDBRANCH  16  19
ENDBRANCH  15  16
ENDBRANCH   8  15
BRANCH  10  21
HETATM   21  N   UNL     1     -10.273  12.500  65.507  1.00  0.00    -0.273 N  
HETATM   22  H   UNL     1      -9.327  12.213  65.760  1.00  0.00     0.000 HD 
HETATM   23  C   UNL     1     -10.944  11.825  64.511  1.00  0.00    -0.324 C  
HETATM   24  C   UNL     1     -10.186  10.667  63.917  1.00  0.00    -0.306 C  
HETATM   25  O   UNL     1     -12.069  12.121  64.130  1.00  0.00    -0.400 OA 
ENDBRANCH  10  21
ENDBRANCH   4   6
ENDBRANCH   3   4
ENDBRANCH   2   3
TORSDOF 8
ENDMDL
MODEL      267
REMARK 921   NORMALIZED FREE ENERGY PREDICTED BY IDOCK:    1.90 KCAL/MOL
REMARK 922        TOTAL FREE ENERGY PREDICTED BY IDOCK:    1.85 KCAL/MOL
REMARK 923 INTER-LIGAND FREE ENERGY PREDICTED BY IDOCK:   -0.59 KCAL/MOL
REMARK 924 INTRA-LIGAND FREE ENERGY PREDICTED BY IDOCK:    2.44 KCAL/MOL
REMARK 927      BINDING AFFINITY PREDICTED BY RF-SCORE:    0.00 PKD
ROOT
HETATM    1  C   UNL     1      -9.922  14.797  64.446  1.00  0.00     1.167 C  
HETATM    2  C   UNL     1     -11.362  15.120  64.803  1.00  0.00    -0.395 C  
ENDROOT
BRANCH   2   3
HETATM    3  O   UNL     1     -11.337  16.075  65.868  1.00  0.00     0.027 OA 
BRANCH   3   4
HETATM    4  C   UNL     1     -10.098  16.469  66.255  1.00  0.00    -0.333 C  
HETATM    5  O   UNL     1      -9.440  17.362  65.741  1.00  0.00    -0.523 OA 
BRANCH   4   6
HETATM    6  C   UNL     1      -9.649  15.720  67.461  1.00  0.00    -0.224 C  
HETATM    7  C   UNL     1      -8.349  15.585  67.762  1.00  0.00    -0.155 C  
HETATM    8  C   UNL     1      -7.864  15.064  69.074  1.00  0.00    -0.170 C  
HETATM    9  H2  UNL     1     -10.432  15.868  71.030  1.00  0.00     0.000 HD 
HETATM   10  C   UNL     1      -8.849  14.080  69.762  1.00  0.00     1.285 C  
HETATM   11  H1  UNL     1     -11.944  15.232  70.645  1.00  0.00     0.000 HD 
HETATM   12  C   UNL     1     -10.757  15.197  68.319  1.00  0.00    -0.251 C  
HETATM   13  C   UNL     1     -10.365  14.389  69.573  1.00  0.00     0.049 C  
HETATM   14  N   UNL     1     -10.951  15.030  70.768  1.00  0.00    -0.196 NA 
BRANCH   8  15
HETATM   15  O   UNL     1      -7.589  16.277  69.775  1.00  0.00     0.017 OA 
BRANCH  15  16
HETATM   16  C   UNL     1      -6.803  17.283  69.142  1.00  0.00    -0.234 C  
BRANCH  16  17
HETATM   17  C   UNL     1      -7.736  18.485  68.906  1.00  0.00    -0.253 C  
HETATM   18  C   UNL     1      -6.980  19.781  68.633  1.00  0.00    -0.363 C  
ENDBRANCH  16  17
BRANCH  16  19
HETATM   19  C   UNL     1      -6.164  16.801  67.828  1.00  0.00    -0.161 C  
HETATM   20  C   UNL     1      -5.165  17.775  67.217  1.00  0.00    -0.144 C  
ENDBRANCH  16  19
ENDBRANCH  15  16
ENDBRANCH   8  15
BRANCH  10  21
HETATM   21  N   UNL     1      -8.556  12.679  69.387  1.00  0.00     0.404 N  
HETATM   22  H   UNL     1      -9.321  12.007  69.319  1.00  0.00     0.000 HD 
HETATM   23  C   UNL     1      -7.267  12.268  69.126  1.00  0.00     0.041 C  
HETATM   24  C   UNL     1      -7.139  10.825  68.714  1.00  0.00    -0.079 C  
HETATM   25  O   UNL     1      -6.291  13.002  69.208  1.00  0.00    -0.097 OA 
ENDBRANCH  10  21
ENDBRANCH   4   6
ENDBRANCH   3   4
ENDBRANCH   2   3
TORSDOF 8
ENDMDL
MODEL      268
REMARK 921   NORMALIZED FREE ENERGY PREDICTED BY IDOCK:    2.40 KCAL/MOL
REMARK 922        TOTAL FREE ENERGY PREDICTED BY IDOCK:    2.59 KCAL/MOL
REMARK 923 INTER-LIGAND FREE ENERGY PREDICTED BY IDOCK:    1.90 KCAL/MOL
REMARK 924 INTRA-LIGAND FREE ENERGY PREDICTED BY IDOCK:    0.69 KCAL/MOL
REMARK 927      BINDING AFFINITY PREDICTED BY RF-SCORE:    0.00 PKD
ROOT
HETATM    1  C   UNL     1      -9.143   4.931  71.253  1.00  0.00    -0.179 C  
HETATM    2  C   UNL     1      -9.598   6.367  71.436  1.00  0.00    -0.162 C  
ENDROOT
BRANCH   2   3
HETATM    3  O   UNL     1      -9.631   6.976  70.142  1.00  0.00    -0.165 OA 
BRANCH   3   4
HETATM    4  C   UNL     1     -10.525   6.436  69.277  1.00  0.00    -0.231 C  
HETATM    5  O   UNL     1     -11.736   6.393  69.438  1.00  0.00    -0.327 OA 
BRANCH   4   6
HETATM    6  C   UNL     1      -9.854   5.958  68.038  1.00  0.00    -0.144 C  
HETATM    7  C   UNL     1      -9.220   6.802  67.210  1.00  0.00    -0.140 C  
HETATM    8  C   UNL     1      -8.332   6.346  66.100  1.00  0.00    -0.128 C  
HETATM    9  H2  UNL     1      -7.366   3.387  67.278  1.00  0.00     0.000 HD 
HETATM   10  C   UNL     1      -8.708   4.952  65.527  1.00  0.00    -0.139 C  
HETATM   11  H1  UNL     1      -8.559   2.246  67.610  1.00  0.00     0.000 HD 
HETATM   12  C   UNL     1      -9.897   4.477  67.836  1.00  0.00    -0.162 C  
HETATM   13  C   UNL     1      -9.243   3.912  66.558  1.00  0.00    -0.166 C  
HETATM   14  N   UNL     1      -8.209   2.926  66.936  1.00  0.00    -0.083 NA 
BRANCH   8  15
HETATM   15  O   UNL     1      -7.044   6.453  66.708  1.00  0.00    -0.069 OA 
BRANCH  15  16
HETATM   16  C   UNL     1      -6.108   7.394  66.190  1.00  0.00    -0.037 C  
BRANCH  16  17
HETATM   17  C   UNL     1      -6.345   8.713  66.949  1.00  0.00    -0.060 C  
HETATM   18  C   UNL     1      -6.073   8.596  68.445  1.00  0.00    -0.050 C  
ENDBRANCH  16  17
BRANCH  16  19
HETATM   19  C   UNL     1      -6.238   7.589  64.669  1.00  0.00    -0.038 C  
HETATM   20  C   UNL     1      -5.251   6.774  63.842  1.00  0.00    -0.027 C  
ENDBRANCH  16  19
ENDBRANCH  15  16
ENDBRANCH   8  15
BRANCH  10  21
HETATM   21  N   UNL     1      -9.642   5.077  64.387  1.00  0.00    -0.335 N  
HETATM   22  H   UNL     1      -9.273   5.272  63.456  1.00  0.00     0.000 HD 
HETATM   23  C   UNL     1     -11.001   4.934  64.561  1.00  0.00     0.926 C  
HETATM   24  C   UNL     1     -11.813   5.046  63.298  1.00  0.00     3.429 C  
HETATM   25  O   UNL     1     -11.527   4.725  65.647  1.00  0.00     0.183 OA 
ENDBRANCH  10  21
ENDBRANCH   4   6
ENDBRANCH   3   4
ENDBRANCH   2   3
TORSDOF 8
ENDMDL
MODEL      269
REMARK 921   NORMALIZED FREE ENERGY PREDICTED BY IDOCK:    6.88 KCAL/MOL
REMARK 922        TOTAL FREE ENERGY PREDICTED BY IDOCK:    9.15 KCAL/MOL
REMARK 923 INTER-LIGAND FREE ENERGY PREDICTED BY IDOCK:   -1.55 KCAL/MOL
REMARK 924 INTRA-LIGAND FREE ENERGY PREDICTED BY IDOCK:   10.70 KCAL/MOL
REMARK 927      BINDING AFFINITY PREDICTED BY RF-SCORE:    0.00 PKD
ROOT
HETATM    1  C   UNL     1      -7.127  19.213  66.595  1.00  0.00    -0.221 C  
HETATM    2  C   UNL     1      -8.583  18.965  66.243  1.00  0.00    -0.257 C  
ENDROOT
BRANCH   2   3
HETATM    3  O   UNL     1      -8.735  17.562  66.009  1.00  0.00    -0.497 OA 
BRANCH   3   4
HETATM    4  C   UNL     1      -7.574  16.869  65.910  1.00  0.00     0.215 C  
HETATM    5  O   UNL     1      -6.511  17.312  65.501  1.00  0.00     0.159 OA 
BRANCH   4   6
HETATM    6  C   UNL     1      -7.726  15.487  66.444  1.00  0.00     0.441 C  
HETATM    7  C   UNL     1      -7.016  15.058  67.497  1.00  0.00    -0.214 C  
HETATM    8  C   UNL     1      -7.307  13.781  68.214  1.00  0.00    -0.118 C  
HETATM    9  H2  UNL     1     -10.550  13.443  67.547  1.00  0.00     0.000 HD 
HETATM   10  C   UNL     1      -7.961  12.693  67.319  1.00  0.00    -0.166 C  
HETATM   11  H1  UNL     1     -11.015  13.352  65.931  1.00  0.00     0.000 HD 
HETATM   12  C   UNL     1      -8.762  14.661  65.751  1.00  0.00     1.028 C  
HETATM   13  C   UNL     1      -8.956  13.209  66.235  1.00  0.00     0.116 C  
HETATM   14  N   UNL     1     -10.364  13.015  66.640  1.00  0.00    -0.256 NA 
BRANCH   8  15
HETATM   15  O   UNL     1      -8.088  14.248  69.314  1.00  0.00     0.003 OA 
BRANCH  15  16
HETATM   16  C   UNL     1      -8.506  15.609  69.342  1.00  0.00    -0.244 C  
BRANCH  16  17
HETATM   17  C   UNL     1      -9.601  15.755  68.269  1.00  0.00    -0.201 C  
HETATM   18  C   UNL     1      -9.984  17.207  68.002  1.00  0.00    -0.295 C  
ENDBRANCH  16  17
BRANCH  16  19
HETATM   19  C   UNL     1      -7.348  16.593  69.102  1.00  0.00    -0.217 C  
HETATM   20  C   UNL     1      -6.139  16.377  70.003  1.00  0.00    -0.151 C  
ENDBRANCH  16  19
ENDBRANCH  15  16
ENDBRANCH   8  15
BRANCH  10  21
HETATM   21  N   UNL     1      -6.938  11.818  66.707  1.00  0.00    -0.328 N  
HETATM   22  H   UNL     1      -5.950  12.000  66.887  1.00  0.00     0.000 HD 
HETATM   23  C   UNL     1      -7.296  10.762  65.898  1.00  0.00    -0.094 C  
HETATM   24  C   UNL     1      -6.142   9.941  65.387  1.00  0.00    -0.084 C  
HETATM   25  O   UNL     1      -8.454  10.491  65.611  1.00  0.00    -0.165 OA 
ENDBRANCH  10  21
ENDBRANCH   4   6
ENDBRANCH   3   4
ENDBRANCH   2   3
TORSDOF 8
ENDMDL
MODEL      270
REMARK 921   NORMALIZED FREE ENERGY PREDICTED BY IDOCK:    7.15 KCAL/MOL
REMARK 922        TOTAL FREE ENERGY PREDICTED BY IDOCK:    9.55 KCAL/MOL
REMARK 923 INTER-LIGAND FREE ENERGY PREDICTED BY IDOCK:    4.81 KCAL/MOL
REMARK 924 INTRA-LIGAND FREE ENERGY PREDICTED BY IDOCK:    4.74 KCAL/MOL
REMARK 927      BINDING AFFINITY PREDICTED BY RF-SCORE:    0.00 PKD
ROOT
HETATM    1  C   UNL     1     -11.138  13.035  66.352  1.00  0.00    -0.313 C  
HETATM    2  C   UNL     1     -10.570  14.401  66.012  1.00  0.00    -0.302 C  
ENDROOT
BRANCH   2   3
HETATM    3  O   UNL     1      -9.267  14.198  65.457  1.00  0.00     0.154 OA 
BRANCH   3   4
HETATM    4  C   UNL     1      -8.304  13.880  66.357  1.00  0.00     0.680 C  
HETATM    5  O   UNL     1      -7.346  14.579  66.654  1.00  0.00     0.379 OA 
BRANCH   4   6
HETATM    6  C   UNL     1      -8.597  12.580  67.021  1.00  0.00    -0.188 C  
HETATM    7  C   UNL     1      -8.084  11.427  66.568  1.00  0.00    -0.141 C  
HETATM    8  C   UNL     1      -8.146  10.147  67.334  1.00  0.00    -0.114 C  
HETATM    9  H2  UNL     1      -8.345  11.316  70.443  1.00  0.00     0.000 HD 
HETATM   10  C   UNL     1      -9.368  10.044  68.287  1.00  0.00    -0.132 C  
HETATM   11  H1  UNL     1      -9.644  12.317  70.825  1.00  0.00     0.000 HD 
HETATM   12  C   UNL     1      -9.447  12.683  68.248  1.00  0.00    -0.203 C  
HETATM   13  C   UNL     1      -9.812  11.372  68.973  1.00  0.00    -0.037 C  
HETATM   14  N   UNL     1      -9.353  11.448  70.376  1.00  0.00     2.681 NA 
BRANCH   8  15
HETATM   15  O   UNL     1      -6.859  10.126  67.952  1.00  0.00    -0.073 OA 
BRANCH  15  16
HETATM   16  C   UNL     1      -6.042  11.292  67.896  1.00  0.00    -0.050 C  
BRANCH  16  17
HETATM   17  C   UNL     1      -5.140  11.137  66.657  1.00  0.00    -0.097 C  
HETATM   18  C   UNL     1      -5.918  11.172  65.346  1.00  0.00     0.283 C  
ENDBRANCH  16  17
BRANCH  16  19
HETATM   19  C   UNL     1      -5.211  11.499  69.174  1.00  0.00    -0.043 C  
HETATM   20  C   UNL     1      -6.002  11.363  70.470  1.00  0.00    -0.104 C  
ENDBRANCH  16  19
ENDBRANCH  15  16
ENDBRANCH   8  15
BRANCH  10  21
HETATM   21  N   UNL     1     -10.518   9.401  67.614  1.00  0.00    -0.254 N  
HETATM   22  H   UNL     1     -11.335   9.962  67.371  1.00  0.00     0.000 HD 
HETATM   23  C   UNL     1     -10.504   8.057  67.311  1.00  0.00    -0.314 C  
HETATM   24  C   UNL     1     -11.728   7.562  66.588  1.00  0.00     3.127 C  
HETATM   25  O   UNL     1      -9.576   7.309  67.591  1.00  0.00    -0.132 OA 
ENDBRANCH  10  21
ENDBRANCH   4   6
ENDBRANCH   3   4
ENDBRANCH   2   3
TORSDOF 8
ENDMDL
MODEL      271
REMARK 921   NORMALIZED FREE ENERGY PREDICTED BY IDOCK:   17.29 KCAL/MOL
REMARK 922        TOTAL FREE ENERGY PREDICTED BY IDOCK:   24.43 KCAL/MOL
REMARK 923 INTER-LIGAND FREE ENERGY PREDICTED BY IDOCK:    5.68 KCAL/MOL
REMARK 924 INTRA-LIGAND FREE ENERGY PREDICTED BY IDOCK:   18.75 KCAL/MOL
REMARK 927      BINDING AFFINITY PREDICTED BY RF-SCORE:    0.00 PKD
ROOT
HETATM    1  C   UNL     1      -9.908  18.437  66.784  1.00  0.00    -0.351 C  
HETATM    2  C   UNL     1      -9.230  17.173  67.282  1.00  0.00    -0.230 C  
ENDROOT
BRANCH   2   3
HETATM    3  O   UNL     1     -10.097  16.075  66.983  1.00  0.00    -0.259 OA 
BRANCH   3   4
HETATM    4  C   UNL     1     -10.195  15.140  67.960  1.00  0.00    -0.230 C  
HETATM    5  O   UNL     1     -10.445  15.360  69.136  1.00  0.00    -0.216 OA 
BRANCH   4   6
HETATM    6  C   UNL     1     -10.035  13.767  67.408  1.00  0.00    -0.237 C  
HETATM    7  C   UNL     1     -10.683  12.717  67.934  1.00  0.00    -0.237 C  
HETATM    8  C   UNL     1     -10.748  11.381  67.271  1.00  0.00    -0.241 C  
HETATM    9  H2  UNL     1     -10.353  12.267  64.088  1.00  0.00     0.000 HD 
HETATM   10  C   UNL     1      -9.525  11.068  66.366  1.00  0.00    -0.193 C  
HETATM   11  H1  UNL     1      -8.942  13.086  63.669  1.00  0.00     0.000 HD 
HETATM   12  C   UNL     1      -9.153  13.677  66.204  1.00  0.00     0.097 C  
HETATM   13  C   UNL     1      -8.921  12.279  65.593  1.00  0.00     0.315 C  
HETATM   14  N   UNL     1      -9.338  12.293  64.175  1.00  0.00     0.280 NA 
BRANCH   8  15
HETATM   15  O   UNL     1     -12.016  11.451  66.618  1.00  0.00    -0.322 OA 
BRANCH  15  16
HETATM   16  C   UNL     1     -12.092  11.997  65.304  1.00  0.00    -0.052 C  
BRANCH  16  17
HETATM   17  C   UNL     1     -10.925  12.994  65.175  1.00  0.00    -0.317 C  
HETATM   18  C   UNL     1     -10.209  12.902  63.831  1.00  0.00    -0.162 C  
ENDBRANCH  16  17
BRANCH  16  19
HETATM   19  C   UNL     1     -13.444  12.673  65.018  1.00  0.00     1.304 C  
HETATM   20  C   UNL     1     -14.138  13.244  66.249  1.00  0.00     7.227 C  
ENDBRANCH  16  19
ENDBRANCH  15  16
ENDBRANCH   8  15
BRANCH  10  21
HETATM   21  N   UNL     1      -8.469  10.358  67.121  1.00  0.00    -0.126 N  
HETATM   22  H   UNL     1      -7.818  10.893  67.697  1.00  0.00     0.000 HD 
HETATM   23  C   UNL     1      -8.350   8.987  67.059  1.00  0.00    -0.116 C  
HETATM   24  C   UNL     1      -7.255   8.412  67.918  1.00  0.00    -0.091 C  
HETATM   25  O   UNL     1      -9.072   8.274  66.374  1.00  0.00    -0.160 OA 
ENDBRANCH  10  21
ENDBRANCH   4   6
ENDBRANCH   3   4
ENDBRANCH   2   3
TORSDOF 8
ENDMDL
MODEL      272
REMARK 921   NORMALIZED FREE ENERGY PREDICTED BY IDOCK:   18.10 KCAL/MOL
REMARK 922        TOTAL FREE ENERGY PREDICTED BY IDOCK:   25.63 KCAL/MOL
REMARK 923 INTER-LIGAND FREE ENERGY PREDICTED BY IDOCK:    3.40 KCAL/MOL
REMARK 924 INTRA-LIGAND FREE ENERGY PREDICTED BY IDOCK:   22.23 KCAL/MOL
REMARK 927      BINDING AFFINITY PREDICTED BY RF-SCORE:    0.00 PKD
ROOT
HETATM    1  C   UNL     1     -10.064   5.733  70.448  1.00  0.00    -0.271 C  
HETATM    2  C   UNL     1     -11.185   6.210  71.354  1.00  0.00    -0.287 C  
ENDROOT
BRANCH   2   3
HETATM    3  O   UNL     1     -12.045   7.042  70.570  1.00  0.00    -0.313 OA 
BRANCH   3   4
HETATM    4  C   UNL     1     -11.476   7.567  69.457  1.00  0.00     0.274 C  
HETATM    5  O   UNL     1     -12.075   7.960  68.466  1.00  0.00     2.298 OA 
BRANCH   4   6
HETATM    6  C   UNL     1     -10.000   7.687  69.613  1.00  0.00    -0.185 C  
HETATM    7  C   UNL     1      -9.409   8.870  69.833  1.00  0.00    -0.172 C  
HETATM    8  C   UNL     1      -7.979   9.007  70.238  1.00  0.00    -0.121 C  
HETATM    9  H2  UNL     1      -7.489   6.071  71.725  1.00  0.00     0.000 HD 
HETATM   10  C   UNL     1      -7.070   7.853  69.734  1.00  0.00    -0.061 C  
HETATM   11  H1  UNL     1      -7.732   4.677  70.811  1.00  0.00     0.000 HD 
HETATM   12  C   UNL     1      -9.260   6.388  69.564  1.00  0.00    -0.144 C  
HETATM   13  C   UNL     1      -7.724   6.438  69.693  1.00  0.00    -0.103 C  
HETATM   14  N   UNL     1      -7.305   5.603  70.838  1.00  0.00    -0.082 NA 
BRANCH   8  15
HETATM   15  O   UNL     1      -8.099   9.146  71.654  1.00  0.00    -0.346 OA 
BRANCH  15  16
HETATM   16  C   UNL     1      -9.359   8.903  72.272  1.00  0.00     0.011 C  
BRANCH  16  17
HETATM   17  C   UNL     1      -9.469   7.380  72.464  1.00  0.00    -0.192 C  
HETATM   18  C   UNL     1      -8.288   6.788  73.225  1.00  0.00    -0.129 C  
ENDBRANCH  16  17
BRANCH  16  19
HETATM   19  C   UNL     1     -10.540   9.454  71.453  1.00  0.00    -0.381 C  
HETATM   20  C   UNL     1     -10.750  10.958  71.581  1.00  0.00     3.903 C  
ENDBRANCH  16  19
ENDBRANCH  15  16
ENDBRANCH   8  15
BRANCH  10  21
HETATM   21  N   UNL     1      -6.466   8.181  68.425  1.00  0.00    -0.057 N  
HETATM   22  H   UNL     1      -5.583   8.693  68.394  1.00  0.00     0.000 HD 
HETATM   23  C   UNL     1      -7.073   7.807  67.246  1.00  0.00    -0.086 C  
HETATM   24  C   UNL     1      -6.312   8.175  66.001  1.00  0.00    -0.046 C  
HETATM   25  O   UNL     1      -8.143   7.213  67.194  1.00  0.00    -0.111 OA 
ENDBRANCH  10  21
ENDBRANCH   4   6
ENDBRANCH   3   4
ENDBRANCH   2   3
TORSDOF 8
ENDMDL
