MODEL        1
REMARK 921   NORMALIZED FREE ENERGY PREDICTED BY IDOCK:   -7.42 KCAL/MOL
REMARK 922        TOTAL FREE ENERGY PREDICTED BY IDOCK:  -13.48 KCAL/MOL
REMARK 923 INTER-LIGAND FREE ENERGY PREDICTED BY IDOCK:  -11.76 KCAL/MOL
REMARK 924 INTRA-LIGAND FREE ENERGY PREDICTED BY IDOCK:   -1.71 KCAL/MOL
REMARK 927      BINDING AFFINITY PREDICTED BY RF-SCORE:    0.00 PKD
ROOT
HETATM    1  C   UNL     1     -11.604  15.154  71.451  1.00  0.00    -0.373 C  
HETATM    2  O   UNL     1     -12.417  13.999  71.270  1.00  0.00    -0.340 OA 
ENDROOT
BRANCH   2   3
HETATM    3  C   UNL     1     -12.155  13.213  70.174  1.00  0.00    -0.321 A  
HETATM    4  C   UNL     1     -11.973  11.828  70.158  1.00  0.00    -0.339 A  
HETATM    5  C   UNL     1     -11.769  13.338  67.717  1.00  0.00    -0.358 A  
HETATM    6  C   UNL     1     -11.863  11.209  68.906  1.00  0.00    -0.406 A  
HETATM    7  C   UNL     1     -11.697  11.933  67.721  1.00  0.00    -0.292 A  
HETATM    8  C   UNL     1     -12.079  13.934  68.964  1.00  0.00    -0.365 A  
BRANCH   4   9
HETATM    9  N   UNL     1     -11.885  11.050  71.325  1.00  0.00    -0.152 NA 
HETATM   10  H   UNL     1     -11.403  11.465  72.121  1.00  0.00     0.000 HD 
BRANCH   9  11
HETATM   11  C   UNL     1     -12.395   9.759  71.498  1.00  0.00    -0.405 A  
HETATM   12  N   UNL     1     -13.659   9.673  71.927  1.00  0.00    -0.385 NA 
HETATM   13  N   UNL     1     -11.638   8.689  71.196  1.00  0.00    -0.274 NA 
HETATM   14  C   UNL     1     -12.205   7.473  71.206  1.00  0.00    -0.329 A  
HETATM   15  C   UNL     1     -13.516   7.300  71.594  1.00  0.00    -0.428 A  
HETATM   16  C   UNL     1     -14.191   8.442  71.968  1.00  0.00    -0.444 A  
BRANCH  14  17
HETATM   17  C   UNL     1     -11.356   6.359  70.766  1.00  0.00    -0.411 A  
HETATM   18  C   UNL     1      -9.429   4.256  68.491  1.00  0.00    -0.216 A  
HETATM   19  C   UNL     1     -10.840   5.408  71.633  1.00  0.00    -0.162 A  
HETATM   20  C   UNL     1      -9.636   4.794  67.218  1.00  0.00    -0.185 A  
HETATM   21  C   UNL     1     -10.470   5.890  67.040  1.00  0.00    -0.341 A  
HETATM   22  N   UNL     1     -10.090   4.516  70.914  1.00  0.00    -0.192 NA 
HETATM   23  C   UNL     1     -10.082   4.853  69.584  1.00  0.00    -0.230 A  
HETATM   24  C   UNL     1      -9.413   3.367  71.476  1.00  0.00    -0.153 C  
HETATM   25  C   UNL     1     -10.903   5.982  69.442  1.00  0.00    -0.433 A  
HETATM   26  C   UNL     1     -11.096   6.495  68.139  1.00  0.00    -0.332 A  
ENDBRANCH  14  17
ENDBRANCH   9  11
ENDBRANCH   4   9
BRANCH   7  27
HETATM   27  N   UNL     1     -11.251  11.222  66.586  1.00  0.00    -0.248 N  
HETATM   28  O   UNL     1      -8.960  11.427  66.902  1.00  0.00    -0.161 OA 
HETATM   29  H   UNL     1     -11.953  10.781  65.992  1.00  0.00     0.000 HD 
HETATM   30  C   UNL     1      -9.928  11.087  66.231  1.00  0.00    -0.224 C  
BRANCH  30  31
HETATM   31  C   UNL     1      -9.765  10.375  64.937  1.00  0.00    -0.372 C  
HETATM   32  C   UNL     1      -9.024   9.262  64.873  1.00  0.00    -0.229 C  
ENDBRANCH  30  31
ENDBRANCH   7  27
BRANCH   5  33
HETATM   33  N   UNL     1     -11.551  14.116  66.580  1.00  0.00    -0.359 NA 
HETATM   34  C   UNL     1     -12.514  14.205  65.486  1.00  0.00    -0.476 C  
BRANCH  33  35
HETATM   35  C   UNL     1     -10.390  15.020  66.493  1.00  0.00    -0.284 C  
BRANCH  35  36
HETATM   36  C   UNL     1     -10.679  16.207  65.544  1.00  0.00    -0.342 C  
BRANCH  36  37
HETATM   37  N   UNL     1      -9.837  17.405  65.751  1.00  0.00    -0.555 NA 
HETATM   38  C   UNL     1      -8.550  16.982  66.318  1.00  0.00    -0.262 C  
HETATM   39  C   UNL     1     -10.476  18.363  66.657  1.00  0.00    -0.385 C  
ENDBRANCH  36  37
ENDBRANCH  35  36
ENDBRANCH  33  35
ENDBRANCH   5  33
ENDBRANCH   2   3
TORSDOF 10
ENDMDL
MODEL        2
REMARK 921   NORMALIZED FREE ENERGY PREDICTED BY IDOCK:   -7.33 KCAL/MOL
REMARK 922        TOTAL FREE ENERGY PREDICTED BY IDOCK:  -13.34 KCAL/MOL
REMARK 923 INTER-LIGAND FREE ENERGY PREDICTED BY IDOCK:  -11.76 KCAL/MOL
REMARK 924 INTRA-LIGAND FREE ENERGY PREDICTED BY IDOCK:   -1.58 KCAL/MOL
REMARK 927      BINDING AFFINITY PREDICTED BY RF-SCORE:    0.00 PKD
ROOT
HETATM    1  C   UNL     1     -14.095  14.496  72.081  1.00  0.00    -0.524 C  
HETATM    2  O   UNL     1     -12.889  14.634  71.335  1.00  0.00    -0.295 OA 
ENDROOT
BRANCH   2   3
HETATM    3  C   UNL     1     -12.506  13.566  70.560  1.00  0.00    -0.302 A  
HETATM    4  C   UNL     1     -12.100  13.601  69.224  1.00  0.00    -0.314 A  
HETATM    5  C   UNL     1     -12.235  11.091  70.625  1.00  0.00    -0.385 A  
HETATM    6  C   UNL     1     -11.610  12.412  68.669  1.00  0.00    -0.365 A  
HETATM    7  C   UNL     1     -11.731  11.175  69.314  1.00  0.00    -0.331 A  
HETATM    8  C   UNL     1     -12.540  12.329  71.239  1.00  0.00    -0.336 A  
BRANCH   4   9
HETATM    9  N   UNL     1     -12.174  14.757  68.427  1.00  0.00    -0.605 NA 
HETATM   10  H   UNL     1     -13.051  15.277  68.450  1.00  0.00     0.000 HD 
BRANCH   9  11
HETATM   11  C   UNL     1     -11.161  15.260  67.605  1.00  0.00    -0.320 A  
HETATM   12  N   UNL     1     -11.364  15.164  66.286  1.00  0.00    -0.276 NA 
HETATM   13  N   UNL     1     -10.077  15.841  68.150  1.00  0.00    -0.218 NA 
HETATM   14  C   UNL     1      -9.206  16.466  67.344  1.00  0.00    -0.208 A  
HETATM   15  C   UNL     1      -9.364  16.453  65.975  1.00  0.00    -0.335 A  
HETATM   16  C   UNL     1     -10.457  15.763  65.500  1.00  0.00    -0.403 A  
BRANCH  14  17
HETATM   17  C   UNL     1      -8.101  17.170  68.008  1.00  0.00    -0.210 A  
HETATM   18  C   UNL     1      -5.871  19.923  68.883  1.00  0.00    -0.275 A  
HETATM   19  C   UNL     1      -7.286  16.579  68.961  1.00  0.00    -0.219 A  
HETATM   20  C   UNL     1      -6.249  20.986  68.059  1.00  0.00    -0.386 A  
HETATM   21  C   UNL     1      -7.267  20.833  67.127  1.00  0.00    -0.394 A  
HETATM   22  N   UNL     1      -6.364  17.497  69.386  1.00  0.00    -0.246 NA 
HETATM   23  C   UNL     1      -6.549  18.698  68.746  1.00  0.00    -0.265 A  
HETATM   24  C   UNL     1      -5.328  17.236  70.361  1.00  0.00    -0.253 C  
HETATM   25  C   UNL     1      -7.605  18.521  67.838  1.00  0.00    -0.252 A  
HETATM   26  C   UNL     1      -7.954  19.616  67.016  1.00  0.00    -0.311 A  
ENDBRANCH  14  17
ENDBRANCH   9  11
ENDBRANCH   4   9
BRANCH   7  27
HETATM   27  N   UNL     1     -11.528  10.018  68.534  1.00  0.00    -0.520 N  
HETATM   28  O   UNL     1      -9.292   9.631  69.025  1.00  0.00    -0.148 OA 
HETATM   29  H   UNL     1     -12.331   9.627  68.041  1.00  0.00     0.000 HD 
HETATM   30  C   UNL     1     -10.314   9.382  68.397  1.00  0.00    -0.205 C  
BRANCH  30  31
HETATM   31  C   UNL     1     -10.379   8.251  67.435  1.00  0.00    -0.350 C  
HETATM   32  C   UNL     1      -9.591   8.245  66.353  1.00  0.00    -0.300 C  
ENDBRANCH  30  31
ENDBRANCH   7  27
BRANCH   5  33
HETATM   33  N   UNL     1     -12.436   9.884  71.295  1.00  0.00    -0.352 NA 
HETATM   34  C   UNL     1     -13.739   9.231  71.374  1.00  0.00    -0.261 C  
BRANCH  33  35
HETATM   35  C   UNL     1     -11.297   9.119  71.832  1.00  0.00    -0.346 C  
BRANCH  35  36
HETATM   36  C   UNL     1     -11.757   7.748  72.382  1.00  0.00    -0.341 C  
BRANCH  36  37
HETATM   37  N   UNL     1     -11.055   6.572  71.825  1.00  0.00    -0.246 NA 
HETATM   38  C   UNL     1     -11.492   6.379  70.436  1.00  0.00    -0.393 C  
HETATM   39  C   UNL     1     -11.338   5.359  72.596  1.00  0.00    -0.266 C  
ENDBRANCH  36  37
ENDBRANCH  35  36
ENDBRANCH  33  35
ENDBRANCH   5  33
ENDBRANCH   2   3
TORSDOF 10
ENDMDL
MODEL        3
REMARK 921   NORMALIZED FREE ENERGY PREDICTED BY IDOCK:   -7.19 KCAL/MOL
REMARK 922        TOTAL FREE ENERGY PREDICTED BY IDOCK:  -13.11 KCAL/MOL
REMARK 923 INTER-LIGAND FREE ENERGY PREDICTED BY IDOCK:  -11.34 KCAL/MOL
REMARK 924 INTRA-LIGAND FREE ENERGY PREDICTED BY IDOCK:   -1.77 KCAL/MOL
REMARK 927      BINDING AFFINITY PREDICTED BY RF-SCORE:    0.00 PKD
ROOT
HETATM    1  C   UNL     1     -13.424  15.461  72.804  1.00  0.00    -0.538 C  
HETATM    2  O   UNL     1     -13.610  14.069  72.573  1.00  0.00    -0.499 OA 
ENDROOT
BRANCH   2   3
HETATM    3  C   UNL     1     -12.914  13.507  71.530  1.00  0.00    -0.355 A  
HETATM    4  C   UNL     1     -12.791  12.147  71.238  1.00  0.00    -0.250 A  
HETATM    5  C   UNL     1     -11.472  14.101  69.588  1.00  0.00    -0.273 A  
HETATM    6  C   UNL     1     -12.156  11.801  70.038  1.00  0.00    -0.387 A  
HETATM    7  C   UNL     1     -11.456  12.732  69.262  1.00  0.00    -0.289 A  
HETATM    8  C   UNL     1     -12.283  14.452  70.694  1.00  0.00    -0.414 A  
BRANCH   4   9
HETATM    9  N   UNL     1     -13.257  11.131  72.091  1.00  0.00    -0.571 NA 
HETATM   10  H   UNL     1     -13.759  11.426  72.928  1.00  0.00     0.000 HD 
BRANCH   9  11
HETATM   11  C   UNL     1     -13.097   9.755  71.902  1.00  0.00    -0.446 A  
HETATM   12  N   UNL     1     -14.208   9.013  71.972  1.00  0.00    -0.355 NA 
HETATM   13  N   UNL     1     -11.882   9.249  71.623  1.00  0.00    -0.360 NA 
HETATM   14  C   UNL     1     -11.784   7.957  71.278  1.00  0.00    -0.287 A  
HETATM   15  C   UNL     1     -12.888   7.131  71.282  1.00  0.00    -0.399 A  
HETATM   16  C   UNL     1     -14.076   7.715  71.662  1.00  0.00    -0.434 A  
BRANCH  14  17
HETATM   17  C   UNL     1     -10.448   7.491  70.883  1.00  0.00    -0.218 A  
HETATM   18  C   UNL     1      -7.682   6.597  68.679  1.00  0.00    -0.109 A  
HETATM   19  C   UNL     1      -9.462   7.148  71.796  1.00  0.00    -0.151 A  
HETATM   20  C   UNL     1      -8.180   6.730  67.381  1.00  0.00    -0.122 A  
HETATM   21  C   UNL     1      -9.500   7.103  67.163  1.00  0.00    -0.180 A  
HETATM   22  N   UNL     1      -8.341   6.765  71.112  1.00  0.00    -0.123 NA 
HETATM   23  C   UNL     1      -8.548   6.853  69.757  1.00  0.00    -0.141 A  
HETATM   24  C   UNL     1      -7.113   6.313  71.728  1.00  0.00    -0.085 C  
HETATM   25  C   UNL     1      -9.877   7.265  69.572  1.00  0.00    -0.163 A  
HETATM   26  C   UNL     1     -10.349   7.381  68.244  1.00  0.00    -0.231 A  
ENDBRANCH  14  17
ENDBRANCH   9  11
ENDBRANCH   4   9
BRANCH   7  27
HETATM   27  N   UNL     1     -10.577  12.225  68.282  1.00  0.00    -0.219 N  
HETATM   28  O   UNL     1     -12.054  12.097  66.495  1.00  0.00    -0.627 OA 
HETATM   29  H   UNL     1      -9.596  12.104  68.536  1.00  0.00     0.000 HD 
HETATM   30  C   UNL     1     -10.960  11.884  67.005  1.00  0.00    -0.278 C  
BRANCH  30  31
HETATM   31  C   UNL     1      -9.844  11.283  66.227  1.00  0.00    -0.248 C  
HETATM   32  C   UNL     1     -10.104  10.401  65.254  1.00  0.00    -0.370 C  
ENDBRANCH  30  31
ENDBRANCH   7  27
BRANCH   5  33
HETATM   33  N   UNL     1     -10.745  15.065  68.890  1.00  0.00    -0.232 NA 
HETATM   34  C   UNL     1      -9.466  15.586  69.363  1.00  0.00    -0.278 C  
BRANCH  33  35
HETATM   35  C   UNL     1     -11.162  15.500  67.545  1.00  0.00    -0.272 C  
BRANCH  35  36
HETATM   36  C   UNL     1     -10.029  15.284  66.514  1.00  0.00    -0.265 C  
BRANCH  36  37
HETATM   37  N   UNL     1      -9.516  16.511  65.868  1.00  0.00    -0.488 NA 
HETATM   38  C   UNL     1      -8.110  16.691  66.252  1.00  0.00    -0.326 C  
HETATM   39  C   UNL     1     -10.284  17.693  66.268  1.00  0.00    -0.362 C  
ENDBRANCH  36  37
ENDBRANCH  35  36
ENDBRANCH  33  35
ENDBRANCH   5  33
ENDBRANCH   2   3
TORSDOF 10
ENDMDL
MODEL        4
REMARK 921   NORMALIZED FREE ENERGY PREDICTED BY IDOCK:   -7.14 KCAL/MOL
REMARK 922        TOTAL FREE ENERGY PREDICTED BY IDOCK:  -13.03 KCAL/MOL
REMARK 923 INTER-LIGAND FREE ENERGY PREDICTED BY IDOCK:  -11.25 KCAL/MOL
REMARK 924 INTRA-LIGAND FREE ENERGY PREDICTED BY IDOCK:   -1.78 KCAL/MOL
REMARK 927      BINDING AFFINITY PREDICTED BY RF-SCORE:    0.00 PKD
ROOT
HETATM    1  C   UNL     1     -12.420  12.428  63.635  1.00  0.00    -0.508 C  
HETATM    2  O   UNL     1     -12.685  12.345  65.031  1.00  0.00    -0.631 OA 
ENDROOT
BRANCH   2   3
HETATM    3  C   UNL     1     -11.669  12.699  65.885  1.00  0.00    -0.420 A  
HETATM    4  C   UNL     1     -10.457  12.030  66.073  1.00  0.00    -0.249 A  
HETATM    5  C   UNL     1     -11.047  14.398  67.596  1.00  0.00    -0.300 A  
HETATM    6  C   UNL     1      -9.500  12.649  66.887  1.00  0.00    -0.229 A  
HETATM    7  C   UNL     1      -9.795  13.761  67.683  1.00  0.00    -0.234 A  
HETATM    8  C   UNL     1     -11.929  13.874  66.622  1.00  0.00    -0.474 A  
BRANCH   4   9
HETATM    9  N   UNL     1     -10.172  10.779  65.498  1.00  0.00    -0.267 NA 
HETATM   10  H   UNL     1     -10.186  10.726  64.480  1.00  0.00     0.000 HD 
BRANCH   9  11
HETATM   11  C   UNL     1      -9.870   9.602  66.189  1.00  0.00    -0.265 A  
HETATM   12  N   UNL     1      -8.914   8.831  65.659  1.00  0.00    -0.201 NA 
HETATM   13  N   UNL     1     -10.500   9.318  67.343  1.00  0.00    -0.266 NA 
HETATM   14  C   UNL     1     -10.074   8.275  68.071  1.00  0.00    -0.198 A  
HETATM   15  C   UNL     1      -9.064   7.454  67.619  1.00  0.00    -0.126 A  
HETATM   16  C   UNL     1      -8.534   7.771  66.388  1.00  0.00    -0.136 A  
BRANCH  14  17
HETATM   17  C   UNL     1     -10.732   8.080  69.370  1.00  0.00    -0.167 A  
HETATM   18  C   UNL     1     -12.759   8.872  72.298  1.00  0.00    -0.464 A  
HETATM   19  C   UNL     1     -10.680   6.888  70.077  1.00  0.00    -0.243 A  
HETATM   20  C   UNL     1     -13.132  10.209  72.145  1.00  0.00    -0.463 A  
HETATM   21  C   UNL     1     -12.694  10.945  71.051  1.00  0.00    -0.505 A  
HETATM   22  N   UNL     1     -11.394   7.031  71.236  1.00  0.00    -0.263 NA 
HETATM   23  C   UNL     1     -11.935   8.290  71.318  1.00  0.00    -0.287 A  
HETATM   24  C   UNL     1     -11.546   6.003  72.243  1.00  0.00    -0.307 C  
HETATM   25  C   UNL     1     -11.504   8.996  70.184  1.00  0.00    -0.078 A  
HETATM   26  C   UNL     1     -11.894  10.349  70.066  1.00  0.00    -0.351 A  
ENDBRANCH  14  17
ENDBRANCH   9  11
ENDBRANCH   4   9
BRANCH   7  27
HETATM   27  N   UNL     1      -8.881  14.083  68.708  1.00  0.00    -0.356 N  
HETATM   28  O   UNL     1      -7.570  15.619  67.562  1.00  0.00    -0.143 OA 
HETATM   29  H   UNL     1      -9.026  13.664  69.626  1.00  0.00     0.000 HD 
HETATM   30  C   UNL     1      -7.806  14.928  68.546  1.00  0.00    -0.126 C  
BRANCH  30  31
HETATM   31  C   UNL     1      -6.961  14.999  69.766  1.00  0.00    -0.182 C  
HETATM   32  C   UNL     1      -6.142  13.986  70.075  1.00  0.00    -0.148 C  
ENDBRANCH  30  31
ENDBRANCH   7  27
BRANCH   5  33
HETATM   33  N   UNL     1     -11.420  15.471  68.406  1.00  0.00    -0.353 NA 
HETATM   34  C   UNL     1     -11.015  16.847  68.133  1.00  0.00    -0.290 C  
BRANCH  33  35
HETATM   35  C   UNL     1     -12.382  15.288  69.508  1.00  0.00    -0.175 C  
BRANCH  35  36
HETATM   36  C   UNL     1     -11.719  15.565  70.878  1.00  0.00    -0.375 C  
BRANCH  36  37
HETATM   37  N   UNL     1     -12.651  15.884  71.981  1.00  0.00    -0.454 NA 
HETATM   38  C   UNL     1     -12.062  15.419  73.242  1.00  0.00    -0.478 C  
HETATM   39  C   UNL     1     -13.955  15.244  71.788  1.00  0.00    -0.539 C  
ENDBRANCH  36  37
ENDBRANCH  35  36
ENDBRANCH  33  35
ENDBRANCH   5  33
ENDBRANCH   2   3
TORSDOF 10
ENDMDL
MODEL        5
REMARK 921   NORMALIZED FREE ENERGY PREDICTED BY IDOCK:   -7.14 KCAL/MOL
REMARK 922        TOTAL FREE ENERGY PREDICTED BY IDOCK:  -13.02 KCAL/MOL
REMARK 923 INTER-LIGAND FREE ENERGY PREDICTED BY IDOCK:  -10.48 KCAL/MOL
REMARK 924 INTRA-LIGAND FREE ENERGY PREDICTED BY IDOCK:   -2.54 KCAL/MOL
REMARK 927      BINDING AFFINITY PREDICTED BY RF-SCORE:    0.00 PKD
ROOT
HETATM    1  C   UNL     1      -9.874   5.635  67.791  1.00  0.00    -0.132 C  
HETATM    2  O   UNL     1     -10.813   6.680  67.561  1.00  0.00    -0.275 OA 
ENDROOT
BRANCH   2   3
HETATM    3  C   UNL     1     -10.335   7.968  67.578  1.00  0.00    -0.261 A  
HETATM    4  C   UNL     1     -10.154   8.783  68.697  1.00  0.00    -0.189 A  
HETATM    5  C   UNL     1      -9.542   9.785  66.071  1.00  0.00    -0.235 A  
HETATM    6  C   UNL     1      -9.514  10.013  68.501  1.00  0.00    -0.150 A  
HETATM    7  C   UNL     1      -9.271  10.540  67.228  1.00  0.00    -0.143 A  
HETATM    8  C   UNL     1     -10.004   8.468  66.300  1.00  0.00    -0.251 A  
BRANCH   4   9
HETATM    9  N   UNL     1     -10.591   8.429  69.986  1.00  0.00    -0.232 NA 
HETATM   10  H   UNL     1     -10.091   7.671  70.450  1.00  0.00     0.000 HD 
BRANCH   9  11
HETATM   11  C   UNL     1     -11.646   9.015  70.691  1.00  0.00    -0.224 A  
HETATM   12  N   UNL     1     -12.390   8.193  71.439  1.00  0.00    -0.303 NA 
HETATM   13  N   UNL     1     -11.842  10.345  70.627  1.00  0.00    -0.322 NA 
HETATM   14  C   UNL     1     -12.749  10.904  71.443  1.00  0.00    -0.434 A  
HETATM   15  C   UNL     1     -13.528  10.132  72.279  1.00  0.00    -0.291 A  
HETATM   16  C   UNL     1     -13.317   8.773  72.216  1.00  0.00    -0.419 A  
BRANCH  14  17
HETATM   17  C   UNL     1     -12.842  12.368  71.401  1.00  0.00    -0.360 A  
HETATM   18  C   UNL     1     -12.356  15.765  70.159  1.00  0.00    -0.309 A  
HETATM   19  C   UNL     1     -13.544  13.113  72.338  1.00  0.00    -0.567 A  
HETATM   20  C   UNL     1     -11.533  15.638  69.037  1.00  0.00    -0.369 A  
HETATM   21  C   UNL     1     -11.060  14.393  68.642  1.00  0.00    -0.269 A  
HETATM   22  N   UNL     1     -13.441  14.439  72.015  1.00  0.00    -0.367 NA 
HETATM   23  C   UNL     1     -12.695  14.602  70.874  1.00  0.00    -0.348 A  
HETATM   24  C   UNL     1     -14.024  15.521  72.777  1.00  0.00    -0.459 C  
HETATM   25  C   UNL     1     -12.262  13.326  70.482  1.00  0.00    -0.416 A  
HETATM   26  C   UNL     1     -11.425  13.237  69.347  1.00  0.00    -0.323 A  
ENDBRANCH  14  17
ENDBRANCH   9  11
ENDBRANCH   4   9
BRANCH   7  27
HETATM   27  N   UNL     1      -8.950  11.911  67.146  1.00  0.00    -0.172 N  
HETATM   28  O   UNL     1      -6.643  11.761  67.370  1.00  0.00    -0.092 OA 
HETATM   29  H   UNL     1      -9.707  12.570  66.967  1.00  0.00     0.000 HD 
HETATM   30  C   UNL     1      -7.677  12.415  67.294  1.00  0.00    -0.158 C  
BRANCH  30  31
HETATM   31  C   UNL     1      -7.655  13.901  67.260  1.00  0.00    -0.079 C  
HETATM   32  C   UNL     1      -7.476  14.594  68.391  1.00  0.00    -0.117 C  
ENDBRANCH  30  31
ENDBRANCH   7  27
BRANCH   5  33
HETATM   33  N   UNL     1      -9.379  10.279  64.776  1.00  0.00    -0.235 NA 
HETATM   34  C   UNL     1      -8.181  10.031  63.980  1.00  0.00    -0.156 C  
BRANCH  33  35
HETATM   35  C   UNL     1     -10.487  10.956  64.080  1.00  0.00    -0.327 C  
BRANCH  35  36
HETATM   36  C   UNL     1     -10.236  12.480  63.984  1.00  0.00    -0.364 C  
BRANCH  36  37
HETATM   37  N   UNL     1     -10.860  13.294  65.049  1.00  0.00    -0.308 NA 
HETATM   38  C   UNL     1     -12.275  12.918  65.160  1.00  0.00    -0.470 C  
HETATM   39  C   UNL     1     -10.759  14.728  64.760  1.00  0.00    -0.358 C  
ENDBRANCH  36  37
ENDBRANCH  35  36
ENDBRANCH  33  35
ENDBRANCH   5  33
ENDBRANCH   2   3
TORSDOF 10
ENDMDL
MODEL        6
REMARK 921   NORMALIZED FREE ENERGY PREDICTED BY IDOCK:   -7.07 KCAL/MOL
REMARK 922        TOTAL FREE ENERGY PREDICTED BY IDOCK:  -12.92 KCAL/MOL
REMARK 923 INTER-LIGAND FREE ENERGY PREDICTED BY IDOCK:  -11.28 KCAL/MOL
REMARK 924 INTRA-LIGAND FREE ENERGY PREDICTED BY IDOCK:   -1.64 KCAL/MOL
REMARK 927      BINDING AFFINITY PREDICTED BY RF-SCORE:    0.00 PKD
ROOT
HETATM    1  C   UNL     1     -12.090  15.544  70.164  1.00  0.00    -0.378 C  
HETATM    2  O   UNL     1     -12.395  14.165  70.344  1.00  0.00    -0.319 OA 
ENDROOT
BRANCH   2   3
HETATM    3  C   UNL     1     -12.001  13.301  69.351  1.00  0.00    -0.301 A  
HETATM    4  C   UNL     1     -11.655  11.956  69.497  1.00  0.00    -0.327 A  
HETATM    5  C   UNL     1     -11.541  13.201  66.906  1.00  0.00    -0.368 A  
HETATM    6  C   UNL     1     -11.424  11.220  68.328  1.00  0.00    -0.378 A  
HETATM    7  C   UNL     1     -11.301  11.824  67.071  1.00  0.00    -0.321 A  
HETATM    8  C   UNL     1     -11.965  13.888  68.068  1.00  0.00    -0.390 A  
BRANCH   4   9
HETATM    9  N   UNL     1     -11.518  11.328  70.747  1.00  0.00    -0.269 NA 
HETATM   10  H   UNL     1     -10.984  11.826  71.458  1.00  0.00     0.000 HD 
BRANCH   9  11
HETATM   11  C   UNL     1     -12.044  10.083  71.109  1.00  0.00    -0.380 A  
HETATM   12  N   UNL     1     -13.233  10.097  71.721  1.00  0.00    -0.432 NA 
HETATM   13  N   UNL     1     -11.379   8.955  70.800  1.00  0.00    -0.273 NA 
HETATM   14  C   UNL     1     -11.982   7.774  71.003  1.00  0.00    -0.262 A  
HETATM   15  C   UNL     1     -13.227   7.700  71.589  1.00  0.00    -0.395 A  
HETATM   16  C   UNL     1     -13.797   8.901  71.949  1.00  0.00    -0.440 A  
BRANCH  14  17
HETATM   17  C   UNL     1     -11.248   6.586  70.548  1.00  0.00    -0.401 A  
HETATM   18  C   UNL     1      -9.619   3.327  70.738  1.00  0.00    -0.228 A  
HETATM   19  C   UNL     1     -10.861   6.389  69.231  1.00  0.00    -0.327 A  
HETATM   20  C   UNL     1      -9.668   2.963  72.086  1.00  0.00    -0.227 A  
HETATM   21  C   UNL     1     -10.230   3.813  73.030  1.00  0.00    -0.229 A  
HETATM   22  N   UNL     1     -10.207   5.190  69.138  1.00  0.00    -0.209 NA 
HETATM   23  C   UNL     1     -10.155   4.571  70.362  1.00  0.00    -0.159 A  
HETATM   24  C   UNL     1      -9.634   4.656  67.922  1.00  0.00    -0.157 C  
HETATM   25  C   UNL     1     -10.761   5.438  71.285  1.00  0.00    -0.249 A  
HETATM   26  C   UNL     1     -10.785   5.040  72.641  1.00  0.00    -0.279 A  
ENDBRANCH  14  17
ENDBRANCH   9  11
ENDBRANCH   4   9
BRANCH   7  27
HETATM   27  N   UNL     1     -10.732  11.053  66.036  1.00  0.00    -0.218 N  
HETATM   28  O   UNL     1      -8.489  11.310  66.578  1.00  0.00    -0.163 OA 
HETATM   29  H   UNL     1     -11.363  10.566  65.400  1.00  0.00     0.000 HD 
HETATM   30  C   UNL     1      -9.377  10.916  65.832  1.00  0.00    -0.200 C  
BRANCH  30  31
HETATM   31  C   UNL     1      -9.072  10.129  64.608  1.00  0.00    -0.268 C  
HETATM   32  C   UNL     1      -7.817  10.067  64.147  1.00  0.00    -0.144 C  
ENDBRANCH  30  31
ENDBRANCH   7  27
BRANCH   5  33
HETATM   33  N   UNL     1     -11.374  13.869  65.692  1.00  0.00    -0.305 NA 
HETATM   34  C   UNL     1     -12.404  13.899  64.658  1.00  0.00    -0.388 C  
BRANCH  33  35
HETATM   35  C   UNL     1     -10.195  14.719  65.453  1.00  0.00    -0.387 C  
BRANCH  35  36
HETATM   36  C   UNL     1     -10.605  16.197  65.251  1.00  0.00    -0.369 C  
BRANCH  36  37
HETATM   37  N   UNL     1      -9.793  17.188  65.989  1.00  0.00    -0.483 NA 
HETATM   38  C   UNL     1      -9.541  16.675  67.341  1.00  0.00    -0.242 C  
HETATM   39  C   UNL     1     -10.474  18.483  66.081  1.00  0.00    -0.413 C  
ENDBRANCH  36  37
ENDBRANCH  35  36
ENDBRANCH  33  35
ENDBRANCH   5  33
ENDBRANCH   2   3
TORSDOF 10
ENDMDL
MODEL        7
REMARK 921   NORMALIZED FREE ENERGY PREDICTED BY IDOCK:   -7.06 KCAL/MOL
REMARK 922        TOTAL FREE ENERGY PREDICTED BY IDOCK:  -12.90 KCAL/MOL
REMARK 923 INTER-LIGAND FREE ENERGY PREDICTED BY IDOCK:  -10.85 KCAL/MOL
REMARK 924 INTRA-LIGAND FREE ENERGY PREDICTED BY IDOCK:   -2.05 KCAL/MOL
REMARK 927      BINDING AFFINITY PREDICTED BY RF-SCORE:    0.00 PKD
ROOT
HETATM    1  C   UNL     1      -6.867   7.294  65.061  1.00  0.00    -0.047 C  
HETATM    2  O   UNL     1      -8.051   7.967  64.646  1.00  0.00    -0.139 OA 
ENDROOT
BRANCH   2   3
HETATM    3  C   UNL     1      -8.909   8.393  65.631  1.00  0.00    -0.156 A  
HETATM    4  C   UNL     1      -9.679   9.558  65.628  1.00  0.00    -0.290 A  
HETATM    5  C   UNL     1      -9.763   7.781  67.889  1.00  0.00    -0.153 A  
HETATM    6  C   UNL     1     -10.598   9.725  66.671  1.00  0.00    -0.178 A  
HETATM    7  C   UNL     1     -10.604   8.907  67.806  1.00  0.00    -0.202 A  
HETATM    8  C   UNL     1      -8.983   7.520  66.737  1.00  0.00    -0.164 A  
BRANCH   4   9
HETATM    9  N   UNL     1      -9.561  10.556  64.644  1.00  0.00    -0.264 NA 
HETATM   10  H   UNL     1      -8.815  10.442  63.959  1.00  0.00     0.000 HD 
BRANCH   9  11
HETATM   11  C   UNL     1     -10.368  11.691  64.517  1.00  0.00    -0.300 A  
HETATM   12  N   UNL     1     -11.261  11.675  63.521  1.00  0.00    -0.409 NA 
HETATM   13  N   UNL     1     -10.252  12.703  65.396  1.00  0.00    -0.284 NA 
HETATM   14  C   UNL     1     -11.150  13.699  65.357  1.00  0.00    -0.298 A  
HETATM   15  C   UNL     1     -12.131  13.737  64.389  1.00  0.00    -0.474 A  
HETATM   16  C   UNL     1     -12.122  12.703  63.479  1.00  0.00    -0.561 A  
BRANCH  14  17
HETATM   17  C   UNL     1     -11.033  14.718  66.408  1.00  0.00    -0.331 A  
HETATM   18  C   UNL     1     -11.163  16.175  69.750  1.00  0.00    -0.343 A  
HETATM   19  C   UNL     1     -10.573  16.005  66.171  1.00  0.00    -0.297 A  
HETATM   20  C   UNL     1     -11.689  15.176  70.573  1.00  0.00    -0.344 A  
HETATM   21  C   UNL     1     -12.066  13.948  70.045  1.00  0.00    -0.411 A  
HETATM   22  N   UNL     1     -10.578  16.700  67.350  1.00  0.00    -0.316 NA 
HETATM   23  C   UNL     1     -11.022  15.905  68.377  1.00  0.00    -0.331 A  
HETATM   24  C   UNL     1     -10.187  18.085  67.492  1.00  0.00    -0.369 C  
HETATM   25  C   UNL     1     -11.361  14.663  67.817  1.00  0.00    -0.338 A  
HETATM   26  C   UNL     1     -11.897  13.679  68.679  1.00  0.00    -0.409 A  
ENDBRANCH  14  17
ENDBRANCH   9  11
ENDBRANCH   4   9
BRANCH   7  27
HETATM   27  N   UNL     1     -11.319   9.367  68.932  1.00  0.00    -0.433 N  
HETATM   28  O   UNL     1      -9.594  10.451  70.045  1.00  0.00    -0.061 OA 
HETATM   29  H   UNL     1     -12.324   9.193  68.964  1.00  0.00     0.000 HD 
HETATM   30  C   UNL     1     -10.746  10.037  69.989  1.00  0.00    -0.299 C  
BRANCH  30  31
HETATM   31  C   UNL     1     -11.723  10.308  71.076  1.00  0.00    -0.461 C  
HETATM   32  C   UNL     1     -12.978  10.664  70.776  1.00  0.00    -0.396 C  
ENDBRANCH  30  31
ENDBRANCH   7  27
BRANCH   5  33
HETATM   33  N   UNL     1      -9.680   6.965  69.017  1.00  0.00    -0.150 NA 
HETATM   34  C   UNL     1      -8.529   6.972  69.915  1.00  0.00    -0.140 C  
BRANCH  33  35
HETATM   35  C   UNL     1     -10.832   6.155  69.452  1.00  0.00    -0.353 C  
BRANCH  35  36
HETATM   36  C   UNL     1     -10.647   5.658  70.905  1.00  0.00    -0.258 C  
BRANCH  36  37
HETATM   37  N   UNL     1     -11.586   6.228  71.895  1.00  0.00    -0.310 NA 
HETATM   38  C   UNL     1     -12.667   6.914  71.177  1.00  0.00    -0.275 C  
HETATM   39  C   UNL     1     -10.917   7.178  72.789  1.00  0.00    -0.307 C  
ENDBRANCH  36  37
ENDBRANCH  35  36
ENDBRANCH  33  35
ENDBRANCH   5  33
ENDBRANCH   2   3
TORSDOF 10
ENDMDL
MODEL        8
REMARK 921   NORMALIZED FREE ENERGY PREDICTED BY IDOCK:   -7.06 KCAL/MOL
REMARK 922        TOTAL FREE ENERGY PREDICTED BY IDOCK:  -12.90 KCAL/MOL
REMARK 923 INTER-LIGAND FREE ENERGY PREDICTED BY IDOCK:  -10.99 KCAL/MOL
REMARK 924 INTRA-LIGAND FREE ENERGY PREDICTED BY IDOCK:   -1.91 KCAL/MOL
REMARK 927      BINDING AFFINITY PREDICTED BY RF-SCORE:    0.00 PKD
ROOT
HETATM    1  C   UNL     1     -14.054  15.452  72.696  1.00  0.00    -0.427 C  
HETATM    2  O   UNL     1     -13.978  14.033  72.609  1.00  0.00    -0.654 OA 
ENDROOT
BRANCH   2   3
HETATM    3  C   UNL     1     -13.148  13.507  71.650  1.00  0.00    -0.374 A  
HETATM    4  C   UNL     1     -12.881  12.156  71.419  1.00  0.00    -0.276 A  
HETATM    5  C   UNL     1     -11.596  14.172  69.820  1.00  0.00    -0.290 A  
HETATM    6  C   UNL     1     -12.116  11.834  70.291  1.00  0.00    -0.426 A  
HETATM    7  C   UNL     1     -11.432  12.802  69.545  1.00  0.00    -0.225 A  
HETATM    8  C   UNL     1     -12.529  14.481  70.838  1.00  0.00    -0.415 A  
BRANCH   4   9
HETATM    9  N   UNL     1     -13.332  11.127  72.264  1.00  0.00    -0.552 NA 
HETATM   10  H   UNL     1     -13.800  11.409  73.125  1.00  0.00     0.000 HD 
BRANCH   9  11
HETATM   11  C   UNL     1     -13.199   9.753  72.038  1.00  0.00    -0.460 A  
HETATM   12  N   UNL     1     -14.336   9.052  71.960  1.00  0.00    -0.302 NA 
HETATM   13  N   UNL     1     -11.979   9.213  71.870  1.00  0.00    -0.370 NA 
HETATM   14  C   UNL     1     -11.888   7.931  71.485  1.00  0.00    -0.289 A  
HETATM   15  C   UNL     1     -13.013   7.148  71.338  1.00  0.00    -0.419 A  
HETATM   16  C   UNL     1     -14.215   7.762  71.613  1.00  0.00    -0.457 A  
BRANCH  14  17
HETATM   17  C   UNL     1     -10.534   7.430  71.216  1.00  0.00    -0.221 A  
HETATM   18  C   UNL     1      -6.995   7.524  70.334  1.00  0.00    -0.052 A  
HETATM   19  C   UNL     1     -10.174   6.097  71.357  1.00  0.00    -0.205 A  
HETATM   20  C   UNL     1      -6.731   8.852  69.989  1.00  0.00    -0.043 A  
HETATM   21  C   UNL     1      -7.744   9.802  70.001  1.00  0.00    -0.179 A  
HETATM   22  N   UNL     1      -8.850   5.962  71.038  1.00  0.00    -0.138 NA 
HETATM   23  C   UNL     1      -8.309   7.176  70.697  1.00  0.00    -0.126 A  
HETATM   24  C   UNL     1      -8.125   4.710  71.045  1.00  0.00    -0.086 C  
HETATM   25  C   UNL     1      -9.347   8.118  70.753  1.00  0.00    -0.174 A  
HETATM   26  C   UNL     1      -9.045   9.450  70.390  1.00  0.00    -0.302 A  
ENDBRANCH  14  17
ENDBRANCH   9  11
ENDBRANCH   4   9
BRANCH   7  27
HETATM   27  N   UNL     1     -10.429  12.348  68.663  1.00  0.00    -0.293 N  
HETATM   28  O   UNL     1     -11.757  11.148  67.183  1.00  0.00    -0.501 OA 
HETATM   29  H   UNL     1      -9.473  12.665  68.823  1.00  0.00     0.000 HD 
HETATM   30  C   UNL     1     -10.661  11.505  67.600  1.00  0.00    -0.199 C  
BRANCH  30  31
HETATM   31  C   UNL     1      -9.403  11.116  66.909  1.00  0.00    -0.189 C  
HETATM   32  C   UNL     1      -9.281   9.893  66.378  1.00  0.00    -0.195 C  
ENDBRANCH  30  31
ENDBRANCH   7  27
BRANCH   5  33
HETATM   33  N   UNL     1     -10.895  15.178  69.152  1.00  0.00    -0.240 NA 
HETATM   34  C   UNL     1      -9.522  15.541  69.488  1.00  0.00    -0.269 C  
BRANCH  33  35
HETATM   35  C   UNL     1     -11.461  15.828  67.957  1.00  0.00    -0.264 C  
BRANCH  35  36
HETATM   36  C   UNL     1     -10.543  15.630  66.728  1.00  0.00    -0.307 C  
BRANCH  36  37
HETATM   37  N   UNL     1     -11.138  14.870  65.608  1.00  0.00    -0.339 NA 
HETATM   38  C   UNL     1     -11.412  15.798  64.504  1.00  0.00    -0.289 C  
HETATM   39  C   UNL     1     -12.383  14.207  66.005  1.00  0.00    -0.445 C  
ENDBRANCH  36  37
ENDBRANCH  35  36
ENDBRANCH  33  35
ENDBRANCH   5  33
ENDBRANCH   2   3
TORSDOF 10
ENDMDL
MODEL        9
REMARK 921   NORMALIZED FREE ENERGY PREDICTED BY IDOCK:   -7.04 KCAL/MOL
REMARK 922        TOTAL FREE ENERGY PREDICTED BY IDOCK:  -12.86 KCAL/MOL
REMARK 923 INTER-LIGAND FREE ENERGY PREDICTED BY IDOCK:  -11.39 KCAL/MOL
REMARK 924 INTRA-LIGAND FREE ENERGY PREDICTED BY IDOCK:   -1.47 KCAL/MOL
REMARK 927      BINDING AFFINITY PREDICTED BY RF-SCORE:    0.00 PKD
ROOT
HETATM    1  C   UNL     1     -13.907  15.180  72.619  1.00  0.00    -0.469 C  
HETATM    2  O   UNL     1     -13.615  13.792  72.734  1.00  0.00    -0.666 OA 
ENDROOT
BRANCH   2   3
HETATM    3  C   UNL     1     -13.000  13.189  71.663  1.00  0.00    -0.335 A  
HETATM    4  C   UNL     1     -12.970  11.824  71.370  1.00  0.00    -0.306 A  
HETATM    5  C   UNL     1     -11.611  13.695  69.659  1.00  0.00    -0.278 A  
HETATM    6  C   UNL     1     -12.410  11.441  70.145  1.00  0.00    -0.344 A  
HETATM    7  C   UNL     1     -11.690  12.328  69.337  1.00  0.00    -0.330 A  
HETATM    8  C   UNL     1     -12.351  14.095  70.797  1.00  0.00    -0.439 A  
BRANCH   4   9
HETATM    9  N   UNL     1     -13.458  10.838  72.246  1.00  0.00    -0.539 NA 
HETATM   10  H   UNL     1     -13.976  11.162  73.062  1.00  0.00     0.000 HD 
BRANCH   9  11
HETATM   11  C   UNL     1     -13.301   9.456  72.104  1.00  0.00    -0.468 A  
HETATM   12  N   UNL     1     -14.386   8.771  71.726  1.00  0.00    -0.366 NA 
HETATM   13  N   UNL     1     -12.097   8.891  72.305  1.00  0.00    -0.349 NA 
HETATM   14  C   UNL     1     -11.932   7.595  71.998  1.00  0.00    -0.302 A  
HETATM   15  C   UNL     1     -12.989   6.826  71.559  1.00  0.00    -0.281 A  
HETATM   16  C   UNL     1     -14.204   7.468  71.463  1.00  0.00    -0.445 A  
BRANCH  14  17
HETATM   17  C   UNL     1     -10.571   7.064  72.139  1.00  0.00    -0.240 A  
HETATM   18  C   UNL     1      -7.600   5.094  71.360  1.00  0.00    -0.096 A  
HETATM   19  C   UNL     1      -9.694   7.473  73.133  1.00  0.00    -0.247 A  
HETATM   20  C   UNL     1      -7.954   4.301  70.266  1.00  0.00    -0.055 A  
HETATM   21  C   UNL     1      -9.236   4.357  69.735  1.00  0.00    -0.199 A  
HETATM   22  N   UNL     1      -8.513   6.797  72.986  1.00  0.00    -0.116 NA 
HETATM   23  C   UNL     1      -8.572   5.951  71.907  1.00  0.00    -0.137 A  
HETATM   24  C   UNL     1      -7.366   6.942  73.856  1.00  0.00    -0.091 C  
HETATM   25  C   UNL     1      -9.866   6.056  71.373  1.00  0.00    -0.204 A  
HETATM   26  C   UNL     1     -10.191   5.233  70.271  1.00  0.00    -0.345 A  
ENDBRANCH  14  17
ENDBRANCH   9  11
ENDBRANCH   4   9
BRANCH   7  27
HETATM   27  N   UNL     1     -10.886  11.769  68.321  1.00  0.00    -0.208 N  
HETATM   28  O   UNL     1     -12.262  12.180  66.496  1.00  0.00    -0.584 OA 
HETATM   29  H   UNL     1      -9.967  11.412  68.582  1.00  0.00     0.000 HD 
HETATM   30  C   UNL     1     -11.264  11.677  67.001  1.00  0.00    -0.314 C  
BRANCH  30  31
HETATM   31  C   UNL     1     -10.260  10.952  66.179  1.00  0.00    -0.304 C  
HETATM   32  C   UNL     1     -10.262  11.083  64.847  1.00  0.00    -0.373 C  
ENDBRANCH  30  31
ENDBRANCH   7  27
BRANCH   5  33
HETATM   33  N   UNL     1     -10.859  14.615  68.927  1.00  0.00    -0.242 NA 
HETATM   34  C   UNL     1      -9.417  14.768  69.094  1.00  0.00    -0.113 C  
BRANCH  33  35
HETATM   35  C   UNL     1     -11.465  15.380  67.824  1.00  0.00    -0.278 C  
BRANCH  35  36
HETATM   36  C   UNL     1     -10.680  16.686  67.555  1.00  0.00    -0.278 C  
BRANCH  36  37
HETATM   37  N   UNL     1     -10.138  16.830  66.187  1.00  0.00    -0.334 NA 
HETATM   38  C   UNL     1     -10.779  15.834  65.320  1.00  0.00    -0.428 C  
HETATM   39  C   UNL     1      -8.686  16.636  66.159  1.00  0.00    -0.287 C  
ENDBRANCH  36  37
ENDBRANCH  35  36
ENDBRANCH  33  35
ENDBRANCH   5  33
ENDBRANCH   2   3
TORSDOF 10
ENDMDL
MODEL       10
REMARK 921   NORMALIZED FREE ENERGY PREDICTED BY IDOCK:   -6.98 KCAL/MOL
REMARK 922        TOTAL FREE ENERGY PREDICTED BY IDOCK:  -12.77 KCAL/MOL
REMARK 923 INTER-LIGAND FREE ENERGY PREDICTED BY IDOCK:  -11.07 KCAL/MOL
REMARK 924 INTRA-LIGAND FREE ENERGY PREDICTED BY IDOCK:   -1.70 KCAL/MOL
REMARK 927      BINDING AFFINITY PREDICTED BY RF-SCORE:    0.00 PKD
ROOT
HETATM    1  C   UNL     1     -13.218  15.165  73.234  1.00  0.00    -0.451 C  
HETATM    2  O   UNL     1     -13.689  13.897  72.790  1.00  0.00    -0.686 OA 
ENDROOT
BRANCH   2   3
HETATM    3  C   UNL     1     -13.031  13.317  71.733  1.00  0.00    -0.335 A  
HETATM    4  C   UNL     1     -12.977  11.957  71.420  1.00  0.00    -0.284 A  
HETATM    5  C   UNL     1     -11.575  13.867  69.789  1.00  0.00    -0.270 A  
HETATM    6  C   UNL     1     -12.370  11.598  70.210  1.00  0.00    -0.339 A  
HETATM    7  C   UNL     1     -11.629  12.504  69.443  1.00  0.00    -0.305 A  
HETATM    8  C   UNL     1     -12.359  14.242  70.906  1.00  0.00    -0.429 A  
BRANCH   4   9
HETATM    9  N   UNL     1     -13.488  10.953  72.262  1.00  0.00    -0.528 NA 
HETATM   10  H   UNL     1     -14.024  11.260  73.073  1.00  0.00     0.000 HD 
BRANCH   9  11
HETATM   11  C   UNL     1     -13.330   9.574  72.093  1.00  0.00    -0.461 A  
HETATM   12  N   UNL     1     -14.361   8.921  71.546  1.00  0.00    -0.271 NA 
HETATM   13  N   UNL     1     -12.171   8.981  72.435  1.00  0.00    -0.305 NA 
HETATM   14  C   UNL     1     -11.982   7.694  72.106  1.00  0.00    -0.302 A  
HETATM   15  C   UNL     1     -12.978   6.959  71.500  1.00  0.00    -0.362 A  
HETATM   16  C   UNL     1     -14.161   7.624  71.264  1.00  0.00    -0.281 A  
BRANCH  14  17
HETATM   17  C   UNL     1     -10.659   7.136  72.412  1.00  0.00    -0.257 A  
HETATM   18  C   UNL     1      -8.183   4.734  73.602  1.00  0.00    -0.106 A  
HETATM   19  C   UNL     1      -9.471   7.780  72.100  1.00  0.00    -0.164 A  
HETATM   20  C   UNL     1      -8.918   3.690  74.168  1.00  0.00    -0.091 A  
HETATM   21  C   UNL     1     -10.305   3.742  74.213  1.00  0.00    -0.256 A  
HETATM   22  N   UNL     1      -8.424   6.998  72.508  1.00  0.00    -0.113 NA 
HETATM   23  C   UNL     1      -8.883   5.836  73.077  1.00  0.00    -0.123 A  
HETATM   24  C   UNL     1      -7.028   7.352  72.373  1.00  0.00    -0.063 C  
HETATM   25  C   UNL     1     -10.285   5.904  73.076  1.00  0.00    -0.211 A  
HETATM   26  C   UNL     1     -10.995   4.833  73.664  1.00  0.00    -0.391 A  
ENDBRANCH  14  17
ENDBRANCH   9  11
ENDBRANCH   4   9
BRANCH   7  27
HETATM   27  N   UNL     1     -10.783  11.969  68.449  1.00  0.00    -0.220 N  
HETATM   28  O   UNL     1     -12.213  12.130  66.626  1.00  0.00    -0.566 OA 
HETATM   29  H   UNL     1      -9.830  11.721  68.714  1.00  0.00     0.000 HD 
HETATM   30  C   UNL     1     -11.164  11.761  67.142  1.00  0.00    -0.316 C  
BRANCH  30  31
HETATM   31  C   UNL     1     -10.100  11.092  66.348  1.00  0.00    -0.269 C  
HETATM   32  C   UNL     1     -10.137   9.767  66.160  1.00  0.00    -0.315 C  
ENDBRANCH  30  31
ENDBRANCH   7  27
BRANCH   5  33
HETATM   33  N   UNL     1     -10.805  14.805  69.100  1.00  0.00    -0.252 NA 
HETATM   34  C   UNL     1      -9.502  15.259  69.573  1.00  0.00    -0.201 C  
BRANCH  33  35
HETATM   35  C   UNL     1     -11.205  15.274  67.761  1.00  0.00    -0.326 C  
BRANCH  35  36
HETATM   36  C   UNL     1     -10.042  15.134  66.751  1.00  0.00    -0.258 C  
BRANCH  36  37
HETATM   37  N   UNL     1      -9.621  16.387  66.089  1.00  0.00    -0.309 NA 
HETATM   38  C   UNL     1      -8.166  16.525  66.226  1.00  0.00    -0.325 C  
HETATM   39  C   UNL     1     -10.278  17.557  66.679  1.00  0.00    -0.332 C  
ENDBRANCH  36  37
ENDBRANCH  35  36
ENDBRANCH  33  35
ENDBRANCH   5  33
ENDBRANCH   2   3
TORSDOF 10
ENDMDL
MODEL       11
REMARK 921   NORMALIZED FREE ENERGY PREDICTED BY IDOCK:   -6.95 KCAL/MOL
REMARK 922        TOTAL FREE ENERGY PREDICTED BY IDOCK:  -12.73 KCAL/MOL
REMARK 923 INTER-LIGAND FREE ENERGY PREDICTED BY IDOCK:  -11.27 KCAL/MOL
REMARK 924 INTRA-LIGAND FREE ENERGY PREDICTED BY IDOCK:   -1.46 KCAL/MOL
REMARK 927      BINDING AFFINITY PREDICTED BY RF-SCORE:    0.00 PKD
ROOT
HETATM    1  C   UNL     1     -14.389   8.431  72.143  1.00  0.00    -0.427 C  
HETATM    2  O   UNL     1     -13.101   8.903  72.522  1.00  0.00    -0.422 OA 
ENDROOT
BRANCH   2   3
HETATM    3  C   UNL     1     -12.324   9.463  71.537  1.00  0.00    -0.370 A  
HETATM    4  C   UNL     1     -12.319  10.799  71.127  1.00  0.00    -0.393 A  
HETATM    5  C   UNL     1     -10.598   8.889  69.836  1.00  0.00    -0.221 A  
HETATM    6  C   UNL     1     -11.340  11.185  70.204  1.00  0.00    -0.295 A  
HETATM    7  C   UNL     1     -10.542  10.260  69.521  1.00  0.00    -0.245 A  
HETATM    8  C   UNL     1     -11.453   8.546  70.910  1.00  0.00    -0.302 A  
BRANCH   4   9
HETATM    9  N   UNL     1     -13.249  11.748  71.587  1.00  0.00    -0.363 NA 
HETATM   10  H   UNL     1     -14.150  11.393  71.906  1.00  0.00     0.000 HD 
BRANCH   9  11
HETATM   11  C   UNL     1     -13.056  13.131  71.649  1.00  0.00    -0.353 A  
HETATM   12  N   UNL     1     -13.457  13.737  72.772  1.00  0.00    -0.666 NA 
HETATM   13  N   UNL     1     -12.456  13.774  70.631  1.00  0.00    -0.357 NA 
HETATM   14  C   UNL     1     -12.129  15.066  70.786  1.00  0.00    -0.322 A  
HETATM   15  C   UNL     1     -12.466  15.755  71.931  1.00  0.00    -0.527 A  
HETATM   16  C   UNL     1     -13.154  15.039  72.886  1.00  0.00    -0.478 A  
BRANCH  14  17
HETATM   17  C   UNL     1     -11.383  15.682  69.681  1.00  0.00    -0.331 A  
HETATM   18  C   UNL     1     -10.211  16.233  66.270  1.00  0.00    -0.339 A  
HETATM   19  C   UNL     1     -10.565  16.791  69.842  1.00  0.00    -0.103 A  
HETATM   20  C   UNL     1     -10.773  15.204  65.511  1.00  0.00    -0.379 A  
HETATM   21  C   UNL     1     -11.564  14.233  66.110  1.00  0.00    -0.374 A  
HETATM   22  N   UNL     1     -10.024  17.119  68.628  1.00  0.00    -0.295 NA 
HETATM   23  C   UNL     1     -10.469  16.262  67.653  1.00  0.00    -0.295 A  
HETATM   24  C   UNL     1      -9.098  18.208  68.406  1.00  0.00    -0.307 C  
HETATM   25  C   UNL     1     -11.292  15.316  68.283  1.00  0.00    -0.344 A  
HETATM   26  C   UNL     1     -11.838  14.285  67.485  1.00  0.00    -0.429 A  
ENDBRANCH  14  17
ENDBRANCH   9  11
ENDBRANCH   4   9
BRANCH   7  27
HETATM   27  N   UNL     1      -9.850  10.720  68.382  1.00  0.00    -0.163 N  
HETATM   28  O   UNL     1     -11.647  10.958  66.931  1.00  0.00    -0.327 OA 
HETATM   29  H   UNL     1      -8.846  10.883  68.466  1.00  0.00     0.000 HD 
HETATM   30  C   UNL     1     -10.444  10.964  67.164  1.00  0.00    -0.237 C  
BRANCH  30  31
HETATM   31  C   UNL     1      -9.452  11.341  66.122  1.00  0.00    -0.232 C  
HETATM   32  C   UNL     1      -9.767  11.230  64.826  1.00  0.00    -0.298 C  
ENDBRANCH  30  31
ENDBRANCH   7  27
BRANCH   5  33
HETATM   33  N   UNL     1      -9.874   7.914  69.149  1.00  0.00    -0.171 NA 
HETATM   34  C   UNL     1     -10.376   7.258  67.946  1.00  0.00    -0.201 C  
BRANCH  33  35
HETATM   35  C   UNL     1      -8.482   7.603  69.520  1.00  0.00    -0.132 C  
BRANCH  35  36
HETATM   36  C   UNL     1      -8.252   6.075  69.591  1.00  0.00    -0.115 C  
BRANCH  36  37
HETATM   37  N   UNL     1      -8.599   5.440  70.881  1.00  0.00    -0.124 NA 
HETATM   38  C   UNL     1      -9.988   4.969  70.813  1.00  0.00    -0.221 C  
HETATM   39  C   UNL     1      -8.457   6.377  71.999  1.00  0.00    -0.115 C  
ENDBRANCH  36  37
ENDBRANCH  35  36
ENDBRANCH  33  35
ENDBRANCH   5  33
ENDBRANCH   2   3
TORSDOF 10
ENDMDL
MODEL       12
REMARK 921   NORMALIZED FREE ENERGY PREDICTED BY IDOCK:   -6.95 KCAL/MOL
REMARK 922        TOTAL FREE ENERGY PREDICTED BY IDOCK:  -12.72 KCAL/MOL
REMARK 923 INTER-LIGAND FREE ENERGY PREDICTED BY IDOCK:  -11.06 KCAL/MOL
REMARK 924 INTRA-LIGAND FREE ENERGY PREDICTED BY IDOCK:   -1.67 KCAL/MOL
REMARK 927      BINDING AFFINITY PREDICTED BY RF-SCORE:    0.00 PKD
ROOT
HETATM    1  C   UNL     1     -12.596  12.234  63.594  1.00  0.00    -0.490 C  
HETATM    2  O   UNL     1     -12.752  12.339  65.006  1.00  0.00    -0.581 OA 
ENDROOT
BRANCH   2   3
HETATM    3  C   UNL     1     -11.663  12.766  65.727  1.00  0.00    -0.402 A  
HETATM    4  C   UNL     1     -10.423  12.132  65.832  1.00  0.00    -0.254 A  
HETATM    5  C   UNL     1     -10.912  14.586  67.252  1.00  0.00    -0.305 A  
HETATM    6  C   UNL     1      -9.404  12.819  66.503  1.00  0.00    -0.221 A  
HETATM    7  C   UNL     1      -9.643  13.977  67.251  1.00  0.00    -0.238 A  
HETATM    8  C   UNL     1     -11.876  13.983  66.409  1.00  0.00    -0.437 A  
BRANCH   4   9
HETATM    9  N   UNL     1     -10.168  10.851  65.313  1.00  0.00    -0.279 NA 
HETATM   10  H   UNL     1     -10.209  10.747  64.299  1.00  0.00     0.000 HD 
BRANCH   9  11
HETATM   11  C   UNL     1      -9.862   9.705  66.053  1.00  0.00    -0.274 A  
HETATM   12  N   UNL     1      -8.895   8.922  65.563  1.00  0.00    -0.189 NA 
HETATM   13  N   UNL     1     -10.500   9.461  67.213  1.00  0.00    -0.265 NA 
HETATM   14  C   UNL     1     -10.072   8.453  67.986  1.00  0.00    -0.199 A  
HETATM   15  C   UNL     1      -9.050   7.623  67.576  1.00  0.00    -0.131 A  
HETATM   16  C   UNL     1      -8.512   7.895  66.338  1.00  0.00    -0.138 A  
BRANCH  14  17
HETATM   17  C   UNL     1     -10.740   8.305  69.286  1.00  0.00    -0.140 A  
HETATM   18  C   UNL     1     -12.738   9.222  72.197  1.00  0.00    -0.465 A  
HETATM   19  C   UNL     1     -10.739   7.122  70.010  1.00  0.00    -0.248 A  
HETATM   20  C   UNL     1     -13.054  10.572  72.023  1.00  0.00    -0.511 A  
HETATM   21  C   UNL     1     -12.585  11.273  70.920  1.00  0.00    -0.467 A  
HETATM   22  N   UNL     1     -11.449   7.311  71.165  1.00  0.00    -0.273 NA 
HETATM   23  C   UNL     1     -11.937   8.593  71.227  1.00  0.00    -0.293 A  
HETATM   24  C   UNL     1     -11.645   6.306  72.187  1.00  0.00    -0.319 C  
HETATM   25  C   UNL     1     -11.475   9.263  70.084  1.00  0.00    -0.138 A  
HETATM   26  C   UNL     1     -11.808  10.630  69.945  1.00  0.00    -0.392 A  
ENDBRANCH  14  17
ENDBRANCH   9  11
ENDBRANCH   4   9
BRANCH   7  27
HETATM   27  N   UNL     1      -8.639  14.382  68.155  1.00  0.00    -0.158 N  
HETATM   28  O   UNL     1      -7.526  15.910  66.806  1.00  0.00    -0.218 OA 
HETATM   29  H   UNL     1      -8.666  14.002  69.101  1.00  0.00     0.000 HD 
HETATM   30  C   UNL     1      -7.625  15.258  67.839  1.00  0.00    -0.139 C  
BRANCH  30  31
HETATM   31  C   UNL     1      -6.656  15.420  68.956  1.00  0.00    -0.123 C  
HETATM   32  C   UNL     1      -6.412  16.635  69.460  1.00  0.00    -0.224 C  
ENDBRANCH  30  31
ENDBRANCH   7  27
BRANCH   5  33
HETATM   33  N   UNL     1     -11.228  15.703  68.026  1.00  0.00    -0.341 NA 
HETATM   34  C   UNL     1     -11.806  15.603  69.362  1.00  0.00    -0.375 C  
BRANCH  33  35
HETATM   35  C   UNL     1     -10.844  17.058  67.589  1.00  0.00    -0.244 C  
BRANCH  35  36
HETATM   36  C   UNL     1     -10.148  17.835  68.730  1.00  0.00    -0.381 C  
BRANCH  36  37
HETATM   37  N   UNL     1      -9.824  19.246  68.432  1.00  0.00    -0.387 NA 
HETATM   38  C   UNL     1     -10.489  19.627  67.180  1.00  0.00    -0.471 C  
HETATM   39  C   UNL     1      -8.379  19.452  68.297  1.00  0.00    -0.344 C  
ENDBRANCH  36  37
ENDBRANCH  35  36
ENDBRANCH  33  35
ENDBRANCH   5  33
ENDBRANCH   2   3
TORSDOF 10
ENDMDL
MODEL       13
REMARK 921   NORMALIZED FREE ENERGY PREDICTED BY IDOCK:   -6.94 KCAL/MOL
REMARK 922        TOTAL FREE ENERGY PREDICTED BY IDOCK:  -12.70 KCAL/MOL
REMARK 923 INTER-LIGAND FREE ENERGY PREDICTED BY IDOCK:  -11.15 KCAL/MOL
REMARK 924 INTRA-LIGAND FREE ENERGY PREDICTED BY IDOCK:   -1.56 KCAL/MOL
REMARK 927      BINDING AFFINITY PREDICTED BY RF-SCORE:    0.00 PKD
ROOT
HETATM    1  C   UNL     1     -14.377  14.518  71.853  1.00  0.00    -0.565 C  
HETATM    2  O   UNL     1     -13.044  14.542  71.353  1.00  0.00    -0.321 OA 
ENDROOT
BRANCH   2   3
HETATM    3  C   UNL     1     -12.639  13.471  70.594  1.00  0.00    -0.275 A  
HETATM    4  C   UNL     1     -12.246  13.491  69.254  1.00  0.00    -0.211 A  
HETATM    5  C   UNL     1     -12.301  11.006  70.702  1.00  0.00    -0.386 A  
HETATM    6  C   UNL     1     -11.729  12.306  68.717  1.00  0.00    -0.390 A  
HETATM    7  C   UNL     1     -11.811  11.079  69.385  1.00  0.00    -0.335 A  
HETATM    8  C   UNL     1     -12.634  12.247  71.296  1.00  0.00    -0.336 A  
BRANCH   4   9
HETATM    9  N   UNL     1     -12.359  14.629  68.436  1.00  0.00    -0.606 NA 
HETATM   10  H   UNL     1     -13.205  15.189  68.538  1.00  0.00     0.000 HD 
BRANCH   9  11
HETATM   11  C   UNL     1     -11.422  15.067  67.495  1.00  0.00    -0.328 A  
HETATM   12  N   UNL     1     -11.590  14.629  66.242  1.00  0.00    -0.363 NA 
HETATM   13  N   UNL     1     -10.445  15.916  67.861  1.00  0.00    -0.279 NA 
HETATM   14  C   UNL     1      -9.667  16.454  66.910  1.00  0.00    -0.251 A  
HETATM   15  C   UNL     1      -9.802  16.090  65.587  1.00  0.00    -0.309 A  
HETATM   16  C   UNL     1     -10.772  15.151  65.316  1.00  0.00    -0.404 A  
BRANCH  14  17
HETATM   17  C   UNL     1      -8.690  17.453  67.361  1.00  0.00    -0.227 A  
HETATM   18  C   UNL     1      -5.803  18.820  69.125  1.00  0.00    -0.235 A  
HETATM   19  C   UNL     1      -8.694  18.770  66.927  1.00  0.00    -0.293 A  
HETATM   20  C   UNL     1      -5.312  17.772  69.907  1.00  0.00    -0.220 A  
HETATM   21  C   UNL     1      -5.947  16.536  69.915  1.00  0.00    -0.201 A  
HETATM   22  N   UNL     1      -7.658  19.436  67.525  1.00  0.00    -0.246 NA 
HETATM   23  C   UNL     1      -6.950  18.591  68.344  1.00  0.00    -0.264 A  
HETATM   24  C   UNL     1      -7.359  20.838  67.335  1.00  0.00    -0.339 C  
HETATM   25  C   UNL     1      -7.594  17.345  68.302  1.00  0.00    -0.234 A  
HETATM   26  C   UNL     1      -7.075  16.310  69.113  1.00  0.00    -0.214 A  
ENDBRANCH  14  17
ENDBRANCH   9  11
ENDBRANCH   4   9
BRANCH   7  27
HETATM   27  N   UNL     1     -11.584   9.912  68.625  1.00  0.00    -0.474 N  
HETATM   28  O   UNL     1      -9.301   9.680  68.982  1.00  0.00    -0.148 OA 
HETATM   29  H   UNL     1     -12.390   9.458  68.195  1.00  0.00     0.000 HD 
HETATM   30  C   UNL     1     -10.343   9.349  68.427  1.00  0.00    -0.205 C  
BRANCH  30  31
HETATM   31  C   UNL     1     -10.397   8.187  67.502  1.00  0.00    -0.330 C  
HETATM   32  C   UNL     1     -10.971   7.043  67.894  1.00  0.00    -0.202 C  
ENDBRANCH  30  31
ENDBRANCH   7  27
BRANCH   5  33
HETATM   33  N   UNL     1     -12.463   9.806  71.396  1.00  0.00    -0.359 NA 
HETATM   34  C   UNL     1     -13.744   9.112  71.487  1.00  0.00    -0.329 C  
BRANCH  33  35
HETATM   35  C   UNL     1     -11.300   9.091  71.951  1.00  0.00    -0.368 C  
BRANCH  35  36
HETATM   36  C   UNL     1     -11.334   7.593  71.567  1.00  0.00    -0.255 C  
BRANCH  36  37
HETATM   37  N   UNL     1     -10.166   6.799  72.007  1.00  0.00    -0.191 NA 
HETATM   38  C   UNL     1     -10.521   5.375  71.958  1.00  0.00    -0.221 C  
HETATM   39  C   UNL     1      -9.756   7.151  73.369  1.00  0.00    -0.232 C  
ENDBRANCH  36  37
ENDBRANCH  35  36
ENDBRANCH  33  35
ENDBRANCH   5  33
ENDBRANCH   2   3
TORSDOF 10
ENDMDL
MODEL       14
REMARK 921   NORMALIZED FREE ENERGY PREDICTED BY IDOCK:   -6.88 KCAL/MOL
REMARK 922        TOTAL FREE ENERGY PREDICTED BY IDOCK:  -12.62 KCAL/MOL
REMARK 923 INTER-LIGAND FREE ENERGY PREDICTED BY IDOCK:  -10.93 KCAL/MOL
REMARK 924 INTRA-LIGAND FREE ENERGY PREDICTED BY IDOCK:   -1.69 KCAL/MOL
REMARK 927      BINDING AFFINITY PREDICTED BY RF-SCORE:    0.00 PKD
ROOT
HETATM    1  C   UNL     1     -13.209  12.143  71.856  1.00  0.00    -0.369 C  
HETATM    2  O   UNL     1     -12.288  12.450  70.814  1.00  0.00    -0.377 OA 
ENDROOT
BRANCH   2   3
HETATM    3  C   UNL     1     -11.891  11.414  70.003  1.00  0.00    -0.359 A  
HETATM    4  C   UNL     1     -11.804  11.424  68.609  1.00  0.00    -0.310 A  
HETATM    5  C   UNL     1     -11.150   9.038  70.077  1.00  0.00    -0.182 A  
HETATM    6  C   UNL     1     -11.233  10.304  67.992  1.00  0.00    -0.303 A  
HETATM    7  C   UNL     1     -10.972   9.116  68.683  1.00  0.00     0.047 A  
HETATM    8  C   UNL     1     -11.540  10.243  70.708  1.00  0.00    -0.446 A  
BRANCH   4   9
HETATM    9  N   UNL     1     -12.269  12.488  67.817  1.00  0.00    -0.301 NA 
HETATM   10  H   UNL     1     -13.257  12.728  67.901  1.00  0.00     0.000 HD 
BRANCH   9  11
HETATM   11  C   UNL     1     -11.508  13.248  66.923  1.00  0.00    -0.338 A  
HETATM   12  N   UNL     1     -11.639  12.946  65.626  1.00  0.00    -0.343 NA 
HETATM   13  N   UNL     1     -10.732  14.247  67.379  1.00  0.00    -0.279 NA 
HETATM   14  C   UNL     1     -10.148  15.068  66.493  1.00  0.00    -0.276 A  
HETATM   15  C   UNL     1     -10.268  14.854  65.136  1.00  0.00    -0.409 A  
HETATM   16  C   UNL     1     -11.012  13.758  64.761  1.00  0.00    -0.392 A  
BRANCH  14  17
HETATM   17  C   UNL     1      -9.400  16.201  67.054  1.00  0.00    -0.232 A  
HETATM   18  C   UNL     1      -8.545  19.671  67.785  1.00  0.00    -0.366 A  
HETATM   19  C   UNL     1      -8.295  16.049  67.878  1.00  0.00    -0.153 A  
HETATM   20  C   UNL     1      -9.457  20.442  67.060  1.00  0.00    -0.544 A  
HETATM   21  C   UNL     1     -10.406  19.837  66.247  1.00  0.00    -0.626 A  
HETATM   22  N   UNL     1      -7.836  17.289  68.232  1.00  0.00    -0.234 NA 
HETATM   23  C   UNL     1      -8.615  18.271  67.674  1.00  0.00    -0.255 A  
HETATM   24  C   UNL     1      -6.679  17.532  69.067  1.00  0.00    -0.247 C  
HETATM   25  C   UNL     1      -9.584  17.628  66.888  1.00  0.00    -0.286 A  
HETATM   26  C   UNL     1     -10.486  18.439  66.163  1.00  0.00    -0.422 A  
ENDBRANCH  14  17
ENDBRANCH   9  11
ENDBRANCH   4   9
BRANCH   7  27
HETATM   27  N   UNL     1     -10.732   7.959  67.912  1.00  0.00    -0.442 N  
HETATM   28  O   UNL     1      -8.414   8.061  67.810  1.00  0.00    -0.126 OA 
HETATM   29  H   UNL     1     -11.531   7.379  67.658  1.00  0.00     0.000 HD 
HETATM   30  C   UNL     1      -9.485   7.565  67.480  1.00  0.00    -0.139 C  
BRANCH  30  31
HETATM   31  C   UNL     1      -9.549   6.367  66.603  1.00  0.00    -0.194 C  
HETATM   32  C   UNL     1     -10.606   5.548  66.662  1.00  0.00    -0.365 C  
ENDBRANCH  30  31
ENDBRANCH   7  27
BRANCH   5  33
HETATM   33  N   UNL     1     -10.966   7.865  70.810  1.00  0.00    -0.247 NA 
HETATM   34  C   UNL     1     -12.048   6.924  71.081  1.00  0.00    -0.381 C  
BRANCH  33  35
HETATM   35  C   UNL     1      -9.618   7.435  71.223  1.00  0.00    -0.161 C  
BRANCH  35  36
HETATM   36  C   UNL     1      -9.268   7.974  72.630  1.00  0.00    -0.239 C  
BRANCH  36  37
HETATM   37  N   UNL     1      -7.988   8.708  72.728  1.00  0.00    -0.393 NA 
HETATM   38  C   UNL     1      -7.345   8.709  71.408  1.00  0.00    -0.102 C  
HETATM   39  C   UNL     1      -7.087   8.093  73.707  1.00  0.00    -0.137 C  
ENDBRANCH  36  37
ENDBRANCH  35  36
ENDBRANCH  33  35
ENDBRANCH   5  33
ENDBRANCH   2   3
TORSDOF 10
ENDMDL
MODEL       15
REMARK 921   NORMALIZED FREE ENERGY PREDICTED BY IDOCK:   -6.86 KCAL/MOL
REMARK 922        TOTAL FREE ENERGY PREDICTED BY IDOCK:  -12.59 KCAL/MOL
REMARK 923 INTER-LIGAND FREE ENERGY PREDICTED BY IDOCK:  -10.93 KCAL/MOL
REMARK 924 INTRA-LIGAND FREE ENERGY PREDICTED BY IDOCK:   -1.66 KCAL/MOL
REMARK 927      BINDING AFFINITY PREDICTED BY RF-SCORE:    0.00 PKD
ROOT
HETATM    1  C   UNL     1     -12.861  10.856  71.467  1.00  0.00    -0.454 C  
HETATM    2  O   UNL     1     -12.244  11.653  70.462  1.00  0.00    -0.356 OA 
ENDROOT
BRANCH   2   3
HETATM    3  C   UNL     1     -11.651  10.993  69.414  1.00  0.00    -0.312 A  
HETATM    4  C   UNL     1     -11.578  11.418  68.086  1.00  0.00    -0.294 A  
HETATM    5  C   UNL     1     -10.441   8.889  68.853  1.00  0.00    -0.205 A  
HETATM    6  C   UNL     1     -10.797  10.656  67.208  1.00  0.00    -0.345 A  
HETATM    7  C   UNL     1     -10.294   9.395  67.548  1.00  0.00    -0.255 A  
HETATM    8  C   UNL     1     -11.063   9.762  69.777  1.00  0.00    -0.272 A  
BRANCH   4   9
HETATM    9  N   UNL     1     -12.257  12.550  67.602  1.00  0.00    -0.333 NA 
HETATM   10  H   UNL     1     -13.171  12.748  68.008  1.00  0.00     0.000 HD 
BRANCH   9  11
HETATM   11  C   UNL     1     -11.798  13.431  66.617  1.00  0.00    -0.395 A  
HETATM   12  N   UNL     1     -12.444  13.401  65.447  1.00  0.00    -0.477 NA 
HETATM   13  N   UNL     1     -10.787  14.276  66.887  1.00  0.00    -0.294 NA 
HETATM   14  C   UNL     1     -10.480  15.224  65.989  1.00  0.00    -0.317 A  
HETATM   15  C   UNL     1     -11.128  15.291  64.774  1.00  0.00    -0.407 A  
HETATM   16  C   UNL     1     -12.091  14.334  64.549  1.00  0.00    -0.480 A  
BRANCH  14  17
HETATM   17  C   UNL     1      -9.439  16.180  66.386  1.00  0.00    -0.323 A  
HETATM   18  C   UNL     1      -7.940  19.383  67.284  1.00  0.00    -0.292 A  
HETATM   19  C   UNL     1      -8.132  15.810  66.665  1.00  0.00    -0.247 A  
HETATM   20  C   UNL     1      -8.954  20.330  67.120  1.00  0.00    -0.469 A  
HETATM   21  C   UNL     1     -10.210  19.951  66.664  1.00  0.00    -0.609 A  
HETATM   22  N   UNL     1      -7.420  16.927  67.009  1.00  0.00    -0.176 NA 
HETATM   23  C   UNL     1      -8.223  18.040  66.978  1.00  0.00    -0.227 A  
HETATM   24  C   UNL     1      -6.012  16.937  67.343  1.00  0.00    -0.153 C  
HETATM   25  C   UNL     1      -9.491  17.619  66.548  1.00  0.00    -0.294 A  
HETATM   26  C   UNL     1     -10.491  18.605  66.386  1.00  0.00    -0.463 A  
ENDBRANCH  14  17
ENDBRANCH   9  11
ENDBRANCH   4   9
BRANCH   7  27
HETATM   27  N   UNL     1      -9.830   8.579  66.496  1.00  0.00    -0.259 N  
HETATM   28  O   UNL     1      -7.604   9.239  66.474  1.00  0.00    -0.092 OA 
HETATM   29  H   UNL     1     -10.486   7.919  66.078  1.00  0.00     0.000 HD 
HETATM   30  C   UNL     1      -8.547   8.616  65.999  1.00  0.00    -0.155 C  
BRANCH  30  31
HETATM   31  C   UNL     1      -8.373   7.719  64.827  1.00  0.00    -0.051 C  
HETATM   32  C   UNL     1      -7.953   8.217  63.658  1.00  0.00    -0.140 C  
ENDBRANCH  30  31
ENDBRANCH   7  27
BRANCH   5  33
HETATM   33  N   UNL     1     -10.017   7.616  69.235  1.00  0.00    -0.176 NA 
HETATM   34  C   UNL     1      -8.612   7.280  69.444  1.00  0.00    -0.134 C  
BRANCH  33  35
HETATM   35  C   UNL     1     -10.991   6.572  69.601  1.00  0.00    -0.336 C  
BRANCH  35  36
HETATM   36  C   UNL     1     -10.543   5.813  70.872  1.00  0.00    -0.262 C  
BRANCH  36  37
HETATM   37  N   UNL     1     -11.257   6.177  72.114  1.00  0.00    -0.273 NA 
HETATM   38  C   UNL     1     -10.594   7.342  72.713  1.00  0.00    -0.297 C  
HETATM   39  C   UNL     1     -11.261   5.072  73.078  1.00  0.00    -0.310 C  
ENDBRANCH  36  37
ENDBRANCH  35  36
ENDBRANCH  33  35
ENDBRANCH   5  33
ENDBRANCH   2   3
TORSDOF 10
ENDMDL
MODEL       16
REMARK 921   NORMALIZED FREE ENERGY PREDICTED BY IDOCK:   -6.84 KCAL/MOL
REMARK 922        TOTAL FREE ENERGY PREDICTED BY IDOCK:  -12.56 KCAL/MOL
REMARK 923 INTER-LIGAND FREE ENERGY PREDICTED BY IDOCK:  -11.92 KCAL/MOL
REMARK 924 INTRA-LIGAND FREE ENERGY PREDICTED BY IDOCK:   -0.64 KCAL/MOL
REMARK 927      BINDING AFFINITY PREDICTED BY RF-SCORE:    0.00 PKD
ROOT
HETATM    1  C   UNL     1      -9.987   7.514  66.981  1.00  0.00    -0.234 C  
HETATM    2  O   UNL     1      -9.977   8.864  66.526  1.00  0.00    -0.250 OA 
ENDROOT
BRANCH   2   3
HETATM    3  C   UNL     1     -10.528   9.810  67.356  1.00  0.00    -0.259 A  
HETATM    4  C   UNL     1     -10.886  11.117  67.019  1.00  0.00    -0.284 A  
HETATM    5  C   UNL     1     -11.248  10.173  69.712  1.00  0.00    -0.272 A  
HETATM    6  C   UNL     1     -11.570  11.866  67.984  1.00  0.00    -0.401 A  
HETATM    7  C   UNL     1     -11.694  11.447  69.313  1.00  0.00    -0.337 A  
HETATM    8  C   UNL     1     -10.738   9.355  68.675  1.00  0.00    -0.196 A  
BRANCH   4   9
HETATM    9  N   UNL     1     -10.581  11.702  65.777  1.00  0.00    -0.264 NA 
HETATM   10  H   UNL     1     -10.205  11.087  65.057  1.00  0.00     0.000 HD 
BRANCH   9  11
HETATM   11  C   UNL     1     -10.743  13.049  65.436  1.00  0.00    -0.291 A  
HETATM   12  N   UNL     1     -11.690  13.322  64.532  1.00  0.00    -0.360 NA 
HETATM   13  N   UNL     1      -9.997  13.992  66.040  1.00  0.00    -0.308 NA 
HETATM   14  C   UNL     1     -10.289  15.283  65.824  1.00  0.00    -0.344 A  
HETATM   15  C   UNL     1     -11.279  15.652  64.939  1.00  0.00    -0.376 A  
HETATM   16  C   UNL     1     -11.935  14.621  64.302  1.00  0.00    -0.386 A  
BRANCH  14  17
HETATM   17  C   UNL     1      -9.508  16.261  66.592  1.00  0.00    -0.269 A  
HETATM   18  C   UNL     1      -8.520  19.502  67.946  1.00  0.00    -0.353 A  
HETATM   19  C   UNL     1      -8.436  15.912  67.400  1.00  0.00    -0.175 A  
HETATM   20  C   UNL     1      -9.375  20.432  67.350  1.00  0.00    -0.536 A  
HETATM   21  C   UNL     1     -10.326  20.028  66.423  1.00  0.00    -0.573 A  
HETATM   22  N   UNL     1      -7.932  17.046  67.979  1.00  0.00    -0.190 NA 
HETATM   23  C   UNL     1      -8.650  18.148  67.587  1.00  0.00    -0.251 A  
HETATM   24  C   UNL     1      -6.792  17.081  68.868  1.00  0.00    -0.211 C  
HETATM   25  C   UNL     1      -9.623  17.702  66.679  1.00  0.00    -0.301 A  
HETATM   26  C   UNL     1     -10.465  18.673  66.090  1.00  0.00    -0.473 A  
ENDBRANCH  14  17
ENDBRANCH   9  11
ENDBRANCH   4   9
BRANCH   7  27
HETATM   27  N   UNL     1     -12.084  12.414  70.263  1.00  0.00    -0.399 N  
HETATM   28  O   UNL     1     -11.924  14.314  68.938  1.00  0.00    -0.325 OA 
HETATM   29  H   UNL     1     -12.373  12.089  71.185  1.00  0.00     0.000 HD 
HETATM   30  C   UNL     1     -12.100  13.770  70.021  1.00  0.00    -0.349 C  
BRANCH  30  31
HETATM   31  C   UNL     1     -12.456  14.551  71.235  1.00  0.00    -0.416 C  
HETATM   32  C   UNL     1     -13.437  14.127  72.041  1.00  0.00    -0.518 C  
ENDBRANCH  30  31
ENDBRANCH   7  27
BRANCH   5  33
HETATM   33  N   UNL     1     -11.289   9.724  71.032  1.00  0.00    -0.359 NA 
HETATM   34  C   UNL     1     -12.514   9.709  71.825  1.00  0.00    -0.402 C  
BRANCH  33  35
HETATM   35  C   UNL     1     -10.112   9.089  71.652  1.00  0.00    -0.335 C  
BRANCH  35  36
HETATM   36  C   UNL     1     -10.462   7.688  72.206  1.00  0.00    -0.237 C  
BRANCH  36  37
HETATM   37  N   UNL     1     -10.102   6.551  71.331  1.00  0.00    -0.191 NA 
HETATM   38  C   UNL     1     -11.271   6.198  70.516  1.00  0.00    -0.334 C  
HETATM   39  C   UNL     1      -9.682   5.383  72.110  1.00  0.00    -0.162 C  
ENDBRANCH  36  37
ENDBRANCH  35  36
ENDBRANCH  33  35
ENDBRANCH   5  33
ENDBRANCH   2   3
TORSDOF 10
ENDMDL
MODEL       17
REMARK 921   NORMALIZED FREE ENERGY PREDICTED BY IDOCK:   -6.82 KCAL/MOL
REMARK 922        TOTAL FREE ENERGY PREDICTED BY IDOCK:  -12.52 KCAL/MOL
REMARK 923 INTER-LIGAND FREE ENERGY PREDICTED BY IDOCK:  -10.31 KCAL/MOL
REMARK 924 INTRA-LIGAND FREE ENERGY PREDICTED BY IDOCK:   -2.21 KCAL/MOL
REMARK 927      BINDING AFFINITY PREDICTED BY RF-SCORE:    0.00 PKD
ROOT
HETATM    1  C   UNL     1      -5.959   8.860  65.510  1.00  0.00    -0.051 C  
HETATM    2  O   UNL     1      -7.197   9.477  65.174  1.00  0.00    -0.100 OA 
ENDROOT
BRANCH   2   3
HETATM    3  C   UNL     1      -8.224   9.358  66.078  1.00  0.00    -0.111 A  
HETATM    4  C   UNL     1      -9.573   9.645  65.861  1.00  0.00    -0.257 A  
HETATM    5  C   UNL     1      -8.692   8.734  68.443  1.00  0.00    -0.135 A  
HETATM    6  C   UNL     1     -10.475   9.312  66.879  1.00  0.00    -0.284 A  
HETATM    7  C   UNL     1     -10.056   8.931  68.159  1.00  0.00    -0.189 A  
HETATM    8  C   UNL     1      -7.814   8.886  67.344  1.00  0.00    -0.097 A  
BRANCH   4   9
HETATM    9  N   UNL     1     -10.050  10.256  64.688  1.00  0.00    -0.321 NA 
HETATM   10  H   UNL     1      -9.881   9.765  63.810  1.00  0.00     0.000 HD 
BRANCH   9  11
HETATM   11  C   UNL     1     -10.735  11.473  64.609  1.00  0.00    -0.319 A  
HETATM   12  N   UNL     1     -11.531  11.639  63.547  1.00  0.00    -0.399 NA 
HETATM   13  N   UNL     1     -10.605  12.384  65.591  1.00  0.00    -0.258 NA 
HETATM   14  C   UNL     1     -11.400  13.464  65.579  1.00  0.00    -0.293 A  
HETATM   15  C   UNL     1     -12.281  13.690  64.543  1.00  0.00    -0.444 A  
HETATM   16  C   UNL     1     -12.286  12.748  63.538  1.00  0.00    -0.525 A  
BRANCH  14  17
HETATM   17  C   UNL     1     -11.285  14.366  66.732  1.00  0.00    -0.340 A  
HETATM   18  C   UNL     1     -10.359  17.337  68.636  1.00  0.00    -0.357 A  
HETATM   19  C   UNL     1     -11.847  14.092  67.971  1.00  0.00    -0.368 A  
HETATM   20  C   UNL     1      -9.595  18.117  67.764  1.00  0.00    -0.286 A  
HETATM   21  C   UNL     1      -9.316  17.674  66.478  1.00  0.00    -0.286 A  
HETATM   22  N   UNL     1     -11.566  15.127  68.821  1.00  0.00    -0.333 NA 
HETATM   23  C   UNL     1     -10.838  16.097  68.179  1.00  0.00    -0.329 A  
HETATM   24  C   UNL     1     -11.967  15.184  70.210  1.00  0.00    -0.319 C  
HETATM   25  C   UNL     1     -10.603  15.635  66.874  1.00  0.00    -0.311 A  
HETATM   26  C   UNL     1      -9.820  16.447  66.022  1.00  0.00    -0.362 A  
ENDBRANCH  14  17
ENDBRANCH   9  11
ENDBRANCH   4   9
BRANCH   7  27
HETATM   27  N   UNL     1     -11.020   8.958  69.189  1.00  0.00    -0.428 N  
HETATM   28  O   UNL     1     -10.950  11.223  69.697  1.00  0.00    -0.227 OA 
HETATM   29  H   UNL     1     -11.513   8.092  69.406  1.00  0.00     0.000 HD 
HETATM   30  C   UNL     1     -11.337  10.081  69.919  1.00  0.00    -0.250 C  
BRANCH  30  31
HETATM   31  C   UNL     1     -12.312   9.788  71.003  1.00  0.00    -0.422 C  
HETATM   32  C   UNL     1     -12.974  10.788  71.597  1.00  0.00    -0.581 C  
ENDBRANCH  30  31
ENDBRANCH   7  27
BRANCH   5  33
HETATM   33  N   UNL     1      -8.211   8.415  69.714  1.00  0.00    -0.117 NA 
HETATM   34  C   UNL     1      -7.905   9.427  70.720  1.00  0.00    -0.118 C  
BRANCH  33  35
HETATM   35  C   UNL     1      -8.131   7.014  70.162  1.00  0.00    -0.130 C  
BRANCH  35  36
HETATM   36  C   UNL     1      -9.198   6.714  71.241  1.00  0.00    -0.155 C  
BRANCH  36  37
HETATM   37  N   UNL     1     -10.577   6.536  70.738  1.00  0.00    -0.223 NA 
HETATM   38  C   UNL     1     -11.455   6.224  71.873  1.00  0.00    -0.309 C  
HETATM   39  C   UNL     1     -10.657   5.456  69.751  1.00  0.00    -0.277 C  
ENDBRANCH  36  37
ENDBRANCH  35  36
ENDBRANCH  33  35
ENDBRANCH   5  33
ENDBRANCH   2   3
TORSDOF 10
ENDMDL
MODEL       18
REMARK 921   NORMALIZED FREE ENERGY PREDICTED BY IDOCK:   -6.77 KCAL/MOL
REMARK 922        TOTAL FREE ENERGY PREDICTED BY IDOCK:  -12.43 KCAL/MOL
REMARK 923 INTER-LIGAND FREE ENERGY PREDICTED BY IDOCK:  -10.54 KCAL/MOL
REMARK 924 INTRA-LIGAND FREE ENERGY PREDICTED BY IDOCK:   -1.89 KCAL/MOL
REMARK 927      BINDING AFFINITY PREDICTED BY RF-SCORE:    0.00 PKD
ROOT
HETATM    1  C   UNL     1      -6.384   8.488  63.979  1.00  0.00    -0.072 C  
HETATM    2  O   UNL     1      -7.729   8.882  63.727  1.00  0.00    -0.117 OA 
ENDROOT
BRANCH   2   3
HETATM    3  C   UNL     1      -8.555   9.025  64.816  1.00  0.00    -0.175 A  
HETATM    4  C   UNL     1      -9.360  10.124  65.122  1.00  0.00    -0.235 A  
HETATM    5  C   UNL     1      -9.291   7.852  66.886  1.00  0.00    -0.164 A  
HETATM    6  C   UNL     1     -10.237   9.997  66.206  1.00  0.00    -0.285 A  
HETATM    7  C   UNL     1     -10.168   8.930  67.109  1.00  0.00    -0.269 A  
HETATM    8  C   UNL     1      -8.555   7.908  65.679  1.00  0.00    -0.159 A  
BRANCH   4   9
HETATM    9  N   UNL     1      -9.315  11.333  64.407  1.00  0.00    -0.371 NA 
HETATM   10  H   UNL     1      -8.522  11.470  63.781  1.00  0.00     0.000 HD 
BRANCH   9  11
HETATM   11  C   UNL     1     -10.255  12.367  64.472  1.00  0.00    -0.299 A  
HETATM   12  N   UNL     1     -11.223  12.348  63.549  1.00  0.00    -0.464 NA 
HETATM   13  N   UNL     1     -10.178  13.287  65.451  1.00  0.00    -0.303 NA 
HETATM   14  C   UNL     1     -11.184  14.163  65.593  1.00  0.00    -0.308 A  
HETATM   15  C   UNL     1     -12.243  14.184  64.711  1.00  0.00    -0.457 A  
HETATM   16  C   UNL     1     -12.196  13.261  63.690  1.00  0.00    -0.451 A  
BRANCH  14  17
HETATM   17  C   UNL     1     -11.093  15.071  66.743  1.00  0.00    -0.326 A  
HETATM   18  C   UNL     1     -11.284  16.180  70.214  1.00  0.00    -0.389 A  
HETATM   19  C   UNL     1     -10.646  16.381  66.645  1.00  0.00    -0.239 A  
HETATM   20  C   UNL     1     -11.808  15.097  70.924  1.00  0.00    -0.373 A  
HETATM   21  C   UNL     1     -12.162  13.925  70.269  1.00  0.00    -0.428 A  
HETATM   22  N   UNL     1     -10.675  16.952  67.888  1.00  0.00    -0.355 NA 
HETATM   23  C   UNL     1     -11.122  16.052  68.823  1.00  0.00    -0.338 A  
HETATM   24  C   UNL     1     -10.302  18.320  68.176  1.00  0.00    -0.373 C  
HETATM   25  C   UNL     1     -11.438  14.870  68.136  1.00  0.00    -0.348 A  
HETATM   26  C   UNL     1     -11.973  13.797  68.885  1.00  0.00    -0.394 A  
ENDBRANCH  14  17
ENDBRANCH   9  11
ENDBRANCH   4   9
BRANCH   7  27
HETATM   27  N   UNL     1     -10.848   9.076  68.336  1.00  0.00    -0.443 N  
HETATM   28  O   UNL     1      -9.287  10.371  69.467  1.00  0.00    -0.198 OA 
HETATM   29  H   UNL     1     -11.784   8.680  68.415  1.00  0.00     0.000 HD 
HETATM   30  C   UNL     1     -10.325   9.722  69.435  1.00  0.00    -0.217 C  
BRANCH  30  31
HETATM   31  C   UNL     1     -11.223   9.632  70.617  1.00  0.00    -0.385 C  
HETATM   32  C   UNL     1     -12.315  10.402  70.689  1.00  0.00    -0.438 C  
ENDBRANCH  30  31
ENDBRANCH   7  27
BRANCH   5  33
HETATM   33  N   UNL     1      -9.134   6.792  67.780  1.00  0.00    -0.118 NA 
HETATM   34  C   UNL     1      -8.056   6.740  68.763  1.00  0.00    -0.120 C  
BRANCH  33  35
HETATM   35  C   UNL     1     -10.152   5.731  67.881  1.00  0.00    -0.162 C  
BRANCH  35  36
HETATM   36  C   UNL     1     -10.533   5.190  66.483  1.00  0.00    -0.294 C  
BRANCH  36  37
HETATM   37  N   UNL     1      -9.858   3.938  66.081  1.00  0.00    -0.162 NA 
HETATM   38  C   UNL     1      -9.071   3.443  67.217  1.00  0.00    -0.175 C  
HETATM   39  C   UNL     1      -8.972   4.147  64.931  1.00  0.00    -0.138 C  
ENDBRANCH  36  37
ENDBRANCH  35  36
ENDBRANCH  33  35
ENDBRANCH   5  33
ENDBRANCH   2   3
TORSDOF 10
ENDMDL
MODEL       19
REMARK 921   NORMALIZED FREE ENERGY PREDICTED BY IDOCK:   -6.76 KCAL/MOL
REMARK 922        TOTAL FREE ENERGY PREDICTED BY IDOCK:  -12.42 KCAL/MOL
REMARK 923 INTER-LIGAND FREE ENERGY PREDICTED BY IDOCK:  -11.10 KCAL/MOL
REMARK 924 INTRA-LIGAND FREE ENERGY PREDICTED BY IDOCK:   -1.32 KCAL/MOL
REMARK 927      BINDING AFFINITY PREDICTED BY RF-SCORE:    0.00 PKD
ROOT
HETATM    1  C   UNL     1     -10.502  11.420  65.927  1.00  0.00    -0.258 C  
HETATM    2  O   UNL     1     -11.703  11.729  66.626  1.00  0.00    -0.548 OA 
ENDROOT
BRANCH   2   3
HETATM    3  C   UNL     1     -11.581  12.406  67.815  1.00  0.00    -0.352 A  
HETATM    4  C   UNL     1     -12.021  11.984  69.071  1.00  0.00    -0.264 A  
HETATM    5  C   UNL     1     -10.737  14.542  68.778  1.00  0.00    -0.253 A  
HETATM    6  C   UNL     1     -11.661  12.767  70.175  1.00  0.00    -0.239 A  
HETATM    7  C   UNL     1     -11.097  14.041  70.043  1.00  0.00     0.080 A  
HETATM    8  C   UNL     1     -10.929  13.652  67.694  1.00  0.00    -0.283 A  
BRANCH   4   9
HETATM    9  N   UNL     1     -12.806  10.834  69.266  1.00  0.00    -0.482 NA 
HETATM   10  H   UNL     1     -13.519  10.638  68.563  1.00  0.00     0.000 HD 
BRANCH   9  11
HETATM   11  C   UNL     1     -12.704   9.934  70.331  1.00  0.00     0.034 A  
HETATM   12  N   UNL     1     -13.407  10.232  71.429  1.00  0.00    -0.338 NA 
HETATM   13  N   UNL     1     -11.963   8.819  70.202  1.00  0.00     0.238 NA 
HETATM   14  C   UNL     1     -12.019   7.891  71.169  1.00  0.00    -0.285 A  
HETATM   15  C   UNL     1     -12.755   8.099  72.316  1.00  0.00    -0.292 A  
HETATM   16  C   UNL     1     -13.414   9.306  72.400  1.00  0.00    -0.459 A  
BRANCH  14  17
HETATM   17  C   UNL     1     -11.272   6.651  70.921  1.00  0.00    -0.352 A  
HETATM   18  C   UNL     1      -9.576   4.033  69.029  1.00  0.00    -0.223 A  
HETATM   19  C   UNL     1     -10.809   5.827  71.936  1.00  0.00    -0.252 A  
HETATM   20  C   UNL     1      -9.774   4.356  67.684  1.00  0.00    -0.198 A  
HETATM   21  C   UNL     1     -10.523   5.469  67.326  1.00  0.00    -0.300 A  
HETATM   22  N   UNL     1     -10.151   4.765  71.377  1.00  0.00    -0.195 NA 
HETATM   23  C   UNL     1     -10.151   4.863  70.008  1.00  0.00    -0.266 A  
HETATM   24  C   UNL     1      -9.552   3.680  72.123  1.00  0.00    -0.146 C  
HETATM   25  C   UNL     1     -10.885   6.014  69.680  1.00  0.00    -0.439 A  
HETATM   26  C   UNL     1     -11.071   6.305  68.309  1.00  0.00    -0.364 A  
ENDBRANCH  14  17
ENDBRANCH   9  11
ENDBRANCH   4   9
BRANCH   7  27
HETATM   27  N   UNL     1     -11.099  14.871  71.183  1.00  0.00    -0.552 N  
HETATM   28  O   UNL     1     -13.255  15.716  71.019  1.00  0.00    -0.508 OA 
HETATM   29  H   UNL     1     -10.273  14.862  71.782  1.00  0.00     0.000 HD 
HETATM   30  C   UNL     1     -12.146  15.691  71.539  1.00  0.00    -0.425 C  
BRANCH  30  31
HETATM   31  C   UNL     1     -11.826  16.523  72.728  1.00  0.00    -0.440 C  
HETATM   32  C   UNL     1     -12.336  16.207  73.925  1.00  0.00    -0.676 C  
ENDBRANCH  30  31
ENDBRANCH   7  27
BRANCH   5  33
HETATM   33  N   UNL     1     -10.229  15.826  68.576  1.00  0.00    -0.212 NA 
HETATM   34  C   UNL     1      -8.810  16.143  68.703  1.00  0.00    -0.218 C  
BRANCH  33  35
HETATM   35  C   UNL     1     -11.090  16.909  68.069  1.00  0.00    -0.190 C  
BRANCH  35  36
HETATM   36  C   UNL     1     -10.432  17.626  66.866  1.00  0.00    -0.290 C  
BRANCH  36  37
HETATM   37  N   UNL     1     -10.358  19.099  66.968  1.00  0.00    -0.384 NA 
HETATM   38  C   UNL     1      -9.243  19.572  66.139  1.00  0.00    -0.318 C  
HETATM   39  C   UNL     1     -10.154  19.535  68.352  1.00  0.00    -0.445 C  
ENDBRANCH  36  37
ENDBRANCH  35  36
ENDBRANCH  33  35
ENDBRANCH   5  33
ENDBRANCH   2   3
TORSDOF 10
ENDMDL
MODEL       20
REMARK 921   NORMALIZED FREE ENERGY PREDICTED BY IDOCK:   -6.73 KCAL/MOL
REMARK 922        TOTAL FREE ENERGY PREDICTED BY IDOCK:  -12.39 KCAL/MOL
REMARK 923 INTER-LIGAND FREE ENERGY PREDICTED BY IDOCK:  -10.94 KCAL/MOL
REMARK 924 INTRA-LIGAND FREE ENERGY PREDICTED BY IDOCK:   -1.45 KCAL/MOL
REMARK 927      BINDING AFFINITY PREDICTED BY RF-SCORE:    0.00 PKD
ROOT
HETATM    1  C   UNL     1     -11.819  15.222  71.633  1.00  0.00    -0.388 C  
HETATM    2  O   UNL     1     -12.505  13.974  71.611  1.00  0.00    -0.331 OA 
ENDROOT
BRANCH   2   3
HETATM    3  C   UNL     1     -12.237  13.129  70.562  1.00  0.00    -0.328 A  
HETATM    4  C   UNL     1     -12.265  11.733  70.579  1.00  0.00    -0.347 A  
HETATM    5  C   UNL     1     -11.550  13.130  68.168  1.00  0.00    -0.339 A  
HETATM    6  C   UNL     1     -12.103  11.071  69.355  1.00  0.00    -0.389 A  
HETATM    7  C   UNL     1     -11.691  11.730  68.192  1.00  0.00    -0.307 A  
HETATM    8  C   UNL     1     -11.910  13.798  69.363  1.00  0.00    -0.392 A  
BRANCH   4   9
HETATM    9  N   UNL     1     -12.434  10.981  71.755  1.00  0.00    -0.196 NA 
HETATM   10  H   UNL     1     -12.312  11.474  72.639  1.00  0.00     0.000 HD 
BRANCH   9  11
HETATM   11  C   UNL     1     -12.753   9.621  71.828  1.00  0.00    -0.420 A  
HETATM   12  N   UNL     1     -14.029   9.324  72.100  1.00  0.00    -0.393 NA 
HETATM   13  N   UNL     1     -11.808   8.694  71.589  1.00  0.00    -0.302 NA 
HETATM   14  C   UNL     1     -12.176   7.407  71.496  1.00  0.00    -0.337 A  
HETATM   15  C   UNL     1     -13.480   7.019  71.718  1.00  0.00    -0.307 A  
HETATM   16  C   UNL     1     -14.362   8.026  72.040  1.00  0.00    -0.410 A  
BRANCH  14  17
HETATM   17  C   UNL     1     -11.118   6.456  71.129  1.00  0.00    -0.344 A  
HETATM   18  C   UNL     1      -8.869   4.546  68.983  1.00  0.00    -0.123 A  
HETATM   19  C   UNL     1     -10.365   5.759  72.062  1.00  0.00    -0.208 A  
HETATM   20  C   UNL     1      -9.246   4.858  67.674  1.00  0.00    -0.138 A  
HETATM   21  C   UNL     1     -10.312   5.715  67.429  1.00  0.00    -0.284 A  
HETATM   22  N   UNL     1      -9.467   4.966  71.401  1.00  0.00    -0.149 NA 
HETATM   23  C   UNL     1      -9.591   5.123  70.042  1.00  0.00    -0.181 A  
HETATM   24  C   UNL     1      -8.526   4.074  72.042  1.00  0.00    -0.104 C  
HETATM   25  C   UNL     1     -10.651   6.020  69.829  1.00  0.00    -0.356 A  
HETATM   26  C   UNL     1     -11.009   6.306  68.492  1.00  0.00    -0.421 A  
ENDBRANCH  14  17
ENDBRANCH   9  11
ENDBRANCH   4   9
BRANCH   7  27
HETATM   27  N   UNL     1     -11.227  10.931  67.126  1.00  0.00    -0.255 N  
HETATM   28  O   UNL     1      -9.395   9.957  68.168  1.00  0.00    -0.131 OA 
HETATM   29  H   UNL     1     -11.773  10.919  66.265  1.00  0.00     0.000 HD 
HETATM   30  C   UNL     1     -10.082  10.167  67.176  1.00  0.00    -0.209 C  
BRANCH  30  31
HETATM   31  C   UNL     1      -9.788   9.513  65.874  1.00  0.00    -0.360 C  
HETATM   32  C   UNL     1      -8.529   9.188  65.557  1.00  0.00    -0.160 C  
ENDBRANCH  30  31
ENDBRANCH   7  27
BRANCH   5  33
HETATM   33  N   UNL     1     -11.084  13.836  67.059  1.00  0.00    -0.297 NA 
HETATM   34  C   UNL     1      -9.952  14.756  67.125  1.00  0.00    -0.236 C  
BRANCH  33  35
HETATM   35  C   UNL     1     -11.621  13.570  65.712  1.00  0.00    -0.330 C  
BRANCH  35  36
HETATM   36  C   UNL     1     -10.481  13.434  64.675  1.00  0.00    -0.411 C  
BRANCH  36  37
HETATM   37  N   UNL     1     -10.802  12.620  63.483  1.00  0.00    -0.400 NA 
HETATM   38  C   UNL     1     -11.992  11.811  63.772  1.00  0.00    -0.363 C  
HETATM   39  C   UNL     1      -9.691  11.737  63.117  1.00  0.00    -0.293 C  
ENDBRANCH  36  37
ENDBRANCH  35  36
ENDBRANCH  33  35
ENDBRANCH   5  33
ENDBRANCH   2   3
TORSDOF 10
ENDMDL
MODEL       21
REMARK 921   NORMALIZED FREE ENERGY PREDICTED BY IDOCK:   -6.71 KCAL/MOL
REMARK 922        TOTAL FREE ENERGY PREDICTED BY IDOCK:  -12.34 KCAL/MOL
REMARK 923 INTER-LIGAND FREE ENERGY PREDICTED BY IDOCK:  -11.13 KCAL/MOL
REMARK 924 INTRA-LIGAND FREE ENERGY PREDICTED BY IDOCK:   -1.21 KCAL/MOL
REMARK 927      BINDING AFFINITY PREDICTED BY RF-SCORE:    0.00 PKD
ROOT
HETATM    1  C   UNL     1     -10.506  16.285  65.367  1.00  0.00    -0.343 C  
HETATM    2  O   UNL     1     -11.185  15.059  65.113  1.00  0.00    -0.356 OA 
ENDROOT
BRANCH   2   3
HETATM    3  C   UNL     1     -11.394  14.225  66.185  1.00  0.00    -0.342 A  
HETATM    4  C   UNL     1     -11.557  12.838  66.151  1.00  0.00    -0.379 A  
HETATM    5  C   UNL     1     -11.686  14.243  68.658  1.00  0.00    -0.345 A  
HETATM    6  C   UNL     1     -11.610  12.166  67.378  1.00  0.00    -0.410 A  
HETATM    7  C   UNL     1     -11.740  12.838  68.599  1.00  0.00    -0.324 A  
HETATM    8  C   UNL     1     -11.433  14.894  67.427  1.00  0.00    -0.354 A  
BRANCH   4   9
HETATM    9  N   UNL     1     -11.680  12.107  64.956  1.00  0.00    -0.340 NA 
HETATM   10  H   UNL     1     -12.532  12.249  64.414  1.00  0.00     0.000 HD 
BRANCH   9  11
HETATM   11  C   UNL     1     -10.745  11.203  64.440  1.00  0.00    -0.318 A  
HETATM   12  N   UNL     1     -10.347  11.415  63.181  1.00  0.00    -0.334 NA 
HETATM   13  N   UNL     1     -10.266  10.214  65.215  1.00  0.00    -0.267 NA 
HETATM   14  C   UNL     1      -9.249   9.469  64.756  1.00  0.00    -0.205 A  
HETATM   15  C   UNL     1      -8.748   9.651  63.484  1.00  0.00    -0.236 A  
HETATM   16  C   UNL     1      -9.356  10.630  62.731  1.00  0.00    -0.327 A  
BRANCH  14  17
HETATM   17  C   UNL     1      -8.700   8.476  65.689  1.00  0.00    -0.213 A  
HETATM   18  C   UNL     1      -8.678   5.775  68.141  1.00  0.00    -0.107 A  
HETATM   19  C   UNL     1      -7.340   8.276  65.872  1.00  0.00    -0.076 A  
HETATM   20  C   UNL     1     -10.020   5.525  68.433  1.00  0.00    -0.210 A  
HETATM   21  C   UNL     1     -11.027   6.277  67.842  1.00  0.00    -0.421 A  
HETATM   22  N   UNL     1      -7.161   7.283  66.797  1.00  0.00    -0.081 NA 
HETATM   23  C   UNL     1      -8.372   6.803  67.231  1.00  0.00    -0.121 A  
HETATM   24  C   UNL     1      -5.875   6.814  67.265  1.00  0.00    -0.014 C  
HETATM   25  C   UNL     1      -9.366   7.559  66.590  1.00  0.00    -0.222 A  
HETATM   26  C   UNL     1     -10.713   7.283  66.917  1.00  0.00    -0.346 A  
ENDBRANCH  14  17
ENDBRANCH   9  11
ENDBRANCH   4   9
BRANCH   7  27
HETATM   27  N   UNL     1     -12.132  12.075  69.718  1.00  0.00    -0.278 N  
HETATM   28  O   UNL     1     -10.438  10.487  69.691  1.00  0.00    -0.235 OA 
HETATM   29  H   UNL     1     -12.938  12.394  70.256  1.00  0.00     0.000 HD 
HETATM   30  C   UNL     1     -11.494  10.927  70.131  1.00  0.00    -0.319 C  
BRANCH  30  31
HETATM   31  C   UNL     1     -12.188  10.281  71.276  1.00  0.00    -0.496 C  
HETATM   32  C   UNL     1     -11.913   9.010  71.595  1.00  0.00    -0.426 C  
ENDBRANCH  30  31
ENDBRANCH   7  27
BRANCH   5  33
HETATM   33  N   UNL     1     -11.870  14.970  69.834  1.00  0.00    -0.303 NA 
HETATM   34  C   UNL     1     -10.811  15.767  70.445  1.00  0.00    -0.329 C  
BRANCH  33  35
HETATM   35  C   UNL     1     -13.205  15.095  70.445  1.00  0.00    -0.133 C  
BRANCH  35  36
HETATM   36  C   UNL     1     -13.119  15.748  71.844  1.00  0.00    -0.417 C  
BRANCH  36  37
HETATM   37  N   UNL     1     -13.439  14.858  72.981  1.00  0.00    -0.509 NA 
HETATM   38  C   UNL     1     -12.319  14.888  73.930  1.00  0.00    -0.441 C  
HETATM   39  C   UNL     1     -13.664  13.479  72.540  1.00  0.00    -0.559 C  
ENDBRANCH  36  37
ENDBRANCH  35  36
ENDBRANCH  33  35
ENDBRANCH   5  33
ENDBRANCH   2   3
TORSDOF 10
ENDMDL
MODEL       22
REMARK 921   NORMALIZED FREE ENERGY PREDICTED BY IDOCK:   -6.67 KCAL/MOL
REMARK 922        TOTAL FREE ENERGY PREDICTED BY IDOCK:  -12.28 KCAL/MOL
REMARK 923 INTER-LIGAND FREE ENERGY PREDICTED BY IDOCK:  -10.94 KCAL/MOL
REMARK 924 INTRA-LIGAND FREE ENERGY PREDICTED BY IDOCK:   -1.34 KCAL/MOL
REMARK 927      BINDING AFFINITY PREDICTED BY RF-SCORE:    0.00 PKD
ROOT
HETATM    1  C   UNL     1     -11.175  11.513  67.080  1.00  0.00    -0.300 C  
HETATM    2  O   UNL     1     -12.111  11.507  68.153  1.00  0.00    -0.604 OA 
ENDROOT
BRANCH   2   3
HETATM    3  C   UNL     1     -11.776  10.783  69.272  1.00  0.00    -0.303 A  
HETATM    4  C   UNL     1     -12.215  11.006  70.579  1.00  0.00    -0.381 A  
HETATM    5  C   UNL     1     -10.382   8.860  70.021  1.00  0.00    -0.204 A  
HETATM    6  C   UNL     1     -11.866  10.056  71.546  1.00  0.00    -0.406 A  
HETATM    7  C   UNL     1     -10.925   9.048  71.305  1.00  0.00    -0.313 A  
HETATM    8  C   UNL     1     -10.898   9.709  69.012  1.00  0.00    -0.206 A  
BRANCH   4   9
HETATM    9  N   UNL     1     -12.967  12.132  70.956  1.00  0.00    -0.154 NA 
HETATM   10  H   UNL     1     -13.930  11.967  71.249  1.00  0.00     0.000 HD 
BRANCH   9  11
HETATM   11  C   UNL     1     -12.522  13.458  70.968  1.00  0.00    -0.353 A  
HETATM   12  N   UNL     1     -12.411  14.036  72.169  1.00  0.00    -0.116 NA 
HETATM   13  N   UNL     1     -12.193  14.068  69.815  1.00  0.00    -0.342 NA 
HETATM   14  C   UNL     1     -11.608  15.274  69.867  1.00  0.00    -0.311 A  
HETATM   15  C   UNL     1     -11.416  15.923  71.068  1.00  0.00    -0.461 A  
HETATM   16  C   UNL     1     -11.860  15.260  72.190  1.00  0.00    -0.439 A  
BRANCH  14  17
HETATM   17  C   UNL     1     -11.177  15.841  68.582  1.00  0.00    -0.351 A  
HETATM   18  C   UNL     1      -9.737  18.248  66.249  1.00  0.00    -0.293 A  
HETATM   19  C   UNL     1     -11.286  15.163  67.377  1.00  0.00    -0.323 A  
HETATM   20  C   UNL     1      -9.417  19.369  67.018  1.00  0.00    -0.399 A  
HETATM   21  C   UNL     1      -9.697  19.398  68.378  1.00  0.00    -0.488 A  
HETATM   22  N   UNL     1     -10.793  15.957  66.378  1.00  0.00    -0.249 NA 
HETATM   23  C   UNL     1     -10.344  17.151  66.886  1.00  0.00    -0.308 A  
HETATM   24  C   UNL     1     -10.763  15.596  64.977  1.00  0.00    -0.436 C  
HETATM   25  C   UNL     1     -10.609  17.135  68.264  1.00  0.00    -0.375 A  
HETATM   26  C   UNL     1     -10.280  18.290  69.009  1.00  0.00    -0.217 A  
ENDBRANCH  14  17
ENDBRANCH   9  11
ENDBRANCH   4   9
BRANCH   7  27
HETATM   27  N   UNL     1     -10.396   8.376  72.427  1.00  0.00    -0.326 N  
HETATM   28  O   UNL     1     -11.841   6.560  72.483  1.00  0.00    -0.229 OA 
HETATM   29  H   UNL     1      -9.561   8.764  72.866  1.00  0.00     0.000 HD 
HETATM   30  C   UNL     1     -10.936   7.230  72.966  1.00  0.00    -0.344 C  
BRANCH  30  31
HETATM   31  C   UNL     1     -10.228   6.805  74.202  1.00  0.00    -0.370 C  
HETATM   32  C   UNL     1      -9.382   5.769  74.168  1.00  0.00    -0.136 C  
ENDBRANCH  30  31
ENDBRANCH   7  27
BRANCH   5  33
HETATM   33  N   UNL     1      -9.397   7.915  69.734  1.00  0.00    -0.153 NA 
HETATM   34  C   UNL     1      -7.970   8.213  69.805  1.00  0.00    -0.111 C  
BRANCH  33  35
HETATM   35  C   UNL     1      -9.750   6.505  69.490  1.00  0.00    -0.151 C  
BRANCH  35  36
HETATM   36  C   UNL     1      -8.951   5.929  68.298  1.00  0.00    -0.112 C  
BRANCH  36  37
HETATM   37  N   UNL     1      -9.573   6.112  66.969  1.00  0.00    -0.129 NA 
HETATM   38  C   UNL     1      -8.930   7.251  66.303  1.00  0.00    -0.156 C  
HETATM   39  C   UNL     1     -11.013   6.362  67.076  1.00  0.00    -0.389 C  
ENDBRANCH  36  37
ENDBRANCH  35  36
ENDBRANCH  33  35
ENDBRANCH   5  33
ENDBRANCH   2   3
TORSDOF 10
ENDMDL
MODEL       23
REMARK 921   NORMALIZED FREE ENERGY PREDICTED BY IDOCK:   -6.66 KCAL/MOL
REMARK 922        TOTAL FREE ENERGY PREDICTED BY IDOCK:  -12.27 KCAL/MOL
REMARK 923 INTER-LIGAND FREE ENERGY PREDICTED BY IDOCK:  -10.74 KCAL/MOL
REMARK 924 INTRA-LIGAND FREE ENERGY PREDICTED BY IDOCK:   -1.53 KCAL/MOL
REMARK 927      BINDING AFFINITY PREDICTED BY RF-SCORE:    0.00 PKD
ROOT
HETATM    1  C   UNL     1     -12.391  12.270  64.633  1.00  0.00    -0.369 C  
HETATM    2  O   UNL     1     -12.656  12.756  65.945  1.00  0.00    -0.518 OA 
ENDROOT
BRANCH   2   3
HETATM    3  C   UNL     1     -11.572  13.084  66.723  1.00  0.00    -0.368 A  
HETATM    4  C   UNL     1     -10.965  12.289  67.697  1.00  0.00    -0.244 A  
HETATM    5  C   UNL     1      -9.975  14.940  67.179  1.00  0.00    -0.231 A  
HETATM    6  C   UNL     1      -9.779  12.765  68.269  1.00  0.00    -0.216 A  
HETATM    7  C   UNL     1      -9.323  14.074  68.077  1.00  0.00    -0.205 A  
HETATM    8  C   UNL     1     -11.056  14.372  66.464  1.00  0.00    -0.331 A  
BRANCH   4   9
HETATM    9  N   UNL     1     -11.495  11.059  68.127  1.00  0.00    -0.408 NA 
HETATM   10  H   UNL     1     -11.697  10.367  67.406  1.00  0.00     0.000 HD 
BRANCH   9  11
HETATM   11  C   UNL     1     -11.772  10.695  69.448  1.00  0.00    -0.273 A  
HETATM   12  N   UNL     1     -12.619  11.486  70.116  1.00  0.00    -0.130 NA 
HETATM   13  N   UNL     1     -11.230   9.579  69.967  1.00  0.00    -0.232 NA 
HETATM   14  C   UNL     1     -11.645   9.161  71.173  1.00  0.00    -0.317 A  
HETATM   15  C   UNL     1     -12.549   9.894  71.911  1.00  0.00    -0.471 A  
HETATM   16  C   UNL     1     -12.987  11.066  71.336  1.00  0.00    -0.414 A  
BRANCH  14  17
HETATM   17  C   UNL     1     -11.094   7.881  71.638  1.00  0.00    -0.285 A  
HETATM   18  C   UNL     1      -9.649   4.537  71.440  1.00  0.00    -0.232 A  
HETATM   19  C   UNL     1     -10.907   7.577  72.979  1.00  0.00    -0.392 A  
HETATM   20  C   UNL     1      -9.623   4.221  70.080  1.00  0.00    -0.274 A  
HETATM   21  C   UNL     1     -10.122   5.110  69.137  1.00  0.00    -0.274 A  
HETATM   22  N   UNL     1     -10.375   6.320  73.076  1.00  0.00    -0.200 NA 
HETATM   23  C   UNL     1     -10.190   5.775  71.829  1.00  0.00    -0.197 A  
HETATM   24  C   UNL     1     -10.065   5.649  74.320  1.00  0.00    -0.264 C  
HETATM   25  C   UNL     1     -10.672   6.710  70.899  1.00  0.00    -0.278 A  
HETATM   26  C   UNL     1     -10.636   6.353  69.532  1.00  0.00    -0.308 A  
ENDBRANCH  14  17
ENDBRANCH   9  11
ENDBRANCH   4   9
BRANCH   7  27
HETATM   27  N   UNL     1      -8.331  14.549  68.960  1.00  0.00    -0.309 N  
HETATM   28  O   UNL     1      -6.450  14.102  67.673  1.00  0.00    -0.175 OA 
HETATM   29  H   UNL     1      -8.634  14.985  69.830  1.00  0.00     0.000 HD 
HETATM   30  C   UNL     1      -6.978  14.461  68.719  1.00  0.00    -0.100 C  
BRANCH  30  31
HETATM   31  C   UNL     1      -6.172  14.951  69.868  1.00  0.00    -0.149 C  
HETATM   32  C   UNL     1      -5.809  14.106  70.841  1.00  0.00    -0.213 C  
ENDBRANCH  30  31
ENDBRANCH   7  27
BRANCH   5  33
HETATM   33  N   UNL     1      -9.605  16.272  66.992  1.00  0.00    -0.227 NA 
HETATM   34  C   UNL     1      -8.530  16.675  66.091  1.00  0.00    -0.273 C  
BRANCH  33  35
HETATM   35  C   UNL     1     -10.393  17.367  67.585  1.00  0.00    -0.355 C  
BRANCH  35  36
HETATM   36  C   UNL     1     -10.241  18.670  66.767  1.00  0.00    -0.393 C  
BRANCH  36  37
HETATM   37  N   UNL     1      -9.874  19.871  67.548  1.00  0.00    -0.380 NA 
HETATM   38  C   UNL     1      -8.542  20.319  67.122  1.00  0.00    -0.338 C  
HETATM   39  C   UNL     1      -9.856  19.594  68.987  1.00  0.00    -0.393 C  
ENDBRANCH  36  37
ENDBRANCH  35  36
ENDBRANCH  33  35
ENDBRANCH   5  33
ENDBRANCH   2   3
TORSDOF 10
ENDMDL
MODEL       24
REMARK 921   NORMALIZED FREE ENERGY PREDICTED BY IDOCK:   -6.60 KCAL/MOL
REMARK 922        TOTAL FREE ENERGY PREDICTED BY IDOCK:  -12.17 KCAL/MOL
REMARK 923 INTER-LIGAND FREE ENERGY PREDICTED BY IDOCK:  -10.40 KCAL/MOL
REMARK 924 INTRA-LIGAND FREE ENERGY PREDICTED BY IDOCK:   -1.77 KCAL/MOL
REMARK 927      BINDING AFFINITY PREDICTED BY RF-SCORE:    0.00 PKD
ROOT
HETATM    1  C   UNL     1     -10.096  11.256  63.021  1.00  0.00    -0.285 C  
HETATM    2  O   UNL     1     -10.781  11.239  64.269  1.00  0.00    -0.338 OA 
ENDROOT
BRANCH   2   3
HETATM    3  C   UNL     1     -10.036  10.970  65.391  1.00  0.00    -0.269 A  
HETATM    4  C   UNL     1      -9.402  11.896  66.222  1.00  0.00    -0.227 A  
HETATM    5  C   UNL     1      -9.183   9.081  66.772  1.00  0.00    -0.157 A  
HETATM    6  C   UNL     1      -8.817  11.411  67.398  1.00  0.00    -0.150 A  
HETATM    7  C   UNL     1      -8.645  10.044  67.645  1.00  0.00    -0.118 A  
HETATM    8  C   UNL     1      -9.940   9.594  65.692  1.00  0.00    -0.321 A  
BRANCH   4   9
HETATM    9  N   UNL     1      -9.317  13.267  65.922  1.00  0.00    -0.481 NA 
HETATM   10  H   UNL     1      -8.859  13.521  65.047  1.00  0.00     0.000 HD 
BRANCH   9  11
HETATM   11  C   UNL     1      -9.802  14.316  66.709  1.00  0.00    -0.270 A  
HETATM   12  N   UNL     1      -9.592  15.553  66.244  1.00  0.00    -0.283 NA 
HETATM   13  N   UNL     1     -10.475  14.053  67.843  1.00  0.00    -0.238 NA 
HETATM   14  C   UNL     1     -11.076  15.064  68.488  1.00  0.00    -0.272 A  
HETATM   15  C   UNL     1     -10.947  16.365  68.051  1.00  0.00    -0.327 A  
HETATM   16  C   UNL     1     -10.169  16.551  66.930  1.00  0.00    -0.296 A  
BRANCH  14  17
HETATM   17  C   UNL     1     -11.883  14.698  69.659  1.00  0.00    -0.367 A  
HETATM   18  C   UNL     1     -13.441  12.559  72.170  1.00  0.00    -0.523 A  
HETATM   19  C   UNL     1     -12.517  15.630  70.466  1.00  0.00    -0.398 A  
HETATM   20  C   UNL     1     -13.131  11.251  71.791  1.00  0.00    -0.527 A  
HETATM   21  C   UNL     1     -12.398  11.002  70.638  1.00  0.00    -0.480 A  
HETATM   22  N   UNL     1     -13.176  14.971  71.468  1.00  0.00    -0.368 NA 
HETATM   23  C   UNL     1     -12.989  13.615  71.359  1.00  0.00    -0.347 A  
HETATM   24  C   UNL     1     -13.973  15.610  72.492  1.00  0.00    -0.530 C  
HETATM   25  C   UNL     1     -12.217  13.400  70.207  1.00  0.00    -0.405 A  
HETATM   26  C   UNL     1     -11.929  12.063  69.849  1.00  0.00    -0.391 A  
ENDBRANCH  14  17
ENDBRANCH   9  11
ENDBRANCH   4   9
BRANCH   7  27
HETATM   27  N   UNL     1      -7.749   9.680  68.672  1.00  0.00    -0.080 N  
HETATM   28  O   UNL     1      -9.238   9.611  70.452  1.00  0.00    -0.250 OA 
HETATM   29  H   UNL     1      -6.780   9.493  68.416  1.00  0.00     0.000 HD 
HETATM   30  C   UNL     1      -8.101   9.562  69.997  1.00  0.00    -0.167 C  
BRANCH  30  31
HETATM   31  C   UNL     1      -6.930   9.266  70.864  1.00  0.00    -0.107 C  
HETATM   32  C   UNL     1      -7.034   8.361  71.845  1.00  0.00    -0.097 C  
ENDBRANCH  30  31
ENDBRANCH   7  27
BRANCH   5  33
HETATM   33  N   UNL     1      -8.992   7.708  66.932  1.00  0.00    -0.132 NA 
HETATM   34  C   UNL     1      -7.813   7.009  66.430  1.00  0.00    -0.106 C  
BRANCH  33  35
HETATM   35  C   UNL     1      -9.911   6.909  67.762  1.00  0.00    -0.148 C  
BRANCH  35  36
HETATM   36  C   UNL     1      -9.180   6.314  68.988  1.00  0.00    -0.127 C  
BRANCH  36  37
HETATM   37  N   UNL     1     -10.002   6.170  70.209  1.00  0.00    -0.179 NA 
HETATM   38  C   UNL     1      -9.974   4.764  70.631  1.00  0.00    -0.230 C  
HETATM   39  C   UNL     1     -11.390   6.580  69.977  1.00  0.00    -0.410 C  
ENDBRANCH  36  37
ENDBRANCH  35  36
ENDBRANCH  33  35
ENDBRANCH   5  33
ENDBRANCH   2   3
TORSDOF 10
ENDMDL
MODEL       25
REMARK 921   NORMALIZED FREE ENERGY PREDICTED BY IDOCK:   -6.58 KCAL/MOL
REMARK 922        TOTAL FREE ENERGY PREDICTED BY IDOCK:  -12.13 KCAL/MOL
REMARK 923 INTER-LIGAND FREE ENERGY PREDICTED BY IDOCK:  -10.49 KCAL/MOL
REMARK 924 INTRA-LIGAND FREE ENERGY PREDICTED BY IDOCK:   -1.64 KCAL/MOL
REMARK 927      BINDING AFFINITY PREDICTED BY RF-SCORE:    0.00 PKD
ROOT
HETATM    1  C   UNL     1     -12.660  10.766  71.071  1.00  0.00    -0.420 C  
HETATM    2  O   UNL     1     -12.104  11.626  70.082  1.00  0.00    -0.322 OA 
ENDROOT
BRANCH   2   3
HETATM    3  C   UNL     1     -11.502  11.030  69.000  1.00  0.00    -0.299 A  
HETATM    4  C   UNL     1     -11.496  11.493  67.682  1.00  0.00    -0.285 A  
HETATM    5  C   UNL     1     -10.181   9.022  68.349  1.00  0.00    -0.201 A  
HETATM    6  C   UNL     1     -10.695  10.805  66.762  1.00  0.00    -0.291 A  
HETATM    7  C   UNL     1     -10.105   9.570  67.054  1.00  0.00    -0.234 A  
HETATM    8  C   UNL     1     -10.829   9.830  69.313  1.00  0.00    -0.240 A  
BRANCH   4   9
HETATM    9  N   UNL     1     -12.259  12.592  67.249  1.00  0.00    -0.397 NA 
HETATM   10  H   UNL     1     -13.191  12.693  67.650  1.00  0.00     0.000 HD 
BRANCH   9  11
HETATM   11  C   UNL     1     -11.861  13.559  66.321  1.00  0.00    -0.392 A  
HETATM   12  N   UNL     1     -12.582  13.635  65.197  1.00  0.00    -0.605 NA 
HETATM   13  N   UNL     1     -10.831  14.378  66.601  1.00  0.00    -0.299 NA 
HETATM   14  C   UNL     1     -10.579  15.404  65.774  1.00  0.00    -0.348 A  
HETATM   15  C   UNL     1     -11.303  15.581  64.615  1.00  0.00    -0.363 A  
HETATM   16  C   UNL     1     -12.283  14.646  64.367  1.00  0.00    -0.452 A  
BRANCH  14  17
HETATM   17  C   UNL     1      -9.511  16.323  66.189  1.00  0.00    -0.373 A  
HETATM   18  C   UNL     1      -7.943  19.434  67.271  1.00  0.00    -0.292 A  
HETATM   19  C   UNL     1      -8.190  15.930  66.351  1.00  0.00    -0.228 A  
HETATM   20  C   UNL     1      -8.961  20.391  67.257  1.00  0.00    -0.460 A  
HETATM   21  C   UNL     1     -10.244  20.053  66.848  1.00  0.00    -0.595 A  
HETATM   22  N   UNL     1      -7.453  17.013  66.747  1.00  0.00    -0.204 NA 
HETATM   23  C   UNL     1      -8.251  18.123  66.866  1.00  0.00    -0.243 A  
HETATM   24  C   UNL     1      -6.027  16.995  66.991  1.00  0.00    -0.179 C  
HETATM   25  C   UNL     1      -9.545  17.741  66.481  1.00  0.00    -0.315 A  
HETATM   26  C   UNL     1     -10.548  18.737  66.471  1.00  0.00    -0.436 A  
ENDBRANCH  14  17
ENDBRANCH   9  11
ENDBRANCH   4   9
BRANCH   7  27
HETATM   27  N   UNL     1      -9.622   8.811  65.968  1.00  0.00    -0.361 N  
HETATM   28  O   UNL     1      -7.343   9.121  66.288  1.00  0.00    -0.090 OA 
HETATM   29  H   UNL     1     -10.301   8.310  65.396  1.00  0.00     0.000 HD 
HETATM   30  C   UNL     1      -8.291   8.706  65.632  1.00  0.00    -0.145 C  
BRANCH  30  31
HETATM   31  C   UNL     1      -8.089   7.925  64.383  1.00  0.00    -0.103 C  
HETATM   32  C   UNL     1      -8.179   8.530  63.192  1.00  0.00    -0.151 C  
ENDBRANCH  30  31
ENDBRANCH   7  27
BRANCH   5  33
HETATM   33  N   UNL     1      -9.667   7.769  68.684  1.00  0.00    -0.154 NA 
HETATM   34  C   UNL     1      -8.356   7.592  69.301  1.00  0.00    -0.134 C  
BRANCH  33  35
HETATM   35  C   UNL     1     -10.496   6.557  68.571  1.00  0.00    -0.220 C  
BRANCH  35  36
HETATM   36  C   UNL     1      -9.886   5.557  67.561  1.00  0.00    -0.144 C  
BRANCH  36  37
HETATM   37  N   UNL     1      -9.139   4.428  68.157  1.00  0.00    -0.120 NA 
HETATM   38  C   UNL     1      -9.345   3.237  67.325  1.00  0.00    -0.192 C  
HETATM   39  C   UNL     1      -9.585   4.148  69.525  1.00  0.00    -0.204 C  
ENDBRANCH  36  37
ENDBRANCH  35  36
ENDBRANCH  33  35
ENDBRANCH   5  33
ENDBRANCH   2   3
TORSDOF 10
ENDMDL
MODEL       26
REMARK 921   NORMALIZED FREE ENERGY PREDICTED BY IDOCK:   -6.57 KCAL/MOL
REMARK 922        TOTAL FREE ENERGY PREDICTED BY IDOCK:  -12.12 KCAL/MOL
REMARK 923 INTER-LIGAND FREE ENERGY PREDICTED BY IDOCK:  -10.07 KCAL/MOL
REMARK 924 INTRA-LIGAND FREE ENERGY PREDICTED BY IDOCK:   -2.06 KCAL/MOL
REMARK 927      BINDING AFFINITY PREDICTED BY RF-SCORE:    0.00 PKD
ROOT
HETATM    1  C   UNL     1      -9.171   2.798  68.517  1.00  0.00    -0.183 C  
HETATM    2  O   UNL     1      -9.185   4.119  67.986  1.00  0.00    -0.127 OA 
ENDROOT
BRANCH   2   3
HETATM    3  C   UNL     1      -9.904   5.065  68.676  1.00  0.00    -0.161 A  
HETATM    4  C   UNL     1     -10.574   6.167  68.140  1.00  0.00    -0.264 A  
HETATM    5  C   UNL     1     -10.580   5.719  70.981  1.00  0.00    -0.253 A  
HETATM    6  C   UNL     1     -11.370   6.922  69.010  1.00  0.00    -0.064 A  
HETATM    7  C   UNL     1     -11.330   6.758  70.399  1.00  0.00    -0.347 A  
HETATM    8  C   UNL     1      -9.941   4.846  70.069  1.00  0.00    -0.323 A  
BRANCH   4   9
HETATM    9  N   UNL     1     -10.472   6.547  66.790  1.00  0.00    -0.391 NA 
HETATM   10  H   UNL     1     -10.924   5.942  66.105  1.00  0.00     0.000 HD 
BRANCH   9  11
HETATM   11  C   UNL     1      -9.811   7.676  66.297  1.00  0.00    -0.010 A  
HETATM   12  N   UNL     1      -8.672   7.453  65.631  1.00  0.00    -0.119 NA 
HETATM   13  N   UNL     1     -10.345   8.899  66.468  1.00  0.00    -0.250 NA 
HETATM   14  C   UNL     1      -9.783   9.943  65.840  1.00  0.00    -0.262 A  
HETATM   15  C   UNL     1      -8.632   9.793  65.097  1.00  0.00    -0.173 A  
HETATM   16  C   UNL     1      -8.107   8.521  65.047  1.00  0.00    -0.148 A  
BRANCH  14  17
HETATM   17  C   UNL     1     -10.473  11.231  65.980  1.00  0.00    -0.310 A  
HETATM   18  C   UNL     1     -12.030  14.083  67.640  1.00  0.00    -0.404 A  
HETATM   19  C   UNL     1     -10.814  12.033  64.900  1.00  0.00    -0.301 A  
HETATM   20  C   UNL     1     -12.016  13.776  69.003  1.00  0.00    -0.399 A  
HETATM   21  C   UNL     1     -11.504  12.565  69.451  1.00  0.00    -0.327 A  
HETATM   22  N   UNL     1     -11.436  13.159  65.366  1.00  0.00    -0.298 NA 
HETATM   23  C   UNL     1     -11.512  13.138  66.736  1.00  0.00    -0.343 A  
HETATM   24  C   UNL     1     -11.957  14.219  64.530  1.00  0.00    -0.462 C  
HETATM   25  C   UNL     1     -10.957  11.920  67.159  1.00  0.00    -0.319 A  
HETATM   26  C   UNL     1     -10.966  11.640  68.544  1.00  0.00    -0.264 A  
ENDBRANCH  14  17
ENDBRANCH   9  11
ENDBRANCH   4   9
BRANCH   7  27
HETATM   27  N   UNL     1     -11.892   7.783  71.188  1.00  0.00    -0.291 N  
HETATM   28  O   UNL     1     -14.007   6.880  71.512  1.00  0.00    -0.277 OA 
HETATM   29  H   UNL     1     -11.293   8.564  71.455  1.00  0.00     0.000 HD 
HETATM   30  C   UNL     1     -13.200   7.796  71.620  1.00  0.00    -0.343 C  
BRANCH  30  31
HETATM   31  C   UNL     1     -13.538   9.049  72.345  1.00  0.00    -0.533 C  
HETATM   32  C   UNL     1     -13.268  10.237  71.791  1.00  0.00    -0.534 C  
ENDBRANCH  30  31
ENDBRANCH   7  27
BRANCH   5  33
HETATM   33  N   UNL     1     -10.453   5.543  72.360  1.00  0.00    -0.206 NA 
HETATM   34  C   UNL     1     -11.399   4.759  73.147  1.00  0.00    -0.295 C  
BRANCH  33  35
HETATM   35  C   UNL     1      -9.256   6.019  73.076  1.00  0.00    -0.133 C  
BRANCH  35  36
HETATM   36  C   UNL     1      -9.480   7.436  73.654  1.00  0.00    -0.272 C  
BRANCH  36  37
HETATM   37  N   UNL     1      -8.347   8.373  73.495  1.00  0.00    -0.369 NA 
HETATM   38  C   UNL     1      -7.723   8.137  72.187  1.00  0.00    -0.118 C  
HETATM   39  C   UNL     1      -7.346   8.195  74.550  1.00  0.00    -0.198 C  
ENDBRANCH  36  37
ENDBRANCH  35  36
ENDBRANCH  33  35
ENDBRANCH   5  33
ENDBRANCH   2   3
TORSDOF 10
ENDMDL
MODEL       27
REMARK 921   NORMALIZED FREE ENERGY PREDICTED BY IDOCK:   -6.56 KCAL/MOL
REMARK 922        TOTAL FREE ENERGY PREDICTED BY IDOCK:  -12.11 KCAL/MOL
REMARK 923 INTER-LIGAND FREE ENERGY PREDICTED BY IDOCK:  -10.38 KCAL/MOL
REMARK 924 INTRA-LIGAND FREE ENERGY PREDICTED BY IDOCK:   -1.73 KCAL/MOL
REMARK 927      BINDING AFFINITY PREDICTED BY RF-SCORE:    0.00 PKD
ROOT
HETATM    1  C   UNL     1      -8.778   2.632  68.237  1.00  0.00    -0.102 C  
HETATM    2  O   UNL     1      -8.430   3.978  68.543  1.00  0.00    -0.088 OA 
ENDROOT
BRANCH   2   3
HETATM    3  C   UNL     1      -9.421   4.782  69.053  1.00  0.00    -0.148 A  
HETATM    4  C   UNL     1     -10.274   5.623  68.335  1.00  0.00    -0.191 A  
HETATM    5  C   UNL     1     -10.467   5.482  71.201  1.00  0.00    -0.236 A  
HETATM    6  C   UNL     1     -11.312   6.243  69.041  1.00  0.00    -0.319 A  
HETATM    7  C   UNL     1     -11.379   6.236  70.439  1.00  0.00    -0.372 A  
HETATM    8  C   UNL     1      -9.548   4.705  70.456  1.00  0.00    -0.268 A  
BRANCH   4   9
HETATM    9  N   UNL     1     -10.126   5.876  66.959  1.00  0.00    -0.163 NA 
HETATM   10  H   UNL     1     -10.413   5.135  66.321  1.00  0.00     0.000 HD 
BRANCH   9  11
HETATM   11  C   UNL     1      -9.623   7.047  66.384  1.00  0.00    -0.099 A  
HETATM   12  N   UNL     1      -8.628   6.895  65.503  1.00  0.00    -0.118 NA 
HETATM   13  N   UNL     1     -10.167   8.237  66.694  1.00  0.00    -0.296 NA 
HETATM   14  C   UNL     1      -9.783   9.322  66.003  1.00  0.00    -0.289 A  
HETATM   15  C   UNL     1      -8.794   9.245  65.046  1.00  0.00    -0.238 A  
HETATM   16  C   UNL     1      -8.234   8.002  64.855  1.00  0.00    -0.134 A  
BRANCH  14  17
HETATM   17  C   UNL     1     -10.489  10.571  66.315  1.00  0.00    -0.250 A  
HETATM   18  C   UNL     1     -12.357  13.650  65.728  1.00  0.00    -0.524 A  
HETATM   19  C   UNL     1     -10.698  11.023  67.610  1.00  0.00    -0.238 A  
HETATM   20  C   UNL     1     -12.440  13.777  64.340  1.00  0.00    -0.317 A  
HETATM   21  C   UNL     1     -11.841  12.843  63.505  1.00  0.00    -0.605 A  
HETATM   22  N   UNL     1     -11.386  12.205  67.559  1.00  0.00    -0.303 NA 
HETATM   23  C   UNL     1     -11.655  12.552  66.258  1.00  0.00    -0.394 A  
HETATM   24  C   UNL     1     -11.765  12.989  68.714  1.00  0.00    -0.324 C  
HETATM   25  C   UNL     1     -11.068  11.572  65.443  1.00  0.00    -0.250 A  
HETATM   26  C   UNL     1     -11.166  11.738  64.043  1.00  0.00    -0.461 A  
ENDBRANCH  14  17
ENDBRANCH   9  11
ENDBRANCH   4   9
BRANCH   7  27
HETATM   27  N   UNL     1     -12.247   7.166  71.049  1.00  0.00    -0.417 N  
HETATM   28  O   UNL     1     -11.085   9.120  70.571  1.00  0.00    -0.242 OA 
HETATM   29  H   UNL     1     -13.113   6.816  71.456  1.00  0.00     0.000 HD 
HETATM   30  C   UNL     1     -11.997   8.518  71.127  1.00  0.00    -0.272 C  
BRANCH  30  31
HETATM   31  C   UNL     1     -13.035   9.235  71.913  1.00  0.00    -0.489 C  
HETATM   32  C   UNL     1     -13.150  10.565  71.817  1.00  0.00    -0.570 C  
ENDBRANCH  30  31
ENDBRANCH   7  27
BRANCH   5  33
HETATM   33  N   UNL     1     -10.446   5.485  72.597  1.00  0.00    -0.204 NA 
HETATM   34  C   UNL     1     -11.377   4.702  73.403  1.00  0.00    -0.305 C  
BRANCH  33  35
HETATM   35  C   UNL     1      -9.369   6.169  73.335  1.00  0.00    -0.134 C  
BRANCH  35  36
HETATM   36  C   UNL     1      -9.687   7.671  73.519  1.00  0.00    -0.299 C  
BRANCH  36  37
HETATM   37  N   UNL     1      -8.531   8.585  73.398  1.00  0.00    -0.377 NA 
HETATM   38  C   UNL     1      -7.957   8.440  72.055  1.00  0.00    -0.135 C  
HETATM   39  C   UNL     1      -7.503   8.290  74.400  1.00  0.00    -0.212 C  
ENDBRANCH  36  37
ENDBRANCH  35  36
ENDBRANCH  33  35
ENDBRANCH   5  33
ENDBRANCH   2   3
TORSDOF 10
ENDMDL
MODEL       28
REMARK 921   NORMALIZED FREE ENERGY PREDICTED BY IDOCK:   -6.52 KCAL/MOL
REMARK 922        TOTAL FREE ENERGY PREDICTED BY IDOCK:  -12.05 KCAL/MOL
REMARK 923 INTER-LIGAND FREE ENERGY PREDICTED BY IDOCK:  -10.66 KCAL/MOL
REMARK 924 INTRA-LIGAND FREE ENERGY PREDICTED BY IDOCK:   -1.39 KCAL/MOL
REMARK 927      BINDING AFFINITY PREDICTED BY RF-SCORE:    0.00 PKD
ROOT
HETATM    1  C   UNL     1     -11.922  13.586  68.653  1.00  0.00    -0.343 C  
HETATM    2  O   UNL     1     -12.275  12.483  67.825  1.00  0.00    -0.372 OA 
ENDROOT
BRANCH   2   3
HETATM    3  C   UNL     1     -11.359  11.465  67.711  1.00  0.00    -0.287 A  
HETATM    4  C   UNL     1     -10.618  11.124  66.578  1.00  0.00    -0.262 A  
HETATM    5  C   UNL     1     -10.334   9.596  68.999  1.00  0.00    -0.205 A  
HETATM    6  C   UNL     1      -9.631  10.142  66.726  1.00  0.00    -0.222 A  
HETATM    7  C   UNL     1      -9.526   9.348  67.874  1.00  0.00    -0.132 A  
HETATM    8  C   UNL     1     -11.187  10.721  68.898  1.00  0.00    -0.328 A  
BRANCH   4   9
HETATM    9  N   UNL     1     -10.828  11.709  65.317  1.00  0.00    -0.292 NA 
HETATM   10  H   UNL     1     -10.883  11.076  64.519  1.00  0.00     0.000 HD 
BRANCH   9  11
HETATM   11  C   UNL     1     -10.968  13.075  65.052  1.00  0.00    -0.298 A  
HETATM   12  N   UNL     1     -11.967  13.421  64.232  1.00  0.00    -0.410 NA 
HETATM   13  N   UNL     1     -10.150  13.963  65.644  1.00  0.00    -0.319 NA 
HETATM   14  C   UNL     1     -10.413  15.272  65.510  1.00  0.00    -0.374 A  
HETATM   15  C   UNL     1     -11.451  15.714  64.717  1.00  0.00    -0.284 A  
HETATM   16  C   UNL     1     -12.183  14.736  64.082  1.00  0.00    -0.295 A  
BRANCH  14  17
HETATM   17  C   UNL     1      -9.548  16.187  66.265  1.00  0.00    -0.334 A  
HETATM   18  C   UNL     1      -8.412  19.305  67.781  1.00  0.00    -0.340 A  
HETATM   19  C   UNL     1      -8.384  15.782  66.902  1.00  0.00    -0.248 A  
HETATM   20  C   UNL     1      -9.335  20.274  67.381  1.00  0.00    -0.531 A  
HETATM   21  C   UNL     1     -10.391  19.942  66.541  1.00  0.00    -0.608 A  
HETATM   22  N   UNL     1      -7.817  16.865  67.517  1.00  0.00    -0.166 NA 
HETATM   23  C   UNL     1      -8.581  17.988  67.318  1.00  0.00    -0.239 A  
HETATM   24  C   UNL     1      -6.577  16.835  68.262  1.00  0.00    -0.152 C  
HETATM   25  C   UNL     1      -9.656  17.613  66.497  1.00  0.00    -0.301 A  
HETATM   26  C   UNL     1     -10.566  18.621  66.105  1.00  0.00    -0.409 A  
ENDBRANCH  14  17
ENDBRANCH   9  11
ENDBRANCH   4   9
BRANCH   7  27
HETATM   27  N   UNL     1      -8.743   8.178  67.781  1.00  0.00    -0.130 N  
HETATM   28  O   UNL     1     -10.308   6.765  66.809  1.00  0.00    -0.230 OA 
HETATM   29  H   UNL     1      -7.767   8.232  68.070  1.00  0.00     0.000 HD 
HETATM   30  C   UNL     1      -9.215   6.968  67.324  1.00  0.00    -0.129 C  
BRANCH  30  31
HETATM   31  C   UNL     1      -8.195   5.891  67.434  1.00  0.00    -0.105 C  
HETATM   32  C   UNL     1      -7.860   5.406  68.636  1.00  0.00    -0.087 C  
ENDBRANCH  30  31
ENDBRANCH   7  27
BRANCH   5  33
HETATM   33  N   UNL     1     -10.318   8.802  70.146  1.00  0.00    -0.201 NA 
HETATM   34  C   UNL     1      -9.252   8.870  71.140  1.00  0.00    -0.256 C  
BRANCH  33  35
HETATM   35  C   UNL     1     -11.471   7.953  70.494  1.00  0.00    -0.195 C  
BRANCH  35  36
HETATM   36  C   UNL     1     -11.800   8.050  72.002  1.00  0.00    -0.326 C  
BRANCH  36  37
HETATM   37  N   UNL     1     -13.132   8.605  72.327  1.00  0.00    -0.373 NA 
HETATM   38  C   UNL     1     -14.156   7.773  71.683  1.00  0.00    -0.429 C  
HETATM   39  C   UNL     1     -13.268   9.989  71.864  1.00  0.00    -0.452 C  
ENDBRANCH  36  37
ENDBRANCH  35  36
ENDBRANCH  33  35
ENDBRANCH   5  33
ENDBRANCH   2   3
TORSDOF 10
ENDMDL
MODEL       29
REMARK 921   NORMALIZED FREE ENERGY PREDICTED BY IDOCK:   -6.52 KCAL/MOL
REMARK 922        TOTAL FREE ENERGY PREDICTED BY IDOCK:  -12.04 KCAL/MOL
REMARK 923 INTER-LIGAND FREE ENERGY PREDICTED BY IDOCK:  -10.66 KCAL/MOL
REMARK 924 INTRA-LIGAND FREE ENERGY PREDICTED BY IDOCK:   -1.39 KCAL/MOL
REMARK 927      BINDING AFFINITY PREDICTED BY RF-SCORE:    0.00 PKD
ROOT
HETATM    1  C   UNL     1     -10.175   9.393  66.904  1.00  0.00    -0.248 C  
HETATM    2  O   UNL     1     -10.514   9.237  68.278  1.00  0.00    -0.209 OA 
ENDROOT
BRANCH   2   3
HETATM    3  C   UNL     1     -11.082  10.316  68.911  1.00  0.00    -0.231 A  
HETATM    4  C   UNL     1     -11.901  10.293  70.041  1.00  0.00    -0.228 A  
HETATM    5  C   UNL     1     -11.276  12.795  68.767  1.00  0.00    -0.283 A  
HETATM    6  C   UNL     1     -12.251  11.524  70.609  1.00  0.00    -0.473 A  
HETATM    7  C   UNL     1     -12.010  12.744  69.966  1.00  0.00    -0.301 A  
HETATM    8  C   UNL     1     -10.763  11.556  68.315  1.00  0.00    -0.247 A  
BRANCH   4   9
HETATM    9  N   UNL     1     -12.391   9.105  70.612  1.00  0.00    -0.490 NA 
HETATM   10  H   UNL     1     -13.399   8.958  70.578  1.00  0.00     0.000 HD 
BRANCH   9  11
HETATM   11  C   UNL     1     -11.627   8.106  71.223  1.00  0.00    -0.273 A  
HETATM   12  N   UNL     1     -11.530   8.164  72.556  1.00  0.00    -0.396 NA 
HETATM   13  N   UNL     1     -11.071   7.132  70.479  1.00  0.00    -0.262 NA 
HETATM   14  C   UNL     1     -10.490   6.096  71.102  1.00  0.00    -0.230 A  
HETATM   15  C   UNL     1     -10.387   6.055  72.476  1.00  0.00    -0.222 A  
HETATM   16  C   UNL     1     -10.909   7.135  73.152  1.00  0.00    -0.335 A  
BRANCH  14  17
HETATM   17  C   UNL     1      -9.997   5.015  70.238  1.00  0.00    -0.325 A  
HETATM   18  C   UNL     1      -9.227   3.219  67.157  1.00  0.00    -0.214 A  
HETATM   19  C   UNL     1      -9.369   3.878  70.726  1.00  0.00    -0.144 A  
HETATM   20  C   UNL     1      -9.755   4.000  66.127  1.00  0.00    -0.198 A  
HETATM   21  C   UNL     1     -10.437   5.177  66.408  1.00  0.00    -0.356 A  
HETATM   22  N   UNL     1      -9.027   3.076  69.671  1.00  0.00    -0.089 NA 
HETATM   23  C   UNL     1      -9.400   3.654  68.483  1.00  0.00    -0.164 A  
HETATM   24  C   UNL     1      -8.376   1.790  69.791  1.00  0.00    -0.045 C  
HETATM   25  C   UNL     1     -10.054   4.856  68.800  1.00  0.00    -0.169 A  
HETATM   26  C   UNL     1     -10.582   5.617  67.732  1.00  0.00    -0.274 A  
ENDBRANCH  14  17
ENDBRANCH   9  11
ENDBRANCH   4   9
BRANCH   7  27
HETATM   27  N   UNL     1     -12.701  13.876  70.448  1.00  0.00    -0.271 N  
HETATM   28  O   UNL     1     -10.984  14.868  71.656  1.00  0.00    -0.100 OA 
HETATM   29  H   UNL     1     -13.664  14.014  70.140  1.00  0.00     0.000 HD 
HETATM   30  C   UNL     1     -12.157  14.805  71.306  1.00  0.00    -0.341 C  
BRANCH  30  31
HETATM   31  C   UNL     1     -13.149  15.831  71.723  1.00  0.00    -0.490 C  
HETATM   32  C   UNL     1     -13.782  15.713  72.897  1.00  0.00    -0.628 C  
ENDBRANCH  30  31
ENDBRANCH   7  27
BRANCH   5  33
HETATM   33  N   UNL     1     -11.057  13.972  68.050  1.00  0.00    -0.255 NA 
HETATM   34  C   UNL     1      -9.911  14.842  68.290  1.00  0.00    -0.218 C  
BRANCH  33  35
HETATM   35  C   UNL     1     -11.901  14.320  66.893  1.00  0.00    -0.433 C  
BRANCH  35  36
HETATM   36  C   UNL     1     -11.066  14.376  65.592  1.00  0.00    -0.321 C  
BRANCH  36  37
HETATM   37  N   UNL     1     -11.510  13.467  64.513  1.00  0.00    -0.356 NA 
HETATM   38  C   UNL     1     -12.654  12.685  64.999  1.00  0.00    -0.430 C  
HETATM   39  C   UNL     1     -10.439  12.556  64.100  1.00  0.00    -0.403 C  
ENDBRANCH  36  37
ENDBRANCH  35  36
ENDBRANCH  33  35
ENDBRANCH   5  33
ENDBRANCH   2   3
TORSDOF 10
ENDMDL
MODEL       30
REMARK 921   NORMALIZED FREE ENERGY PREDICTED BY IDOCK:   -6.47 KCAL/MOL
REMARK 922        TOTAL FREE ENERGY PREDICTED BY IDOCK:  -11.97 KCAL/MOL
REMARK 923 INTER-LIGAND FREE ENERGY PREDICTED BY IDOCK:   -9.80 KCAL/MOL
REMARK 924 INTRA-LIGAND FREE ENERGY PREDICTED BY IDOCK:   -2.17 KCAL/MOL
REMARK 927      BINDING AFFINITY PREDICTED BY RF-SCORE:    0.00 PKD
ROOT
HETATM    1  C   UNL     1      -7.491  12.370  68.186  1.00  0.00    -0.118 C  
HETATM    2  O   UNL     1      -7.284  11.801  66.897  1.00  0.00    -0.144 OA 
ENDROOT
BRANCH   2   3
HETATM    3  C   UNL     1      -7.897  10.599  66.635  1.00  0.00    -0.135 A  
HETATM    4  C   UNL     1      -8.758  10.308  65.575  1.00  0.00    -0.162 A  
HETATM    5  C   UNL     1      -8.137   8.285  67.524  1.00  0.00    -0.122 A  
HETATM    6  C   UNL     1      -9.154   8.975  65.415  1.00  0.00    -0.250 A  
HETATM    7  C   UNL     1      -8.915   7.997  66.387  1.00  0.00    -0.169 A  
HETATM    8  C   UNL     1      -7.582   9.587  67.566  1.00  0.00    -0.095 A  
BRANCH   4   9
HETATM    9  N   UNL     1      -9.244  11.285  64.688  1.00  0.00    -0.376 NA 
HETATM   10  H   UNL     1      -8.752  11.388  63.801  1.00  0.00     0.000 HD 
BRANCH   9  11
HETATM   11  C   UNL     1     -10.337  12.129  64.907  1.00  0.00    -0.289 A  
HETATM   12  N   UNL     1     -11.436  11.876  64.186  1.00  0.00    -0.369 NA 
HETATM   13  N   UNL     1     -10.262  13.104  65.831  1.00  0.00    -0.287 NA 
HETATM   14  C   UNL     1     -11.374  13.786  66.142  1.00  0.00    -0.314 A  
HETATM   15  C   UNL     1     -12.561  13.558  65.478  1.00  0.00    -0.531 A  
HETATM   16  C   UNL     1     -12.524  12.600  64.489  1.00  0.00    -0.448 A  
BRANCH  14  17
HETATM   17  C   UNL     1     -11.252  14.763  67.231  1.00  0.00    -0.351 A  
HETATM   18  C   UNL     1     -11.393  16.096  70.625  1.00  0.00    -0.394 A  
HETATM   19  C   UNL     1     -10.766  16.050  67.048  1.00  0.00    -0.277 A  
HETATM   20  C   UNL     1     -11.945  15.077  71.404  1.00  0.00    -0.397 A  
HETATM   21  C   UNL     1     -12.337  13.876  70.826  1.00  0.00    -0.449 A  
HETATM   22  N   UNL     1     -10.773  16.700  68.252  1.00  0.00    -0.338 NA 
HETATM   23  C   UNL     1     -11.241  15.875  69.244  1.00  0.00    -0.335 A  
HETATM   24  C   UNL     1     -10.359  18.072  68.451  1.00  0.00    -0.368 C  
HETATM   25  C   UNL     1     -11.595  14.661  68.634  1.00  0.00    -0.343 A  
HETATM   26  C   UNL     1     -12.158  13.655  69.452  1.00  0.00    -0.364 A  
ENDBRANCH  14  17
ENDBRANCH   9  11
ENDBRANCH   4   9
BRANCH   7  27
HETATM   27  N   UNL     1      -9.646   6.795  66.289  1.00  0.00    -0.366 N  
HETATM   28  O   UNL     1      -8.068   5.493  65.192  1.00  0.00    -0.111 OA 
HETATM   29  H   UNL     1     -10.567   6.759  66.726  1.00  0.00     0.000 HD 
HETATM   30  C   UNL     1      -9.195   5.667  65.641  1.00  0.00    -0.055 C  
BRANCH  30  31
HETATM   31  C   UNL     1     -10.219   4.590  65.611  1.00  0.00    -0.275 C  
HETATM   32  C   UNL     1     -10.478   3.944  64.468  1.00  0.00    -0.221 C  
ENDBRANCH  30  31
ENDBRANCH   7  27
BRANCH   5  33
HETATM   33  N   UNL     1      -7.915   7.372  68.555  1.00  0.00    -0.122 NA 
HETATM   34  C   UNL     1      -6.949   6.283  68.453  1.00  0.00    -0.080 C  
BRANCH  33  35
HETATM   35  C   UNL     1      -8.544   7.555  69.875  1.00  0.00    -0.139 C  
BRANCH  35  36
HETATM   36  C   UNL     1     -10.014   8.013  69.733  1.00  0.00    -0.191 C  
BRANCH  36  37
HETATM   37  N   UNL     1     -10.273   9.430  70.069  1.00  0.00    -0.212 NA 
HETATM   38  C   UNL     1     -11.119   9.481  71.267  1.00  0.00    -0.379 C  
HETATM   39  C   UNL     1     -10.943  10.132  68.970  1.00  0.00    -0.226 C  
ENDBRANCH  36  37
ENDBRANCH  35  36
ENDBRANCH  33  35
ENDBRANCH   5  33
ENDBRANCH   2   3
TORSDOF 10
ENDMDL
MODEL       31
REMARK 921   NORMALIZED FREE ENERGY PREDICTED BY IDOCK:   -6.47 KCAL/MOL
REMARK 922        TOTAL FREE ENERGY PREDICTED BY IDOCK:  -11.96 KCAL/MOL
REMARK 923 INTER-LIGAND FREE ENERGY PREDICTED BY IDOCK:  -10.48 KCAL/MOL
REMARK 924 INTRA-LIGAND FREE ENERGY PREDICTED BY IDOCK:   -1.48 KCAL/MOL
REMARK 927      BINDING AFFINITY PREDICTED BY RF-SCORE:    0.00 PKD
ROOT
HETATM    1  C   UNL     1      -9.830   9.746  65.858  1.00  0.00    -0.282 C  
HETATM    2  O   UNL     1     -10.535   9.397  67.045  1.00  0.00    -0.251 OA 
ENDROOT
BRANCH   2   3
HETATM    3  C   UNL     1     -11.066  10.426  67.784  1.00  0.00    -0.299 A  
HETATM    4  C   UNL     1     -11.471  10.379  69.120  1.00  0.00    -0.196 A  
HETATM    5  C   UNL     1     -11.753  12.814  67.614  1.00  0.00    -0.367 A  
HETATM    6  C   UNL     1     -11.848  11.587  69.721  1.00  0.00    -0.429 A  
HETATM    7  C   UNL     1     -12.052  12.761  68.988  1.00  0.00    -0.144 A  
HETATM    8  C   UNL     1     -11.187  11.637  67.069  1.00  0.00    -0.376 A  
BRANCH   4   9
HETATM    9  N   UNL     1     -11.527   9.189  69.866  1.00  0.00    -0.442 NA 
HETATM   10  H   UNL     1     -12.452   8.803  70.051  1.00  0.00     0.000 HD 
BRANCH   9  11
HETATM   11  C   UNL     1     -10.434   8.483  70.379  1.00  0.00    -0.207 A  
HETATM   12  N   UNL     1      -9.432   9.218  70.874  1.00  0.00    -0.270 NA 
HETATM   13  N   UNL     1     -10.447   7.138  70.394  1.00  0.00    -0.214 NA 
HETATM   14  C   UNL     1      -9.469   6.490  71.044  1.00  0.00    -0.164 A  
HETATM   15  C   UNL     1      -8.420   7.174  71.621  1.00  0.00    -0.114 A  
HETATM   16  C   UNL     1      -8.445   8.544  71.483  1.00  0.00    -0.170 A  
BRANCH  14  17
HETATM   17  C   UNL     1      -9.596   5.028  71.115  1.00  0.00    -0.226 A  
HETATM   18  C   UNL     1     -10.321   1.752  72.547  1.00  0.00    -0.226 A  
HETATM   19  C   UNL     1      -9.344   4.190  70.039  1.00  0.00    -0.167 A  
HETATM   20  C   UNL     1     -10.653   1.993  73.882  1.00  0.00    -0.215 A  
HETATM   21  C   UNL     1     -10.623   3.282  74.398  1.00  0.00    -0.221 A  
HETATM   22  N   UNL     1      -9.558   2.896  70.428  1.00  0.00    -0.131 NA 
HETATM   23  C   UNL     1      -9.961   2.846  71.740  1.00  0.00    -0.117 A  
HETATM   24  C   UNL     1      -9.372   1.738  69.581  1.00  0.00    -0.087 C  
HETATM   25  C   UNL     1      -9.954   4.164  72.221  1.00  0.00    -0.240 A  
HETATM   26  C   UNL     1     -10.287   4.370  73.579  1.00  0.00    -0.243 A  
ENDBRANCH  14  17
ENDBRANCH   9  11
ENDBRANCH   4   9
BRANCH   7  27
HETATM   27  N   UNL     1     -12.755  13.806  69.623  1.00  0.00    -0.205 N  
HETATM   28  O   UNL     1     -11.040  14.658  70.935  1.00  0.00    -0.103 OA 
HETATM   29  H   UNL     1     -13.724  13.967  69.347  1.00  0.00     0.000 HD 
HETATM   30  C   UNL     1     -12.216  14.621  70.592  1.00  0.00    -0.325 C  
BRANCH  30  31
HETATM   31  C   UNL     1     -13.218  15.565  71.152  1.00  0.00    -0.576 C  
HETATM   32  C   UNL     1     -13.573  15.479  72.440  1.00  0.00    -0.636 C  
ENDBRANCH  30  31
ENDBRANCH   7  27
BRANCH   5  33
HETATM   33  N   UNL     1     -11.993  13.935  66.818  1.00  0.00    -0.421 NA 
HETATM   34  C   UNL     1     -11.296  15.203  67.007  1.00  0.00    -0.277 C  
BRANCH  33  35
HETATM   35  C   UNL     1     -12.864  13.848  65.632  1.00  0.00    -0.424 C  
BRANCH  35  36
HETATM   36  C   UNL     1     -12.088  14.211  64.344  1.00  0.00    -0.463 C  
BRANCH  36  37
HETATM   37  N   UNL     1     -11.849  13.090  63.410  1.00  0.00    -0.524 NA 
HETATM   38  C   UNL     1     -12.867  12.059  63.643  1.00  0.00    -0.346 C  
HETATM   39  C   UNL     1     -10.517  12.508  63.595  1.00  0.00    -0.384 C  
ENDBRANCH  36  37
ENDBRANCH  35  36
ENDBRANCH  33  35
ENDBRANCH   5  33
ENDBRANCH   2   3
TORSDOF 10
ENDMDL
MODEL       32
REMARK 921   NORMALIZED FREE ENERGY PREDICTED BY IDOCK:   -6.46 KCAL/MOL
REMARK 922        TOTAL FREE ENERGY PREDICTED BY IDOCK:  -11.96 KCAL/MOL
REMARK 923 INTER-LIGAND FREE ENERGY PREDICTED BY IDOCK:  -10.42 KCAL/MOL
REMARK 924 INTRA-LIGAND FREE ENERGY PREDICTED BY IDOCK:   -1.54 KCAL/MOL
REMARK 927      BINDING AFFINITY PREDICTED BY RF-SCORE:    0.00 PKD
ROOT
HETATM    1  C   UNL     1      -9.493  10.644  63.905  1.00  0.00    -0.282 C  
HETATM    2  O   UNL     1     -10.649  10.965  64.672  1.00  0.00    -0.334 OA 
ENDROOT
BRANCH   2   3
HETATM    3  C   UNL     1     -10.620  10.656  66.010  1.00  0.00    -0.125 A  
HETATM    4  C   UNL     1     -11.341  11.278  67.032  1.00  0.00    -0.187 A  
HETATM    5  C   UNL     1      -9.530   9.129  67.648  1.00  0.00    -0.140 A  
HETATM    6  C   UNL     1     -11.272  10.706  68.309  1.00  0.00    -0.362 A  
HETATM    7  C   UNL     1     -10.349   9.706  68.636  1.00  0.00    -0.203 A  
HETATM    8  C   UNL     1      -9.757   9.585  66.328  1.00  0.00    -0.310 A  
BRANCH   4   9
HETATM    9  N   UNL     1     -12.107  12.441  66.836  1.00  0.00    -0.547 NA 
HETATM   10  H   UNL     1     -12.994  12.498  67.335  1.00  0.00     0.000 HD 
BRANCH   9  11
HETATM   11  C   UNL     1     -11.769  13.525  66.020  1.00  0.00    -0.359 A  
HETATM   12  N   UNL     1     -12.536  13.717  64.940  1.00  0.00    -0.631 NA 
HETATM   13  N   UNL     1     -10.749  14.332  66.360  1.00  0.00    -0.294 NA 
HETATM   14  C   UNL     1     -10.555  15.459  65.657  1.00  0.00    -0.364 A  
HETATM   15  C   UNL     1     -11.329  15.755  64.556  1.00  0.00    -0.324 A  
HETATM   16  C   UNL     1     -12.295  14.830  64.231  1.00  0.00    -0.320 A  
BRANCH  14  17
HETATM   17  C   UNL     1      -9.493  16.350  66.142  1.00  0.00    -0.363 A  
HETATM   18  C   UNL     1      -7.918  19.422  67.322  1.00  0.00    -0.292 A  
HETATM   19  C   UNL     1      -8.198  15.921  66.397  1.00  0.00    -0.228 A  
HETATM   20  C   UNL     1      -8.906  20.406  67.234  1.00  0.00    -0.444 A  
HETATM   21  C   UNL     1     -10.167  20.101  66.738  1.00  0.00    -0.562 A  
HETATM   22  N   UNL     1      -7.460  16.986  66.840  1.00  0.00    -0.189 NA 
HETATM   23  C   UNL     1      -8.234  18.118  66.900  1.00  0.00    -0.243 A  
HETATM   24  C   UNL     1      -6.056  16.930  67.183  1.00  0.00    -0.173 C  
HETATM   25  C   UNL     1      -9.508  17.770  66.427  1.00  0.00    -0.277 A  
HETATM   26  C   UNL     1     -10.480  18.792  66.344  1.00  0.00    -0.485 A  
ENDBRANCH  14  17
ENDBRANCH   9  11
ENDBRANCH   4   9
BRANCH   7  27
HETATM   27  N   UNL     1     -10.128   9.454  70.006  1.00  0.00    -0.210 N  
HETATM   28  O   UNL     1     -11.512   7.608  70.267  1.00  0.00    -0.237 OA 
HETATM   29  H   UNL     1      -9.446  10.033  70.495  1.00  0.00     0.000 HD 
HETATM   30  C   UNL     1     -10.777   8.475  70.725  1.00  0.00    -0.217 C  
BRANCH  30  31
HETATM   31  C   UNL     1     -10.419   8.509  72.167  1.00  0.00    -0.412 C  
HETATM   32  C   UNL     1     -11.004   7.662  73.023  1.00  0.00    -0.457 C  
ENDBRANCH  30  31
ENDBRANCH   7  27
BRANCH   5  33
HETATM   33  N   UNL     1      -8.551   8.174  67.924  1.00  0.00    -0.131 NA 
HETATM   34  C   UNL     1      -7.200   8.527  68.347  1.00  0.00    -0.085 C  
BRANCH  33  35
HETATM   35  C   UNL     1      -8.881   6.738  67.950  1.00  0.00    -0.118 C  
BRANCH  35  36
HETATM   36  C   UNL     1      -7.794   5.930  68.696  1.00  0.00    -0.102 C  
BRANCH  36  37
HETATM   37  N   UNL     1      -8.279   5.097  69.817  1.00  0.00    -0.088 NA 
HETATM   38  C   UNL     1      -9.693   4.778  69.588  1.00  0.00    -0.202 C  
HETATM   39  C   UNL     1      -8.139   5.787  71.103  1.00  0.00    -0.117 C  
ENDBRANCH  36  37
ENDBRANCH  35  36
ENDBRANCH  33  35
ENDBRANCH   5  33
ENDBRANCH   2   3
TORSDOF 10
ENDMDL
MODEL       33
REMARK 921   NORMALIZED FREE ENERGY PREDICTED BY IDOCK:   -6.45 KCAL/MOL
REMARK 922        TOTAL FREE ENERGY PREDICTED BY IDOCK:  -11.94 KCAL/MOL
REMARK 923 INTER-LIGAND FREE ENERGY PREDICTED BY IDOCK:  -10.30 KCAL/MOL
REMARK 924 INTRA-LIGAND FREE ENERGY PREDICTED BY IDOCK:   -1.64 KCAL/MOL
REMARK 927      BINDING AFFINITY PREDICTED BY RF-SCORE:    0.00 PKD
ROOT
HETATM    1  C   UNL     1     -13.884  15.217  72.397  1.00  0.00    -0.515 C  
HETATM    2  O   UNL     1     -13.551  13.845  72.580  1.00  0.00    -0.570 OA 
ENDROOT
BRANCH   2   3
HETATM    3  C   UNL     1     -12.900  13.214  71.548  1.00  0.00    -0.307 A  
HETATM    4  C   UNL     1     -12.807  11.838  71.329  1.00  0.00    -0.308 A  
HETATM    5  C   UNL     1     -11.516  13.673  69.529  1.00  0.00    -0.263 A  
HETATM    6  C   UNL     1     -12.220  11.414  70.131  1.00  0.00    -0.401 A  
HETATM    7  C   UNL     1     -11.532  12.288  69.281  1.00  0.00    -0.292 A  
HETATM    8  C   UNL     1     -12.283  14.100  70.639  1.00  0.00    -0.432 A  
BRANCH   4   9
HETATM    9  N   UNL     1     -13.260  10.879  72.254  1.00  0.00    -0.556 NA 
HETATM   10  H   UNL     1     -13.661  11.231  73.123  1.00  0.00     0.000 HD 
BRANCH   9  11
HETATM   11  C   UNL     1     -13.212   9.491  72.095  1.00  0.00    -0.451 A  
HETATM   12  N   UNL     1     -14.387   8.871  71.937  1.00  0.00    -0.337 NA 
HETATM   13  N   UNL     1     -12.026   8.856  72.065  1.00  0.00    -0.362 NA 
HETATM   14  C   UNL     1     -11.998   7.555  71.741  1.00  0.00    -0.301 A  
HETATM   15  C   UNL     1     -13.162   6.850  71.519  1.00  0.00    -0.322 A  
HETATM   16  C   UNL     1     -14.333   7.560  71.654  1.00  0.00    -0.477 A  
BRANCH  14  17
HETATM   17  C   UNL     1     -10.668   6.946  71.622  1.00  0.00    -0.246 A  
HETATM   18  C   UNL     1      -7.177   6.239  72.414  1.00  0.00    -0.084 A  
HETATM   19  C   UNL     1     -10.354   5.983  70.673  1.00  0.00    -0.222 A  
HETATM   20  C   UNL     1      -6.850   7.101  73.463  1.00  0.00    -0.069 A  
HETATM   21  C   UNL     1      -7.782   8.005  73.954  1.00  0.00    -0.231 A  
HETATM   22  N   UNL     1      -9.044   5.618  70.831  1.00  0.00    -0.143 NA 
HETATM   23  C   UNL     1      -8.473   6.306  71.872  1.00  0.00    -0.124 A  
HETATM   24  C   UNL     1      -8.352   4.653  70.005  1.00  0.00    -0.067 C  
HETATM   25  C   UNL     1      -9.449   7.185  72.368  1.00  0.00    -0.166 A  
HETATM   26  C   UNL     1      -9.080   8.048  73.424  1.00  0.00    -0.340 A  
ENDBRANCH  14  17
ENDBRANCH   9  11
ENDBRANCH   4   9
BRANCH   7  27
HETATM   27  N   UNL     1     -10.695  11.712  68.302  1.00  0.00    -0.202 N  
HETATM   28  O   UNL     1     -12.079  11.943  66.452  1.00  0.00    -0.552 OA 
HETATM   29  H   UNL     1      -9.760  11.417  68.586  1.00  0.00     0.000 HD 
HETATM   30  C   UNL     1     -11.060  11.523  66.988  1.00  0.00    -0.307 C  
BRANCH  30  31
HETATM   31  C   UNL     1     -10.015  10.802  66.214  1.00  0.00    -0.272 C  
HETATM   32  C   UNL     1      -9.180   9.962  66.836  1.00  0.00    -0.171 C  
ENDBRANCH  30  31
ENDBRANCH   7  27
BRANCH   5  33
HETATM   33  N   UNL     1     -10.798  14.584  68.753  1.00  0.00    -0.240 NA 
HETATM   34  C   UNL     1     -11.403  15.345  67.665  1.00  0.00    -0.290 C  
BRANCH  33  35
HETATM   35  C   UNL     1      -9.411  14.943  69.099  1.00  0.00    -0.158 C  
BRANCH  35  36
HETATM   36  C   UNL     1      -8.440  14.580  67.950  1.00  0.00    -0.161 C  
BRANCH  36  37
HETATM   37  N   UNL     1      -7.011  14.512  68.325  1.00  0.00    -0.100 NA 
HETATM   38  C   UNL     1      -6.649  13.106  68.542  1.00  0.00    -0.088 C  
HETATM   39  C   UNL     1      -6.735  15.279  69.543  1.00  0.00    -0.172 C  
ENDBRANCH  36  37
ENDBRANCH  35  36
ENDBRANCH  33  35
ENDBRANCH   5  33
ENDBRANCH   2   3
TORSDOF 10
ENDMDL
MODEL       34
REMARK 921   NORMALIZED FREE ENERGY PREDICTED BY IDOCK:   -6.44 KCAL/MOL
REMARK 922        TOTAL FREE ENERGY PREDICTED BY IDOCK:  -11.93 KCAL/MOL
REMARK 923 INTER-LIGAND FREE ENERGY PREDICTED BY IDOCK:  -10.37 KCAL/MOL
REMARK 924 INTRA-LIGAND FREE ENERGY PREDICTED BY IDOCK:   -1.55 KCAL/MOL
REMARK 927      BINDING AFFINITY PREDICTED BY RF-SCORE:    0.00 PKD
ROOT
HETATM    1  C   UNL     1     -10.974  10.740  66.963  1.00  0.00    -0.227 C  
HETATM    2  O   UNL     1     -11.790  10.845  68.125  1.00  0.00    -0.564 OA 
ENDROOT
BRANCH   2   3
HETATM    3  C   UNL     1     -11.311  10.278  69.282  1.00  0.00    -0.196 A  
HETATM    4  C   UNL     1     -11.860  10.387  70.561  1.00  0.00    -0.337 A  
HETATM    5  C   UNL     1      -9.444   8.879  70.153  1.00  0.00    -0.180 A  
HETATM    6  C   UNL     1     -11.291   9.605  71.574  1.00  0.00    -0.420 A  
HETATM    7  C   UNL     1     -10.082   8.921  71.407  1.00  0.00    -0.309 A  
HETATM    8  C   UNL     1     -10.140   9.512  69.096  1.00  0.00    -0.200 A  
BRANCH   4   9
HETATM    9  N   UNL     1     -12.932  11.243  70.868  1.00  0.00    -0.224 NA 
HETATM   10  H   UNL     1     -13.851  10.814  70.970  1.00  0.00     0.000 HD 
BRANCH   9  11
HETATM   11  C   UNL     1     -12.858  12.628  71.047  1.00  0.00    -0.166 A  
HETATM   12  N   UNL     1     -13.303  13.100  72.217  1.00  0.00    -0.531 NA 
HETATM   13  N   UNL     1     -12.323  13.404  70.087  1.00  0.00    -0.287 NA 
HETATM   14  C   UNL     1     -12.107  14.702  70.352  1.00  0.00    -0.319 A  
HETATM   15  C   UNL     1     -12.495  15.260  71.551  1.00  0.00    -0.430 A  
HETATM   16  C   UNL     1     -13.112  14.409  72.441  1.00  0.00    -0.415 A  
BRANCH  14  17
HETATM   17  C   UNL     1     -11.424  15.471  69.304  1.00  0.00    -0.349 A  
HETATM   18  C   UNL     1     -10.406  16.468  65.945  1.00  0.00    -0.365 A  
HETATM   19  C   UNL     1     -10.631  16.579  69.568  1.00  0.00    -0.321 A  
HETATM   20  C   UNL     1     -10.969  15.520  65.087  1.00  0.00    -0.422 A  
HETATM   21  C   UNL     1     -11.708  14.458  65.592  1.00  0.00    -0.356 A  
HETATM   22  N   UNL     1     -10.149  17.069  68.385  1.00  0.00    -0.283 NA 
HETATM   23  C   UNL     1     -10.609  16.322  67.329  1.00  0.00    -0.298 A  
HETATM   24  C   UNL     1      -9.264  18.207  68.263  1.00  0.00    -0.298 C  
HETATM   25  C   UNL     1     -11.379  15.279  67.869  1.00  0.00    -0.339 A  
HETATM   26  C   UNL     1     -11.926  14.335  66.972  1.00  0.00    -0.463 A  
ENDBRANCH  14  17
ENDBRANCH   9  11
ENDBRANCH   4   9
BRANCH   7  27
HETATM   27  N   UNL     1      -9.432   8.463  72.572  1.00  0.00    -0.288 N  
HETATM   28  O   UNL     1     -10.516   6.424  72.819  1.00  0.00    -0.198 OA 
HETATM   29  H   UNL     1      -8.681   9.035  72.957  1.00  0.00     0.000 HD 
HETATM   30  C   UNL     1      -9.748   7.291  73.221  1.00  0.00    -0.232 C  
BRANCH  30  31
HETATM   31  C   UNL     1      -8.968   7.117  74.475  1.00  0.00    -0.201 C  
HETATM   32  C   UNL     1      -7.651   7.356  74.484  1.00  0.00    -0.164 C  
ENDBRANCH  30  31
ENDBRANCH   7  27
BRANCH   5  33
HETATM   33  N   UNL     1      -8.209   8.266  69.939  1.00  0.00    -0.120 NA 
HETATM   34  C   UNL     1      -6.961   9.016  69.840  1.00  0.00    -0.052 C  
BRANCH  33  35
HETATM   35  C   UNL     1      -8.080   6.798  69.957  1.00  0.00    -0.125 C  
BRANCH  35  36
HETATM   36  C   UNL     1      -8.545   6.182  68.617  1.00  0.00    -0.113 C  
BRANCH  36  37
HETATM   37  N   UNL     1      -9.780   5.372  68.686  1.00  0.00    -0.130 NA 
HETATM   38  C   UNL     1      -9.581   4.144  67.907  1.00  0.00    -0.148 C  
HETATM   39  C   UNL     1     -10.935   6.102  68.154  1.00  0.00    -0.307 C  
ENDBRANCH  36  37
ENDBRANCH  35  36
ENDBRANCH  33  35
ENDBRANCH   5  33
ENDBRANCH   2   3
TORSDOF 10
ENDMDL
MODEL       35
REMARK 921   NORMALIZED FREE ENERGY PREDICTED BY IDOCK:   -6.44 KCAL/MOL
REMARK 922        TOTAL FREE ENERGY PREDICTED BY IDOCK:  -11.91 KCAL/MOL
REMARK 923 INTER-LIGAND FREE ENERGY PREDICTED BY IDOCK:   -9.78 KCAL/MOL
REMARK 924 INTRA-LIGAND FREE ENERGY PREDICTED BY IDOCK:   -2.14 KCAL/MOL
REMARK 927      BINDING AFFINITY PREDICTED BY RF-SCORE:    0.00 PKD
ROOT
HETATM    1  C   UNL     1     -13.745   9.258  72.369  1.00  0.00    -0.452 C  
HETATM    2  O   UNL     1     -13.012  10.353  71.829  1.00  0.00    -0.420 OA 
ENDROOT
BRANCH   2   3
HETATM    3  C   UNL     1     -11.954  10.054  71.005  1.00  0.00    -0.376 A  
HETATM    4  C   UNL     1     -11.341  10.905  70.082  1.00  0.00    -0.284 A  
HETATM    5  C   UNL     1     -10.423   8.194  70.374  1.00  0.00    -0.215 A  
HETATM    6  C   UNL     1     -10.181  10.440  69.449  1.00  0.00    -0.257 A  
HETATM    7  C   UNL     1      -9.762   9.108  69.531  1.00  0.00    -0.173 A  
HETATM    8  C   UNL     1     -11.472   8.736  71.154  1.00  0.00    -0.344 A  
BRANCH   4   9
HETATM    9  N   UNL     1     -11.842  12.178  69.759  1.00  0.00    -0.333 NA 
HETATM   10  H   UNL     1     -12.532  12.578  70.395  1.00  0.00     0.000 HD 
BRANCH   9  11
HETATM   11  C   UNL     1     -11.485  12.950  68.649  1.00  0.00    -0.308 A  
HETATM   12  N   UNL     1     -12.102  12.656  67.499  1.00  0.00    -0.416 NA 
HETATM   13  N   UNL     1     -10.596  13.951  68.782  1.00  0.00    -0.251 NA 
HETATM   14  C   UNL     1     -10.400  14.782  67.747  1.00  0.00    -0.244 A  
HETATM   15  C   UNL     1     -11.030  14.577  66.538  1.00  0.00    -0.321 A  
HETATM   16  C   UNL     1     -11.857  13.478  66.467  1.00  0.00    -0.399 A  
BRANCH  14  17
HETATM   17  C   UNL     1      -9.499  15.916  67.988  1.00  0.00    -0.206 A  
HETATM   18  C   UNL     1      -8.405  19.389  68.224  1.00  0.00    -0.379 A  
HETATM   19  C   UNL     1      -8.198  15.770  68.447  1.00  0.00    -0.151 A  
HETATM   20  C   UNL     1      -9.481  20.152  67.765  1.00  0.00    -0.479 A  
HETATM   21  C   UNL     1     -10.643  19.539  67.314  1.00  0.00    -0.610 A  
HETATM   22  N   UNL     1      -7.633  17.010  68.573  1.00  0.00    -0.220 NA 
HETATM   23  C   UNL     1      -8.529  17.988  68.221  1.00  0.00    -0.287 A  
HETATM   24  C   UNL     1      -6.274  17.256  69.004  1.00  0.00    -0.209 C  
HETATM   25  C   UNL     1      -9.702  17.339  67.804  1.00  0.00    -0.270 A  
HETATM   26  C   UNL     1     -10.767  18.142  67.339  1.00  0.00    -0.355 A  
ENDBRANCH  14  17
ENDBRANCH   9  11
ENDBRANCH   4   9
BRANCH   7  27
HETATM   27  N   UNL     1      -8.802   8.673  68.594  1.00  0.00    -0.141 N  
HETATM   28  O   UNL     1      -6.879   9.026  69.847  1.00  0.00    -0.044 OA 
HETATM   29  H   UNL     1      -9.136   8.291  67.709  1.00  0.00     0.000 HD 
HETATM   30  C   UNL     1      -7.442   8.732  68.799  1.00  0.00    -0.084 C  
BRANCH  30  31
HETATM   31  C   UNL     1      -6.675   8.301  67.600  1.00  0.00    -0.062 C  
HETATM   32  C   UNL     1      -6.705   9.039  66.484  1.00  0.00    -0.075 C  
ENDBRANCH  30  31
ENDBRANCH   7  27
BRANCH   5  33
HETATM   33  N   UNL     1     -10.090   6.841  70.451  1.00  0.00    -0.183 NA 
HETATM   34  C   UNL     1      -9.038   6.334  71.326  1.00  0.00    -0.146 C  
BRANCH  33  35
HETATM   35  C   UNL     1     -10.899   5.823  69.757  1.00  0.00    -0.349 C  
BRANCH  35  36
HETATM   36  C   UNL     1     -10.073   5.108  68.661  1.00  0.00    -0.150 C  
BRANCH  36  37
HETATM   37  N   UNL     1      -9.765   5.923  67.466  1.00  0.00    -0.111 NA 
HETATM   38  C   UNL     1     -11.021   6.447  66.918  1.00  0.00    -0.341 C  
HETATM   39  C   UNL     1      -9.077   5.135  66.439  1.00  0.00    -0.131 C  
ENDBRANCH  36  37
ENDBRANCH  35  36
ENDBRANCH  33  35
ENDBRANCH   5  33
ENDBRANCH   2   3
TORSDOF 10
ENDMDL
MODEL       36
REMARK 921   NORMALIZED FREE ENERGY PREDICTED BY IDOCK:   -6.41 KCAL/MOL
REMARK 922        TOTAL FREE ENERGY PREDICTED BY IDOCK:  -11.87 KCAL/MOL
REMARK 923 INTER-LIGAND FREE ENERGY PREDICTED BY IDOCK:  -10.96 KCAL/MOL
REMARK 924 INTRA-LIGAND FREE ENERGY PREDICTED BY IDOCK:   -0.91 KCAL/MOL
REMARK 927      BINDING AFFINITY PREDICTED BY RF-SCORE:    0.00 PKD
ROOT
HETATM    1  C   UNL     1     -12.978  10.377  71.470  1.00  0.00    -0.458 C  
HETATM    2  O   UNL     1     -11.755  10.419  70.741  1.00  0.00    -0.321 OA 
ENDROOT
BRANCH   2   3
HETATM    3  C   UNL     1     -11.703  11.253  69.651  1.00  0.00    -0.350 A  
HETATM    4  C   UNL     1     -11.487  10.884  68.321  1.00  0.00    -0.305 A  
HETATM    5  C   UNL     1     -11.838  13.655  69.010  1.00  0.00    -0.352 A  
HETATM    6  C   UNL     1     -11.620  11.882  67.347  1.00  0.00    -0.367 A  
HETATM    7  C   UNL     1     -11.725  13.240  67.670  1.00  0.00    -0.366 A  
HETATM    8  C   UNL     1     -11.900  12.614  69.966  1.00  0.00    -0.358 A  
BRANCH   4   9
HETATM    9  N   UNL     1     -11.136   9.580  67.931  1.00  0.00    -0.515 NA 
HETATM   10  H   UNL     1     -11.819   9.066  67.375  1.00  0.00     0.000 HD 
BRANCH   9  11
HETATM   11  C   UNL     1      -9.941   8.920  68.234  1.00  0.00    -0.175 A  
HETATM   12  N   UNL     1      -8.826   9.444  67.712  1.00  0.00    -0.123 NA 
HETATM   13  N   UNL     1      -9.950   7.847  69.044  1.00  0.00    -0.182 NA 
HETATM   14  C   UNL     1      -8.779   7.338  69.456  1.00  0.00    -0.134 A  
HETATM   15  C   UNL     1      -7.581   7.846  69.001  1.00  0.00    -0.099 A  
HETATM   16  C   UNL     1      -7.669   8.891  68.108  1.00  0.00    -0.100 A  
BRANCH  14  17
HETATM   17  C   UNL     1      -8.856   6.235  70.422  1.00  0.00    -0.147 A  
HETATM   18  C   UNL     1      -9.604   4.509  73.548  1.00  0.00    -0.133 A  
HETATM   19  C   UNL     1      -8.455   4.939  70.130  1.00  0.00    -0.087 A  
HETATM   20  C   UNL     1     -10.089   5.494  74.412  1.00  0.00    -0.282 A  
HETATM   21  C   UNL     1     -10.166   6.819  74.004  1.00  0.00    -0.399 A  
HETATM   22  N   UNL     1      -8.660   4.155  71.232  1.00  0.00    -0.094 NA 
HETATM   23  C   UNL     1      -9.201   4.892  72.256  1.00  0.00    -0.130 A  
HETATM   24  C   UNL     1      -8.337   2.747  71.314  1.00  0.00    -0.062 C  
HETATM   25  C   UNL     1      -9.298   6.216  71.801  1.00  0.00    -0.159 A  
HETATM   26  C   UNL     1      -9.786   7.187  72.705  1.00  0.00    -0.186 A  
ENDBRANCH  14  17
ENDBRANCH   9  11
ENDBRANCH   4   9
BRANCH   7  27
HETATM   27  N   UNL     1     -11.503  14.170  66.633  1.00  0.00    -0.350 N  
HETATM   28  O   UNL     1     -13.213  13.532  65.197  1.00  0.00    -0.720 OA 
HETATM   29  H   UNL     1     -10.770  14.866  66.764  1.00  0.00     0.000 HD 
HETATM   30  C   UNL     1     -12.216  14.196  65.455  1.00  0.00    -0.432 C  
BRANCH  30  31
HETATM   31  C   UNL     1     -11.696  15.218  64.509  1.00  0.00    -0.306 C  
HETATM   32  C   UNL     1     -10.860  16.169  64.942  1.00  0.00    -0.353 C  
ENDBRANCH  30  31
ENDBRANCH   7  27
BRANCH   5  33
HETATM   33  N   UNL     1     -11.884  14.995  69.397  1.00  0.00    -0.318 NA 
HETATM   34  C   UNL     1     -11.080  16.031  68.756  1.00  0.00    -0.338 C  
BRANCH  33  35
HETATM   35  C   UNL     1     -12.872  15.464  70.384  1.00  0.00    -0.311 C  
BRANCH  35  36
HETATM   36  C   UNL     1     -12.195  15.805  71.732  1.00  0.00    -0.452 C  
BRANCH  36  37
HETATM   37  N   UNL     1     -12.456  14.853  72.833  1.00  0.00    -0.367 NA 
HETATM   38  C   UNL     1     -13.758  14.215  72.603  1.00  0.00    -0.462 C  
HETATM   39  C   UNL     1     -12.467  15.525  74.136  1.00  0.00    -0.662 C  
ENDBRANCH  36  37
ENDBRANCH  35  36
ENDBRANCH  33  35
ENDBRANCH   5  33
ENDBRANCH   2   3
TORSDOF 10
ENDMDL
MODEL       37
REMARK 921   NORMALIZED FREE ENERGY PREDICTED BY IDOCK:   -6.40 KCAL/MOL
REMARK 922        TOTAL FREE ENERGY PREDICTED BY IDOCK:  -11.85 KCAL/MOL
REMARK 923 INTER-LIGAND FREE ENERGY PREDICTED BY IDOCK:  -10.31 KCAL/MOL
REMARK 924 INTRA-LIGAND FREE ENERGY PREDICTED BY IDOCK:   -1.54 KCAL/MOL
REMARK 927      BINDING AFFINITY PREDICTED BY RF-SCORE:    0.00 PKD
ROOT
HETATM    1  C   UNL     1     -12.472  12.237  63.624  1.00  0.00    -0.541 C  
HETATM    2  O   UNL     1     -12.775  12.253  65.015  1.00  0.00    -0.581 OA 
ENDROOT
BRANCH   2   3
HETATM    3  C   UNL     1     -11.753  12.572  65.876  1.00  0.00    -0.426 A  
HETATM    4  C   UNL     1     -10.585  11.842  66.101  1.00  0.00    -0.260 A  
HETATM    5  C   UNL     1     -11.062  14.278  67.553  1.00  0.00    -0.298 A  
HETATM    6  C   UNL     1      -9.606  12.426  66.914  1.00  0.00    -0.219 A  
HETATM    7  C   UNL     1      -9.850  13.574  67.677  1.00  0.00    -0.228 A  
HETATM    8  C   UNL     1     -11.958  13.779  66.578  1.00  0.00    -0.470 A  
BRANCH   4   9
HETATM    9  N   UNL     1     -10.362  10.562  65.563  1.00  0.00    -0.251 NA 
HETATM   10  H   UNL     1     -10.532  10.446  64.564  1.00  0.00     0.000 HD 
BRANCH   9  11
HETATM   11  C   UNL     1      -9.931   9.433  66.266  1.00  0.00    -0.283 A  
HETATM   12  N   UNL     1      -8.903   8.760  65.736  1.00  0.00    -0.184 NA 
HETATM   13  N   UNL     1     -10.516   9.101  67.431  1.00  0.00    -0.266 NA 
HETATM   14  C   UNL     1      -9.974   8.120  68.169  1.00  0.00    -0.186 A  
HETATM   15  C   UNL     1      -8.886   7.404  67.717  1.00  0.00    -0.128 A  
HETATM   16  C   UNL     1      -8.405   7.757  66.476  1.00  0.00    -0.128 A  
BRANCH  14  17
HETATM   17  C   UNL     1     -10.595   7.876  69.477  1.00  0.00    -0.220 A  
HETATM   18  C   UNL     1     -11.417   6.117  72.567  1.00  0.00    -0.318 A  
HETATM   19  C   UNL     1     -11.399   8.804  70.123  1.00  0.00    -0.090 A  
HETATM   20  C   UNL     1     -10.809   4.865  72.457  1.00  0.00    -0.234 A  
HETATM   21  C   UNL     1     -10.102   4.518  71.313  1.00  0.00    -0.225 A  
HETATM   22  N   UNL     1     -11.812   8.276  71.316  1.00  0.00    -0.285 NA 
HETATM   23  C   UNL     1     -11.294   7.017  71.493  1.00  0.00    -0.258 A  
HETATM   24  C   UNL     1     -12.686   8.945  72.255  1.00  0.00    -0.397 C  
HETATM   25  C   UNL     1     -10.558   6.711  70.337  1.00  0.00    -0.266 A  
HETATM   26  C   UNL     1      -9.962   5.432  70.258  1.00  0.00    -0.298 A  
ENDBRANCH  14  17
ENDBRANCH   9  11
ENDBRANCH   4   9
BRANCH   7  27
HETATM   27  N   UNL     1      -8.935  13.871  68.708  1.00  0.00    -0.371 N  
HETATM   28  O   UNL     1      -7.419  15.148  67.498  1.00  0.00    -0.163 OA 
HETATM   29  H   UNL     1      -9.155  13.548  69.650  1.00  0.00     0.000 HD 
HETATM   30  C   UNL     1      -7.764  14.571  68.523  1.00  0.00    -0.129 C  
BRANCH  30  31
HETATM   31  C   UNL     1      -6.952  14.644  69.766  1.00  0.00    -0.130 C  
HETATM   32  C   UNL     1      -5.941  15.517  69.856  1.00  0.00    -0.149 C  
ENDBRANCH  30  31
ENDBRANCH   7  27
BRANCH   5  33
HETATM   33  N   UNL     1     -11.386  15.392  68.330  1.00  0.00    -0.334 NA 
HETATM   34  C   UNL     1     -10.836  16.719  68.076  1.00  0.00    -0.341 C  
BRANCH  33  35
HETATM   35  C   UNL     1     -12.433  15.313  69.364  1.00  0.00    -0.037 C  
BRANCH  35  36
HETATM   36  C   UNL     1     -12.053  14.295  70.465  1.00  0.00    -0.343 C  
BRANCH  36  37
HETATM   37  N   UNL     1     -12.540  14.617  71.823  1.00  0.00    -0.326 NA 
HETATM   38  C   UNL     1     -13.871  15.228  71.712  1.00  0.00    -0.521 C  
HETATM   39  C   UNL     1     -11.638  15.541  72.516  1.00  0.00    -0.430 C  
ENDBRANCH  36  37
ENDBRANCH  35  36
ENDBRANCH  33  35
ENDBRANCH   5  33
ENDBRANCH   2   3
TORSDOF 10
ENDMDL
MODEL       38
REMARK 921   NORMALIZED FREE ENERGY PREDICTED BY IDOCK:   -6.38 KCAL/MOL
REMARK 922        TOTAL FREE ENERGY PREDICTED BY IDOCK:  -11.82 KCAL/MOL
REMARK 923 INTER-LIGAND FREE ENERGY PREDICTED BY IDOCK:  -10.26 KCAL/MOL
REMARK 924 INTRA-LIGAND FREE ENERGY PREDICTED BY IDOCK:   -1.56 KCAL/MOL
REMARK 927      BINDING AFFINITY PREDICTED BY RF-SCORE:    0.00 PKD
ROOT
HETATM    1  C   UNL     1      -7.839   8.549  64.257  1.00  0.00    -0.142 C  
HETATM    2  O   UNL     1      -8.185   9.892  64.579  1.00  0.00    -0.144 OA 
ENDROOT
BRANCH   2   3
HETATM    3  C   UNL     1      -9.102  10.079  65.585  1.00  0.00    -0.183 A  
HETATM    4  C   UNL     1     -10.281  10.824  65.519  1.00  0.00    -0.266 A  
HETATM    5  C   UNL     1      -9.538   9.515  67.971  1.00  0.00    -0.137 A  
HETATM    6  C   UNL     1     -11.145  10.760  66.620  1.00  0.00    -0.107 A  
HETATM    7  C   UNL     1     -10.769  10.185  67.839  1.00  0.00    -0.269 A  
HETATM    8  C   UNL     1      -8.767   9.422  66.788  1.00  0.00    -0.138 A  
BRANCH   4   9
HETATM    9  N   UNL     1     -10.622  11.629  64.419  1.00  0.00    -0.300 NA 
HETATM   10  H   UNL     1     -10.656  11.174  63.507  1.00  0.00     0.000 HD 
BRANCH   9  11
HETATM   11  C   UNL     1     -10.919  12.995  64.455  1.00  0.00    -0.374 A  
HETATM   12  N   UNL     1     -12.060  13.370  63.865  1.00  0.00    -0.554 NA 
HETATM   13  N   UNL     1     -10.098  13.847  65.095  1.00  0.00    -0.334 NA 
HETATM   14  C   UNL     1     -10.491  15.119  65.263  1.00  0.00    -0.409 A  
HETATM   15  C   UNL     1     -11.674  15.578  64.724  1.00  0.00    -0.187 A  
HETATM   16  C   UNL     1     -12.410  14.657  64.012  1.00  0.00    -0.132 A  
BRANCH  14  17
HETATM   17  C   UNL     1      -9.600  15.971  66.061  1.00  0.00    -0.385 A  
HETATM   18  C   UNL     1      -8.380  18.977  67.731  1.00  0.00    -0.318 A  
HETATM   19  C   UNL     1      -8.445  15.504  66.671  1.00  0.00    -0.279 A  
HETATM   20  C   UNL     1      -9.279  19.988  67.385  1.00  0.00    -0.477 A  
HETATM   21  C   UNL     1     -10.345  19.727  66.534  1.00  0.00    -0.621 A  
HETATM   22  N   UNL     1      -7.849  16.539  67.339  1.00  0.00    -0.150 NA 
HETATM   23  C   UNL     1      -8.583  17.690  67.201  1.00  0.00    -0.227 A  
HETATM   24  C   UNL     1      -6.608  16.439  68.075  1.00  0.00    -0.135 C  
HETATM   25  C   UNL     1      -9.670  17.385  66.366  1.00  0.00    -0.303 A  
HETATM   26  C   UNL     1     -10.555  18.435  66.031  1.00  0.00    -0.339 A  
ENDBRANCH  14  17
ENDBRANCH   9  11
ENDBRANCH   4   9
BRANCH   7  27
HETATM   27  N   UNL     1     -11.564  10.480  68.966  1.00  0.00    -0.439 N  
HETATM   28  O   UNL     1     -11.110  12.750  69.151  1.00  0.00    -0.242 OA 
HETATM   29  H   UNL     1     -12.136   9.732  69.357  1.00  0.00     0.000 HD 
HETATM   30  C   UNL     1     -11.616  11.716  69.571  1.00  0.00    -0.331 C  
BRANCH  30  31
HETATM   31  C   UNL     1     -12.459  11.705  70.796  1.00  0.00    -0.425 C  
HETATM   32  C   UNL     1     -12.876  12.858  71.332  1.00  0.00    -0.377 C  
ENDBRANCH  30  31
ENDBRANCH   7  27
BRANCH   5  33
HETATM   33  N   UNL     1      -9.082   8.976  69.175  1.00  0.00    -0.139 NA 
HETATM   34  C   UNL     1      -8.357   9.762  70.169  1.00  0.00    -0.175 C  
BRANCH  33  35
HETATM   35  C   UNL     1      -9.449   7.607  69.578  1.00  0.00    -0.152 C  
BRANCH  35  36
HETATM   36  C   UNL     1     -10.938   7.528  69.989  1.00  0.00    -0.240 C  
BRANCH  36  37
HETATM   37  N   UNL     1     -11.298   8.265  71.219  1.00  0.00    -0.259 NA 
HETATM   38  C   UNL     1     -10.499   7.737  72.333  1.00  0.00    -0.263 C  
HETATM   39  C   UNL     1     -12.722   8.127  71.535  1.00  0.00    -0.308 C  
ENDBRANCH  36  37
ENDBRANCH  35  36
ENDBRANCH  33  35
ENDBRANCH   5  33
ENDBRANCH   2   3
TORSDOF 10
ENDMDL
MODEL       39
REMARK 921   NORMALIZED FREE ENERGY PREDICTED BY IDOCK:   -6.38 KCAL/MOL
REMARK 922        TOTAL FREE ENERGY PREDICTED BY IDOCK:  -11.82 KCAL/MOL
REMARK 923 INTER-LIGAND FREE ENERGY PREDICTED BY IDOCK:   -9.93 KCAL/MOL
REMARK 924 INTRA-LIGAND FREE ENERGY PREDICTED BY IDOCK:   -1.89 KCAL/MOL
REMARK 927      BINDING AFFINITY PREDICTED BY RF-SCORE:    0.00 PKD
ROOT
HETATM    1  C   UNL     1      -6.182  14.185  70.079  1.00  0.00    -0.151 C  
HETATM    2  O   UNL     1      -6.495  12.918  69.511  1.00  0.00    -0.116 OA 
ENDROOT
BRANCH   2   3
HETATM    3  C   UNL     1      -7.413  12.898  68.488  1.00  0.00    -0.123 A  
HETATM    4  C   UNL     1      -7.726  11.817  67.661  1.00  0.00    -0.137 A  
HETATM    5  C   UNL     1      -9.035  14.350  67.279  1.00  0.00    -0.212 A  
HETATM    6  C   UNL     1      -8.800  11.973  66.777  1.00  0.00    -0.198 A  
HETATM    7  C   UNL     1      -9.401  13.214  66.535  1.00  0.00    -0.216 A  
HETATM    8  C   UNL     1      -8.085  14.125  68.304  1.00  0.00    -0.146 A  
BRANCH   4   9
HETATM    9  N   UNL     1      -7.009  10.607  67.672  1.00  0.00    -0.078 NA 
HETATM   10  H   UNL     1      -6.001  10.667  67.532  1.00  0.00     0.000 HD 
BRANCH   9  11
HETATM   11  C   UNL     1      -7.548   9.330  67.854  1.00  0.00    -0.084 A  
HETATM   12  N   UNL     1      -7.002   8.346  67.130  1.00  0.00    -0.073 NA 
HETATM   13  N   UNL     1      -8.532   9.135  68.751  1.00  0.00    -0.128 NA 
HETATM   14  C   UNL     1      -8.911   7.879  69.030  1.00  0.00    -0.145 A  
HETATM   15  C   UNL     1      -8.368   6.803  68.361  1.00  0.00    -0.123 A  
HETATM   16  C   UNL     1      -7.428   7.103  67.400  1.00  0.00    -0.100 A  
BRANCH  14  17
HETATM   17  C   UNL     1      -9.914   7.727  70.092  1.00  0.00    -0.186 A  
HETATM   18  C   UNL     1     -12.716   8.595  72.262  1.00  0.00    -0.450 A  
HETATM   19  C   UNL     1     -10.051   6.572  70.849  1.00  0.00    -0.185 A  
HETATM   20  C   UNL     1     -13.049   9.911  71.934  1.00  0.00    -0.559 A  
HETATM   21  C   UNL     1     -12.325  10.607  70.975  1.00  0.00    -0.507 A  
HETATM   22  N   UNL     1     -11.072   6.748  71.742  1.00  0.00    -0.235 NA 
HETATM   23  C   UNL     1     -11.634   7.992  71.595  1.00  0.00    -0.275 A  
HETATM   24  C   UNL     1     -11.494   5.766  72.718  1.00  0.00    -0.255 C  
HETATM   25  C   UNL     1     -10.904   8.656  70.597  1.00  0.00    -0.265 A  
HETATM   26  C   UNL     1     -11.264   9.989  70.297  1.00  0.00    -0.379 A  
ENDBRANCH  14  17
ENDBRANCH   9  11
ENDBRANCH   4   9
BRANCH   7  27
HETATM   27  N   UNL     1     -10.221  13.323  65.392  1.00  0.00    -0.344 N  
HETATM   28  O   UNL     1     -12.220  12.569  66.301  1.00  0.00    -0.600 OA 
HETATM   29  H   UNL     1      -9.811  13.719  64.546  1.00  0.00     0.000 HD 
HETATM   30  C   UNL     1     -11.539  12.928  65.347  1.00  0.00    -0.350 C  
BRANCH  30  31
HETATM   31  C   UNL     1     -12.120  13.067  63.986  1.00  0.00    -0.519 C  
HETATM   32  C   UNL     1     -12.428  11.977  63.274  1.00  0.00    -0.544 C  
ENDBRANCH  30  31
ENDBRANCH   7  27
BRANCH   5  33
HETATM   33  N   UNL     1      -9.553  15.624  67.042  1.00  0.00    -0.220 NA 
HETATM   34  C   UNL     1      -8.887  16.601  66.187  1.00  0.00    -0.288 C  
BRANCH  33  35
HETATM   35  C   UNL     1     -10.894  15.997  67.526  1.00  0.00    -0.292 C  
BRANCH  35  36
HETATM   36  C   UNL     1     -10.878  16.279  69.047  1.00  0.00    -0.315 C  
BRANCH  36  37
HETATM   37  N   UNL     1     -11.933  15.599  69.829  1.00  0.00    -0.361 NA 
HETATM   38  C   UNL     1     -11.769  15.953  71.245  1.00  0.00    -0.448 C  
HETATM   39  C   UNL     1     -11.860  14.143  69.681  1.00  0.00    -0.324 C  
ENDBRANCH  36  37
ENDBRANCH  35  36
ENDBRANCH  33  35
ENDBRANCH   5  33
ENDBRANCH   2   3
TORSDOF 10
ENDMDL
MODEL       40
REMARK 921   NORMALIZED FREE ENERGY PREDICTED BY IDOCK:   -6.34 KCAL/MOL
REMARK 922        TOTAL FREE ENERGY PREDICTED BY IDOCK:  -11.76 KCAL/MOL
REMARK 923 INTER-LIGAND FREE ENERGY PREDICTED BY IDOCK:  -10.08 KCAL/MOL
REMARK 924 INTRA-LIGAND FREE ENERGY PREDICTED BY IDOCK:   -1.68 KCAL/MOL
REMARK 927      BINDING AFFINITY PREDICTED BY RF-SCORE:    0.00 PKD
ROOT
HETATM    1  C   UNL     1      -7.736   9.691  70.430  1.00  0.00    -0.160 C  
HETATM    2  O   UNL     1      -7.889   8.276  70.451  1.00  0.00    -0.084 OA 
ENDROOT
BRANCH   2   3
HETATM    3  C   UNL     1      -8.626   7.709  69.439  1.00  0.00    -0.136 A  
HETATM    4  C   UNL     1      -9.953   7.280  69.506  1.00  0.00    -0.170 A  
HETATM    5  C   UNL     1      -8.461   6.976  67.065  1.00  0.00    -0.121 A  
HETATM    6  C   UNL     1     -10.557   6.867  68.311  1.00  0.00    -0.258 A  
HETATM    7  C   UNL     1      -9.829   6.652  67.136  1.00  0.00    -0.151 A  
HETATM    8  C   UNL     1      -7.918   7.577  68.225  1.00  0.00    -0.123 A  
BRANCH   4   9
HETATM    9  N   UNL     1     -10.689   7.235  70.703  1.00  0.00    -0.231 NA 
HETATM   10  H   UNL     1     -10.490   6.461  71.337  1.00  0.00     0.000 HD 
BRANCH   9  11
HETATM   11  C   UNL     1     -11.666   8.149  71.108  1.00  0.00    -0.283 A  
HETATM   12  N   UNL     1     -12.551   7.711  72.011  1.00  0.00    -0.282 NA 
HETATM   13  N   UNL     1     -11.657   9.404  70.623  1.00  0.00    -0.274 NA 
HETATM   14  C   UNL     1     -12.496  10.307  71.153  1.00  0.00    -0.391 A  
HETATM   15  C   UNL     1     -13.411   9.949  72.121  1.00  0.00    -0.498 A  
HETATM   16  C   UNL     1     -13.406   8.624  72.496  1.00  0.00    -0.292 A  
BRANCH  14  17
HETATM   17  C   UNL     1     -12.365  11.682  70.656  1.00  0.00    -0.437 A  
HETATM   18  C   UNL     1     -12.609  15.323  70.645  1.00  0.00    -0.471 A  
HETATM   19  C   UNL     1     -11.774  11.999  69.442  1.00  0.00    -0.340 A  
HETATM   20  C   UNL     1     -13.282  15.656  71.823  1.00  0.00    -0.548 A  
HETATM   21  C   UNL     1     -13.728  14.666  72.689  1.00  0.00    -0.545 A  
HETATM   22  N   UNL     1     -11.804  13.357  69.278  1.00  0.00    -0.319 NA 
HETATM   23  C   UNL     1     -12.392  13.963  70.361  1.00  0.00    -0.363 A  
HETATM   24  C   UNL     1     -11.300  14.059  68.117  1.00  0.00    -0.292 C  
HETATM   25  C   UNL     1     -12.799  12.939  71.231  1.00  0.00    -0.361 A  
HETATM   26  C   UNL     1     -13.484  13.313  72.409  1.00  0.00    -0.670 A  
ENDBRANCH  14  17
ENDBRANCH   9  11
ENDBRANCH   4   9
BRANCH   7  27
HETATM   27  N   UNL     1     -10.459   5.915  66.111  1.00  0.00    -0.461 N  
HETATM   28  O   UNL     1      -9.780   3.781  66.724  1.00  0.00    -0.208 OA 
HETATM   29  H   UNL     1     -11.048   6.422  65.451  1.00  0.00     0.000 HD 
HETATM   30  C   UNL     1     -10.327   4.555  65.947  1.00  0.00    -0.258 C  
BRANCH  30  31
HETATM   31  C   UNL     1     -11.020   4.068  64.725  1.00  0.00    -0.003 C  
HETATM   32  C   UNL     1     -10.332   3.422  63.776  1.00  0.00    -0.236 C  
ENDBRANCH  30  31
ENDBRANCH   7  27
BRANCH   5  33
HETATM   33  N   UNL     1      -7.670   6.728  65.942  1.00  0.00    -0.090 NA 
HETATM   34  C   UNL     1      -6.716   5.626  65.876  1.00  0.00    -0.056 C  
BRANCH  33  35
HETATM   35  C   UNL     1      -7.872   7.484  64.693  1.00  0.00    -0.130 C  
BRANCH  35  36
HETATM   36  C   UNL     1      -8.108   8.985  64.983  1.00  0.00    -0.137 C  
BRANCH  36  37
HETATM   37  N   UNL     1      -9.473   9.479  64.701  1.00  0.00    -0.163 NA 
HETATM   38  C   UNL     1      -9.390  10.535  63.685  1.00  0.00    -0.289 C  
HETATM   39  C   UNL     1     -10.114  10.013  65.906  1.00  0.00    -0.249 C  
ENDBRANCH  36  37
ENDBRANCH  35  36
ENDBRANCH  33  35
ENDBRANCH   5  33
ENDBRANCH   2   3
TORSDOF 10
ENDMDL
MODEL       41
REMARK 921   NORMALIZED FREE ENERGY PREDICTED BY IDOCK:   -6.32 KCAL/MOL
REMARK 922        TOTAL FREE ENERGY PREDICTED BY IDOCK:  -11.74 KCAL/MOL
REMARK 923 INTER-LIGAND FREE ENERGY PREDICTED BY IDOCK:  -10.04 KCAL/MOL
REMARK 924 INTRA-LIGAND FREE ENERGY PREDICTED BY IDOCK:   -1.70 KCAL/MOL
REMARK 927      BINDING AFFINITY PREDICTED BY RF-SCORE:    0.00 PKD
ROOT
HETATM    1  C   UNL     1      -9.403  10.298  63.823  1.00  0.00    -0.295 C  
HETATM    2  O   UNL     1     -10.499  10.806  64.578  1.00  0.00    -0.357 OA 
ENDROOT
BRANCH   2   3
HETATM    3  C   UNL     1     -10.502  10.552  65.928  1.00  0.00    -0.153 A  
HETATM    4  C   UNL     1     -11.298  11.168  66.897  1.00  0.00    -0.090 A  
HETATM    5  C   UNL     1      -9.385   9.161  67.665  1.00  0.00    -0.135 A  
HETATM    6  C   UNL     1     -11.243  10.651  68.198  1.00  0.00    -0.366 A  
HETATM    7  C   UNL     1     -10.275   9.724  68.599  1.00  0.00    -0.190 A  
HETATM    8  C   UNL     1      -9.588   9.551  66.320  1.00  0.00    -0.287 A  
BRANCH   4   9
HETATM    9  N   UNL     1     -12.125  12.272  66.625  1.00  0.00    -0.589 NA 
HETATM   10  H   UNL     1     -13.086  12.221  66.960  1.00  0.00     0.000 HD 
BRANCH   9  11
HETATM   11  C   UNL     1     -11.755  13.432  65.939  1.00  0.00    -0.356 A  
HETATM   12  N   UNL     1     -12.359  13.645  64.765  1.00  0.00    -0.515 NA 
HETATM   13  N   UNL     1     -10.869  14.285  66.485  1.00  0.00    -0.300 NA 
HETATM   14  C   UNL     1     -10.661  15.469  65.890  1.00  0.00    -0.339 A  
HETATM   15  C   UNL     1     -11.277  15.787  64.699  1.00  0.00    -0.373 A  
HETATM   16  C   UNL     1     -12.103  14.820  64.170  1.00  0.00    -0.299 A  
BRANCH  14  17
HETATM   17  C   UNL     1      -9.763  16.397  66.590  1.00  0.00    -0.272 A  
HETATM   18  C   UNL     1      -8.437  19.576  67.793  1.00  0.00    -0.352 A  
HETATM   19  C   UNL     1      -8.685  15.979  67.356  1.00  0.00    -0.180 A  
HETATM   20  C   UNL     1      -9.238  20.560  67.209  1.00  0.00    -0.500 A  
HETATM   21  C   UNL     1     -10.266  20.214  66.341  1.00  0.00    -0.552 A  
HETATM   22  N   UNL     1      -8.059  17.080  67.875  1.00  0.00    -0.191 NA 
HETATM   23  C   UNL     1      -8.699  18.229  67.483  1.00  0.00    -0.254 A  
HETATM   24  C   UNL     1      -6.877  17.040  68.707  1.00  0.00    -0.199 C  
HETATM   25  C   UNL     1      -9.751  17.844  66.637  1.00  0.00    -0.319 A  
HETATM   26  C   UNL     1     -10.536  18.867  66.058  1.00  0.00    -0.507 A  
ENDBRANCH  14  17
ENDBRANCH   9  11
ENDBRANCH   4   9
BRANCH   7  27
HETATM   27  N   UNL     1     -10.091   9.540  69.985  1.00  0.00    -0.224 N  
HETATM   28  O   UNL     1     -11.335   7.599  70.265  1.00  0.00    -0.262 OA 
HETATM   29  H   UNL     1      -9.477  10.189  70.477  1.00  0.00     0.000 HD 
HETATM   30  C   UNL     1     -10.690   8.539  70.716  1.00  0.00    -0.217 C  
BRANCH  30  31
HETATM   31  C   UNL     1     -10.395   8.652  72.169  1.00  0.00    -0.403 C  
HETATM   32  C   UNL     1     -10.629   7.616  72.983  1.00  0.00    -0.433 C  
ENDBRANCH  30  31
ENDBRANCH   7  27
BRANCH   5  33
HETATM   33  N   UNL     1      -8.360   8.280  68.015  1.00  0.00    -0.128 NA 
HETATM   34  C   UNL     1      -8.536   6.832  68.036  1.00  0.00    -0.122 C  
BRANCH  33  35
HETATM   35  C   UNL     1      -6.987   8.767  68.235  1.00  0.00    -0.073 C  
BRANCH  35  36
HETATM   36  C   UNL     1      -5.978   8.009  67.341  1.00  0.00    -0.050 C  
BRANCH  36  37
HETATM   37  N   UNL     1      -5.616   8.686  66.077  1.00  0.00    -0.041 NA 
HETATM   38  C   UNL     1      -5.858  10.126  66.230  1.00  0.00    -0.065 C  
HETATM   39  C   UNL     1      -6.403   8.179  64.949  1.00  0.00    -0.049 C  
ENDBRANCH  36  37
ENDBRANCH  35  36
ENDBRANCH  33  35
ENDBRANCH   5  33
ENDBRANCH   2   3
TORSDOF 10
ENDMDL
MODEL       42
REMARK 921   NORMALIZED FREE ENERGY PREDICTED BY IDOCK:   -6.32 KCAL/MOL
REMARK 922        TOTAL FREE ENERGY PREDICTED BY IDOCK:  -11.72 KCAL/MOL
REMARK 923 INTER-LIGAND FREE ENERGY PREDICTED BY IDOCK:  -11.33 KCAL/MOL
REMARK 924 INTRA-LIGAND FREE ENERGY PREDICTED BY IDOCK:   -0.40 KCAL/MOL
REMARK 927      BINDING AFFINITY PREDICTED BY RF-SCORE:    0.00 PKD
ROOT
HETATM    1  C   UNL     1     -10.307  10.124  67.200  1.00  0.00    -0.238 C  
HETATM    2  O   UNL     1     -11.532  10.064  67.923  1.00  0.00    -0.210 OA 
ENDROOT
BRANCH   2   3
HETATM    3  C   UNL     1     -11.759  11.048  68.856  1.00  0.00    -0.330 A  
HETATM    4  C   UNL     1     -12.231  10.878  70.159  1.00  0.00    -0.343 A  
HETATM    5  C   UNL     1     -11.665  13.517  69.164  1.00  0.00    -0.327 A  
HETATM    6  C   UNL     1     -12.249  12.005  70.989  1.00  0.00    -0.245 A  
HETATM    7  C   UNL     1     -12.040  13.301  70.503  1.00  0.00    -0.314 A  
HETATM    8  C   UNL     1     -11.461  12.348  68.394  1.00  0.00    -0.356 A  
BRANCH   4   9
HETATM    9  N   UNL     1     -12.692   9.646  70.655  1.00  0.00    -0.526 NA 
HETATM   10  H   UNL     1     -13.701   9.497  70.656  1.00  0.00     0.000 HD 
BRANCH   9  11
HETATM   11  C   UNL     1     -11.900   8.605  71.150  1.00  0.00    -0.287 A  
HETATM   12  N   UNL     1     -11.739   8.560  72.477  1.00  0.00    -0.362 NA 
HETATM   13  N   UNL     1     -11.380   7.694  70.307  1.00  0.00    -0.230 NA 
HETATM   14  C   UNL     1     -10.770   6.615  70.819  1.00  0.00    -0.238 A  
HETATM   15  C   UNL     1     -10.601   6.468  72.179  1.00  0.00    -0.240 A  
HETATM   16  C   UNL     1     -11.090   7.491  72.962  1.00  0.00    -0.362 A  
BRANCH  14  17
HETATM   17  C   UNL     1     -10.319   5.606  69.851  1.00  0.00    -0.347 A  
HETATM   18  C   UNL     1      -9.209   2.364  68.599  1.00  0.00    -0.228 A  
HETATM   19  C   UNL     1     -10.197   5.857  68.493  1.00  0.00    -0.192 A  
HETATM   20  C   UNL     1      -9.084   1.550  69.728  1.00  0.00    -0.144 A  
HETATM   21  C   UNL     1      -9.338   2.055  70.997  1.00  0.00    -0.200 A  
HETATM   22  N   UNL     1      -9.763   4.718  67.871  1.00  0.00    -0.153 NA 
HETATM   23  C   UNL     1      -9.601   3.702  68.780  1.00  0.00    -0.089 A  
HETATM   24  C   UNL     1      -9.496   4.603  66.453  1.00  0.00    -0.166 C  
HETATM   25  C   UNL     1      -9.898   4.234  70.045  1.00  0.00    -0.275 A  
HETATM   26  C   UNL     1      -9.753   3.384  71.165  1.00  0.00    -0.222 A  
ENDBRANCH  14  17
ENDBRANCH   9  11
ENDBRANCH   4   9
BRANCH   7  27
HETATM   27  N   UNL     1     -12.420  14.373  71.338  1.00  0.00    -0.341 N  
HETATM   28  O   UNL     1     -14.275  13.410  72.350  1.00  0.00    -0.637 OA 
HETATM   29  H   UNL     1     -11.827  15.203  71.349  1.00  0.00     0.000 HD 
HETATM   30  C   UNL     1     -13.541  14.368  72.137  1.00  0.00    -0.435 C  
BRANCH  30  31
HETATM   31  C   UNL     1     -13.743  15.670  72.826  1.00  0.00    -0.662 C  
HETATM   32  C   UNL     1     -12.888  16.065  73.777  1.00  0.00    -0.690 C  
ENDBRANCH  30  31
ENDBRANCH   7  27
BRANCH   5  33
HETATM   33  N   UNL     1     -11.503  14.786  68.608  1.00  0.00    -0.287 NA 
HETATM   34  C   UNL     1     -10.823  15.874  69.303  1.00  0.00    -0.276 C  
BRANCH  33  35
HETATM   35  C   UNL     1     -11.881  15.052  67.208  1.00  0.00    -0.145 C  
BRANCH  35  36
HETATM   36  C   UNL     1     -10.638  15.052  66.287  1.00  0.00    -0.307 C  
BRANCH  36  37
HETATM   37  N   UNL     1     -10.894  14.695  64.875  1.00  0.00    -0.411 NA 
HETATM   38  C   UNL     1     -11.962  15.560  64.358  1.00  0.00    -0.183 C  
HETATM   39  C   UNL     1     -11.296  13.292  64.737  1.00  0.00    -0.327 C  
ENDBRANCH  36  37
ENDBRANCH  35  36
ENDBRANCH  33  35
ENDBRANCH   5  33
ENDBRANCH   2   3
TORSDOF 10
ENDMDL
MODEL       43
REMARK 921   NORMALIZED FREE ENERGY PREDICTED BY IDOCK:   -6.32 KCAL/MOL
REMARK 922        TOTAL FREE ENERGY PREDICTED BY IDOCK:  -11.72 KCAL/MOL
REMARK 923 INTER-LIGAND FREE ENERGY PREDICTED BY IDOCK:  -10.33 KCAL/MOL
REMARK 924 INTRA-LIGAND FREE ENERGY PREDICTED BY IDOCK:   -1.39 KCAL/MOL
REMARK 927      BINDING AFFINITY PREDICTED BY RF-SCORE:    0.00 PKD
ROOT
HETATM    1  C   UNL     1     -14.347   7.642  71.571  1.00  0.00    -0.452 C  
HETATM    2  O   UNL     1     -13.511   8.533  72.301  1.00  0.00    -0.348 OA 
ENDROOT
BRANCH   2   3
HETATM    3  C   UNL     1     -12.170   8.522  72.003  1.00  0.00    -0.366 A  
HETATM    4  C   UNL     1     -11.505   9.345  71.091  1.00  0.00    -0.352 A  
HETATM    5  C   UNL     1     -10.049   7.337  72.547  1.00  0.00    -0.187 A  
HETATM    6  C   UNL     1     -10.108   9.264  71.051  1.00  0.00    -0.373 A  
HETATM    7  C   UNL     1      -9.394   8.251  71.701  1.00  0.00    -0.192 A  
HETATM    8  C   UNL     1     -11.435   7.560  72.728  1.00  0.00    -0.352 A  
BRANCH   4   9
HETATM    9  N   UNL     1     -12.172  10.226  70.221  1.00  0.00    -0.433 NA 
HETATM   10  H   UNL     1     -12.461   9.851  69.318  1.00  0.00     0.000 HD 
BRANCH   9  11
HETATM   11  C   UNL     1     -12.477  11.566  70.476  1.00  0.00    -0.280 A  
HETATM   12  N   UNL     1     -13.143  11.819  71.608  1.00  0.00    -0.415 NA 
HETATM   13  N   UNL     1     -12.067  12.524  69.625  1.00  0.00    -0.251 NA 
HETATM   14  C   UNL     1     -12.222  13.810  69.976  1.00  0.00    -0.342 A  
HETATM   15  C   UNL     1     -12.858  14.157  71.148  1.00  0.00    -0.431 A  
HETATM   16  C   UNL     1     -13.320  13.112  71.917  1.00  0.00    -0.455 A  
BRANCH  14  17
HETATM   17  C   UNL     1     -11.659  14.805  69.055  1.00  0.00    -0.324 A  
HETATM   18  C   UNL     1     -10.627  16.295  65.888  1.00  0.00    -0.307 A  
HETATM   19  C   UNL     1     -11.191  16.044  69.467  1.00  0.00    -0.348 A  
HETATM   20  C   UNL     1     -10.861  15.315  64.920  1.00  0.00    -0.444 A  
HETATM   21  C   UNL     1     -11.357  14.068  65.280  1.00  0.00    -0.321 A  
HETATM   22  N   UNL     1     -10.742  16.733  68.373  1.00  0.00    -0.348 NA 
HETATM   23  C   UNL     1     -10.909  15.988  67.231  1.00  0.00    -0.255 A  
HETATM   24  C   UNL     1     -10.157  18.055  68.414  1.00  0.00    -0.387 C  
HETATM   25  C   UNL     1     -11.443  14.751  67.624  1.00  0.00    -0.363 A  
HETATM   26  C   UNL     1     -11.660  13.781  66.619  1.00  0.00    -0.392 A  
ENDBRANCH  14  17
ENDBRANCH   9  11
ENDBRANCH   4   9
BRANCH   7  27
HETATM   27  N   UNL     1      -8.051   8.057  71.316  1.00  0.00    -0.098 N  
HETATM   28  O   UNL     1      -7.002   9.087  73.114  1.00  0.00    -0.332 OA 
HETATM   29  H   UNL     1      -7.870   7.519  70.469  1.00  0.00     0.000 HD 
HETATM   30  C   UNL     1      -6.970   8.549  72.013  1.00  0.00    -0.087 C  
BRANCH  30  31
HETATM   31  C   UNL     1      -5.685   8.277  71.318  1.00  0.00    -0.034 C  
HETATM   32  C   UNL     1      -5.588   8.452  69.994  1.00  0.00    -0.025 C  
ENDBRANCH  30  31
ENDBRANCH   7  27
BRANCH   5  33
HETATM   33  N   UNL     1      -9.402   6.270  73.173  1.00  0.00    -0.135 NA 
HETATM   34  C   UNL     1      -8.847   6.363  74.519  1.00  0.00    -0.158 C  
BRANCH  33  35
HETATM   35  C   UNL     1      -9.382   4.932  72.557  1.00  0.00    -0.135 C  
BRANCH  35  36
HETATM   36  C   UNL     1     -10.505   4.037  73.132  1.00  0.00    -0.175 C  
BRANCH  36  37
HETATM   37  N   UNL     1     -10.293   2.581  72.989  1.00  0.00    -0.140 NA 
HETATM   38  C   UNL     1      -9.794   2.310  71.634  1.00  0.00    -0.148 C  
HETATM   39  C   UNL     1     -11.532   1.830  73.209  1.00  0.00    -0.146 C  
ENDBRANCH  36  37
ENDBRANCH  35  36
ENDBRANCH  33  35
ENDBRANCH   5  33
ENDBRANCH   2   3
TORSDOF 10
ENDMDL
MODEL       44
REMARK 921   NORMALIZED FREE ENERGY PREDICTED BY IDOCK:   -6.31 KCAL/MOL
REMARK 922        TOTAL FREE ENERGY PREDICTED BY IDOCK:  -11.72 KCAL/MOL
REMARK 923 INTER-LIGAND FREE ENERGY PREDICTED BY IDOCK:  -10.16 KCAL/MOL
REMARK 924 INTRA-LIGAND FREE ENERGY PREDICTED BY IDOCK:   -1.56 KCAL/MOL
REMARK 927      BINDING AFFINITY PREDICTED BY RF-SCORE:    0.00 PKD
ROOT
HETATM    1  C   UNL     1      -6.783   8.853  65.554  1.00  0.00    -0.072 C  
HETATM    2  O   UNL     1      -8.120   8.897  65.066  1.00  0.00    -0.121 OA 
ENDROOT
BRANCH   2   3
HETATM    3  C   UNL     1      -9.084   9.379  65.918  1.00  0.00    -0.195 A  
HETATM    4  C   UNL     1      -9.994  10.407  65.662  1.00  0.00    -0.272 A  
HETATM    5  C   UNL     1      -9.992   9.086  68.218  1.00  0.00    -0.173 A  
HETATM    6  C   UNL     1     -10.990  10.638  66.619  1.00  0.00    -0.144 A  
HETATM    7  C   UNL     1     -10.962  10.052  67.890  1.00  0.00    -0.252 A  
HETATM    8  C   UNL     1      -9.116   8.724  67.167  1.00  0.00    -0.155 A  
BRANCH   4   9
HETATM    9  N   UNL     1      -9.942  11.211  64.510  1.00  0.00    -0.272 NA 
HETATM   10  H   UNL     1      -9.357  10.881  63.743  1.00  0.00     0.000 HD 
BRANCH   9  11
HETATM   11  C   UNL     1     -10.616  12.421  64.316  1.00  0.00    -0.363 A  
HETATM   12  N   UNL     1     -11.779  12.354  63.660  1.00  0.00    -0.472 NA 
HETATM   13  N   UNL     1     -10.109  13.563  64.816  1.00  0.00    -0.299 NA 
HETATM   14  C   UNL     1     -10.854  14.677  64.767  1.00  0.00    -0.385 A  
HETATM   15  C   UNL     1     -12.085  14.685  64.147  1.00  0.00    -0.346 A  
HETATM   16  C   UNL     1     -12.487  13.492  63.588  1.00  0.00    -0.207 A  
BRANCH  14  17
HETATM   17  C   UNL     1     -10.290  15.863  65.423  1.00  0.00    -0.399 A  
HETATM   18  C   UNL     1      -8.023  17.844  67.484  1.00  0.00    -0.217 A  
HETATM   19  C   UNL     1     -10.796  17.143  65.246  1.00  0.00    -0.036 A  
HETATM   20  C   UNL     1      -7.147  16.925  68.065  1.00  0.00    -0.163 A  
HETATM   21  C   UNL     1      -7.284  15.564  67.823  1.00  0.00    -0.177 A  
HETATM   22  N   UNL     1     -10.048  18.019  65.985  1.00  0.00    -0.553 NA 
HETATM   23  C   UNL     1      -9.042  17.359  66.646  1.00  0.00    -0.258 A  
HETATM   24  C   UNL     1     -10.292  19.443  66.071  1.00  0.00    -0.497 C  
HETATM   25  C   UNL     1      -9.188  15.993  66.353  1.00  0.00    -0.339 A  
HETATM   26  C   UNL     1      -8.288  15.091  66.966  1.00  0.00    -0.254 A  
ENDBRANCH  14  17
ENDBRANCH   9  11
ENDBRANCH   4   9
BRANCH   7  27
HETATM   27  N   UNL     1     -11.799  10.611  68.878  1.00  0.00    -0.506 N  
HETATM   28  O   UNL     1     -10.795  12.697  69.070  1.00  0.00    -0.222 OA 
HETATM   29  H   UNL     1     -12.595  10.061  69.198  1.00  0.00     0.000 HD 
HETATM   30  C   UNL     1     -11.607  11.855  69.437  1.00  0.00    -0.325 C  
BRANCH  30  31
HETATM   31  C   UNL     1     -12.583  12.138  70.522  1.00  0.00    -0.184 C  
HETATM   32  C   UNL     1     -12.875  11.192  71.424  1.00  0.00    -0.544 C  
ENDBRANCH  30  31
ENDBRANCH   7  27
BRANCH   5  33
HETATM   33  N   UNL     1      -9.877   8.513  69.485  1.00  0.00    -0.184 NA 
HETATM   34  C   UNL     1      -9.052   9.090  70.541  1.00  0.00    -0.221 C  
BRANCH  33  35
HETATM   35  C   UNL     1     -10.715   7.365  69.875  1.00  0.00    -0.243 C  
BRANCH  35  36
HETATM   36  C   UNL     1     -11.567   7.696  71.123  1.00  0.00    -0.280 C  
BRANCH  36  37
HETATM   37  N   UNL     1     -11.398   6.776  72.268  1.00  0.00    -0.264 NA 
HETATM   38  C   UNL     1     -10.733   7.501  73.358  1.00  0.00    -0.332 C  
HETATM   39  C   UNL     1     -10.599   5.602  71.905  1.00  0.00    -0.232 C  
ENDBRANCH  36  37
ENDBRANCH  35  36
ENDBRANCH  33  35
ENDBRANCH   5  33
ENDBRANCH   2   3
TORSDOF 10
ENDMDL
MODEL       45
REMARK 921   NORMALIZED FREE ENERGY PREDICTED BY IDOCK:   -6.29 KCAL/MOL
REMARK 922        TOTAL FREE ENERGY PREDICTED BY IDOCK:  -11.69 KCAL/MOL
REMARK 923 INTER-LIGAND FREE ENERGY PREDICTED BY IDOCK:  -10.39 KCAL/MOL
REMARK 924 INTRA-LIGAND FREE ENERGY PREDICTED BY IDOCK:   -1.30 KCAL/MOL
REMARK 927      BINDING AFFINITY PREDICTED BY RF-SCORE:    0.00 PKD
ROOT
HETATM    1  C   UNL     1     -10.416  11.570  65.842  1.00  0.00    -0.255 C  
HETATM    2  O   UNL     1     -11.594  11.649  66.637  1.00  0.00    -0.493 OA 
ENDROOT
BRANCH   2   3
HETATM    3  C   UNL     1     -11.505  12.334  67.825  1.00  0.00    -0.329 A  
HETATM    4  C   UNL     1     -11.918  11.891  69.083  1.00  0.00    -0.276 A  
HETATM    5  C   UNL     1     -10.773  14.513  68.782  1.00  0.00    -0.253 A  
HETATM    6  C   UNL     1     -11.597  12.694  70.185  1.00  0.00    -0.141 A  
HETATM    7  C   UNL     1     -11.102  13.996  70.049  1.00  0.00     0.080 A  
HETATM    8  C   UNL     1     -10.921  13.612  67.701  1.00  0.00    -0.283 A  
BRANCH   4   9
HETATM    9  N   UNL     1     -12.641  10.701  69.282  1.00  0.00    -0.683 NA 
HETATM   10  H   UNL     1     -13.260  10.407  68.527  1.00  0.00     0.000 HD 
BRANCH   9  11
HETATM   11  C   UNL     1     -12.592   9.884  70.415  1.00  0.00    -0.000 A  
HETATM   12  N   UNL     1     -13.541  10.088  71.335  1.00  0.00    -0.254 NA 
HETATM   13  N   UNL     1     -11.651   8.927  70.516  1.00  0.00    -0.213 NA 
HETATM   14  C   UNL     1     -11.730   8.049  71.527  1.00  0.00    -0.284 A  
HETATM   15  C   UNL     1     -12.704   8.161  72.495  1.00  0.00    -0.159 A  
HETATM   16  C   UNL     1     -13.573   9.220  72.358  1.00  0.00    -0.463 A  
BRANCH  14  17
HETATM   17  C   UNL     1     -10.738   6.966  71.522  1.00  0.00    -0.248 A  
HETATM   18  C   UNL     1      -9.261   3.715  72.271  1.00  0.00    -0.164 A  
HETATM   19  C   UNL     1      -9.544   7.032  70.819  1.00  0.00    -0.164 A  
HETATM   20  C   UNL     1     -10.156   3.089  73.141  1.00  0.00    -0.208 A  
HETATM   21  C   UNL     1     -11.310   3.740  73.560  1.00  0.00    -0.245 A  
HETATM   22  N   UNL     1      -8.851   5.868  71.016  1.00  0.00    -0.138 NA 
HETATM   23  C   UNL     1      -9.558   5.016  71.828  1.00  0.00    -0.154 A  
HETATM   24  C   UNL     1      -7.547   5.580  70.459  1.00  0.00    -0.084 C  
HETATM   25  C   UNL     1     -10.731   5.688  72.204  1.00  0.00    -0.287 A  
HETATM   26  C   UNL     1     -11.610   5.028  73.092  1.00  0.00    -0.299 A  
ENDBRANCH  14  17
ENDBRANCH   9  11
ENDBRANCH   4   9
BRANCH   7  27
HETATM   27  N   UNL     1     -11.145  14.826  71.188  1.00  0.00    -0.539 N  
HETATM   28  O   UNL     1     -13.415  15.314  71.202  1.00  0.00    -0.461 OA 
HETATM   29  H   UNL     1     -10.283  14.956  71.718  1.00  0.00     0.000 HD 
HETATM   30  C   UNL     1     -12.278  15.472  71.630  1.00  0.00    -0.399 C  
BRANCH  30  31
HETATM   31  C   UNL     1     -12.001  16.357  72.792  1.00  0.00    -0.585 C  
HETATM   32  C   UNL     1     -12.466  16.035  74.006  1.00  0.00    -0.742 C  
ENDBRANCH  30  31
ENDBRANCH   7  27
BRANCH   5  33
HETATM   33  N   UNL     1     -10.335  15.822  68.578  1.00  0.00    -0.224 NA 
HETATM   34  C   UNL     1     -11.249  16.932  68.328  1.00  0.00    -0.105 C  
BRANCH  33  35
HETATM   35  C   UNL     1      -8.917  16.181  68.758  1.00  0.00    -0.236 C  
BRANCH  35  36
HETATM   36  C   UNL     1      -8.657  17.648  68.342  1.00  0.00    -0.284 C  
BRANCH  36  37
HETATM   37  N   UNL     1      -7.854  17.827  67.113  1.00  0.00    -0.206 NA 
HETATM   38  C   UNL     1      -8.310  19.042  66.427  1.00  0.00    -0.307 C  
HETATM   39  C   UNL     1      -7.986  16.680  66.211  1.00  0.00    -0.305 C  
ENDBRANCH  36  37
ENDBRANCH  35  36
ENDBRANCH  33  35
ENDBRANCH   5  33
ENDBRANCH   2   3
TORSDOF 10
ENDMDL
MODEL       46
REMARK 921   NORMALIZED FREE ENERGY PREDICTED BY IDOCK:   -6.28 KCAL/MOL
REMARK 922        TOTAL FREE ENERGY PREDICTED BY IDOCK:  -11.66 KCAL/MOL
REMARK 923 INTER-LIGAND FREE ENERGY PREDICTED BY IDOCK:   -9.90 KCAL/MOL
REMARK 924 INTRA-LIGAND FREE ENERGY PREDICTED BY IDOCK:   -1.77 KCAL/MOL
REMARK 927      BINDING AFFINITY PREDICTED BY RF-SCORE:    0.00 PKD
ROOT
HETATM    1  C   UNL     1      -7.368  11.097  69.183  1.00  0.00    -0.115 C  
HETATM    2  O   UNL     1      -8.200  10.116  69.795  1.00  0.00    -0.172 OA 
ENDROOT
BRANCH   2   3
HETATM    3  C   UNL     1      -8.796   9.195  68.968  1.00  0.00    -0.139 A  
HETATM    4  C   UNL     1      -9.860   8.347  69.284  1.00  0.00    -0.186 A  
HETATM    5  C   UNL     1      -8.659   8.242  66.672  1.00  0.00    -0.129 A  
HETATM    6  C   UNL     1     -10.410   7.589  68.243  1.00  0.00    -0.233 A  
HETATM    7  C   UNL     1      -9.798   7.478  66.989  1.00  0.00    -0.214 A  
HETATM    8  C   UNL     1      -8.237   9.148  67.673  1.00  0.00    -0.108 A  
BRANCH   4   9
HETATM    9  N   UNL     1     -10.382   8.218  70.583  1.00  0.00    -0.197 NA 
HETATM   10  H   UNL     1      -9.880   7.602  71.222  1.00  0.00     0.000 HD 
BRANCH   9  11
HETATM   11  C   UNL     1     -11.523   8.852  71.082  1.00  0.00    -0.301 A  
HETATM   12  N   UNL     1     -12.373   8.086  71.776  1.00  0.00    -0.306 NA 
HETATM   13  N   UNL     1     -11.699  10.172  70.890  1.00  0.00    -0.350 NA 
HETATM   14  C   UNL     1     -12.710  10.788  71.522  1.00  0.00    -0.431 A  
HETATM   15  C   UNL     1     -13.607  10.079  72.293  1.00  0.00    -0.282 A  
HETATM   16  C   UNL     1     -13.398   8.720  72.365  1.00  0.00    -0.399 A  
BRANCH  14  17
HETATM   17  C   UNL     1     -12.786  12.245  71.356  1.00  0.00    -0.351 A  
HETATM   18  C   UNL     1     -12.353  15.507  69.780  1.00  0.00    -0.261 A  
HETATM   19  C   UNL     1     -13.401  13.083  72.274  1.00  0.00    -0.506 A  
HETATM   20  C   UNL     1     -11.623  15.265  68.614  1.00  0.00    -0.370 A  
HETATM   21  C   UNL     1     -11.200  13.980  68.297  1.00  0.00    -0.293 A  
HETATM   22  N   UNL     1     -13.306  14.373  71.826  1.00  0.00    -0.342 NA 
HETATM   23  C   UNL     1     -12.650  14.419  70.621  1.00  0.00    -0.357 A  
HETATM   24  C   UNL     1     -13.812  15.531  72.532  1.00  0.00    -0.576 C  
HETATM   25  C   UNL     1     -12.267  13.105  70.313  1.00  0.00    -0.376 A  
HETATM   26  C   UNL     1     -11.523  12.898  69.129  1.00  0.00    -0.360 A  
ENDBRANCH  14  17
ENDBRANCH   9  11
ENDBRANCH   4   9
BRANCH   7  27
HETATM   27  N   UNL     1     -10.235   6.434  66.147  1.00  0.00    -0.404 N  
HETATM   28  O   UNL     1      -8.992   4.692  67.047  1.00  0.00    -0.110 OA 
HETATM   29  H   UNL     1     -10.957   6.646  65.458  1.00  0.00     0.000 HD 
HETATM   30  C   UNL     1      -9.748   5.148  66.197  1.00  0.00    -0.176 C  
BRANCH  30  31
HETATM   31  C   UNL     1     -10.318   4.290  65.125  1.00  0.00    -0.215 C  
HETATM   32  C   UNL     1      -9.564   3.345  64.550  1.00  0.00    -0.160 C  
ENDBRANCH  30  31
ENDBRANCH   7  27
BRANCH   5  33
HETATM   33  N   UNL     1      -7.971   8.129  65.463  1.00  0.00    -0.104 NA 
HETATM   34  C   UNL     1      -6.801   7.272  65.297  1.00  0.00    -0.051 C  
BRANCH  33  35
HETATM   35  C   UNL     1      -8.489   8.759  64.236  1.00  0.00    -0.114 C  
BRANCH  35  36
HETATM   36  C   UNL     1      -8.791  10.259  64.466  1.00  0.00    -0.203 C  
BRANCH  36  37
HETATM   37  N   UNL     1     -10.225  10.619  64.502  1.00  0.00    -0.349 NA 
HETATM   38  C   UNL     1     -10.512  11.517  63.376  1.00  0.00    -0.406 C  
HETATM   39  C   UNL     1     -10.584  11.284  65.758  1.00  0.00    -0.248 C  
ENDBRANCH  36  37
ENDBRANCH  35  36
ENDBRANCH  33  35
ENDBRANCH   5  33
ENDBRANCH   2   3
TORSDOF 10
ENDMDL
MODEL       47
REMARK 921   NORMALIZED FREE ENERGY PREDICTED BY IDOCK:   -6.26 KCAL/MOL
REMARK 922        TOTAL FREE ENERGY PREDICTED BY IDOCK:  -11.64 KCAL/MOL
REMARK 923 INTER-LIGAND FREE ENERGY PREDICTED BY IDOCK:   -9.92 KCAL/MOL
REMARK 924 INTRA-LIGAND FREE ENERGY PREDICTED BY IDOCK:   -1.72 KCAL/MOL
REMARK 927      BINDING AFFINITY PREDICTED BY RF-SCORE:    0.00 PKD
ROOT
HETATM    1  C   UNL     1     -10.634  13.412  64.339  1.00  0.00    -0.407 C  
HETATM    2  O   UNL     1     -11.707  12.651  64.885  1.00  0.00    -0.322 OA 
ENDROOT
BRANCH   2   3
HETATM    3  C   UNL     1     -11.491  12.040  66.096  1.00  0.00    -0.339 A  
HETATM    4  C   UNL     1     -11.838  12.529  67.357  1.00  0.00    -0.312 A  
HETATM    5  C   UNL     1     -10.484  10.002  67.114  1.00  0.00    -0.244 A  
HETATM    6  C   UNL     1     -11.656  11.673  68.451  1.00  0.00    -0.376 A  
HETATM    7  C   UNL     1     -10.942  10.474  68.358  1.00  0.00    -0.261 A  
HETATM    8  C   UNL     1     -10.851  10.786  65.994  1.00  0.00    -0.102 A  
BRANCH   4   9
HETATM    9  N   UNL     1     -12.341  13.825  67.569  1.00  0.00    -0.424 NA 
HETATM   10  H   UNL     1     -13.126  14.115  66.987  1.00  0.00     0.000 HD 
BRANCH   9  11
HETATM   11  C   UNL     1     -11.866  14.753  68.500  1.00  0.00    -0.306 A  
HETATM   12  N   UNL     1     -12.503  14.794  69.675  1.00  0.00    -0.202 NA 
HETATM   13  N   UNL     1     -10.796  15.515  68.207  1.00  0.00    -0.280 NA 
HETATM   14  C   UNL     1     -10.258  16.271  69.175  1.00  0.00    -0.266 A  
HETATM   15  C   UNL     1     -10.827  16.338  70.429  1.00  0.00    -0.211 A  
HETATM   16  C   UNL     1     -11.968  15.590  70.614  1.00  0.00    -0.378 A  
BRANCH  14  17
HETATM   17  C   UNL     1      -9.031  16.997  68.823  1.00  0.00    -0.249 A  
HETATM   18  C   UNL     1      -6.933  19.720  67.598  1.00  0.00    -0.280 A  
HETATM   19  C   UNL     1      -7.758  16.493  69.046  1.00  0.00    -0.228 A  
HETATM   20  C   UNL     1      -7.819  20.685  67.113  1.00  0.00    -0.334 A  
HETATM   21  C   UNL     1      -9.190  20.465  67.139  1.00  0.00    -0.511 A  
HETATM   22  N   UNL     1      -6.838  17.410  68.615  1.00  0.00    -0.207 NA 
HETATM   23  C   UNL     1      -7.464  18.525  68.116  1.00  0.00    -0.268 A  
HETATM   24  C   UNL     1      -5.404  17.224  68.662  1.00  0.00    -0.145 C  
HETATM   25  C   UNL     1      -8.845  18.286  68.188  1.00  0.00    -0.307 A  
HETATM   26  C   UNL     1      -9.711  19.281  67.681  1.00  0.00    -0.412 A  
ENDBRANCH  14  17
ENDBRANCH   9  11
ENDBRANCH   4   9
BRANCH   7  27
HETATM   27  N   UNL     1     -10.524   9.875  69.564  1.00  0.00    -0.224 N  
HETATM   28  O   UNL     1     -12.578   9.739  70.638  1.00  0.00    -0.224 OA 
HETATM   29  H   UNL     1      -9.542   9.613  69.653  1.00  0.00     0.000 HD 
HETATM   30  C   UNL     1     -11.358   9.621  70.630  1.00  0.00    -0.312 C  
BRANCH  30  31
HETATM   31  C   UNL     1     -10.622   9.079  71.802  1.00  0.00    -0.426 C  
HETATM   32  C   UNL     1      -9.332   8.741  71.685  1.00  0.00    -0.345 C  
ENDBRANCH  30  31
ENDBRANCH   7  27
BRANCH   5  33
HETATM   33  N   UNL     1      -9.715   8.847  66.966  1.00  0.00    -0.174 NA 
HETATM   34  C   UNL     1     -10.294   7.507  66.963  1.00  0.00    -0.324 C  
BRANCH  33  35
HETATM   35  C   UNL     1      -8.279   8.931  66.646  1.00  0.00    -0.111 C  
BRANCH  35  36
HETATM   36  C   UNL     1      -7.435   9.140  67.926  1.00  0.00    -0.084 C  
BRANCH  36  37
HETATM   37  N   UNL     1      -6.801  10.469  68.057  1.00  0.00    -0.072 NA 
HETATM   38  C   UNL     1      -7.165  11.037  69.361  1.00  0.00    -0.114 C  
HETATM   39  C   UNL     1      -7.232  11.381  66.994  1.00  0.00    -0.141 C  
ENDBRANCH  36  37
ENDBRANCH  35  36
ENDBRANCH  33  35
ENDBRANCH   5  33
ENDBRANCH   2   3
TORSDOF 10
ENDMDL
MODEL       48
REMARK 921   NORMALIZED FREE ENERGY PREDICTED BY IDOCK:   -6.25 KCAL/MOL
REMARK 922        TOTAL FREE ENERGY PREDICTED BY IDOCK:  -11.62 KCAL/MOL
REMARK 923 INTER-LIGAND FREE ENERGY PREDICTED BY IDOCK:  -10.18 KCAL/MOL
REMARK 924 INTRA-LIGAND FREE ENERGY PREDICTED BY IDOCK:   -1.44 KCAL/MOL
REMARK 927      BINDING AFFINITY PREDICTED BY RF-SCORE:    0.00 PKD
ROOT
HETATM    1  C   UNL     1     -12.414  12.457  64.244  1.00  0.00    -0.437 C  
HETATM    2  O   UNL     1     -12.784  12.785  65.579  1.00  0.00    -0.595 OA 
ENDROOT
BRANCH   2   3
HETATM    3  C   UNL     1     -11.773  13.127  66.444  1.00  0.00    -0.379 A  
HETATM    4  C   UNL     1     -11.213  12.326  67.442  1.00  0.00    -0.301 A  
HETATM    5  C   UNL     1     -10.278  15.020  67.063  1.00  0.00    -0.257 A  
HETATM    6  C   UNL     1     -10.090  12.824  68.113  1.00  0.00    -0.239 A  
HETATM    7  C   UNL     1      -9.666  14.152  67.986  1.00  0.00    -0.226 A  
HETATM    8  C   UNL     1     -11.283  14.437  66.255  1.00  0.00    -0.338 A  
BRANCH   4   9
HETATM    9  N   UNL     1     -11.732  11.069  67.801  1.00  0.00    -0.614 NA 
HETATM   10  H   UNL     1     -12.038  10.463  67.041  1.00  0.00     0.000 HD 
BRANCH   9  11
HETATM   11  C   UNL     1     -11.868  10.572  69.101  1.00  0.00    -0.146 A  
HETATM   12  N   UNL     1     -12.596  11.312  69.946  1.00  0.00    -0.134 NA 
HETATM   13  N   UNL     1     -11.319   9.390  69.431  1.00  0.00     0.015 NA 
HETATM   14  C   UNL     1     -11.607   8.856  70.628  1.00  0.00    -0.215 A  
HETATM   15  C   UNL     1     -12.386   9.532  71.542  1.00  0.00    -0.465 A  
HETATM   16  C   UNL     1     -12.836  10.773  71.151  1.00  0.00    -0.414 A  
BRANCH  14  17
HETATM   17  C   UNL     1     -11.063   7.516  70.887  1.00  0.00    -0.279 A  
HETATM   18  C   UNL     1      -9.842   4.665  72.807  1.00  0.00    -0.186 A  
HETATM   19  C   UNL     1     -10.805   6.593  69.884  1.00  0.00    -0.278 A  
HETATM   20  C   UNL     1      -9.833   5.087  74.139  1.00  0.00    -0.190 A  
HETATM   21  C   UNL     1     -10.212   6.380  74.475  1.00  0.00    -0.310 A  
HETATM   22  N   UNL     1     -10.313   5.450  70.453  1.00  0.00    -0.269 NA 
HETATM   23  C   UNL     1     -10.246   5.579  71.818  1.00  0.00    -0.202 A  
HETATM   24  C   UNL     1      -9.905   4.272  69.718  1.00  0.00    -0.187 C  
HETATM   25  C   UNL     1     -10.668   6.882  72.127  1.00  0.00    -0.248 A  
HETATM   26  C   UNL     1     -10.638   7.277  73.484  1.00  0.00    -0.408 A  
ENDBRANCH  14  17
ENDBRANCH   9  11
ENDBRANCH   4   9
BRANCH   7  27
HETATM   27  N   UNL     1      -8.758  14.635  68.952  1.00  0.00    -0.268 N  
HETATM   28  O   UNL     1      -6.781  14.373  67.763  1.00  0.00    -0.150 OA 
HETATM   29  H   UNL     1      -9.139  15.004  69.824  1.00  0.00     0.000 HD 
HETATM   30  C   UNL     1      -7.391  14.642  68.792  1.00  0.00    -0.131 C  
BRANCH  30  31
HETATM   31  C   UNL     1      -6.686  15.114  70.012  1.00  0.00    -0.129 C  
HETATM   32  C   UNL     1      -5.375  14.886  70.159  1.00  0.00    -0.113 C  
ENDBRANCH  30  31
ENDBRANCH   7  27
BRANCH   5  33
HETATM   33  N   UNL     1      -9.940  16.368  66.936  1.00  0.00    -0.262 NA 
HETATM   34  C   UNL     1     -10.563  17.418  67.735  1.00  0.00    -0.371 C  
BRANCH  33  35
HETATM   35  C   UNL     1      -8.813  16.788  66.085  1.00  0.00    -0.263 C  
BRANCH  35  36
HETATM   36  C   UNL     1      -7.986  17.903  66.767  1.00  0.00    -0.233 C  
BRANCH  36  37
HETATM   37  N   UNL     1      -8.011  19.217  66.088  1.00  0.00    -0.366 NA 
HETATM   38  C   UNL     1      -6.724  19.421  65.412  1.00  0.00    -0.269 C  
HETATM   39  C   UNL     1      -8.240  20.310  67.037  1.00  0.00    -0.318 C  
ENDBRANCH  36  37
ENDBRANCH  35  36
ENDBRANCH  33  35
ENDBRANCH   5  33
ENDBRANCH   2   3
TORSDOF 10
ENDMDL
MODEL       49
REMARK 921   NORMALIZED FREE ENERGY PREDICTED BY IDOCK:   -6.24 KCAL/MOL
REMARK 922        TOTAL FREE ENERGY PREDICTED BY IDOCK:  -11.60 KCAL/MOL
REMARK 923 INTER-LIGAND FREE ENERGY PREDICTED BY IDOCK:  -10.15 KCAL/MOL
REMARK 924 INTRA-LIGAND FREE ENERGY PREDICTED BY IDOCK:   -1.46 KCAL/MOL
REMARK 927      BINDING AFFINITY PREDICTED BY RF-SCORE:    0.00 PKD
ROOT
HETATM    1  C   UNL     1     -13.659   9.470  72.269  1.00  0.00    -0.418 C  
HETATM    2  O   UNL     1     -12.955  10.594  71.752  1.00  0.00    -0.438 OA 
ENDROOT
BRANCH   2   3
HETATM    3  C   UNL     1     -11.961  10.344  70.836  1.00  0.00    -0.377 A  
HETATM    4  C   UNL     1     -11.560  11.170  69.785  1.00  0.00    -0.334 A  
HETATM    5  C   UNL     1     -10.285   8.622  70.181  1.00  0.00    -0.192 A  
HETATM    6  C   UNL     1     -10.424  10.786  69.061  1.00  0.00    -0.239 A  
HETATM    7  C   UNL     1      -9.836   9.524  69.199  1.00  0.00    -0.176 A  
HETATM    8  C   UNL     1     -11.306   9.109  71.033  1.00  0.00    -0.377 A  
BRANCH   4   9
HETATM    9  N   UNL     1     -12.246  12.343  69.423  1.00  0.00    -0.146 NA 
HETATM   10  H   UNL     1     -13.007  12.243  68.752  1.00  0.00     0.000 HD 
BRANCH   9  11
HETATM   11  C   UNL     1     -11.983  13.633  69.894  1.00  0.00    -0.348 A  
HETATM   12  N   UNL     1     -12.631  14.002  71.005  1.00  0.00    -0.346 NA 
HETATM   13  N   UNL     1     -11.089  14.413  69.261  1.00  0.00    -0.265 NA 
HETATM   14  C   UNL     1     -10.729  15.574  69.827  1.00  0.00    -0.295 A  
HETATM   15  C   UNL     1     -11.315  16.010  70.996  1.00  0.00    -0.423 A  
HETATM   16  C   UNL     1     -12.282  15.187  71.530  1.00  0.00    -0.340 A  
BRANCH  14  17
HETATM   17  C   UNL     1      -9.672  16.329  69.142  1.00  0.00    -0.265 A  
HETATM   18  C   UNL     1      -8.125  19.018  67.221  1.00  0.00    -0.281 A  
HETATM   19  C   UNL     1      -8.343  15.934  69.127  1.00  0.00    -0.253 A  
HETATM   20  C   UNL     1      -9.173  19.864  66.851  1.00  0.00    -0.475 A  
HETATM   21  C   UNL     1     -10.483  19.564  67.201  1.00  0.00    -0.592 A  
HETATM   22  N   UNL     1      -7.618  16.850  68.414  1.00  0.00    -0.199 NA 
HETATM   23  C   UNL     1      -8.429  17.860  67.959  1.00  0.00    -0.256 A  
HETATM   24  C   UNL     1      -6.196  16.760  68.161  1.00  0.00    -0.132 C  
HETATM   25  C   UNL     1      -9.737  17.545  68.358  1.00  0.00    -0.316 A  
HETATM   26  C   UNL     1     -10.773  18.420  67.959  1.00  0.00    -0.277 A  
ENDBRANCH  14  17
ENDBRANCH   9  11
ENDBRANCH   4   9
BRANCH   7  27
HETATM   27  N   UNL     1      -8.933   9.118  68.193  1.00  0.00    -0.129 N  
HETATM   28  O   UNL     1     -10.452   8.254  66.664  1.00  0.00    -0.305 OA 
HETATM   29  H   UNL     1      -7.944   9.328  68.326  1.00  0.00     0.000 HD 
HETATM   30  C   UNL     1      -9.305   8.456  67.045  1.00  0.00    -0.159 C  
BRANCH  30  31
HETATM   31  C   UNL     1      -8.132   8.065  66.219  1.00  0.00    -0.112 C  
HETATM   32  C   UNL     1      -7.196   8.971  65.913  1.00  0.00    -0.093 C  
ENDBRANCH  30  31
ENDBRANCH   7  27
BRANCH   5  33
HETATM   33  N   UNL     1      -9.781   7.329  70.326  1.00  0.00    -0.176 NA 
HETATM   34  C   UNL     1      -8.372   7.055  70.591  1.00  0.00    -0.127 C  
BRANCH  33  35
HETATM   35  C   UNL     1     -10.684   6.165  70.371  1.00  0.00    -0.284 C  
BRANCH  35  36
HETATM   36  C   UNL     1     -10.289   5.198  71.512  1.00  0.00    -0.208 C  
BRANCH  36  37
HETATM   37  N   UNL     1     -11.118   5.285  72.733  1.00  0.00    -0.274 NA 
HETATM   38  C   UNL     1     -10.571   6.338  73.598  1.00  0.00    -0.263 C  
HETATM   39  C   UNL     1     -11.135   4.015  73.466  1.00  0.00    -0.259 C  
ENDBRANCH  36  37
ENDBRANCH  35  36
ENDBRANCH  33  35
ENDBRANCH   5  33
ENDBRANCH   2   3
TORSDOF 10
ENDMDL
MODEL       50
REMARK 921   NORMALIZED FREE ENERGY PREDICTED BY IDOCK:   -6.22 KCAL/MOL
REMARK 922        TOTAL FREE ENERGY PREDICTED BY IDOCK:  -11.57 KCAL/MOL
REMARK 923 INTER-LIGAND FREE ENERGY PREDICTED BY IDOCK:  -10.48 KCAL/MOL
REMARK 924 INTRA-LIGAND FREE ENERGY PREDICTED BY IDOCK:   -1.09 KCAL/MOL
REMARK 927      BINDING AFFINITY PREDICTED BY RF-SCORE:    0.00 PKD
ROOT
HETATM    1  C   UNL     1     -11.429  13.009  64.135  1.00  0.00    -0.402 C  
HETATM    2  O   UNL     1     -10.396  12.627  65.038  1.00  0.00    -0.289 OA 
ENDROOT
BRANCH   2   3
HETATM    3  C   UNL     1     -10.487  13.091  66.328  1.00  0.00    -0.276 A  
HETATM    4  C   UNL     1     -10.987  12.403  67.435  1.00  0.00    -0.254 A  
HETATM    5  C   UNL     1     -10.042  15.105  67.723  1.00  0.00    -0.230 A  
HETATM    6  C   UNL     1     -10.849  13.013  68.688  1.00  0.00    -0.287 A  
HETATM    7  C   UNL     1     -10.454  14.347  68.836  1.00  0.00    -0.245 A  
HETATM    8  C   UNL     1     -10.002  14.406  66.493  1.00  0.00    -0.291 A  
BRANCH   4   9
HETATM    9  N   UNL     1     -11.623  11.153  67.341  1.00  0.00    -0.537 NA 
HETATM   10  H   UNL     1     -12.642  11.156  67.300  1.00  0.00     0.000 HD 
BRANCH   9  11
HETATM   11  C   UNL     1     -10.992   9.906  67.300  1.00  0.00    -0.117 A  
HETATM   12  N   UNL     1     -10.359   9.599  66.162  1.00  0.00    -0.190 NA 
HETATM   13  N   UNL     1     -11.008   9.106  68.381  1.00  0.00    -0.031 NA 
HETATM   14  C   UNL     1     -10.255   7.996  68.375  1.00  0.00    -0.207 A  
HETATM   15  C   UNL     1      -9.535   7.629  67.258  1.00  0.00    -0.185 A  
HETATM   16  C   UNL     1      -9.645   8.463  66.168  1.00  0.00    -0.176 A  
BRANCH  14  17
HETATM   17  C   UNL     1     -10.232   7.222  69.623  1.00  0.00    -0.214 A  
HETATM   18  C   UNL     1      -9.823   4.335  71.816  1.00  0.00    -0.250 A  
HETATM   19  C   UNL     1     -10.472   7.781  70.869  1.00  0.00    -0.206 A  
HETATM   20  C   UNL     1      -9.561   3.256  70.969  1.00  0.00    -0.234 A  
HETATM   21  C   UNL     1      -9.535   3.427  69.591  1.00  0.00    -0.223 A  
HETATM   22  N   UNL     1     -10.371   6.801  71.819  1.00  0.00    -0.199 NA 
HETATM   23  C   UNL     1     -10.057   5.597  71.240  1.00  0.00    -0.206 A  
HETATM   24  C   UNL     1     -10.582   7.001  73.236  1.00  0.00    -0.344 C  
HETATM   25  C   UNL     1     -10.004   5.810  69.854  1.00  0.00    -0.254 A  
HETATM   26  C   UNL     1      -9.744   4.694  69.027  1.00  0.00    -0.242 A  
ENDBRANCH  14  17
ENDBRANCH   9  11
ENDBRANCH   4   9
BRANCH   7  27
HETATM   27  N   UNL     1     -10.682  14.954  70.088  1.00  0.00    -0.454 N  
HETATM   28  O   UNL     1     -13.004  14.915  70.097  1.00  0.00    -0.214 OA 
HETATM   29  H   UNL     1      -9.872  15.187  70.662  1.00  0.00     0.000 HD 
HETATM   30  C   UNL     1     -11.932  15.252  70.585  1.00  0.00    -0.343 C  
BRANCH  30  31
HETATM   31  C   UNL     1     -11.861  15.979  71.880  1.00  0.00    -0.619 C  
HETATM   32  C   UNL     1     -12.857  15.867  72.767  1.00  0.00    -0.572 C  
ENDBRANCH  30  31
ENDBRANCH   7  27
BRANCH   5  33
HETATM   33  N   UNL     1      -9.697  16.455  67.799  1.00  0.00    -0.233 NA 
HETATM   34  C   UNL     1      -8.547  16.935  68.558  1.00  0.00    -0.251 C  
BRANCH  33  35
HETATM   35  C   UNL     1     -10.395  17.461  66.979  1.00  0.00    -0.318 C  
BRANCH  35  36
HETATM   36  C   UNL     1     -10.684  18.742  67.797  1.00  0.00    -0.343 C  
BRANCH  36  37
HETATM   37  N   UNL     1     -10.483  20.016  67.073  1.00  0.00    -0.423 NA 
HETATM   38  C   UNL     1     -10.471  19.740  65.631  1.00  0.00    -0.361 C  
HETATM   39  C   UNL     1      -9.223  20.660  67.455  1.00  0.00    -0.258 C  
ENDBRANCH  36  37
ENDBRANCH  35  36
ENDBRANCH  33  35
ENDBRANCH   5  33
ENDBRANCH   2   3
TORSDOF 10
ENDMDL
MODEL       51
REMARK 921   NORMALIZED FREE ENERGY PREDICTED BY IDOCK:   -6.21 KCAL/MOL
REMARK 922        TOTAL FREE ENERGY PREDICTED BY IDOCK:  -11.55 KCAL/MOL
REMARK 923 INTER-LIGAND FREE ENERGY PREDICTED BY IDOCK:   -9.87 KCAL/MOL
REMARK 924 INTRA-LIGAND FREE ENERGY PREDICTED BY IDOCK:   -1.69 KCAL/MOL
REMARK 927      BINDING AFFINITY PREDICTED BY RF-SCORE:    0.00 PKD
ROOT
HETATM    1  C   UNL     1     -10.710  19.714  65.775  1.00  0.00    -0.392 C  
HETATM    2  O   UNL     1     -10.654  18.300  65.613  1.00  0.00    -0.614 OA 
ENDROOT
BRANCH   2   3
HETATM    3  C   UNL     1      -9.761  17.613  66.400  1.00  0.00    -0.294 A  
HETATM    4  C   UNL     1      -9.815  16.262  66.749  1.00  0.00    -0.245 A  
HETATM    5  C   UNL     1      -7.685  17.923  67.739  1.00  0.00    -0.220 A  
HETATM    6  C   UNL     1      -8.719  15.732  67.441  1.00  0.00    -0.199 A  
HETATM    7  C   UNL     1      -7.712  16.537  67.984  1.00  0.00    -0.159 A  
HETATM    8  C   UNL     1      -8.694  18.406  66.873  1.00  0.00    -0.275 A  
BRANCH   4   9
HETATM    9  N   UNL     1     -10.911  15.433  66.450  1.00  0.00    -0.315 NA 
HETATM   10  H   UNL     1     -11.840  15.837  66.567  1.00  0.00     0.000 HD 
BRANCH   9  11
HETATM   11  C   UNL     1     -10.848  14.108  66.007  1.00  0.00    -0.297 A  
HETATM   12  N   UNL     1     -10.761  13.928  64.685  1.00  0.00    -0.413 NA 
HETATM   13  N   UNL     1     -10.835  13.100  66.898  1.00  0.00    -0.263 NA 
HETATM   14  C   UNL     1     -10.602  11.854  66.460  1.00  0.00    -0.243 A  
HETATM   15  C   UNL     1     -10.456  11.586  65.115  1.00  0.00    -0.340 A  
HETATM   16  C   UNL     1     -10.569  12.666  64.269  1.00  0.00    -0.384 A  
BRANCH  14  17
HETATM   17  C   UNL     1     -10.495  10.814  67.491  1.00  0.00    -0.260 A  
HETATM   18  C   UNL     1     -11.158   9.058  70.620  1.00  0.00    -0.314 A  
HETATM   19  C   UNL     1      -9.696   9.688  67.355  1.00  0.00    -0.156 A  
HETATM   20  C   UNL     1     -12.029   9.884  71.334  1.00  0.00    -0.489 A  
HETATM   21  C   UNL     1     -12.428  11.109  70.817  1.00  0.00    -0.479 A  
HETATM   22  N   UNL     1      -9.823   8.919  68.480  1.00  0.00    -0.162 NA 
HETATM   23  C   UNL     1     -10.699   9.497  69.365  1.00  0.00    -0.225 A  
HETATM   24  C   UNL     1      -9.120   7.676  68.713  1.00  0.00    -0.139 C  
HETATM   25  C   UNL     1     -11.109  10.714  68.798  1.00  0.00    -0.316 A  
HETATM   26  C   UNL     1     -11.986  11.527  69.553  1.00  0.00    -0.402 A  
ENDBRANCH  14  17
ENDBRANCH   9  11
ENDBRANCH   4   9
BRANCH   7  27
HETATM   27  N   UNL     1      -6.860  15.949  68.942  1.00  0.00    -0.130 N  
HETATM   28  O   UNL     1      -5.470  14.756  67.515  1.00  0.00    -0.337 OA 
HETATM   29  H   UNL     1      -6.996  16.201  69.921  1.00  0.00     0.000 HD 
HETATM   30  C   UNL     1      -5.858  15.055  68.639  1.00  0.00    -0.089 C  
BRANCH  30  31
HETATM   31  C   UNL     1      -5.193  14.524  69.857  1.00  0.00    -0.093 C  
HETATM   32  C   UNL     1      -5.783  13.563  70.578  1.00  0.00    -0.170 C  
ENDBRANCH  30  31
ENDBRANCH   7  27
BRANCH   5  33
HETATM   33  N   UNL     1      -6.743  18.784  68.303  1.00  0.00    -0.227 NA 
HETATM   34  C   UNL     1      -6.959  19.470  69.573  1.00  0.00    -0.267 C  
BRANCH  33  35
HETATM   35  C   UNL     1      -5.401  18.929  67.712  1.00  0.00    -0.170 C  
BRANCH  35  36
HETATM   36  C   UNL     1      -5.340  20.145  66.758  1.00  0.00    -0.169 C  
BRANCH  36  37
HETATM   37  N   UNL     1      -5.189  19.820  65.324  1.00  0.00    -0.158 NA 
HETATM   38  C   UNL     1      -6.328  20.388  64.591  1.00  0.00    -0.296 C  
HETATM   39  C   UNL     1      -5.141  18.372  65.100  1.00  0.00    -0.169 C  
ENDBRANCH  36  37
ENDBRANCH  35  36
ENDBRANCH  33  35
ENDBRANCH   5  33
ENDBRANCH   2   3
TORSDOF 10
ENDMDL
MODEL       52
REMARK 921   NORMALIZED FREE ENERGY PREDICTED BY IDOCK:   -6.21 KCAL/MOL
REMARK 922        TOTAL FREE ENERGY PREDICTED BY IDOCK:  -11.55 KCAL/MOL
REMARK 923 INTER-LIGAND FREE ENERGY PREDICTED BY IDOCK:  -10.17 KCAL/MOL
REMARK 924 INTRA-LIGAND FREE ENERGY PREDICTED BY IDOCK:   -1.39 KCAL/MOL
REMARK 927      BINDING AFFINITY PREDICTED BY RF-SCORE:    0.00 PKD
ROOT
HETATM    1  C   UNL     1      -9.990   9.742  65.615  1.00  0.00    -0.282 C  
HETATM    2  O   UNL     1     -10.221   9.491  66.998  1.00  0.00    -0.224 OA 
ENDROOT
BRANCH   2   3
HETATM    3  C   UNL     1     -10.844  10.481  67.719  1.00  0.00    -0.294 A  
HETATM    4  C   UNL     1     -11.403  10.366  68.994  1.00  0.00    -0.219 A  
HETATM    5  C   UNL     1     -11.526  12.872  67.586  1.00  0.00    -0.334 A  
HETATM    6  C   UNL     1     -11.858  11.541  69.605  1.00  0.00    -0.421 A  
HETATM    7  C   UNL     1     -11.984  12.750  68.911  1.00  0.00    -0.244 A  
HETATM    8  C   UNL     1     -10.889  11.725  67.055  1.00  0.00    -0.306 A  
BRANCH   4   9
HETATM    9  N   UNL     1     -11.537   9.140  69.668  1.00  0.00    -0.389 NA 
HETATM   10  H   UNL     1     -12.458   8.704  69.655  1.00  0.00     0.000 HD 
BRANCH   9  11
HETATM   11  C   UNL     1     -10.526   8.461  70.356  1.00  0.00    -0.214 A  
HETATM   12  N   UNL     1      -9.709   9.212  71.103  1.00  0.00    -0.290 NA 
HETATM   13  N   UNL     1     -10.441   7.121  70.279  1.00  0.00    -0.213 NA 
HETATM   14  C   UNL     1      -9.575   6.481  71.080  1.00  0.00    -0.175 A  
HETATM   15  C   UNL     1      -8.726   7.177  71.913  1.00  0.00    -0.126 A  
HETATM   16  C   UNL     1      -8.824   8.550  71.865  1.00  0.00    -0.216 A  
BRANCH  14  17
HETATM   17  C   UNL     1      -9.605   5.014  71.025  1.00  0.00    -0.232 A  
HETATM   18  C   UNL     1      -9.381   1.668  69.587  1.00  0.00    -0.156 A  
HETATM   19  C   UNL     1      -9.815   4.215  72.139  1.00  0.00    -0.169 A  
HETATM   20  C   UNL     1      -9.182   1.862  68.218  1.00  0.00    -0.232 A  
HETATM   21  C   UNL     1      -9.141   3.143  67.683  1.00  0.00    -0.215 A  
HETATM   22  N   UNL     1      -9.778   2.902  71.755  1.00  0.00    -0.148 NA 
HETATM   23  C   UNL     1      -9.535   2.800  70.408  1.00  0.00    -0.123 A  
HETATM   24  C   UNL     1      -9.981   1.777  72.641  1.00  0.00    -0.118 C  
HETATM   25  C   UNL     1      -9.464   4.108  69.903  1.00  0.00    -0.265 A  
HETATM   26  C   UNL     1      -9.269   4.266  68.512  1.00  0.00    -0.194 A  
ENDBRANCH  14  17
ENDBRANCH   9  11
ENDBRANCH   4   9
BRANCH   7  27
HETATM   27  N   UNL     1     -12.765  13.760  69.509  1.00  0.00    -0.175 N  
HETATM   28  O   UNL     1     -11.204  14.589  71.016  1.00  0.00    -0.091 OA 
HETATM   29  H   UNL     1     -13.704  13.918  69.144  1.00  0.00     0.000 HD 
HETATM   30  C   UNL     1     -12.339  14.548  70.556  1.00  0.00    -0.337 C  
BRANCH  30  31
HETATM   31  C   UNL     1     -13.410  15.455  71.046  1.00  0.00    -0.545 C  
HETATM   32  C   UNL     1     -13.840  15.362  72.311  1.00  0.00    -0.649 C  
ENDBRANCH  30  31
ENDBRANCH   7  27
BRANCH   5  33
HETATM   33  N   UNL     1     -11.679  14.031  66.824  1.00  0.00    -0.385 NA 
HETATM   34  C   UNL     1     -12.777  14.216  65.880  1.00  0.00    -0.354 C  
BRANCH  33  35
HETATM   35  C   UNL     1     -10.817  15.204  67.049  1.00  0.00    -0.314 C  
BRANCH  35  36
HETATM   36  C   UNL     1     -10.764  16.106  65.794  1.00  0.00    -0.280 C  
BRANCH  36  37
HETATM   37  N   UNL     1      -9.603  17.019  65.715  1.00  0.00    -0.543 NA 
HETATM   38  C   UNL     1      -8.428  16.332  66.265  1.00  0.00    -0.334 C  
HETATM   39  C   UNL     1      -9.838  18.256  66.465  1.00  0.00    -0.361 C  
ENDBRANCH  36  37
ENDBRANCH  35  36
ENDBRANCH  33  35
ENDBRANCH   5  33
ENDBRANCH   2   3
TORSDOF 10
ENDMDL
MODEL       53
REMARK 921   NORMALIZED FREE ENERGY PREDICTED BY IDOCK:   -6.20 KCAL/MOL
REMARK 922        TOTAL FREE ENERGY PREDICTED BY IDOCK:  -11.54 KCAL/MOL
REMARK 923 INTER-LIGAND FREE ENERGY PREDICTED BY IDOCK:  -10.19 KCAL/MOL
REMARK 924 INTRA-LIGAND FREE ENERGY PREDICTED BY IDOCK:   -1.35 KCAL/MOL
REMARK 927      BINDING AFFINITY PREDICTED BY RF-SCORE:    0.00 PKD
ROOT
HETATM    1  C   UNL     1      -7.305   9.603  62.799  1.00  0.00    -0.105 C  
HETATM    2  O   UNL     1      -7.098   9.889  64.179  1.00  0.00    -0.120 OA 
ENDROOT
BRANCH   2   3
HETATM    3  C   UNL     1      -8.054   9.449  65.062  1.00  0.00    -0.129 A  
HETATM    4  C   UNL     1      -8.970  10.231  65.767  1.00  0.00    -0.161 A  
HETATM    5  C   UNL     1      -8.935   7.377  66.127  1.00  0.00    -0.149 A  
HETATM    6  C   UNL     1      -9.956   9.562  66.504  1.00  0.00    -0.329 A  
HETATM    7  C   UNL     1      -9.911   8.183  66.740  1.00  0.00    -0.279 A  
HETATM    8  C   UNL     1      -8.069   8.047  65.230  1.00  0.00    -0.138 A  
BRANCH   4   9
HETATM    9  N   UNL     1      -8.934  11.637  65.778  1.00  0.00    -0.380 NA 
HETATM   10  H   UNL     1      -8.103  12.080  65.388  1.00  0.00     0.000 HD 
BRANCH   9  11
HETATM   11  C   UNL     1      -9.930  12.485  66.272  1.00  0.00    -0.252 A  
HETATM   12  N   UNL     1     -10.413  13.394  65.418  1.00  0.00    -0.294 NA 
HETATM   13  N   UNL     1     -10.381  12.334  67.531  1.00  0.00    -0.202 NA 
HETATM   14  C   UNL     1     -11.450  13.042  67.923  1.00  0.00    -0.311 A  
HETATM   15  C   UNL     1     -12.036  13.970  67.090  1.00  0.00    -0.436 A  
HETATM   16  C   UNL     1     -11.457  14.119  65.849  1.00  0.00    -0.338 A  
BRANCH  14  17
HETATM   17  C   UNL     1     -11.958  12.756  69.271  1.00  0.00    -0.300 A  
HETATM   18  C   UNL     1     -13.352  13.403  72.580  1.00  0.00    -0.588 A  
HETATM   19  C   UNL     1     -12.083  11.471  69.779  1.00  0.00    -0.306 A  
HETATM   20  C   UNL     1     -13.432  14.794  72.686  1.00  0.00    -0.570 A  
HETATM   21  C   UNL     1     -12.988  15.610  71.654  1.00  0.00    -0.551 A  
HETATM   22  N   UNL     1     -12.588  11.545  71.049  1.00  0.00    -0.387 NA 
HETATM   23  C   UNL     1     -12.816  12.852  71.402  1.00  0.00    -0.283 A  
HETATM   24  C   UNL     1     -12.833  10.407  71.907  1.00  0.00    -0.415 C  
HETATM   25  C   UNL     1     -12.391  13.648  70.327  1.00  0.00    -0.392 A  
HETATM   26  C   UNL     1     -12.479  15.051  70.473  1.00  0.00    -0.425 A  
ENDBRANCH  14  17
ENDBRANCH   9  11
ENDBRANCH   4   9
BRANCH   7  27
HETATM   27  N   UNL     1     -10.739   7.676  67.764  1.00  0.00    -0.448 N  
HETATM   28  O   UNL     1      -9.370   8.110  69.589  1.00  0.00    -0.158 OA 
HETATM   29  H   UNL     1     -11.664   7.333  67.506  1.00  0.00     0.000 HD 
HETATM   30  C   UNL     1     -10.375   7.616  69.091  1.00  0.00    -0.213 C  
BRANCH  30  31
HETATM   31  C   UNL     1     -11.405   6.942  69.924  1.00  0.00    -0.321 C  
HETATM   32  C   UNL     1     -11.034   6.096  70.893  1.00  0.00    -0.359 C  
ENDBRANCH  30  31
ENDBRANCH   7  27
BRANCH   5  33
HETATM   33  N   UNL     1      -8.803   6.010  66.372  1.00  0.00    -0.132 NA 
HETATM   34  C   UNL     1      -7.865   5.469  67.351  1.00  0.00    -0.101 C  
BRANCH  33  35
HETATM   35  C   UNL     1      -9.724   5.039  65.756  1.00  0.00    -0.141 C  
BRANCH  35  36
HETATM   36  C   UNL     1      -9.157   4.501  64.422  1.00  0.00    -0.143 C  
BRANCH  36  37
HETATM   37  N   UNL     1      -9.366   3.058  64.178  1.00  0.00    -0.122 NA 
HETATM   38  C   UNL     1      -9.017   2.320  65.399  1.00  0.00    -0.126 C  
HETATM   39  C   UNL     1      -8.545   2.573  63.065  1.00  0.00    -0.085 C  
ENDBRANCH  36  37
ENDBRANCH  35  36
ENDBRANCH  33  35
ENDBRANCH   5  33
ENDBRANCH   2   3
TORSDOF 10
ENDMDL
MODEL       54
REMARK 921   NORMALIZED FREE ENERGY PREDICTED BY IDOCK:   -6.20 KCAL/MOL
REMARK 922        TOTAL FREE ENERGY PREDICTED BY IDOCK:  -11.53 KCAL/MOL
REMARK 923 INTER-LIGAND FREE ENERGY PREDICTED BY IDOCK:   -9.69 KCAL/MOL
REMARK 924 INTRA-LIGAND FREE ENERGY PREDICTED BY IDOCK:   -1.84 KCAL/MOL
REMARK 927      BINDING AFFINITY PREDICTED BY RF-SCORE:    0.00 PKD
ROOT
HETATM    1  C   UNL     1      -5.857  12.830  70.356  1.00  0.00    -0.153 C  
HETATM    2  O   UNL     1      -5.675  12.766  68.946  1.00  0.00    -0.069 OA 
ENDROOT
BRANCH   2   3
HETATM    3  C   UNL     1      -6.773  13.021  68.159  1.00  0.00    -0.103 A  
HETATM    4  C   UNL     1      -7.517  12.092  67.429  1.00  0.00    -0.156 A  
HETATM    5  C   UNL     1      -8.213  14.882  67.345  1.00  0.00    -0.197 A  
HETATM    6  C   UNL     1      -8.688  12.549  66.812  1.00  0.00    -0.147 A  
HETATM    7  C   UNL     1      -9.003  13.908  66.708  1.00  0.00    -0.188 A  
HETATM    8  C   UNL     1      -7.145  14.382  68.128  1.00  0.00    -0.126 A  
BRANCH   4   9
HETATM    9  N   UNL     1      -7.137  10.747  67.281  1.00  0.00    -0.088 NA 
HETATM   10  H   UNL     1      -6.144  10.560  67.143  1.00  0.00     0.000 HD 
BRANCH   9  11
HETATM   11  C   UNL     1      -7.990   9.639  67.303  1.00  0.00    -0.106 A  
HETATM   12  N   UNL     1      -7.806   8.728  66.342  1.00  0.00    -0.098 NA 
HETATM   13  N   UNL     1      -8.906   9.514  68.281  1.00  0.00    -0.124 NA 
HETATM   14  C   UNL     1      -9.593   8.366  68.379  1.00  0.00    -0.148 A  
HETATM   15  C   UNL     1      -9.431   7.356  67.455  1.00  0.00    -0.170 A  
HETATM   16  C   UNL     1      -8.534   7.605  66.440  1.00  0.00    -0.137 A  
BRANCH  14  17
HETATM   17  C   UNL     1     -10.499   8.250  69.529  1.00  0.00    -0.228 A  
HETATM   18  C   UNL     1     -12.955   9.267  72.029  1.00  0.00    -0.504 A  
HETATM   19  C   UNL     1     -10.700   7.066  70.222  1.00  0.00    -0.241 A  
HETATM   20  C   UNL     1     -13.158  10.633  71.819  1.00  0.00    -0.571 A  
HETATM   21  C   UNL     1     -12.451  11.312  70.835  1.00  0.00    -0.493 A  
HETATM   22  N   UNL     1     -11.603   7.290  71.227  1.00  0.00    -0.274 NA 
HETATM   23  C   UNL     1     -12.022   8.597  71.216  1.00  0.00    -0.293 A  
HETATM   24  C   UNL     1     -12.043   6.293  72.178  1.00  0.00    -0.252 C  
HETATM   25  C   UNL     1     -11.317   9.246  70.190  1.00  0.00    -0.193 A  
HETATM   26  C   UNL     1     -11.542  10.630  70.012  1.00  0.00    -0.406 A  
ENDBRANCH  14  17
ENDBRANCH   9  11
ENDBRANCH   4   9
BRANCH   7  27
HETATM   27  N   UNL     1     -10.002  14.271  65.781  1.00  0.00    -0.365 N  
HETATM   28  O   UNL     1     -11.857  14.141  67.172  1.00  0.00    -0.383 OA 
HETATM   29  H   UNL     1      -9.709  14.537  64.841  1.00  0.00     0.000 HD 
HETATM   30  C   UNL     1     -11.349  14.290  66.066  1.00  0.00    -0.335 C  
BRANCH  30  31
HETATM   31  C   UNL     1     -12.171  14.613  64.870  1.00  0.00    -0.363 C  
HETATM   32  C   UNL     1     -12.315  13.710  63.892  1.00  0.00    -0.375 C  
ENDBRANCH  30  31
ENDBRANCH   7  27
BRANCH   5  33
HETATM   33  N   UNL     1      -8.440  16.254  67.227  1.00  0.00    -0.171 NA 
HETATM   34  C   UNL     1      -7.835  17.068  66.178  1.00  0.00    -0.260 C  
BRANCH  33  35
HETATM   35  C   UNL     1      -9.438  16.931  68.075  1.00  0.00    -0.243 C  
BRANCH  35  36
HETATM   36  C   UNL     1     -10.423  17.762  67.220  1.00  0.00    -0.353 C  
BRANCH  36  37
HETATM   37  N   UNL     1     -10.613  19.163  67.652  1.00  0.00    -0.453 NA 
HETATM   38  C   UNL     1     -10.069  20.052  66.619  1.00  0.00    -0.479 C  
HETATM   39  C   UNL     1      -9.941  19.431  68.927  1.00  0.00    -0.445 C  
ENDBRANCH  36  37
ENDBRANCH  35  36
ENDBRANCH  33  35
ENDBRANCH   5  33
ENDBRANCH   2   3
TORSDOF 10
ENDMDL
MODEL       55
REMARK 921   NORMALIZED FREE ENERGY PREDICTED BY IDOCK:   -6.19 KCAL/MOL
REMARK 922        TOTAL FREE ENERGY PREDICTED BY IDOCK:  -11.53 KCAL/MOL
REMARK 923 INTER-LIGAND FREE ENERGY PREDICTED BY IDOCK:  -10.71 KCAL/MOL
REMARK 924 INTRA-LIGAND FREE ENERGY PREDICTED BY IDOCK:   -0.81 KCAL/MOL
REMARK 927      BINDING AFFINITY PREDICTED BY RF-SCORE:    0.00 PKD
ROOT
HETATM    1  C   UNL     1      -9.877   8.196  67.061  1.00  0.00    -0.232 C  
HETATM    2  O   UNL     1      -9.417   9.543  67.092  1.00  0.00    -0.142 OA 
ENDROOT
BRANCH   2   3
HETATM    3  C   UNL     1     -10.077  10.412  67.927  1.00  0.00    -0.171 A  
HETATM    4  C   UNL     1     -10.097  11.806  67.844  1.00  0.00    -0.186 A  
HETATM    5  C   UNL     1     -11.512  10.469  69.962  1.00  0.00    -0.316 A  
HETATM    6  C   UNL     1     -10.956  12.490  68.712  1.00  0.00    -0.294 A  
HETATM    7  C   UNL     1     -11.597  11.862  69.786  1.00  0.00    -0.286 A  
HETATM    8  C   UNL     1     -10.799   9.772  68.957  1.00  0.00    -0.223 A  
BRANCH   4   9
HETATM    9  N   UNL     1      -9.295  12.535  66.948  1.00  0.00    -0.213 NA 
HETATM   10  H   UNL     1      -9.466  12.390  65.953  1.00  0.00     0.000 HD 
BRANCH   9  11
HETATM   11  C   UNL     1      -8.285  13.439  67.291  1.00  0.00    -0.154 A  
HETATM   12  N   UNL     1      -7.188  12.918  67.852  1.00  0.00    -0.109 NA 
HETATM   13  N   UNL     1      -8.431  14.748  67.016  1.00  0.00    -0.224 NA 
HETATM   14  C   UNL     1      -7.383  15.566  67.197  1.00  0.00    -0.191 A  
HETATM   15  C   UNL     1      -6.199  15.102  67.729  1.00  0.00    -0.172 A  
HETATM   16  C   UNL     1      -6.169  13.766  68.060  1.00  0.00    -0.141 A  
BRANCH  14  17
HETATM   17  C   UNL     1      -7.571  16.961  66.779  1.00  0.00    -0.280 A  
HETATM   18  C   UNL     1      -9.156  20.236  66.506  1.00  0.00    -0.354 A  
HETATM   19  C   UNL     1      -6.647  17.656  66.013  1.00  0.00    -0.245 A  
HETATM   20  C   UNL     1     -10.376  20.117  67.174  1.00  0.00    -0.501 A  
HETATM   21  C   UNL     1     -10.761  18.908  67.737  1.00  0.00    -0.426 A  
HETATM   22  N   UNL     1      -7.114  18.926  65.803  1.00  0.00    -0.385 NA 
HETATM   23  C   UNL     1      -8.326  19.103  66.421  1.00  0.00    -0.318 A  
HETATM   24  C   UNL     1      -6.432  19.937  65.025  1.00  0.00    -0.284 C  
HETATM   25  C   UNL     1      -8.670  17.876  67.009  1.00  0.00    -0.254 A  
HETATM   26  C   UNL     1      -9.916  17.790  67.671  1.00  0.00    -0.322 A  
ENDBRANCH  14  17
ENDBRANCH   9  11
ENDBRANCH   4   9
BRANCH   7  27
HETATM   27  N   UNL     1     -12.146  12.692  70.786  1.00  0.00    -0.484 N  
HETATM   28  O   UNL     1     -12.219  14.690  69.606  1.00  0.00    -0.314 OA 
HETATM   29  H   UNL     1     -12.412  12.262  71.672  1.00  0.00     0.000 HD 
HETATM   30  C   UNL     1     -12.347  14.046  70.641  1.00  0.00    -0.375 C  
BRANCH  30  31
HETATM   31  C   UNL     1     -12.843  14.677  71.892  1.00  0.00    -0.399 C  
HETATM   32  C   UNL     1     -12.158  15.679  72.455  1.00  0.00    -0.557 C  
ENDBRANCH  30  31
ENDBRANCH   7  27
BRANCH   5  33
HETATM   33  N   UNL     1     -12.076   9.795  71.046  1.00  0.00    -0.324 NA 
HETATM   34  C   UNL     1     -13.514   9.764  71.295  1.00  0.00    -0.290 C  
BRANCH  33  35
HETATM   35  C   UNL     1     -11.251   8.941  71.919  1.00  0.00    -0.377 C  
BRANCH  35  36
HETATM   36  C   UNL     1     -11.691   7.461  71.826  1.00  0.00    -0.286 C  
BRANCH  36  37
HETATM   37  N   UNL     1     -10.777   6.573  71.076  1.00  0.00    -0.234 NA 
HETATM   38  C   UNL     1     -11.400   6.235  69.791  1.00  0.00    -0.436 C  
HETATM   39  C   UNL     1     -10.493   5.341  71.818  1.00  0.00    -0.214 C  
ENDBRANCH  36  37
ENDBRANCH  35  36
ENDBRANCH  33  35
ENDBRANCH   5  33
ENDBRANCH   2   3
TORSDOF 10
ENDMDL
MODEL       56
REMARK 921   NORMALIZED FREE ENERGY PREDICTED BY IDOCK:   -6.19 KCAL/MOL
REMARK 922        TOTAL FREE ENERGY PREDICTED BY IDOCK:  -11.52 KCAL/MOL
REMARK 923 INTER-LIGAND FREE ENERGY PREDICTED BY IDOCK:   -9.93 KCAL/MOL
REMARK 924 INTRA-LIGAND FREE ENERGY PREDICTED BY IDOCK:   -1.59 KCAL/MOL
REMARK 927      BINDING AFFINITY PREDICTED BY RF-SCORE:    0.00 PKD
ROOT
HETATM    1  C   UNL     1     -12.639  12.289  63.432  1.00  0.00    -0.427 C  
HETATM    2  O   UNL     1     -12.771  12.310  64.849  1.00  0.00    -0.575 OA 
ENDROOT
BRANCH   2   3
HETATM    3  C   UNL     1     -11.676  12.711  65.576  1.00  0.00    -0.402 A  
HETATM    4  C   UNL     1     -10.515  11.975  65.823  1.00  0.00    -0.254 A  
HETATM    5  C   UNL     1     -10.804  14.619  66.919  1.00  0.00    -0.305 A  
HETATM    6  C   UNL     1      -9.459  12.633  66.465  1.00  0.00    -0.247 A  
HETATM    7  C   UNL     1      -9.608  13.892  67.059  1.00  0.00    -0.254 A  
HETATM    8  C   UNL     1     -11.789  14.018  66.098  1.00  0.00    -0.422 A  
BRANCH   4   9
HETATM    9  N   UNL     1     -10.374  10.621  65.471  1.00  0.00    -0.254 NA 
HETATM   10  H   UNL     1     -10.705  10.347  64.547  1.00  0.00     0.000 HD 
BRANCH   9  11
HETATM   11  C   UNL     1      -9.823   9.613  66.269  1.00  0.00    -0.256 A  
HETATM   12  N   UNL     1      -8.653   9.108  65.862  1.00  0.00    -0.143 NA 
HETATM   13  N   UNL     1     -10.446   9.231  67.398  1.00  0.00    -0.266 NA 
HETATM   14  C   UNL     1      -9.814   8.389  68.231  1.00  0.00    -0.169 A  
HETATM   15  C   UNL     1      -8.585   7.856  67.909  1.00  0.00    -0.125 A  
HETATM   16  C   UNL     1      -8.061   8.237  66.694  1.00  0.00    -0.102 A  
BRANCH  14  17
HETATM   17  C   UNL     1     -10.500   8.094  69.495  1.00  0.00    -0.227 A  
HETATM   18  C   UNL     1     -11.475   6.215  72.467  1.00  0.00    -0.318 A  
HETATM   19  C   UNL     1     -11.336   8.997  70.136  1.00  0.00    -0.121 A  
HETATM   20  C   UNL     1     -10.860   4.967  72.339  1.00  0.00    -0.234 A  
HETATM   21  C   UNL     1     -10.097   4.665  71.218  1.00  0.00    -0.245 A  
HETATM   22  N   UNL     1     -11.808   8.422  71.285  1.00  0.00    -0.286 NA 
HETATM   23  C   UNL     1     -11.298   7.156  71.437  1.00  0.00    -0.259 A  
HETATM   24  C   UNL     1     -12.729   9.053  72.205  1.00  0.00    -0.401 C  
HETATM   25  C   UNL     1     -10.505   6.896  70.309  1.00  0.00    -0.227 A  
HETATM   26  C   UNL     1      -9.905   5.620  70.209  1.00  0.00    -0.254 A  
ENDBRANCH  14  17
ENDBRANCH   9  11
ENDBRANCH   4   9
BRANCH   7  27
HETATM   27  N   UNL     1      -8.607  14.301  67.964  1.00  0.00    -0.160 N  
HETATM   28  O   UNL     1      -7.344  15.629  66.538  1.00  0.00    -0.079 OA 
HETATM   29  H   UNL     1      -8.691  14.006  68.937  1.00  0.00     0.000 HD 
HETATM   30  C   UNL     1      -7.522  15.075  67.617  1.00  0.00    -0.181 C  
BRANCH  30  31
HETATM   31  C   UNL     1      -6.582  15.264  68.752  1.00  0.00    -0.102 C  
HETATM   32  C   UNL     1      -6.331  14.250  69.590  1.00  0.00    -0.136 C  
ENDBRANCH  30  31
ENDBRANCH   7  27
BRANCH   5  33
HETATM   33  N   UNL     1     -11.033  15.848  67.538  1.00  0.00    -0.310 NA 
HETATM   34  C   UNL     1     -11.603  15.965  68.876  1.00  0.00    -0.388 C  
BRANCH  33  35
HETATM   35  C   UNL     1     -10.562  17.103  66.925  1.00  0.00    -0.209 C  
BRANCH  35  36
HETATM   36  C   UNL     1     -10.652  18.279  67.926  1.00  0.00    -0.370 C  
BRANCH  36  37
HETATM   37  N   UNL     1     -10.123  19.571  67.437  1.00  0.00    -0.379 NA 
HETATM   38  C   UNL     1     -10.445  19.700  66.010  1.00  0.00    -0.523 C  
HETATM   39  C   UNL     1      -8.672  19.663  67.617  1.00  0.00    -0.321 C  
ENDBRANCH  36  37
ENDBRANCH  35  36
ENDBRANCH  33  35
ENDBRANCH   5  33
ENDBRANCH   2   3
TORSDOF 10
ENDMDL
MODEL       57
REMARK 921   NORMALIZED FREE ENERGY PREDICTED BY IDOCK:   -6.17 KCAL/MOL
REMARK 922        TOTAL FREE ENERGY PREDICTED BY IDOCK:  -11.49 KCAL/MOL
REMARK 923 INTER-LIGAND FREE ENERGY PREDICTED BY IDOCK:  -10.42 KCAL/MOL
REMARK 924 INTRA-LIGAND FREE ENERGY PREDICTED BY IDOCK:   -1.08 KCAL/MOL
REMARK 927      BINDING AFFINITY PREDICTED BY RF-SCORE:    0.00 PKD
ROOT
HETATM    1  C   UNL     1     -10.527  19.644  67.046  1.00  0.00    -0.479 C  
HETATM    2  O   UNL     1     -10.961  18.514  67.796  1.00  0.00    -0.329 OA 
ENDROOT
BRANCH   2   3
HETATM    3  C   UNL     1     -10.005  17.595  68.156  1.00  0.00    -0.330 A  
HETATM    4  C   UNL     1     -10.167  16.212  68.262  1.00  0.00    -0.248 A  
HETATM    5  C   UNL     1      -7.626  17.417  68.869  1.00  0.00    -0.224 A  
HETATM    6  C   UNL     1      -9.019  15.446  68.501  1.00  0.00    -0.192 A  
HETATM    7  C   UNL     1      -7.795  16.020  68.862  1.00  0.00    -0.202 A  
HETATM    8  C   UNL     1      -8.744  18.166  68.431  1.00  0.00    -0.302 A  
BRANCH   4   9
HETATM    9  N   UNL     1     -11.414  15.573  68.152  1.00  0.00    -0.341 NA 
HETATM   10  H   UNL     1     -12.242  16.144  68.319  1.00  0.00     0.000 HD 
BRANCH   9  11
HETATM   11  C   UNL     1     -11.628  14.227  67.836  1.00  0.00    -0.336 A  
HETATM   12  N   UNL     1     -11.677  13.924  66.534  1.00  0.00    -0.372 NA 
HETATM   13  N   UNL     1     -11.731  13.313  68.818  1.00  0.00    -0.308 NA 
HETATM   14  C   UNL     1     -11.763  12.013  68.488  1.00  0.00    -0.332 A  
HETATM   15  C   UNL     1     -11.772  11.611  67.169  1.00  0.00    -0.215 A  
HETATM   16  C   UNL     1     -11.750  12.619  66.231  1.00  0.00    -0.402 A  
BRANCH  14  17
HETATM   17  C   UNL     1     -11.769  11.061  69.606  1.00  0.00    -0.401 A  
HETATM   18  C   UNL     1     -10.467   8.649  72.015  1.00  0.00    -0.422 A  
HETATM   19  C   UNL     1     -12.894  10.795  70.372  1.00  0.00    -0.213 A  
HETATM   20  C   UNL     1      -9.133   8.445  71.656  1.00  0.00    -0.268 A  
HETATM   21  C   UNL     1      -8.590   9.089  70.551  1.00  0.00    -0.229 A  
HETATM   22  N   UNL     1     -12.568   9.874  71.331  1.00  0.00    -0.366 NA 
HETATM   23  C   UNL     1     -11.244   9.524  71.234  1.00  0.00    -0.382 A  
HETATM   24  C   UNL     1     -13.492   9.332  72.303  1.00  0.00    -0.482 C  
HETATM   25  C   UNL     1     -10.717  10.216  70.132  1.00  0.00    -0.355 A  
HETATM   26  C   UNL     1      -9.365   9.979  69.793  1.00  0.00    -0.233 A  
ENDBRANCH  14  17
ENDBRANCH   9  11
ENDBRANCH   4   9
BRANCH   7  27
HETATM   27  N   UNL     1      -6.818  15.164  69.413  1.00  0.00    -0.156 N  
HETATM   28  O   UNL     1      -5.982  14.249  67.449  1.00  0.00    -0.346 OA 
HETATM   29  H   UNL     1      -6.677  15.186  70.423  1.00  0.00     0.000 HD 
HETATM   30  C   UNL     1      -6.042  14.300  68.672  1.00  0.00    -0.088 C  
BRANCH  30  31
HETATM   31  C   UNL     1      -5.174  13.451  69.529  1.00  0.00    -0.084 C  
HETATM   32  C   UNL     1      -5.681  12.372  70.137  1.00  0.00    -0.157 C  
ENDBRANCH  30  31
ENDBRANCH   7  27
BRANCH   5  33
HETATM   33  N   UNL     1      -6.450  18.047  69.278  1.00  0.00    -0.251 NA 
HETATM   34  C   UNL     1      -5.543  17.465  70.261  1.00  0.00    -0.236 C  
BRANCH  33  35
HETATM   35  C   UNL     1      -5.980  19.276  68.614  1.00  0.00    -0.216 C  
BRANCH  35  36
HETATM   36  C   UNL     1      -5.457  18.975  67.190  1.00  0.00    -0.153 C  
BRANCH  36  37
HETATM   37  N   UNL     1      -5.741  20.014  66.177  1.00  0.00    -0.164 NA 
HETATM   38  C   UNL     1      -5.749  21.325  66.837  1.00  0.00    -0.301 C  
HETATM   39  C   UNL     1      -7.034  19.791  65.523  1.00  0.00    -0.304 C  
ENDBRANCH  36  37
ENDBRANCH  35  36
ENDBRANCH  33  35
ENDBRANCH   5  33
ENDBRANCH   2   3
TORSDOF 10
ENDMDL
MODEL       58
REMARK 921   NORMALIZED FREE ENERGY PREDICTED BY IDOCK:   -6.17 KCAL/MOL
REMARK 922        TOTAL FREE ENERGY PREDICTED BY IDOCK:  -11.49 KCAL/MOL
REMARK 923 INTER-LIGAND FREE ENERGY PREDICTED BY IDOCK:   -9.84 KCAL/MOL
REMARK 924 INTRA-LIGAND FREE ENERGY PREDICTED BY IDOCK:   -1.65 KCAL/MOL
REMARK 927      BINDING AFFINITY PREDICTED BY RF-SCORE:    0.00 PKD
ROOT
HETATM    1  C   UNL     1      -7.092  11.846  67.387  1.00  0.00    -0.129 C  
HETATM    2  O   UNL     1      -7.958  12.173  68.469  1.00  0.00    -0.144 OA 
ENDROOT
BRANCH   2   3
HETATM    3  C   UNL     1      -8.548  13.413  68.448  1.00  0.00    -0.134 A  
HETATM    4  C   UNL     1      -9.915  13.695  68.497  1.00  0.00    -0.208 A  
HETATM    5  C   UNL     1      -8.008  15.839  68.292  1.00  0.00    -0.130 A  
HETATM    6  C   UNL     1     -10.291  15.039  68.614  1.00  0.00    -0.236 A  
HETATM    7  C   UNL     1      -9.383  16.091  68.450  1.00  0.00    -0.207 A  
HETATM    8  C   UNL     1      -7.626  14.479  68.375  1.00  0.00    -0.122 A  
BRANCH   4   9
HETATM    9  N   UNL     1     -10.908  12.703  68.422  1.00  0.00    -0.235 NA 
HETATM   10  H   UNL     1     -11.329  12.540  67.508  1.00  0.00     0.000 HD 
BRANCH   9  11
HETATM   11  C   UNL     1     -11.374  11.919  69.482  1.00  0.00    -0.236 A  
HETATM   12  N   UNL     1     -12.252  12.499  70.309  1.00  0.00    -0.310 NA 
HETATM   13  N   UNL     1     -10.971  10.641  69.604  1.00  0.00    -0.261 NA 
HETATM   14  C   UNL     1     -11.561   9.862  70.523  1.00  0.00    -0.309 A  
HETATM   15  C   UNL     1     -12.508  10.370  71.387  1.00  0.00    -0.521 A  
HETATM   16  C   UNL     1     -12.798  11.708  71.245  1.00  0.00    -0.328 A  
BRANCH  14  17
HETATM   17  C   UNL     1     -11.152   8.452  70.535  1.00  0.00    -0.267 A  
HETATM   18  C   UNL     1     -10.262   5.190  71.906  1.00  0.00    -0.269 A  
HETATM   19  C   UNL     1     -10.949   7.709  69.381  1.00  0.00    -0.057 A  
HETATM   20  C   UNL     1     -10.257   5.356  73.293  1.00  0.00    -0.215 A  
HETATM   21  C   UNL     1     -10.524   6.595  73.859  1.00  0.00    -0.351 A  
HETATM   22  N   UNL     1     -10.584   6.438  69.733  1.00  0.00    -0.229 NA 
HETATM   23  C   UNL     1     -10.548   6.306  71.099  1.00  0.00    -0.239 A  
HETATM   24  C   UNL     1     -10.264   5.382  68.797  1.00  0.00    -0.182 C  
HETATM   25  C   UNL     1     -10.857   7.564  71.641  1.00  0.00    -0.249 A  
HETATM   26  C   UNL     1     -10.834   7.697  73.048  1.00  0.00    -0.457 A  
ENDBRANCH  14  17
ENDBRANCH   9  11
ENDBRANCH   4   9
BRANCH   7  27
HETATM   27  N   UNL     1      -9.918  17.380  68.240  1.00  0.00    -0.301 N  
HETATM   28  O   UNL     1      -9.997  17.372  65.920  1.00  0.00    -0.497 OA 
HETATM   29  H   UNL     1     -10.175  17.930  69.060  1.00  0.00     0.000 HD 
HETATM   30  C   UNL     1     -10.116  17.941  66.998  1.00  0.00    -0.340 C  
BRANCH  30  31
HETATM   31  C   UNL     1     -10.596  19.345  67.088  1.00  0.00    -0.596 C  
HETATM   32  C   UNL     1     -10.404  20.049  68.210  1.00  0.00    -0.494 C  
ENDBRANCH  30  31
ENDBRANCH   7  27
BRANCH   5  33
HETATM   33  N   UNL     1      -7.065  16.842  68.063  1.00  0.00    -0.149 NA 
HETATM   34  C   UNL     1      -6.338  17.505  69.142  1.00  0.00    -0.235 C  
BRANCH  33  35
HETATM   35  C   UNL     1      -6.637  17.179  66.694  1.00  0.00    -0.237 C  
BRANCH  35  36
HETATM   36  C   UNL     1      -6.041  18.605  66.632  1.00  0.00    -0.155 C  
BRANCH  36  37
HETATM   37  N   UNL     1      -7.019  19.693  66.416  1.00  0.00    -0.216 NA 
HETATM   38  C   UNL     1      -6.821  20.241  65.068  1.00  0.00    -0.237 C  
HETATM   39  C   UNL     1      -6.862  20.765  67.403  1.00  0.00    -0.356 C  
ENDBRANCH  36  37
ENDBRANCH  35  36
ENDBRANCH  33  35
ENDBRANCH   5  33
ENDBRANCH   2   3
TORSDOF 10
ENDMDL
MODEL       59
REMARK 921   NORMALIZED FREE ENERGY PREDICTED BY IDOCK:   -6.15 KCAL/MOL
REMARK 922        TOTAL FREE ENERGY PREDICTED BY IDOCK:  -11.46 KCAL/MOL
REMARK 923 INTER-LIGAND FREE ENERGY PREDICTED BY IDOCK:   -9.72 KCAL/MOL
REMARK 924 INTRA-LIGAND FREE ENERGY PREDICTED BY IDOCK:   -1.75 KCAL/MOL
REMARK 927      BINDING AFFINITY PREDICTED BY RF-SCORE:    0.00 PKD
ROOT
HETATM    1  C   UNL     1      -6.507  14.703  70.274  1.00  0.00    -0.149 C  
HETATM    2  O   UNL     1      -6.559  13.490  69.531  1.00  0.00    -0.107 OA 
ENDROOT
BRANCH   2   3
HETATM    3  C   UNL     1      -7.486  13.414  68.519  1.00  0.00    -0.118 A  
HETATM    4  C   UNL     1      -7.667  12.358  67.624  1.00  0.00    -0.151 A  
HETATM    5  C   UNL     1      -9.311  14.710  67.429  1.00  0.00    -0.196 A  
HETATM    6  C   UNL     1      -8.770  12.425  66.764  1.00  0.00    -0.160 A  
HETATM    7  C   UNL     1      -9.536  13.586  66.613  1.00  0.00    -0.278 A  
HETATM    8  C   UNL     1      -8.320  14.548  68.426  1.00  0.00    -0.153 A  
BRANCH   4   9
HETATM    9  N   UNL     1      -6.794  11.257  67.544  1.00  0.00    -0.080 NA 
HETATM   10  H   UNL     1      -5.947  11.380  66.990  1.00  0.00     0.000 HD 
BRANCH   9  11
HETATM   11  C   UNL     1      -6.978  10.012  68.152  1.00  0.00    -0.075 A  
HETATM   12  N   UNL     1      -6.047   9.085  67.900  1.00  0.00    -0.050 NA 
HETATM   13  N   UNL     1      -8.024   9.811  68.974  1.00  0.00    -0.091 NA 
HETATM   14  C   UNL     1      -8.083   8.669  69.677  1.00  0.00    -0.112 A  
HETATM   15  C   UNL     1      -7.140   7.678  69.509  1.00  0.00    -0.064 A  
HETATM   16  C   UNL     1      -6.152   7.936  68.585  1.00  0.00    -0.036 A  
BRANCH  14  17
HETATM   17  C   UNL     1      -9.191   8.554  70.634  1.00  0.00    -0.189 A  
HETATM   18  C   UNL     1     -12.407   9.269  72.202  1.00  0.00    -0.398 A  
HETATM   19  C   UNL     1      -9.223   7.611  71.650  1.00  0.00    -0.134 A  
HETATM   20  C   UNL     1     -12.928  10.362  71.506  1.00  0.00    -0.562 A  
HETATM   21  C   UNL     1     -12.209  10.954  70.475  1.00  0.00    -0.459 A  
HETATM   22  N   UNL     1     -10.385   7.763  72.357  1.00  0.00    -0.232 NA 
HETATM   23  C   UNL     1     -11.142   8.781  71.831  1.00  0.00    -0.364 A  
HETATM   24  C   UNL     1     -10.759   6.972  73.509  1.00  0.00    -0.332 C  
HETATM   25  C   UNL     1     -10.404   9.334  70.772  1.00  0.00    -0.348 A  
HETATM   26  C   UNL     1     -10.958  10.444  70.095  1.00  0.00    -0.365 A  
ENDBRANCH  14  17
ENDBRANCH   9  11
ENDBRANCH   4   9
BRANCH   7  27
HETATM   27  N   UNL     1     -10.385  13.659  65.489  1.00  0.00    -0.299 N  
HETATM   28  O   UNL     1     -12.216  12.510  66.337  1.00  0.00    -0.584 OA 
HETATM   29  H   UNL     1     -10.063  14.189  64.679  1.00  0.00     0.000 HD 
HETATM   30  C   UNL     1     -11.622  13.058  65.416  1.00  0.00    -0.341 C  
BRANCH  30  31
HETATM   31  C   UNL     1     -12.245  13.218  64.076  1.00  0.00    -0.475 C  
HETATM   32  C   UNL     1     -12.324  12.172  63.244  1.00  0.00    -0.547 C  
ENDBRANCH  30  31
ENDBRANCH   7  27
BRANCH   5  33
HETATM   33  N   UNL     1     -10.000  15.915  67.284  1.00  0.00    -0.236 NA 
HETATM   34  C   UNL     1     -11.170  16.258  68.086  1.00  0.00    -0.298 C  
BRANCH  33  35
HETATM   35  C   UNL     1      -9.482  16.982  66.409  1.00  0.00    -0.271 C  
BRANCH  35  36
HETATM   36  C   UNL     1      -8.958  18.177  67.239  1.00  0.00    -0.248 C  
BRANCH  36  37
HETATM   37  N   UNL     1      -9.623  19.472  66.978  1.00  0.00    -0.321 NA 
HETATM   38  C   UNL     1     -10.250  19.937  68.220  1.00  0.00    -0.434 C  
HETATM   39  C   UNL     1     -10.644  19.353  65.933  1.00  0.00    -0.459 C  
ENDBRANCH  36  37
ENDBRANCH  35  36
ENDBRANCH  33  35
ENDBRANCH   5  33
ENDBRANCH   2   3
TORSDOF 10
ENDMDL
MODEL       60
REMARK 921   NORMALIZED FREE ENERGY PREDICTED BY IDOCK:   -6.13 KCAL/MOL
REMARK 922        TOTAL FREE ENERGY PREDICTED BY IDOCK:  -11.43 KCAL/MOL
REMARK 923 INTER-LIGAND FREE ENERGY PREDICTED BY IDOCK:   -9.28 KCAL/MOL
REMARK 924 INTRA-LIGAND FREE ENERGY PREDICTED BY IDOCK:   -2.15 KCAL/MOL
REMARK 927      BINDING AFFINITY PREDICTED BY RF-SCORE:    0.00 PKD
ROOT
HETATM    1  C   UNL     1      -6.905   6.959  64.386  1.00  0.00    -0.046 C  
HETATM    2  O   UNL     1      -7.077   8.175  65.107  1.00  0.00    -0.065 OA 
ENDROOT
BRANCH   2   3
HETATM    3  C   UNL     1      -7.994   8.173  66.131  1.00  0.00    -0.102 A  
HETATM    4  C   UNL     1      -9.302   8.659  66.088  1.00  0.00    -0.226 A  
HETATM    5  C   UNL     1      -8.260   7.538  68.524  1.00  0.00    -0.125 A  
HETATM    6  C   UNL     1     -10.114   8.423  67.205  1.00  0.00    -0.335 A  
HETATM    7  C   UNL     1      -9.605   7.940  68.416  1.00  0.00    -0.150 A  
HETATM    8  C   UNL     1      -7.509   7.602  67.327  1.00  0.00    -0.100 A  
BRANCH   4   9
HETATM    9  N   UNL     1      -9.822   9.374  64.995  1.00  0.00    -0.389 NA 
HETATM   10  H   UNL     1      -9.938   8.861  64.121  1.00  0.00     0.000 HD 
BRANCH   9  11
HETATM   11  C   UNL     1     -10.193  10.722  64.990  1.00  0.00    -0.306 A  
HETATM   12  N   UNL     1     -10.294  11.307  63.791  1.00  0.00    -0.361 NA 
HETATM   13  N   UNL     1     -10.468  11.350  66.148  1.00  0.00    -0.248 NA 
HETATM   14  C   UNL     1     -10.986  12.586  66.106  1.00  0.00    -0.284 A  
HETATM   15  C   UNL     1     -11.164  13.245  64.908  1.00  0.00    -0.338 A  
HETATM   16  C   UNL     1     -10.776  12.559  63.778  1.00  0.00    -0.445 A  
BRANCH  14  17
HETATM   17  C   UNL     1     -11.363  13.176  67.397  1.00  0.00    -0.344 A  
HETATM   18  C   UNL     1     -12.431  13.307  70.883  1.00  0.00    -0.424 A  
HETATM   19  C   UNL     1     -11.332  14.539  67.648  1.00  0.00    -0.337 A  
HETATM   20  C   UNL     1     -12.700  11.984  71.242  1.00  0.00    -0.382 A  
HETATM   21  C   UNL     1     -12.567  10.958  70.315  1.00  0.00    -0.342 A  
HETATM   22  N   UNL     1     -11.732  14.760  68.939  1.00  0.00    -0.300 NA 
HETATM   23  C   UNL     1     -12.020  13.572  69.564  1.00  0.00    -0.334 A  
HETATM   24  C   UNL     1     -11.850  16.063  69.554  1.00  0.00    -0.237 C  
HETATM   25  C   UNL     1     -11.843  12.555  68.614  1.00  0.00    -0.340 A  
HETATM   26  C   UNL     1     -12.132  11.229  69.010  1.00  0.00    -0.325 A  
ENDBRANCH  14  17
ENDBRANCH   9  11
ENDBRANCH   4   9
BRANCH   7  27
HETATM   27  N   UNL     1     -10.423   8.069  69.558  1.00  0.00    -0.225 N  
HETATM   28  O   UNL     1     -11.345   5.938  69.591  1.00  0.00    -0.370 OA 
HETATM   29  H   UNL     1     -10.379   8.944  70.080  1.00  0.00     0.000 HD 
HETATM   30  C   UNL     1     -11.275   7.088  70.011  1.00  0.00    -0.269 C  
BRANCH  30  31
HETATM   31  C   UNL     1     -12.084   7.541  71.172  1.00  0.00    -0.335 C  
HETATM   32  C   UNL     1     -11.478   8.026  72.263  1.00  0.00    -0.419 C  
ENDBRANCH  30  31
ENDBRANCH   7  27
BRANCH   5  33
HETATM   33  N   UNL     1      -7.681   7.108  69.719  1.00  0.00    -0.106 NA 
HETATM   34  C   UNL     1      -7.071   8.025  70.676  1.00  0.00    -0.045 C  
BRANCH  33  35
HETATM   35  C   UNL     1      -7.795   5.704  70.151  1.00  0.00    -0.091 C  
BRANCH  35  36
HETATM   36  C   UNL     1      -8.072   5.610  71.670  1.00  0.00    -0.118 C  
BRANCH  36  37
HETATM   37  N   UNL     1      -9.369   5.005  72.043  1.00  0.00    -0.136 NA 
HETATM   38  C   UNL     1      -9.474   4.983  73.507  1.00  0.00    -0.132 C  
HETATM   39  C   UNL     1      -9.496   3.640  71.526  1.00  0.00    -0.150 C  
ENDBRANCH  36  37
ENDBRANCH  35  36
ENDBRANCH  33  35
ENDBRANCH   5  33
ENDBRANCH   2   3
TORSDOF 10
ENDMDL
MODEL       61
REMARK 921   NORMALIZED FREE ENERGY PREDICTED BY IDOCK:   -6.12 KCAL/MOL
REMARK 922        TOTAL FREE ENERGY PREDICTED BY IDOCK:  -11.41 KCAL/MOL
REMARK 923 INTER-LIGAND FREE ENERGY PREDICTED BY IDOCK:   -9.78 KCAL/MOL
REMARK 924 INTRA-LIGAND FREE ENERGY PREDICTED BY IDOCK:   -1.63 KCAL/MOL
REMARK 927      BINDING AFFINITY PREDICTED BY RF-SCORE:    0.00 PKD
ROOT
HETATM    1  C   UNL     1      -9.479  10.799  63.332  1.00  0.00    -0.316 C  
HETATM    2  O   UNL     1      -9.041   9.975  64.407  1.00  0.00    -0.208 OA 
ENDROOT
BRANCH   2   3
HETATM    3  C   UNL     1      -9.756  10.041  65.579  1.00  0.00    -0.289 A  
HETATM    4  C   UNL     1     -10.157   8.970  66.380  1.00  0.00    -0.281 A  
HETATM    5  C   UNL     1     -10.861  11.661  67.114  1.00  0.00    -0.261 A  
HETATM    6  C   UNL     1     -10.751   9.274  67.612  1.00  0.00    -0.276 A  
HETATM    7  C   UNL     1     -11.157  10.570  67.951  1.00  0.00    -0.304 A  
HETATM    8  C   UNL     1     -10.087  11.357  65.969  1.00  0.00    -0.275 A  
BRANCH   4   9
HETATM    9  N   UNL     1     -10.003   7.625  66.000  1.00  0.00    -0.376 NA 
HETATM   10  H   UNL     1     -10.595   7.290  65.240  1.00  0.00     0.000 HD 
BRANCH   9  11
HETATM   11  C   UNL     1      -9.117   6.703  66.566  1.00  0.00    -0.149 A  
HETATM   12  N   UNL     1      -7.926   6.583  65.970  1.00  0.00    -0.107 NA 
HETATM   13  N   UNL     1      -9.467   6.025  67.674  1.00  0.00    -0.112 NA 
HETATM   14  C   UNL     1      -8.540   5.278  68.293  1.00  0.00    -0.099 A  
HETATM   15  C   UNL     1      -7.273   5.135  67.770  1.00  0.00    -0.067 A  
HETATM   16  C   UNL     1      -7.030   5.797  66.587  1.00  0.00    -0.064 A  
BRANCH  14  17
HETATM   17  C   UNL     1      -8.953   4.648  69.554  1.00  0.00    -0.137 A  
HETATM   18  C   UNL     1     -10.725   4.228  72.715  1.00  0.00    -0.217 A  
HETATM   19  C   UNL     1      -8.501   3.403  69.965  1.00  0.00    -0.056 A  
HETATM   20  C   UNL     1     -11.451   5.408  72.896  1.00  0.00    -0.340 A  
HETATM   21  C   UNL     1     -11.365   6.442  71.973  1.00  0.00    -0.338 A  
HETATM   22  N   UNL     1      -9.074   3.102  71.171  1.00  0.00    -0.100 NA 
HETATM   23  C   UNL     1      -9.910   4.113  71.575  1.00  0.00    -0.184 A  
HETATM   24  C   UNL     1      -8.822   1.893  71.925  1.00  0.00    -0.068 C  
HETATM   25  C   UNL     1      -9.827   5.125  70.605  1.00  0.00    -0.274 A  
HETATM   26  C   UNL     1     -10.569   6.307  70.826  1.00  0.00    -0.297 A  
ENDBRANCH  14  17
ENDBRANCH   9  11
ENDBRANCH   4   9
BRANCH   7  27
HETATM   27  N   UNL     1     -12.043  10.705  69.040  1.00  0.00    -0.518 N  
HETATM   28  O   UNL     1     -10.616  10.059  70.755  1.00  0.00    -0.287 OA 
HETATM   29  H   UNL     1     -12.977  11.070  68.855  1.00  0.00     0.000 HD 
HETATM   30  C   UNL     1     -11.725  10.373  70.339  1.00  0.00    -0.331 C  
BRANCH  30  31
HETATM   31  C   UNL     1     -12.886  10.524  71.255  1.00  0.00    -0.532 C  
HETATM   32  C   UNL     1     -13.297   9.485  71.992  1.00  0.00    -0.535 C  
ENDBRANCH  30  31
ENDBRANCH   7  27
BRANCH   5  33
HETATM   33  N   UNL     1     -11.292  12.964  67.368  1.00  0.00    -0.291 NA 
HETATM   34  C   UNL     1     -12.279  13.646  66.537  1.00  0.00    -0.404 C  
BRANCH  33  35
HETATM   35  C   UNL     1     -10.882  13.670  68.595  1.00  0.00    -0.263 C  
BRANCH  35  36
HETATM   36  C   UNL     1     -12.113  14.172  69.386  1.00  0.00    -0.328 C  
BRANCH  36  37
HETATM   37  N   UNL     1     -12.027  15.563  69.879  1.00  0.00    -0.345 NA 
HETATM   38  C   UNL     1     -10.648  16.037  69.711  1.00  0.00    -0.323 C  
HETATM   39  C   UNL     1     -12.405  15.660  71.292  1.00  0.00    -0.426 C  
ENDBRANCH  36  37
ENDBRANCH  35  36
ENDBRANCH  33  35
ENDBRANCH   5  33
ENDBRANCH   2   3
TORSDOF 10
ENDMDL
MODEL       62
REMARK 921   NORMALIZED FREE ENERGY PREDICTED BY IDOCK:   -6.11 KCAL/MOL
REMARK 922        TOTAL FREE ENERGY PREDICTED BY IDOCK:  -11.39 KCAL/MOL
REMARK 923 INTER-LIGAND FREE ENERGY PREDICTED BY IDOCK:   -9.80 KCAL/MOL
REMARK 924 INTRA-LIGAND FREE ENERGY PREDICTED BY IDOCK:   -1.59 KCAL/MOL
REMARK 927      BINDING AFFINITY PREDICTED BY RF-SCORE:    0.00 PKD
ROOT
HETATM    1  C   UNL     1      -9.913  12.508  65.623  1.00  0.00    -0.245 C  
HETATM    2  O   UNL     1     -10.796  11.407  65.810  1.00  0.00    -0.275 OA 
ENDROOT
BRANCH   2   3
HETATM    3  C   UNL     1     -10.880  10.877  67.075  1.00  0.00    -0.266 A  
HETATM    4  C   UNL     1     -11.570  11.410  68.165  1.00  0.00    -0.294 A  
HETATM    5  C   UNL     1     -10.084   8.964  68.457  1.00  0.00    -0.188 A  
HETATM    6  C   UNL     1     -11.645  10.629  69.325  1.00  0.00    -0.346 A  
HETATM    7  C   UNL     1     -10.876   9.473  69.503  1.00  0.00    -0.222 A  
HETATM    8  C   UNL     1     -10.178   9.662  67.229  1.00  0.00    -0.292 A  
BRANCH   4   9
HETATM    9  N   UNL     1     -12.171  12.682  68.149  1.00  0.00    -0.170 NA 
HETATM   10  H   UNL     1     -12.904  12.836  67.458  1.00  0.00     0.000 HD 
BRANCH   9  11
HETATM   11  C   UNL     1     -11.857  13.755  68.989  1.00  0.00    -0.357 A  
HETATM   12  N   UNL     1     -12.393  13.725  70.214  1.00  0.00    -0.343 NA 
HETATM   13  N   UNL     1     -11.023  14.721  68.565  1.00  0.00    -0.249 NA 
HETATM   14  C   UNL     1     -10.604  15.644  69.444  1.00  0.00    -0.253 A  
HETATM   15  C   UNL     1     -11.074  15.660  70.740  1.00  0.00    -0.382 A  
HETATM   16  C   UNL     1     -11.989  14.683  71.063  1.00  0.00    -0.339 A  
BRANCH  14  17
HETATM   17  C   UNL     1      -9.614  16.608  68.949  1.00  0.00    -0.252 A  
HETATM   18  C   UNL     1      -8.317  19.671  67.447  1.00  0.00    -0.335 A  
HETATM   19  C   UNL     1      -8.245  16.413  69.051  1.00  0.00    -0.222 A  
HETATM   20  C   UNL     1      -9.442  20.389  67.033  1.00  0.00    -0.544 A  
HETATM   21  C   UNL     1     -10.718  19.870  67.207  1.00  0.00    -0.460 A  
HETATM   22  N   UNL     1      -7.603  17.491  68.504  1.00  0.00    -0.257 NA 
HETATM   23  C   UNL     1      -8.511  18.413  68.046  1.00  0.00    -0.276 A  
HETATM   24  C   UNL     1      -6.166  17.633  68.406  1.00  0.00    -0.177 C  
HETATM   25  C   UNL     1      -9.788  17.875  68.267  1.00  0.00    -0.348 A  
HETATM   26  C   UNL     1     -10.902  18.626  67.829  1.00  0.00    -0.313 A  
ENDBRANCH  14  17
ENDBRANCH   9  11
ENDBRANCH   4   9
BRANCH   7  27
HETATM   27  N   UNL     1     -10.765   8.967  70.815  1.00  0.00    -0.223 N  
HETATM   28  O   UNL     1     -12.506   7.432  70.766  1.00  0.00    -0.218 OA 
HETATM   29  H   UNL     1      -9.997   9.306  71.395  1.00  0.00     0.000 HD 
HETATM   30  C   UNL     1     -11.627   8.044  71.362  1.00  0.00    -0.267 C  
BRANCH  30  31
HETATM   31  C   UNL     1     -11.325   7.774  72.792  1.00  0.00    -0.446 C  
HETATM   32  C   UNL     1     -10.056   7.649  73.198  1.00  0.00    -0.382 C  
ENDBRANCH  30  31
ENDBRANCH   7  27
BRANCH   5  33
HETATM   33  N   UNL     1      -9.251   7.854  68.594  1.00  0.00    -0.143 NA 
HETATM   34  C   UNL     1      -7.862   7.957  69.031  1.00  0.00    -0.110 C  
BRANCH  33  35
HETATM   35  C   UNL     1      -9.783   6.487  68.451  1.00  0.00    -0.132 C  
BRANCH  35  36
HETATM   36  C   UNL     1      -8.661   5.434  68.610  1.00  0.00    -0.097 C  
BRANCH  36  37
HETATM   37  N   UNL     1      -8.886   4.421  69.664  1.00  0.00    -0.084 NA 
HETATM   38  C   UNL     1     -10.006   4.859  70.506  1.00  0.00    -0.241 C  
HETATM   39  C   UNL     1      -7.695   4.235  70.498  1.00  0.00    -0.052 C  
ENDBRANCH  36  37
ENDBRANCH  35  36
ENDBRANCH  33  35
ENDBRANCH   5  33
ENDBRANCH   2   3
TORSDOF 10
ENDMDL
MODEL       63
REMARK 921   NORMALIZED FREE ENERGY PREDICTED BY IDOCK:   -6.10 KCAL/MOL
REMARK 922        TOTAL FREE ENERGY PREDICTED BY IDOCK:  -11.38 KCAL/MOL
REMARK 923 INTER-LIGAND FREE ENERGY PREDICTED BY IDOCK:   -9.87 KCAL/MOL
REMARK 924 INTRA-LIGAND FREE ENERGY PREDICTED BY IDOCK:   -1.51 KCAL/MOL
REMARK 927      BINDING AFFINITY PREDICTED BY RF-SCORE:    0.00 PKD
ROOT
HETATM    1  C   UNL     1     -13.075  11.361  71.632  1.00  0.00    -0.393 C  
HETATM    2  O   UNL     1     -12.418  12.073  70.588  1.00  0.00    -0.315 OA 
ENDROOT
BRANCH   2   3
HETATM    3  C   UNL     1     -11.598  11.350  69.755  1.00  0.00    -0.332 A  
HETATM    4  C   UNL     1     -11.431  11.527  68.380  1.00  0.00    -0.298 A  
HETATM    5  C   UNL     1     -10.000   9.441  69.750  1.00  0.00    -0.200 A  
HETATM    6  C   UNL     1     -10.431  10.774  67.752  1.00  0.00    -0.243 A  
HETATM    7  C   UNL     1      -9.776   9.714  68.388  1.00  0.00    -0.150 A  
HETATM    8  C   UNL     1     -10.867  10.339  70.416  1.00  0.00    -0.320 A  
BRANCH   4   9
HETATM    9  N   UNL     1     -12.220  12.404  67.616  1.00  0.00    -0.343 NA 
HETATM   10  H   UNL     1     -13.232  12.305  67.698  1.00  0.00     0.000 HD 
BRANCH   9  11
HETATM   11  C   UNL     1     -11.751  13.398  66.751  1.00  0.00    -0.385 A  
HETATM   12  N   UNL     1     -12.073  13.262  65.460  1.00  0.00    -0.408 NA 
HETATM   13  N   UNL     1     -11.053  14.440  67.238  1.00  0.00    -0.301 NA 
HETATM   14  C   UNL     1     -10.763  15.462  66.419  1.00  0.00    -0.311 A  
HETATM   15  C   UNL     1     -11.098  15.423  65.083  1.00  0.00    -0.402 A  
HETATM   16  C   UNL     1     -11.736  14.280  64.654  1.00  0.00    -0.430 A  
BRANCH  14  17
HETATM   17  C   UNL     1     -10.094  16.615  67.035  1.00  0.00    -0.281 A  
HETATM   18  C   UNL     1      -7.417  18.975  67.796  1.00  0.00    -0.271 A  
HETATM   19  C   UNL     1     -10.738  17.507  67.879  1.00  0.00    -0.339 A  
HETATM   20  C   UNL     1      -6.288  18.485  67.135  1.00  0.00    -0.190 A  
HETATM   21  C   UNL     1      -6.349  17.303  66.410  1.00  0.00    -0.258 A  
HETATM   22  N   UNL     1      -9.844  18.465  68.275  1.00  0.00    -0.339 NA 
HETATM   23  C   UNL     1      -8.615  18.243  67.706  1.00  0.00    -0.256 A  
HETATM   24  C   UNL     1     -10.147  19.552  69.181  1.00  0.00    -0.295 C  
HETATM   25  C   UNL     1      -8.719  17.063  66.953  1.00  0.00    -0.251 A  
HETATM   26  C   UNL     1      -7.554  16.593  66.304  1.00  0.00    -0.226 A  
ENDBRANCH  14  17
ENDBRANCH   9  11
ENDBRANCH   4   9
BRANCH   7  27
HETATM   27  N   UNL     1      -9.056   8.816  67.572  1.00  0.00    -0.133 N  
HETATM   28  O   UNL     1     -10.821   7.508  66.820  1.00  0.00    -0.292 OA 
HETATM   29  H   UNL     1      -8.053   8.968  67.463  1.00  0.00     0.000 HD 
HETATM   30  C   UNL     1      -9.623   7.748  66.913  1.00  0.00    -0.198 C  
BRANCH  30  31
HETATM   31  C   UNL     1      -8.607   6.919  66.213  1.00  0.00    -0.138 C  
HETATM   32  C   UNL     1      -7.303   7.169  66.385  1.00  0.00    -0.079 C  
ENDBRANCH  30  31
ENDBRANCH   7  27
BRANCH   5  33
HETATM   33  N   UNL     1      -9.424   8.362  70.422  1.00  0.00    -0.166 NA 
HETATM   34  C   UNL     1      -8.356   8.522  71.404  1.00  0.00    -0.161 C  
BRANCH  33  35
HETATM   35  C   UNL     1      -9.977   7.003  70.285  1.00  0.00    -0.179 C  
BRANCH  35  36
HETATM   36  C   UNL     1     -11.521   7.035  70.214  1.00  0.00    -0.287 C  
BRANCH  36  37
HETATM   37  N   UNL     1     -12.213   7.188  71.512  1.00  0.00    -0.339 NA 
HETATM   38  C   UNL     1     -11.638   6.233  72.467  1.00  0.00    -0.232 C  
HETATM   39  C   UNL     1     -13.653   6.944  71.388  1.00  0.00    -0.127 C  
ENDBRANCH  36  37
ENDBRANCH  35  36
ENDBRANCH  33  35
ENDBRANCH   5  33
ENDBRANCH   2   3
TORSDOF 10
ENDMDL
MODEL       64
REMARK 921   NORMALIZED FREE ENERGY PREDICTED BY IDOCK:   -6.09 KCAL/MOL
REMARK 922        TOTAL FREE ENERGY PREDICTED BY IDOCK:  -11.37 KCAL/MOL
REMARK 923 INTER-LIGAND FREE ENERGY PREDICTED BY IDOCK:  -10.23 KCAL/MOL
REMARK 924 INTRA-LIGAND FREE ENERGY PREDICTED BY IDOCK:   -1.14 KCAL/MOL
REMARK 927      BINDING AFFINITY PREDICTED BY RF-SCORE:    0.00 PKD
ROOT
HETATM    1  C   UNL     1     -10.620   7.224  66.954  1.00  0.00    -0.305 C  
HETATM    2  O   UNL     1     -10.747   8.273  67.909  1.00  0.00    -0.178 OA 
ENDROOT
BRANCH   2   3
HETATM    3  C   UNL     1     -10.308   9.520  67.534  1.00  0.00    -0.248 A  
HETATM    4  C   UNL     1      -9.697  10.475  68.348  1.00  0.00    -0.159 A  
HETATM    5  C   UNL     1     -10.189  11.050  65.573  1.00  0.00    -0.268 A  
HETATM    6  C   UNL     1      -9.194  11.625  67.726  1.00  0.00    -0.178 A  
HETATM    7  C   UNL     1      -9.482  11.947  66.395  1.00  0.00    -0.228 A  
HETATM    8  C   UNL     1     -10.517   9.808  66.168  1.00  0.00    -0.128 A  
BRANCH   4   9
HETATM    9  N   UNL     1      -9.581  10.338  69.743  1.00  0.00    -0.387 NA 
HETATM   10  H   UNL     1      -8.778  10.783  70.185  1.00  0.00     0.000 HD 
BRANCH   9  11
HETATM   11  C   UNL     1     -10.463   9.648  70.581  1.00  0.00    -0.312 A  
HETATM   12  N   UNL     1     -11.596  10.281  70.901  1.00  0.00    -0.359 NA 
HETATM   13  N   UNL     1     -10.169   8.399  70.986  1.00  0.00    -0.193 NA 
HETATM   14  C   UNL     1     -11.103   7.697  71.645  1.00  0.00    -0.239 A  
HETATM   15  C   UNL     1     -12.317   8.260  71.976  1.00  0.00    -0.395 A  
HETATM   16  C   UNL     1     -12.499   9.571  71.595  1.00  0.00    -0.391 A  
BRANCH  14  17
HETATM   17  C   UNL     1     -10.761   6.306  71.967  1.00  0.00    -0.268 A  
HETATM   18  C   UNL     1      -9.545   2.905  71.451  1.00  0.00    -0.223 A  
HETATM   19  C   UNL     1     -10.898   5.764  73.236  1.00  0.00    -0.272 A  
HETATM   20  C   UNL     1      -9.239   2.820  70.091  1.00  0.00    -0.205 A  
HETATM   21  C   UNL     1      -9.454   3.902  69.247  1.00  0.00    -0.256 A  
HETATM   22  N   UNL     1     -10.490   4.457  73.205  1.00  0.00    -0.172 NA 
HETATM   23  C   UNL     1     -10.072   4.112  71.944  1.00  0.00    -0.154 A  
HETATM   24  C   UNL     1     -10.512   3.559  74.338  1.00  0.00    -0.203 C  
HETATM   25  C   UNL     1     -10.268   5.235  71.125  1.00  0.00    -0.294 A  
HETATM   26  C   UNL     1      -9.955   5.110  69.753  1.00  0.00    -0.313 A  
ENDBRANCH  14  17
ENDBRANCH   9  11
ENDBRANCH   4   9
BRANCH   7  27
HETATM   27  N   UNL     1      -9.226  13.270  65.980  1.00  0.00    -0.473 N  
HETATM   28  O   UNL     1      -9.488  14.351  68.018  1.00  0.00    -0.197 OA 
HETATM   29  H   UNL     1      -8.955  13.423  65.009  1.00  0.00     0.000 HD 
HETATM   30  C   UNL     1      -9.317  14.369  66.805  1.00  0.00    -0.268 C  
BRANCH  30  31
HETATM   31  C   UNL     1      -9.091  15.641  66.071  1.00  0.00    -0.346 C  
HETATM   32  C   UNL     1      -9.498  16.802  66.600  1.00  0.00    -0.275 C  
ENDBRANCH  30  31
ENDBRANCH   7  27
BRANCH   5  33
HETATM   33  N   UNL     1     -10.560  11.341  64.259  1.00  0.00    -0.342 NA 
HETATM   34  C   UNL     1      -9.654  11.174  63.127  1.00  0.00    -0.369 C  
BRANCH  33  35
HETATM   35  C   UNL     1     -11.952  11.689  63.925  1.00  0.00    -0.218 C  
BRANCH  35  36
HETATM   36  C   UNL     1     -12.066  13.168  63.487  1.00  0.00    -0.514 C  
BRANCH  36  37
HETATM   37  N   UNL     1     -11.885  14.165  64.564  1.00  0.00    -0.419 NA 
HETATM   38  C   UNL     1     -12.738  13.792  65.698  1.00  0.00    -0.478 C  
HETATM   39  C   UNL     1     -12.236  15.515  64.115  1.00  0.00    -0.004 C  
ENDBRANCH  36  37
ENDBRANCH  35  36
ENDBRANCH  33  35
ENDBRANCH   5  33
ENDBRANCH   2   3
TORSDOF 10
ENDMDL
MODEL       65
REMARK 921   NORMALIZED FREE ENERGY PREDICTED BY IDOCK:   -6.09 KCAL/MOL
REMARK 922        TOTAL FREE ENERGY PREDICTED BY IDOCK:  -11.36 KCAL/MOL
REMARK 923 INTER-LIGAND FREE ENERGY PREDICTED BY IDOCK:  -10.17 KCAL/MOL
REMARK 924 INTRA-LIGAND FREE ENERGY PREDICTED BY IDOCK:   -1.19 KCAL/MOL
REMARK 927      BINDING AFFINITY PREDICTED BY RF-SCORE:    0.00 PKD
ROOT
HETATM    1  C   UNL     1     -13.042  10.089  71.514  1.00  0.00    -0.433 C  
HETATM    2  O   UNL     1     -11.765  10.429  70.983  1.00  0.00    -0.348 OA 
ENDROOT
BRANCH   2   3
HETATM    3  C   UNL     1     -11.739  11.306  69.927  1.00  0.00    -0.352 A  
HETATM    4  C   UNL     1     -11.628  10.987  68.572  1.00  0.00    -0.310 A  
HETATM    5  C   UNL     1     -11.788  13.739  69.396  1.00  0.00    -0.341 A  
HETATM    6  C   UNL     1     -11.770  12.033  67.650  1.00  0.00    -0.365 A  
HETATM    7  C   UNL     1     -11.782  13.378  68.036  1.00  0.00    -0.356 A  
HETATM    8  C   UNL     1     -11.843  12.661  70.311  1.00  0.00    -0.295 A  
BRANCH   4   9
HETATM    9  N   UNL     1     -11.372   9.686  68.106  1.00  0.00    -0.500 NA 
HETATM   10  H   UNL     1     -12.033   9.298  67.434  1.00  0.00     0.000 HD 
BRANCH   9  11
HETATM   11  C   UNL     1     -10.297   8.872  68.477  1.00  0.00    -0.198 A  
HETATM   12  N   UNL     1      -9.087   9.259  68.060  1.00  0.00    -0.128 NA 
HETATM   13  N   UNL     1     -10.507   7.790  69.250  1.00  0.00    -0.220 NA 
HETATM   14  C   UNL     1      -9.445   7.126  69.733  1.00  0.00    -0.149 A  
HETATM   15  C   UNL     1      -8.160   7.487  69.387  1.00  0.00    -0.128 A  
HETATM   16  C   UNL     1      -8.044   8.554  68.524  1.00  0.00    -0.122 A  
BRANCH  14  17
HETATM   17  C   UNL     1      -9.737   6.021  70.654  1.00  0.00    -0.209 A  
HETATM   18  C   UNL     1      -9.889   2.596  71.902  1.00  0.00    -0.227 A  
HETATM   19  C   UNL     1     -10.288   6.206  71.913  1.00  0.00    -0.208 A  
HETATM   20  C   UNL     1      -9.417   1.796  70.858  1.00  0.00    -0.194 A  
HETATM   21  C   UNL     1      -9.043   2.361  69.646  1.00  0.00    -0.181 A  
HETATM   22  N   UNL     1     -10.428   4.985  72.517  1.00  0.00    -0.208 NA 
HETATM   23  C   UNL     1      -9.973   3.984  71.696  1.00  0.00    -0.162 A  
HETATM   24  C   UNL     1     -10.992   4.776  73.833  1.00  0.00    -0.255 C  
HETATM   25  C   UNL     1      -9.571   4.591  70.495  1.00  0.00    -0.274 A  
HETATM   26  C   UNL     1      -9.105   3.750  69.458  1.00  0.00    -0.200 A  
ENDBRANCH  14  17
ENDBRANCH   9  11
ENDBRANCH   4   9
BRANCH   7  27
HETATM   27  N   UNL     1     -11.578  14.341  67.025  1.00  0.00    -0.367 N  
HETATM   28  O   UNL     1      -9.343  13.917  66.560  1.00  0.00    -0.277 OA 
HETATM   29  H   UNL     1     -12.380  14.895  66.724  1.00  0.00     0.000 HD 
HETATM   30  C   UNL     1     -10.364  14.580  66.421  1.00  0.00    -0.293 C  
BRANCH  30  31
HETATM   31  C   UNL     1     -10.427  15.719  65.468  1.00  0.00    -0.425 C  
HETATM   32  C   UNL     1     -11.300  15.697  64.454  1.00  0.00    -0.272 C  
ENDBRANCH  30  31
ENDBRANCH   7  27
BRANCH   5  33
HETATM   33  N   UNL     1     -11.737  15.061  69.840  1.00  0.00    -0.286 NA 
HETATM   34  C   UNL     1     -12.827  15.688  70.581  1.00  0.00    -0.350 C  
BRANCH  33  35
HETATM   35  C   UNL     1     -10.502  15.854  69.715  1.00  0.00    -0.311 C  
BRANCH  35  36
HETATM   36  C   UNL     1     -10.733  17.112  68.845  1.00  0.00    -0.257 C  
BRANCH  36  37
HETATM   37  N   UNL     1      -9.770  18.214  69.053  1.00  0.00    -0.249 NA 
HETATM   38  C   UNL     1     -10.281  19.417  68.383  1.00  0.00    -0.418 C  
HETATM   39  C   UNL     1      -8.447  17.884  68.517  1.00  0.00    -0.298 C  
ENDBRANCH  36  37
ENDBRANCH  35  36
ENDBRANCH  33  35
ENDBRANCH   5  33
ENDBRANCH   2   3
TORSDOF 10
ENDMDL
MODEL       66
REMARK 921   NORMALIZED FREE ENERGY PREDICTED BY IDOCK:   -6.07 KCAL/MOL
REMARK 922        TOTAL FREE ENERGY PREDICTED BY IDOCK:  -11.33 KCAL/MOL
REMARK 923 INTER-LIGAND FREE ENERGY PREDICTED BY IDOCK:   -9.96 KCAL/MOL
REMARK 924 INTRA-LIGAND FREE ENERGY PREDICTED BY IDOCK:   -1.36 KCAL/MOL
REMARK 927      BINDING AFFINITY PREDICTED BY RF-SCORE:    0.00 PKD
ROOT
HETATM    1  C   UNL     1     -10.110   9.763  65.647  1.00  0.00    -0.212 C  
HETATM    2  O   UNL     1     -10.062   9.662  67.066  1.00  0.00    -0.188 OA 
ENDROOT
BRANCH   2   3
HETATM    3  C   UNL     1     -10.709  10.637  67.786  1.00  0.00    -0.257 A  
HETATM    4  C   UNL     1     -11.283  10.506  69.053  1.00  0.00    -0.259 A  
HETATM    5  C   UNL     1     -11.426  13.019  67.660  1.00  0.00    -0.324 A  
HETATM    6  C   UNL     1     -11.763  11.669  69.666  1.00  0.00    -0.418 A  
HETATM    7  C   UNL     1     -11.899  12.881  68.978  1.00  0.00    -0.306 A  
HETATM    8  C   UNL     1     -10.765  11.885  67.130  1.00  0.00    -0.280 A  
BRANCH   4   9
HETATM    9  N   UNL     1     -11.406   9.273  69.717  1.00  0.00    -0.432 NA 
HETATM   10  H   UNL     1     -12.339   8.865  69.764  1.00  0.00     0.000 HD 
BRANCH   9  11
HETATM   11  C   UNL     1     -10.370   8.552  70.321  1.00  0.00    -0.205 A  
HETATM   12  N   UNL     1      -9.458   9.269  70.986  1.00  0.00    -0.266 NA 
HETATM   13  N   UNL     1     -10.353   7.209  70.250  1.00  0.00    -0.198 NA 
HETATM   14  C   UNL     1      -9.450   6.535  70.978  1.00  0.00    -0.164 A  
HETATM   15  C   UNL     1      -8.500   7.196  71.727  1.00  0.00    -0.114 A  
HETATM   16  C   UNL     1      -8.540   8.572  71.673  1.00  0.00    -0.187 A  
BRANCH  14  17
HETATM   17  C   UNL     1      -9.551   5.071  70.940  1.00  0.00    -0.242 A  
HETATM   18  C   UNL     1     -10.328   1.693  72.081  1.00  0.00    -0.214 A  
HETATM   19  C   UNL     1      -9.184   4.311  69.839  1.00  0.00    -0.138 A  
HETATM   20  C   UNL     1     -10.784   1.837  73.393  1.00  0.00    -0.225 A  
HETATM   21  C   UNL     1     -10.829   3.089  73.994  1.00  0.00    -0.267 A  
HETATM   22  N   UNL     1      -9.404   2.990  70.120  1.00  0.00    -0.156 NA 
HETATM   23  C   UNL     1      -9.921   2.845  71.383  1.00  0.00     0.002 A  
HETATM   24  C   UNL     1      -9.117   1.896  69.219  1.00  0.00    -0.106 C  
HETATM   25  C   UNL     1      -9.987   4.128  71.949  1.00  0.00    -0.253 A  
HETATM   26  C   UNL     1     -10.446   4.235  73.282  1.00  0.00    -0.257 A  
ENDBRANCH  14  17
ENDBRANCH   9  11
ENDBRANCH   4   9
BRANCH   7  27
HETATM   27  N   UNL     1     -12.703  13.875  69.573  1.00  0.00    -0.255 N  
HETATM   28  O   UNL     1     -11.216  14.635  71.186  1.00  0.00    -0.145 OA 
HETATM   29  H   UNL     1     -13.622  14.053  69.167  1.00  0.00     0.000 HD 
HETATM   30  C   UNL     1     -12.326  14.620  70.668  1.00  0.00    -0.331 C  
BRANCH  30  31
HETATM   31  C   UNL     1     -13.414  15.517  71.137  1.00  0.00    -0.513 C  
HETATM   32  C   UNL     1     -13.773  15.519  72.427  1.00  0.00    -0.655 C  
ENDBRANCH  30  31
ENDBRANCH   7  27
BRANCH   5  33
HETATM   33  N   UNL     1     -11.588  14.180  66.904  1.00  0.00    -0.371 NA 
HETATM   34  C   UNL     1     -12.677  14.356  65.949  1.00  0.00    -0.177 C  
BRANCH  33  35
HETATM   35  C   UNL     1     -10.744  15.364  67.146  1.00  0.00    -0.314 C  
BRANCH  35  36
HETATM   36  C   UNL     1     -10.226  15.960  65.816  1.00  0.00    -0.365 C  
BRANCH  36  37
HETATM   37  N   UNL     1      -9.519  17.254  65.933  1.00  0.00    -0.525 NA 
HETATM   38  C   UNL     1      -8.112  16.992  66.260  1.00  0.00    -0.297 C  
HETATM   39  C   UNL     1     -10.111  18.101  66.972  1.00  0.00    -0.351 C  
ENDBRANCH  36  37
ENDBRANCH  35  36
ENDBRANCH  33  35
ENDBRANCH   5  33
ENDBRANCH   2   3
TORSDOF 10
ENDMDL
MODEL       67
REMARK 921   NORMALIZED FREE ENERGY PREDICTED BY IDOCK:   -6.04 KCAL/MOL
REMARK 922        TOTAL FREE ENERGY PREDICTED BY IDOCK:  -11.29 KCAL/MOL
REMARK 923 INTER-LIGAND FREE ENERGY PREDICTED BY IDOCK:   -9.19 KCAL/MOL
REMARK 924 INTRA-LIGAND FREE ENERGY PREDICTED BY IDOCK:   -2.10 KCAL/MOL
REMARK 927      BINDING AFFINITY PREDICTED BY RF-SCORE:    0.00 PKD
ROOT
HETATM    1  C   UNL     1      -7.060  12.209  68.219  1.00  0.00    -0.084 C  
HETATM    2  O   UNL     1      -7.078  11.863  66.838  1.00  0.00    -0.133 OA 
ENDROOT
BRANCH   2   3
HETATM    3  C   UNL     1      -7.609  10.641  66.504  1.00  0.00    -0.134 A  
HETATM    4  C   UNL     1      -8.557  10.380  65.512  1.00  0.00    -0.169 A  
HETATM    5  C   UNL     1      -7.543   8.234  67.138  1.00  0.00    -0.093 A  
HETATM    6  C   UNL     1      -8.851   9.038  65.240  1.00  0.00    -0.234 A  
HETATM    7  C   UNL     1      -8.418   7.992  66.062  1.00  0.00    -0.136 A  
HETATM    8  C   UNL     1      -7.103   9.572  67.273  1.00  0.00    -0.086 A  
BRANCH   4   9
HETATM    9  N   UNL     1      -9.225  11.392  64.800  1.00  0.00    -0.398 NA 
HETATM   10  H   UNL     1      -8.954  11.525  63.826  1.00  0.00     0.000 HD 
BRANCH   9  11
HETATM   11  C   UNL     1     -10.223  12.234  65.300  1.00  0.00    -0.278 A  
HETATM   12  N   UNL     1     -10.886  12.968  64.399  1.00  0.00    -0.366 NA 
HETATM   13  N   UNL     1     -10.500  12.243  66.616  1.00  0.00    -0.220 NA 
HETATM   14  C   UNL     1     -11.572  12.927  67.046  1.00  0.00    -0.362 A  
HETATM   15  C   UNL     1     -12.336  13.675  66.177  1.00  0.00    -0.476 A  
HETATM   16  C   UNL     1     -11.929  13.675  64.861  1.00  0.00    -0.383 A  
BRANCH  14  17
HETATM   17  C   UNL     1     -11.882  12.812  68.476  1.00  0.00    -0.345 A  
HETATM   18  C   UNL     1     -12.584  13.885  71.892  1.00  0.00    -0.316 A  
HETATM   19  C   UNL     1     -12.112  11.599  69.109  1.00  0.00    -0.251 A  
HETATM   20  C   UNL     1     -12.434  15.273  71.886  1.00  0.00    -0.427 A  
HETATM   21  C   UNL     1     -12.053  15.940  70.729  1.00  0.00    -0.393 A  
HETATM   22  N   UNL     1     -12.379  11.835  70.431  1.00  0.00    -0.306 NA 
HETATM   23  C   UNL     1     -12.344  13.181  70.698  1.00  0.00    -0.326 A  
HETATM   24  C   UNL     1     -12.644  10.807  71.415  1.00  0.00    -0.410 C  
HETATM   25  C   UNL     1     -11.991  13.827  69.504  1.00  0.00    -0.399 A  
HETATM   26  C   UNL     1     -11.840  15.232  69.537  1.00  0.00    -0.368 A  
ENDBRANCH  14  17
ENDBRANCH   9  11
ENDBRANCH   4   9
BRANCH   7  27
HETATM   27  N   UNL     1      -9.048   6.740  65.901  1.00  0.00    -0.340 N  
HETATM   28  O   UNL     1     -11.013   7.168  67.063  1.00  0.00    -0.369 OA 
HETATM   29  H   UNL     1      -8.580   6.039  65.328  1.00  0.00     0.000 HD 
HETATM   30  C   UNL     1     -10.257   6.407  66.470  1.00  0.00    -0.081 C  
BRANCH  30  31
HETATM   31  C   UNL     1     -10.625   4.990  66.213  1.00  0.00    -0.332 C  
HETATM   32  C   UNL     1     -10.721   4.539  64.957  1.00  0.00    -0.078 C  
ENDBRANCH  30  31
ENDBRANCH   7  27
BRANCH   5  33
HETATM   33  N   UNL     1      -7.127   7.243  68.027  1.00  0.00    -0.079 NA 
HETATM   34  C   UNL     1      -6.129   6.236  67.679  1.00  0.00    -0.021 C  
BRANCH  33  35
HETATM   35  C   UNL     1      -7.567   7.256  69.434  1.00  0.00    -0.097 C  
BRANCH  35  36
HETATM   36  C   UNL     1      -8.508   6.066  69.734  1.00  0.00    -0.126 C  
BRANCH  36  37
HETATM   37  N   UNL     1      -9.877   6.431  70.159  1.00  0.00    -0.166 NA 
HETATM   38  C   UNL     1      -9.921   7.877  70.407  1.00  0.00    -0.192 C  
HETATM   39  C   UNL     1     -10.272   5.717  71.377  1.00  0.00    -0.216 C  
ENDBRANCH  36  37
ENDBRANCH  35  36
ENDBRANCH  33  35
ENDBRANCH   5  33
ENDBRANCH   2   3
TORSDOF 10
ENDMDL
MODEL       68
REMARK 921   NORMALIZED FREE ENERGY PREDICTED BY IDOCK:   -6.04 KCAL/MOL
REMARK 922        TOTAL FREE ENERGY PREDICTED BY IDOCK:  -11.28 KCAL/MOL
REMARK 923 INTER-LIGAND FREE ENERGY PREDICTED BY IDOCK:   -9.94 KCAL/MOL
REMARK 924 INTRA-LIGAND FREE ENERGY PREDICTED BY IDOCK:   -1.35 KCAL/MOL
REMARK 927      BINDING AFFINITY PREDICTED BY RF-SCORE:    0.00 PKD
ROOT
HETATM    1  C   UNL     1      -8.225  11.938  67.648  1.00  0.00    -0.148 C  
HETATM    2  O   UNL     1      -8.435  12.887  68.689  1.00  0.00    -0.085 OA 
ENDROOT
BRANCH   2   3
HETATM    3  C   UNL     1      -8.852  14.143  68.319  1.00  0.00    -0.187 A  
HETATM    4  C   UNL     1     -10.170  14.595  68.220  1.00  0.00    -0.227 A  
HETATM    5  C   UNL     1      -7.989  16.357  67.574  1.00  0.00    -0.152 A  
HETATM    6  C   UNL     1     -10.365  15.959  67.967  1.00  0.00    -0.262 A  
HETATM    7  C   UNL     1      -9.321  16.810  67.587  1.00  0.00    -0.228 A  
HETATM    8  C   UNL     1      -7.794  15.029  68.024  1.00  0.00    -0.129 A  
BRANCH   4   9
HETATM    9  N   UNL     1     -11.286  13.749  68.349  1.00  0.00    -0.257 NA 
HETATM   10  H   UNL     1     -11.718  13.421  67.486  1.00  0.00     0.000 HD 
BRANCH   9  11
HETATM   11  C   UNL     1     -11.860  13.316  69.548  1.00  0.00    -0.327 A  
HETATM   12  N   UNL     1     -12.490  14.246  70.274  1.00  0.00    -0.356 NA 
HETATM   13  N   UNL     1     -11.797  12.018  69.896  1.00  0.00    -0.337 NA 
HETATM   14  C   UNL     1     -12.499  11.599  70.959  1.00  0.00    -0.334 A  
HETATM   15  C   UNL     1     -13.213  12.486  71.737  1.00  0.00    -0.444 A  
HETATM   16  C   UNL     1     -13.152  13.808  71.356  1.00  0.00    -0.337 A  
BRANCH  14  17
HETATM   17  C   UNL     1     -12.474  10.155  71.224  1.00  0.00    -0.510 A  
HETATM   18  C   UNL     1     -11.076   6.826  71.747  1.00  0.00    -0.275 A  
HETATM   19  C   UNL     1     -13.614   9.411  71.493  1.00  0.00    -0.336 A  
HETATM   20  C   UNL     1      -9.703   6.958  71.525  1.00  0.00    -0.164 A  
HETATM   21  C   UNL     1      -9.160   8.181  71.151  1.00  0.00    -0.183 A  
HETATM   22  N   UNL     1     -13.251   8.108  71.700  1.00  0.00    -0.339 NA 
HETATM   23  C   UNL     1     -11.891   7.960  71.586  1.00  0.00    -0.288 A  
HETATM   24  C   UNL     1     -14.174   7.030  71.983  1.00  0.00    -0.154 C  
HETATM   25  C   UNL     1     -11.370   9.218  71.243  1.00  0.00    -0.423 A  
HETATM   26  C   UNL     1      -9.978   9.312  71.019  1.00  0.00    -0.364 A  
ENDBRANCH  14  17
ENDBRANCH   9  11
ENDBRANCH   4   9
BRANCH   7  27
HETATM   27  N   UNL     1      -9.674  18.055  67.026  1.00  0.00    -0.291 N  
HETATM   28  O   UNL     1      -8.960  19.447  68.742  1.00  0.00    -0.368 OA 
HETATM   29  H   UNL     1     -10.059  18.062  66.082  1.00  0.00     0.000 HD 
HETATM   30  C   UNL     1      -9.531  19.262  67.673  1.00  0.00    -0.315 C  
BRANCH  30  31
HETATM   31  C   UNL     1     -10.080  20.392  66.879  1.00  0.00    -0.503 C  
HETATM   32  C   UNL     1     -10.472  20.195  65.615  1.00  0.00    -0.323 C  
ENDBRANCH  30  31
ENDBRANCH   7  27
BRANCH   5  33
HETATM   33  N   UNL     1      -6.915  17.139  67.147  1.00  0.00    -0.164 NA 
HETATM   34  C   UNL     1      -5.790  17.477  68.012  1.00  0.00    -0.148 C  
BRANCH  33  35
HETATM   35  C   UNL     1      -6.787  17.540  65.735  1.00  0.00    -0.049 C  
BRANCH  35  36
HETATM   36  C   UNL     1      -5.469  18.313  65.493  1.00  0.00    -0.185 C  
BRANCH  36  37
HETATM   37  N   UNL     1      -5.621  19.660  64.902  1.00  0.00    -0.177 NA 
HETATM   38  C   UNL     1      -6.805  20.299  65.490  1.00  0.00    -0.284 C  
HETATM   39  C   UNL     1      -5.776  19.596  63.446  1.00  0.00    -0.282 C  
ENDBRANCH  36  37
ENDBRANCH  35  36
ENDBRANCH  33  35
ENDBRANCH   5  33
ENDBRANCH   2   3
TORSDOF 10
ENDMDL
MODEL       69
REMARK 921   NORMALIZED FREE ENERGY PREDICTED BY IDOCK:   -6.02 KCAL/MOL
REMARK 922        TOTAL FREE ENERGY PREDICTED BY IDOCK:  -11.26 KCAL/MOL
REMARK 923 INTER-LIGAND FREE ENERGY PREDICTED BY IDOCK:   -9.56 KCAL/MOL
REMARK 924 INTRA-LIGAND FREE ENERGY PREDICTED BY IDOCK:   -1.70 KCAL/MOL
REMARK 927      BINDING AFFINITY PREDICTED BY RF-SCORE:    0.00 PKD
ROOT
HETATM    1  C   UNL     1     -12.631   8.999  72.084  1.00  0.00    -0.391 C  
HETATM    2  O   UNL     1     -12.232  10.266  71.573  1.00  0.00    -0.374 OA 
ENDROOT
BRANCH   2   3
HETATM    3  C   UNL     1     -11.315  10.270  70.550  1.00  0.00    -0.341 A  
HETATM    4  C   UNL     1     -11.183  11.229  69.544  1.00  0.00    -0.272 A  
HETATM    5  C   UNL     1      -9.443   8.938  69.589  1.00  0.00    -0.168 A  
HETATM    6  C   UNL     1     -10.082  11.114  68.685  1.00  0.00    -0.208 A  
HETATM    7  C   UNL     1      -9.269   9.975  68.653  1.00  0.00    -0.152 A  
HETATM    8  C   UNL     1     -10.435   9.167  70.572  1.00  0.00    -0.289 A  
BRANCH   4   9
HETATM    9  N   UNL     1     -12.100  12.278  69.355  1.00  0.00    -0.226 NA 
HETATM   10  H   UNL     1     -12.961  12.053  68.858  1.00  0.00     0.000 HD 
BRANCH   9  11
HETATM   11  C   UNL     1     -11.943  13.600  69.782  1.00  0.00    -0.341 A  
HETATM   12  N   UNL     1     -12.685  13.977  70.830  1.00  0.00    -0.345 NA 
HETATM   13  N   UNL     1     -11.054  14.405  69.173  1.00  0.00    -0.256 NA 
HETATM   14  C   UNL     1     -10.799  15.608  69.709  1.00  0.00    -0.308 A  
HETATM   15  C   UNL     1     -11.488  16.057  70.816  1.00  0.00    -0.444 A  
HETATM   16  C   UNL     1     -12.440  15.201  71.322  1.00  0.00    -0.344 A  
BRANCH  14  17
HETATM   17  C   UNL     1      -9.743  16.396  69.059  1.00  0.00    -0.262 A  
HETATM   18  C   UNL     1      -8.222  19.099  67.139  1.00  0.00    -0.290 A  
HETATM   19  C   UNL     1      -8.397  16.070  69.135  1.00  0.00    -0.244 A  
HETATM   20  C   UNL     1      -9.288  19.877  66.680  1.00  0.00    -0.500 A  
HETATM   21  C   UNL     1     -10.599  19.520  66.965  1.00  0.00    -0.607 A  
HETATM   22  N   UNL     1      -7.678  17.000  68.434  1.00  0.00    -0.219 NA 
HETATM   23  C   UNL     1      -8.511  17.951  67.898  1.00  0.00    -0.251 A  
HETATM   24  C   UNL     1      -6.241  16.977  68.266  1.00  0.00    -0.135 C  
HETATM   25  C   UNL     1      -9.823  17.581  68.232  1.00  0.00    -0.319 A  
HETATM   26  C   UNL     1     -10.876  18.388  67.744  1.00  0.00    -0.268 A  
ENDBRANCH  14  17
ENDBRANCH   9  11
ENDBRANCH   4   9
BRANCH   7  27
HETATM   27  N   UNL     1      -8.424   9.816  67.535  1.00  0.00    -0.121 N  
HETATM   28  O   UNL     1     -10.029   9.332  65.928  1.00  0.00    -0.307 OA 
HETATM   29  H   UNL     1      -7.427   9.990  67.661  1.00  0.00     0.000 HD 
HETATM   30  C   UNL     1      -8.861   9.440  66.285  1.00  0.00    -0.147 C  
BRANCH  30  31
HETATM   31  C   UNL     1      -7.737   9.253  65.331  1.00  0.00    -0.099 C  
HETATM   32  C   UNL     1      -7.716   9.934  64.178  1.00  0.00    -0.138 C  
ENDBRANCH  30  31
ENDBRANCH   7  27
BRANCH   5  33
HETATM   33  N   UNL     1      -8.706   7.754  69.568  1.00  0.00    -0.135 NA 
HETATM   34  C   UNL     1      -7.360   7.651  70.122  1.00  0.00    -0.076 C  
BRANCH  33  35
HETATM   35  C   UNL     1      -9.317   6.491  69.118  1.00  0.00    -0.133 C  
BRANCH  35  36
HETATM   36  C   UNL     1      -8.810   6.097  67.711  1.00  0.00    -0.110 C  
BRANCH  36  37
HETATM   37  N   UNL     1      -9.860   5.918  66.685  1.00  0.00    -0.156 NA 
HETATM   38  C   UNL     1     -11.134   6.404  67.227  1.00  0.00    -0.330 C  
HETATM   39  C   UNL     1     -10.001   4.511  66.298  1.00  0.00    -0.247 C  
ENDBRANCH  36  37
ENDBRANCH  35  36
ENDBRANCH  33  35
ENDBRANCH   5  33
ENDBRANCH   2   3
TORSDOF 10
ENDMDL
MODEL       70
REMARK 921   NORMALIZED FREE ENERGY PREDICTED BY IDOCK:   -6.02 KCAL/MOL
REMARK 922        TOTAL FREE ENERGY PREDICTED BY IDOCK:  -11.25 KCAL/MOL
REMARK 923 INTER-LIGAND FREE ENERGY PREDICTED BY IDOCK:   -9.83 KCAL/MOL
REMARK 924 INTRA-LIGAND FREE ENERGY PREDICTED BY IDOCK:   -1.42 KCAL/MOL
REMARK 927      BINDING AFFINITY PREDICTED BY RF-SCORE:    0.00 PKD
ROOT
HETATM    1  C   UNL     1     -13.054  13.720  72.662  1.00  0.00    -0.391 C  
HETATM    2  O   UNL     1     -13.342  12.430  72.132  1.00  0.00    -0.528 OA 
ENDROOT
BRANCH   2   3
HETATM    3  C   UNL     1     -12.718  12.081  70.958  1.00  0.00    -0.241 A  
HETATM    4  C   UNL     1     -12.529  10.790  70.459  1.00  0.00    -0.360 A  
HETATM    5  C   UNL     1     -11.524  13.060  69.004  1.00  0.00    -0.303 A  
HETATM    6  C   UNL     1     -11.996  10.671  69.169  1.00  0.00    -0.230 A  
HETATM    7  C   UNL     1     -11.445  11.757  68.480  1.00  0.00    -0.296 A  
HETATM    8  C   UNL     1     -12.242  13.184  70.218  1.00  0.00    -0.376 A  
BRANCH   4   9
HETATM    9  N   UNL     1     -12.834   9.629  71.191  1.00  0.00    -0.430 NA 
HETATM   10  H   UNL     1     -13.791   9.535  71.528  1.00  0.00     0.000 HD 
BRANCH   9  11
HETATM   11  C   UNL     1     -11.949   8.592  71.503  1.00  0.00    -0.306 A  
HETATM   12  N   UNL     1     -11.616   8.463  72.792  1.00  0.00    -0.296 NA 
HETATM   13  N   UNL     1     -11.514   7.764  70.535  1.00  0.00    -0.247 NA 
HETATM   14  C   UNL     1     -10.807   6.679  70.884  1.00  0.00    -0.252 A  
HETATM   15  C   UNL     1     -10.457   6.447  72.197  1.00  0.00    -0.234 A  
HETATM   16  C   UNL     1     -10.873   7.392  73.109  1.00  0.00    -0.386 A  
BRANCH  14  17
HETATM   17  C   UNL     1     -10.452   5.760  69.795  1.00  0.00    -0.363 A  
HETATM   18  C   UNL     1      -9.160   2.756  68.178  1.00  0.00    -0.228 A  
HETATM   19  C   UNL     1     -10.727   6.020  68.461  1.00  0.00    -0.286 A  
HETATM   20  C   UNL     1      -8.612   1.984  69.205  1.00  0.00    -0.102 A  
HETATM   21  C   UNL     1      -8.615   2.444  70.516  1.00  0.00    -0.101 A  
HETATM   22  N   UNL     1     -10.278   4.971  67.705  1.00  0.00    -0.131 NA 
HETATM   23  C   UNL     1      -9.716   4.006  68.504  1.00  0.00    -0.064 A  
HETATM   24  C   UNL     1     -10.367   4.895  66.263  1.00  0.00    -0.298 C  
HETATM   25  C   UNL     1      -9.766   4.484  69.822  1.00  0.00    -0.285 A  
HETATM   26  C   UNL     1      -9.196   3.680  70.835  1.00  0.00    -0.199 A  
ENDBRANCH  14  17
ENDBRANCH   9  11
ENDBRANCH   4   9
BRANCH   7  27
HETATM   27  N   UNL     1     -10.635  11.468  67.361  1.00  0.00    -0.205 N  
HETATM   28  O   UNL     1      -8.640  11.017  68.459  1.00  0.00    -0.145 OA 
HETATM   29  H   UNL     1     -11.075  11.464  66.441  1.00  0.00     0.000 HD 
HETATM   30  C   UNL     1      -9.289  11.192  67.434  1.00  0.00    -0.164 C  
BRANCH  30  31
HETATM   31  C   UNL     1      -8.677  11.028  66.089  1.00  0.00    -0.188 C  
HETATM   32  C   UNL     1      -9.196  10.153  65.219  1.00  0.00    -0.257 C  
ENDBRANCH  30  31
ENDBRANCH   7  27
BRANCH   5  33
HETATM   33  N   UNL     1     -10.941  14.171  68.394  1.00  0.00    -0.246 NA 
HETATM   34  C   UNL     1      -9.631  14.687  68.779  1.00  0.00    -0.210 C  
BRANCH  33  35
HETATM   35  C   UNL     1     -11.558  14.794  67.209  1.00  0.00    -0.369 C  
BRANCH  35  36
HETATM   36  C   UNL     1     -10.518  14.998  66.082  1.00  0.00    -0.305 C  
BRANCH  36  37
HETATM   37  N   UNL     1     -10.994  14.690  64.717  1.00  0.00    -0.397 NA 
HETATM   38  C   UNL     1     -11.937  15.735  64.301  1.00  0.00    -0.058 C  
HETATM   39  C   UNL     1     -11.658  13.385  64.658  1.00  0.00    -0.355 C  
ENDBRANCH  36  37
ENDBRANCH  35  36
ENDBRANCH  33  35
ENDBRANCH   5  33
ENDBRANCH   2   3
TORSDOF 10
ENDMDL
MODEL       71
REMARK 921   NORMALIZED FREE ENERGY PREDICTED BY IDOCK:   -6.02 KCAL/MOL
REMARK 922        TOTAL FREE ENERGY PREDICTED BY IDOCK:  -11.25 KCAL/MOL
REMARK 923 INTER-LIGAND FREE ENERGY PREDICTED BY IDOCK:   -9.12 KCAL/MOL
REMARK 924 INTRA-LIGAND FREE ENERGY PREDICTED BY IDOCK:   -2.13 KCAL/MOL
REMARK 927      BINDING AFFINITY PREDICTED BY RF-SCORE:    0.00 PKD
ROOT
HETATM    1  C   UNL     1      -9.934   8.987  66.275  1.00  0.00    -0.281 C  
HETATM    2  O   UNL     1      -9.159   9.927  65.538  1.00  0.00    -0.163 OA 
ENDROOT
BRANCH   2   3
HETATM    3  C   UNL     1      -8.923  11.145  66.128  1.00  0.00    -0.195 A  
HETATM    4  C   UNL     1      -7.817  11.504  66.902  1.00  0.00    -0.163 A  
HETATM    5  C   UNL     1      -9.927  13.403  66.437  1.00  0.00    -0.293 A  
HETATM    6  C   UNL     1      -7.706  12.846  67.283  1.00  0.00    -0.122 A  
HETATM    7  C   UNL     1      -8.752  13.763  67.122  1.00  0.00    -0.221 A  
HETATM    8  C   UNL     1      -9.935  12.098  65.888  1.00  0.00    -0.267 A  
BRANCH   4   9
HETATM    9  N   UNL     1      -6.837  10.584  67.315  1.00  0.00    -0.080 NA 
HETATM   10  H   UNL     1      -6.168  10.275  66.611  1.00  0.00     0.000 HD 
BRANCH   9  11
HETATM   11  C   UNL     1      -6.692  10.053  68.601  1.00  0.00    -0.053 A  
HETATM   12  N   UNL     1      -5.458  10.075  69.117  1.00  0.00    -0.035 NA 
HETATM   13  N   UNL     1      -7.768   9.594  69.265  1.00  0.00    -0.088 NA 
HETATM   14  C   UNL     1      -7.632   9.250  70.555  1.00  0.00    -0.139 A  
HETATM   15  C   UNL     1      -6.403   9.285  71.177  1.00  0.00    -0.083 A  
HETATM   16  C   UNL     1      -5.342   9.687  70.396  1.00  0.00    -0.037 A  
BRANCH  14  17
HETATM   17  C   UNL     1      -8.863   8.858  71.253  1.00  0.00    -0.298 A  
HETATM   18  C   UNL     1     -12.416   8.779  72.081  1.00  0.00    -0.460 A  
HETATM   19  C   UNL     1      -8.896   7.898  72.255  1.00  0.00    -0.148 A  
HETATM   20  C   UNL     1     -13.010   9.749  71.272  1.00  0.00    -0.470 A  
HETATM   21  C   UNL     1     -12.241  10.521  70.410  1.00  0.00    -0.415 A  
HETATM   22  N   UNL     1     -10.186   7.762  72.693  1.00  0.00    -0.253 NA 
HETATM   23  C   UNL     1     -11.023   8.600  71.999  1.00  0.00    -0.362 A  
HETATM   24  C   UNL     1     -10.607   6.870  73.751  1.00  0.00    -0.301 C  
HETATM   25  C   UNL     1     -10.222   9.339  71.114  1.00  0.00    -0.387 A  
HETATM   26  C   UNL     1     -10.856  10.318  70.316  1.00  0.00    -0.349 A  
ENDBRANCH  14  17
ENDBRANCH   9  11
ENDBRANCH   4   9
BRANCH   7  27
HETATM   27  N   UNL     1      -8.668  14.972  67.844  1.00  0.00    -0.152 N  
HETATM   28  O   UNL     1      -7.887  16.356  66.151  1.00  0.00    -0.261 OA 
HETATM   29  H   UNL     1      -8.991  14.975  68.811  1.00  0.00     0.000 HD 
HETATM   30  C   UNL     1      -8.179  16.149  67.323  1.00  0.00    -0.177 C  
BRANCH  30  31
HETATM   31  C   UNL     1      -8.117  17.229  68.342  1.00  0.00    -0.259 C  
HETATM   32  C   UNL     1      -8.414  18.489  68.002  1.00  0.00    -0.302 C  
ENDBRANCH  30  31
ENDBRANCH   7  27
BRANCH   5  33
HETATM   33  N   UNL     1     -11.026  14.252  66.299  1.00  0.00    -0.312 NA 
HETATM   34  C   UNL     1     -11.112  15.270  65.257  1.00  0.00    -0.376 C  
BRANCH  33  35
HETATM   35  C   UNL     1     -12.239  14.058  67.113  1.00  0.00    -0.321 C  
BRANCH  35  36
HETATM   36  C   UNL     1     -11.877  13.726  68.580  1.00  0.00    -0.374 C  
BRANCH  36  37
HETATM   37  N   UNL     1     -12.439  14.643  69.595  1.00  0.00    -0.219 NA 
HETATM   38  C   UNL     1     -11.657  15.885  69.591  1.00  0.00    -0.336 C  
HETATM   39  C   UNL     1     -12.403  14.051  70.936  1.00  0.00    -0.372 C  
ENDBRANCH  36  37
ENDBRANCH  35  36
ENDBRANCH  33  35
ENDBRANCH   5  33
ENDBRANCH   2   3
TORSDOF 10
ENDMDL
MODEL       72
REMARK 921   NORMALIZED FREE ENERGY PREDICTED BY IDOCK:   -6.01 KCAL/MOL
REMARK 922        TOTAL FREE ENERGY PREDICTED BY IDOCK:  -11.24 KCAL/MOL
REMARK 923 INTER-LIGAND FREE ENERGY PREDICTED BY IDOCK:   -9.86 KCAL/MOL
REMARK 924 INTRA-LIGAND FREE ENERGY PREDICTED BY IDOCK:   -1.38 KCAL/MOL
REMARK 927      BINDING AFFINITY PREDICTED BY RF-SCORE:    0.00 PKD
ROOT
HETATM    1  C   UNL     1     -12.395  12.401  64.317  1.00  0.00    -0.455 C  
HETATM    2  O   UNL     1     -12.522  12.113  65.706  1.00  0.00    -0.482 OA 
ENDROOT
BRANCH   2   3
HETATM    3  C   UNL     1     -11.491  12.504  66.525  1.00  0.00    -0.362 A  
HETATM    4  C   UNL     1     -10.727  11.689  67.363  1.00  0.00    -0.234 A  
HETATM    5  C   UNL     1     -10.229  14.520  67.264  1.00  0.00    -0.255 A  
HETATM    6  C   UNL     1      -9.626  12.273  68.001  1.00  0.00    -0.206 A  
HETATM    7  C   UNL     1      -9.411  13.656  68.015  1.00  0.00    -0.208 A  
HETATM    8  C   UNL     1     -11.214  13.887  66.469  1.00  0.00    -0.327 A  
BRANCH   4   9
HETATM    9  N   UNL     1     -11.022  10.334  67.595  1.00  0.00    -0.303 NA 
HETATM   10  H   UNL     1     -11.142   9.740  66.775  1.00  0.00     0.000 HD 
BRANCH   9  11
HETATM   11  C   UNL     1     -11.169   9.723  68.845  1.00  0.00    -0.030 A  
HETATM   12  N   UNL     1     -11.815  10.430  69.779  1.00  0.00    -0.234 NA 
HETATM   13  N   UNL     1     -10.709   8.474  69.042  1.00  0.00    -0.151 NA 
HETATM   14  C   UNL     1     -11.012   7.848  70.189  1.00  0.00    -0.233 A  
HETATM   15  C   UNL     1     -11.713   8.489  71.189  1.00  0.00    -0.322 A  
HETATM   16  C   UNL     1     -12.070   9.795  70.933  1.00  0.00    -0.321 A  
BRANCH  14  17
HETATM   17  C   UNL     1     -10.572   6.452  70.301  1.00  0.00    -0.290 A  
HETATM   18  C   UNL     1      -9.969   3.198  71.837  1.00  0.00    -0.209 A  
HETATM   19  C   UNL     1     -10.040   5.735  69.240  1.00  0.00    -0.205 A  
HETATM   20  C   UNL     1     -10.343   3.341  73.176  1.00  0.00    -0.242 A  
HETATM   21  C   UNL     1     -10.796   4.562  73.658  1.00  0.00    -0.371 A  
HETATM   22  N   UNL     1      -9.739   4.470  69.668  1.00  0.00    -0.204 NA 
HETATM   23  C   UNL     1     -10.067   4.317  70.992  1.00  0.00    -0.095 A  
HETATM   24  C   UNL     1      -9.142   3.441  68.845  1.00  0.00    -0.144 C  
HETATM   25  C   UNL     1     -10.554   5.556  71.439  1.00  0.00    -0.310 A  
HETATM   26  C   UNL     1     -10.915   5.666  72.801  1.00  0.00    -0.320 A  
ENDBRANCH  14  17
ENDBRANCH   9  11
ENDBRANCH   4   9
BRANCH   7  27
HETATM   27  N   UNL     1      -8.492  14.158  68.960  1.00  0.00    -0.361 N  
HETATM   28  O   UNL     1      -6.640  14.399  67.580  1.00  0.00    -0.231 OA 
HETATM   29  H   UNL     1      -8.829  14.337  69.906  1.00  0.00     0.000 HD 
HETATM   30  C   UNL     1      -7.169  14.421  68.685  1.00  0.00    -0.123 C  
BRANCH  30  31
HETATM   31  C   UNL     1      -6.418  14.843  69.897  1.00  0.00    -0.171 C  
HETATM   32  C   UNL     1      -6.026  16.116  70.033  1.00  0.00    -0.164 C  
ENDBRANCH  30  31
ENDBRANCH   7  27
BRANCH   5  33
HETATM   33  N   UNL     1     -10.102  15.910  67.286  1.00  0.00    -0.255 NA 
HETATM   34  C   UNL     1      -9.567  16.673  66.163  1.00  0.00    -0.294 C  
BRANCH  33  35
HETATM   35  C   UNL     1     -10.652  16.701  68.400  1.00  0.00    -0.343 C  
BRANCH  35  36
HETATM   36  C   UNL     1     -11.815  15.953  69.094  1.00  0.00    -0.330 C  
BRANCH  36  37
HETATM   37  N   UNL     1     -11.488  15.342  70.400  1.00  0.00    -0.299 NA 
HETATM   38  C   UNL     1     -12.147  14.033  70.484  1.00  0.00    -0.353 C  
HETATM   39  C   UNL     1     -11.933  16.183  71.515  1.00  0.00    -0.430 C  
ENDBRANCH  36  37
ENDBRANCH  35  36
ENDBRANCH  33  35
ENDBRANCH   5  33
ENDBRANCH   2   3
TORSDOF 10
ENDMDL
MODEL       73
REMARK 921   NORMALIZED FREE ENERGY PREDICTED BY IDOCK:   -5.99 KCAL/MOL
REMARK 922        TOTAL FREE ENERGY PREDICTED BY IDOCK:  -11.20 KCAL/MOL
REMARK 923 INTER-LIGAND FREE ENERGY PREDICTED BY IDOCK:   -9.43 KCAL/MOL
REMARK 924 INTRA-LIGAND FREE ENERGY PREDICTED BY IDOCK:   -1.77 KCAL/MOL
REMARK 927      BINDING AFFINITY PREDICTED BY RF-SCORE:    0.00 PKD
ROOT
HETATM    1  C   UNL     1     -13.886   9.393  72.127  1.00  0.00    -0.365 C  
HETATM    2  O   UNL     1     -13.276  10.469  71.422  1.00  0.00    -0.376 OA 
ENDROOT
BRANCH   2   3
HETATM    3  C   UNL     1     -12.036  10.239  70.876  1.00  0.00    -0.375 A  
HETATM    4  C   UNL     1     -11.503  10.824  69.725  1.00  0.00    -0.311 A  
HETATM    5  C   UNL     1      -9.972   8.883  71.197  1.00  0.00    -0.272 A  
HETATM    6  C   UNL     1     -10.160  10.557  69.431  1.00  0.00    -0.233 A  
HETATM    7  C   UNL     1      -9.426   9.568  70.096  1.00  0.00    -0.246 A  
HETATM    8  C   UNL     1     -11.260   9.309  71.601  1.00  0.00    -0.449 A  
BRANCH   4   9
HETATM    9  N   UNL     1     -12.250  11.644  68.862  1.00  0.00    -0.377 NA 
HETATM   10  H   UNL     1     -13.261  11.658  68.999  1.00  0.00     0.000 HD 
BRANCH   9  11
HETATM   11  C   UNL     1     -11.741  12.441  67.832  1.00  0.00    -0.360 A  
HETATM   12  N   UNL     1     -11.942  12.000  66.585  1.00  0.00    -0.603 NA 
HETATM   13  N   UNL     1     -11.126  13.602  68.120  1.00  0.00    -0.247 NA 
HETATM   14  C   UNL     1     -10.801  14.428  67.114  1.00  0.00    -0.292 A  
HETATM   15  C   UNL     1     -11.014  14.070  65.800  1.00  0.00    -0.294 A  
HETATM   16  C   UNL     1     -11.570  12.827  65.596  1.00  0.00    -0.370 A  
BRANCH  14  17
HETATM   17  C   UNL     1     -10.229  15.725  67.500  1.00  0.00    -0.265 A  
HETATM   18  C   UNL     1      -7.772  18.109  68.760  1.00  0.00    -0.277 A  
HETATM   19  C   UNL     1     -10.894  16.930  67.326  1.00  0.00    -0.131 A  
HETATM   20  C   UNL     1      -6.695  17.337  69.202  1.00  0.00    -0.243 A  
HETATM   21  C   UNL     1      -6.741  15.951  69.132  1.00  0.00    -0.164 A  
HETATM   22  N   UNL     1     -10.093  17.944  67.777  1.00  0.00    -0.330 NA 
HETATM   23  C   UNL     1      -8.899  17.448  68.240  1.00  0.00    -0.264 A  
HETATM   24  C   UNL     1     -10.458  19.344  67.781  1.00  0.00    -0.441 C  
HETATM   25  C   UNL     1      -8.964  16.051  68.124  1.00  0.00    -0.183 A  
HETATM   26  C   UNL     1      -7.859  15.302  68.588  1.00  0.00    -0.142 A  
ENDBRANCH  14  17
ENDBRANCH   9  11
ENDBRANCH   4   9
BRANCH   7  27
HETATM   27  N   UNL     1      -8.220   9.146  69.499  1.00  0.00    -0.114 N  
HETATM   28  O   UNL     1      -6.721  10.312  70.835  1.00  0.00    -0.340 OA 
HETATM   29  H   UNL     1      -8.274   8.460  68.746  1.00  0.00     0.000 HD 
HETATM   30  C   UNL     1      -6.975   9.603  69.868  1.00  0.00    -0.081 C  
BRANCH  30  31
HETATM   31  C   UNL     1      -5.899   9.062  68.997  1.00  0.00    -0.040 C  
HETATM   32  C   UNL     1      -6.212   8.368  67.896  1.00  0.00    -0.052 C  
ENDBRANCH  30  31
ENDBRANCH   7  27
BRANCH   5  33
HETATM   33  N   UNL     1      -9.314   7.847  71.861  1.00  0.00    -0.145 NA 
HETATM   34  C   UNL     1      -8.440   8.073  73.008  1.00  0.00    -0.193 C  
BRANCH  33  35
HETATM   35  C   UNL     1      -9.592   6.439  71.528  1.00  0.00    -0.158 C  
BRANCH  35  36
HETATM   36  C   UNL     1      -9.432   5.531  72.771  1.00  0.00    -0.148 C  
BRANCH  36  37
HETATM   37  N   UNL     1     -10.671   5.279  73.537  1.00  0.00    -0.266 NA 
HETATM   38  C   UNL     1     -10.603   3.929  74.109  1.00  0.00    -0.215 C  
HETATM   39  C   UNL     1     -11.862   5.388  72.689  1.00  0.00    -0.073 C  
ENDBRANCH  36  37
ENDBRANCH  35  36
ENDBRANCH  33  35
ENDBRANCH   5  33
ENDBRANCH   2   3
TORSDOF 10
ENDMDL
MODEL       74
REMARK 921   NORMALIZED FREE ENERGY PREDICTED BY IDOCK:   -5.98 KCAL/MOL
REMARK 922        TOTAL FREE ENERGY PREDICTED BY IDOCK:  -11.19 KCAL/MOL
REMARK 923 INTER-LIGAND FREE ENERGY PREDICTED BY IDOCK:   -9.50 KCAL/MOL
REMARK 924 INTRA-LIGAND FREE ENERGY PREDICTED BY IDOCK:   -1.68 KCAL/MOL
REMARK 927      BINDING AFFINITY PREDICTED BY RF-SCORE:    0.00 PKD
ROOT
HETATM    1  C   UNL     1     -12.525  13.095  65.822  1.00  0.00    -0.377 C  
HETATM    2  O   UNL     1     -11.183  12.624  65.760  1.00  0.00    -0.291 OA 
ENDROOT
BRANCH   2   3
HETATM    3  C   UNL     1     -10.221  13.386  66.378  1.00  0.00    -0.293 A  
HETATM    4  C   UNL     1      -8.972  12.957  66.832  1.00  0.00    -0.210 A  
HETATM    5  C   UNL     1      -9.775  15.695  67.197  1.00  0.00    -0.223 A  
HETATM    6  C   UNL     1      -8.087  13.935  67.302  1.00  0.00    -0.162 A  
HETATM    7  C   UNL     1      -8.485  15.255  67.546  1.00  0.00    -0.177 A  
HETATM    8  C   UNL     1     -10.587  14.739  66.542  1.00  0.00    -0.299 A  
BRANCH   4   9
HETATM    9  N   UNL     1      -8.581  11.606  66.847  1.00  0.00    -0.169 NA 
HETATM   10  H   UNL     1      -8.571  11.119  65.951  1.00  0.00     0.000 HD 
BRANCH   9  11
HETATM   11  C   UNL     1      -8.206  10.867  67.973  1.00  0.00    -0.121 A  
HETATM   12  N   UNL     1      -6.931  10.981  68.360  1.00  0.00    -0.068 NA 
HETATM   13  N   UNL     1      -9.119  10.128  68.629  1.00  0.00    -0.137 NA 
HETATM   14  C   UNL     1      -8.777   9.568  69.799  1.00  0.00    -0.194 A  
HETATM   15  C   UNL     1      -7.494   9.674  70.292  1.00  0.00    -0.165 A  
HETATM   16  C   UNL     1      -6.604  10.378  69.513  1.00  0.00    -0.073 A  
BRANCH  14  17
HETATM   17  C   UNL     1      -9.846   8.863  70.517  1.00  0.00    -0.242 A  
HETATM   18  C   UNL     1     -13.076   8.342  72.133  1.00  0.00    -0.357 A  
HETATM   19  C   UNL     1      -9.768   7.525  70.876  1.00  0.00    -0.173 A  
HETATM   20  C   UNL     1     -13.711   9.586  72.109  1.00  0.00    -0.447 A  
HETATM   21  C   UNL     1     -13.073  10.697  71.572  1.00  0.00    -0.527 A  
HETATM   22  N   UNL     1     -10.922   7.173  71.522  1.00  0.00    -0.234 NA 
HETATM   23  C   UNL     1     -11.780   8.242  71.595  1.00  0.00    -0.292 A  
HETATM   24  C   UNL     1     -11.194   5.861  72.067  1.00  0.00    -0.273 C  
HETATM   25  C   UNL     1     -11.122   9.337  71.013  1.00  0.00    -0.396 A  
HETATM   26  C   UNL     1     -11.791  10.582  71.015  1.00  0.00    -0.438 A  
ENDBRANCH  14  17
ENDBRANCH   9  11
ENDBRANCH   4   9
BRANCH   7  27
HETATM   27  N   UNL     1      -7.629  16.053  68.334  1.00  0.00    -0.140 N  
HETATM   28  O   UNL     1      -6.718  17.377  66.658  1.00  0.00    -0.182 OA 
HETATM   29  H   UNL     1      -7.650  15.923  69.345  1.00  0.00     0.000 HD 
HETATM   30  C   UNL     1      -6.767  16.997  67.822  1.00  0.00    -0.148 C  
BRANCH  30  31
HETATM   31  C   UNL     1      -5.918  17.610  68.877  1.00  0.00    -0.191 C  
HETATM   32  C   UNL     1      -6.024  18.916  69.147  1.00  0.00    -0.246 C  
ENDBRANCH  30  31
ENDBRANCH   7  27
BRANCH   5  33
HETATM   33  N   UNL     1     -10.249  16.979  67.471  1.00  0.00    -0.313 NA 
HETATM   34  C   UNL     1     -10.137  18.082  66.522  1.00  0.00    -0.379 C  
BRANCH  33  35
HETATM   35  C   UNL     1     -11.034  17.252  68.688  1.00  0.00    -0.097 C  
BRANCH  35  36
HETATM   36  C   UNL     1     -10.946  16.071  69.683  1.00  0.00    -0.326 C  
BRANCH  36  37
HETATM   37  N   UNL     1     -12.213  15.346  69.921  1.00  0.00    -0.347 NA 
HETATM   38  C   UNL     1     -12.621  15.560  71.315  1.00  0.00    -0.447 C  
HETATM   39  C   UNL     1     -12.067  13.909  69.673  1.00  0.00    -0.349 C  
ENDBRANCH  36  37
ENDBRANCH  35  36
ENDBRANCH  33  35
ENDBRANCH   5  33
ENDBRANCH   2   3
TORSDOF 10
ENDMDL
MODEL       75
REMARK 921   NORMALIZED FREE ENERGY PREDICTED BY IDOCK:   -5.97 KCAL/MOL
REMARK 922        TOTAL FREE ENERGY PREDICTED BY IDOCK:  -11.18 KCAL/MOL
REMARK 923 INTER-LIGAND FREE ENERGY PREDICTED BY IDOCK:   -9.93 KCAL/MOL
REMARK 924 INTRA-LIGAND FREE ENERGY PREDICTED BY IDOCK:   -1.25 KCAL/MOL
REMARK 927      BINDING AFFINITY PREDICTED BY RF-SCORE:    0.00 PKD
ROOT
HETATM    1  C   UNL     1      -8.438   9.014  62.653  1.00  0.00    -0.210 C  
HETATM    2  O   UNL     1      -8.026   9.717  63.820  1.00  0.00    -0.130 OA 
ENDROOT
BRANCH   2   3
HETATM    3  C   UNL     1      -8.855   9.657  64.915  1.00  0.00    -0.199 A  
HETATM    4  C   UNL     1      -9.724  10.651  65.367  1.00  0.00    -0.252 A  
HETATM    5  C   UNL     1      -9.506   8.167  66.801  1.00  0.00    -0.198 A  
HETATM    6  C   UNL     1     -10.587  10.322  66.420  1.00  0.00    -0.177 A  
HETATM    7  C   UNL     1     -10.448   9.147  67.167  1.00  0.00    -0.255 A  
HETATM    8  C   UNL     1      -8.781   8.434  65.615  1.00  0.00    -0.204 A  
BRANCH   4   9
HETATM    9  N   UNL     1      -9.758  11.948  64.825  1.00  0.00    -0.403 NA 
HETATM   10  H   UNL     1      -9.264  12.093  63.945  1.00  0.00     0.000 HD 
BRANCH   9  11
HETATM   11  C   UNL     1     -10.403  13.059  65.378  1.00  0.00    -0.300 A  
HETATM   12  N   UNL     1     -11.730  12.965  65.519  1.00  0.00    -0.361 NA 
HETATM   13  N   UNL     1      -9.686  14.126  65.775  1.00  0.00    -0.262 NA 
HETATM   14  C   UNL     1     -10.305  15.102  66.457  1.00  0.00    -0.282 A  
HETATM   15  C   UNL     1     -11.664  15.063  66.684  1.00  0.00    -0.144 A  
HETATM   16  C   UNL     1     -12.331  13.973  66.169  1.00  0.00    -0.458 A  
BRANCH  14  17
HETATM   17  C   UNL     1      -9.450  16.188  66.953  1.00  0.00    -0.245 A  
HETATM   18  C   UNL     1      -8.345  19.600  67.622  1.00  0.00    -0.343 A  
HETATM   19  C   UNL     1      -8.284  15.969  67.672  1.00  0.00    -0.148 A  
HETATM   20  C   UNL     1      -9.276  20.425  66.987  1.00  0.00    -0.483 A  
HETATM   21  C   UNL     1     -10.327  19.881  66.261  1.00  0.00    -0.608 A  
HETATM   22  N   UNL     1      -7.728  17.178  67.990  1.00  0.00    -0.184 NA 
HETATM   23  C   UNL     1      -8.501  18.207  67.510  1.00  0.00    -0.248 A  
HETATM   24  C   UNL     1      -6.489  17.351  68.717  1.00  0.00    -0.201 C  
HETATM   25  C   UNL     1      -9.571  17.624  66.813  1.00  0.00    -0.297 A  
HETATM   26  C   UNL     1     -10.489  18.490  66.177  1.00  0.00    -0.447 A  
ENDBRANCH  14  17
ENDBRANCH   9  11
ENDBRANCH   4   9
BRANCH   7  27
HETATM   27  N   UNL     1     -11.129   9.081  68.400  1.00  0.00    -0.458 N  
HETATM   28  O   UNL     1      -9.525  10.068  69.758  1.00  0.00    -0.220 OA 
HETATM   29  H   UNL     1     -12.081   8.715  68.401  1.00  0.00     0.000 HD 
HETATM   30  C   UNL     1     -10.589   9.479  69.602  1.00  0.00    -0.228 C  
BRANCH  30  31
HETATM   31  C   UNL     1     -11.497   9.199  70.745  1.00  0.00    -0.337 C  
HETATM   32  C   UNL     1     -10.993   8.804  71.920  1.00  0.00    -0.435 C  
ENDBRANCH  30  31
ENDBRANCH   7  27
BRANCH   5  33
HETATM   33  N   UNL     1      -9.280   7.006  67.540  1.00  0.00    -0.124 NA 
HETATM   34  C   UNL     1      -8.118   6.834  68.406  1.00  0.00    -0.119 C  
BRANCH  33  35
HETATM   35  C   UNL     1     -10.296   5.940  67.604  1.00  0.00    -0.212 C  
BRANCH  35  36
HETATM   36  C   UNL     1     -10.544   5.323  66.208  1.00  0.00    -0.248 C  
BRANCH  36  37
HETATM   37  N   UNL     1      -9.792   4.083  65.919  1.00  0.00    -0.191 NA 
HETATM   38  C   UNL     1      -9.403   3.462  67.191  1.00  0.00    -0.193 C  
HETATM   39  C   UNL     1      -8.591   4.354  65.123  1.00  0.00    -0.126 C  
ENDBRANCH  36  37
ENDBRANCH  35  36
ENDBRANCH  33  35
ENDBRANCH   5  33
ENDBRANCH   2   3
TORSDOF 10
ENDMDL
MODEL       76
REMARK 921   NORMALIZED FREE ENERGY PREDICTED BY IDOCK:   -5.95 KCAL/MOL
REMARK 922        TOTAL FREE ENERGY PREDICTED BY IDOCK:  -11.14 KCAL/MOL
REMARK 923 INTER-LIGAND FREE ENERGY PREDICTED BY IDOCK:   -9.34 KCAL/MOL
REMARK 924 INTRA-LIGAND FREE ENERGY PREDICTED BY IDOCK:   -1.81 KCAL/MOL
REMARK 927      BINDING AFFINITY PREDICTED BY RF-SCORE:    0.00 PKD
ROOT
HETATM    1  C   UNL     1      -7.838  12.284  68.129  1.00  0.00    -0.148 C  
HETATM    2  O   UNL     1      -7.411  11.617  66.946  1.00  0.00    -0.146 OA 
ENDROOT
BRANCH   2   3
HETATM    3  C   UNL     1      -7.999  10.408  66.660  1.00  0.00    -0.120 A  
HETATM    4  C   UNL     1      -8.750  10.086  65.527  1.00  0.00    -0.155 A  
HETATM    5  C   UNL     1      -8.337   8.123  67.589  1.00  0.00    -0.127 A  
HETATM    6  C   UNL     1      -9.133   8.749  65.368  1.00  0.00    -0.194 A  
HETATM    7  C   UNL     1      -8.997   7.801  66.388  1.00  0.00    -0.163 A  
HETATM    8  C   UNL     1      -7.784   9.424  67.648  1.00  0.00    -0.088 A  
BRANCH   4   9
HETATM    9  N   UNL     1      -9.140  11.036  64.567  1.00  0.00    -0.329 NA 
HETATM   10  H   UNL     1      -8.629  11.037  63.685  1.00  0.00     0.000 HD 
BRANCH   9  11
HETATM   11  C   UNL     1     -10.161  11.981  64.706  1.00  0.00    -0.279 A  
HETATM   12  N   UNL     1     -11.206  11.852  63.881  1.00  0.00    -0.389 NA 
HETATM   13  N   UNL     1     -10.079  12.927  65.659  1.00  0.00    -0.282 NA 
HETATM   14  C   UNL     1     -11.144  13.711  65.884  1.00  0.00    -0.284 A  
HETATM   15  C   UNL     1     -12.279  13.614  65.108  1.00  0.00    -0.461 A  
HETATM   16  C   UNL     1     -12.242  12.675  64.101  1.00  0.00    -0.450 A  
BRANCH  14  17
HETATM   17  C   UNL     1     -11.030  14.652  67.007  1.00  0.00    -0.317 A  
HETATM   18  C   UNL     1     -10.493  17.818  68.738  1.00  0.00    -0.252 A  
HETATM   19  C   UNL     1     -11.263  14.293  68.326  1.00  0.00    -0.276 A  
HETATM   20  C   UNL     1     -10.119  18.728  67.746  1.00  0.00    -0.417 A  
HETATM   21  C   UNL     1      -9.992  18.322  66.424  1.00  0.00    -0.385 A  
HETATM   22  N   UNL     1     -11.081  15.392  69.121  1.00  0.00    -0.249 NA 
HETATM   23  C   UNL     1     -10.742  16.485  68.364  1.00  0.00    -0.339 A  
HETATM   24  C   UNL     1     -11.211  15.398  70.562  1.00  0.00    -0.333 C  
HETATM   25  C   UNL     1     -10.656  16.051  67.032  1.00  0.00    -0.302 A  
HETATM   26  C   UNL     1     -10.267  16.996  66.056  1.00  0.00    -0.337 A  
ENDBRANCH  14  17
ENDBRANCH   9  11
ENDBRANCH   4   9
BRANCH   7  27
HETATM   27  N   UNL     1      -9.721   6.597  66.253  1.00  0.00    -0.379 N  
HETATM   28  O   UNL     1      -8.067   5.282  65.291  1.00  0.00    -0.112 OA 
HETATM   29  H   UNL     1     -10.671   6.567  66.622  1.00  0.00     0.000 HD 
HETATM   30  C   UNL     1      -9.223   5.461  65.655  1.00  0.00    -0.114 C  
BRANCH  30  31
HETATM   31  C   UNL     1     -10.243   4.383  65.564  1.00  0.00    -0.260 C  
HETATM   32  C   UNL     1     -10.343   3.648  64.450  1.00  0.00    -0.198 C  
ENDBRANCH  30  31
ENDBRANCH   7  27
BRANCH   5  33
HETATM   33  N   UNL     1      -8.225   7.240  68.664  1.00  0.00    -0.124 NA 
HETATM   34  C   UNL     1      -7.275   6.133  68.682  1.00  0.00    -0.084 C  
BRANCH  33  35
HETATM   35  C   UNL     1      -8.963   7.478  69.917  1.00  0.00    -0.141 C  
BRANCH  35  36
HETATM   36  C   UNL     1     -10.477   7.645  69.649  1.00  0.00    -0.235 C  
BRANCH  36  37
HETATM   37  N   UNL     1     -11.171   8.625  70.512  1.00  0.00    -0.253 NA 
HETATM   38  C   UNL     1     -11.082   9.949  69.884  1.00  0.00    -0.275 C  
HETATM   39  C   UNL     1     -10.576   8.682  71.850  1.00  0.00    -0.340 C  
ENDBRANCH  36  37
ENDBRANCH  35  36
ENDBRANCH  33  35
ENDBRANCH   5  33
ENDBRANCH   2   3
TORSDOF 10
ENDMDL
MODEL       77
REMARK 921   NORMALIZED FREE ENERGY PREDICTED BY IDOCK:   -5.91 KCAL/MOL
REMARK 922        TOTAL FREE ENERGY PREDICTED BY IDOCK:  -11.09 KCAL/MOL
REMARK 923 INTER-LIGAND FREE ENERGY PREDICTED BY IDOCK:   -9.56 KCAL/MOL
REMARK 924 INTRA-LIGAND FREE ENERGY PREDICTED BY IDOCK:   -1.53 KCAL/MOL
REMARK 927      BINDING AFFINITY PREDICTED BY RF-SCORE:    0.00 PKD
ROOT
HETATM    1  C   UNL     1      -7.517   9.888  65.936  1.00  0.00    -0.108 C  
HETATM    2  O   UNL     1      -7.640  10.453  67.238  1.00  0.00    -0.094 OA 
ENDROOT
BRANCH   2   3
HETATM    3  C   UNL     1      -8.750  10.106  67.970  1.00  0.00    -0.122 A  
HETATM    4  C   UNL     1      -9.675  10.972  68.556  1.00  0.00    -0.189 A  
HETATM    5  C   UNL     1      -9.971   8.127  68.861  1.00  0.00    -0.192 A  
HETATM    6  C   UNL     1     -10.815  10.401  69.134  1.00  0.00    -0.274 A  
HETATM    7  C   UNL     1     -10.941   9.024  69.347  1.00  0.00    -0.065 A  
HETATM    8  C   UNL     1      -8.926   8.712  68.107  1.00  0.00    -0.141 A  
BRANCH   4   9
HETATM    9  N   UNL     1      -9.503  12.367  68.598  1.00  0.00    -0.398 NA 
HETATM   10  H   UNL     1      -9.320  12.781  69.511  1.00  0.00     0.000 HD 
BRANCH   9  11
HETATM   11  C   UNL     1      -9.559  13.240  67.508  1.00  0.00    -0.218 A  
HETATM   12  N   UNL     1     -10.313  12.850  66.474  1.00  0.00    -0.260 NA 
HETATM   13  N   UNL     1      -8.911  14.418  67.553  1.00  0.00    -0.182 NA 
HETATM   14  C   UNL     1      -9.120  15.308  66.571  1.00  0.00    -0.300 A  
HETATM   15  C   UNL     1      -9.918  15.004  65.489  1.00  0.00    -0.390 A  
HETATM   16  C   UNL     1     -10.473  13.743  65.485  1.00  0.00    -0.318 A  
BRANCH  14  17
HETATM   17  C   UNL     1      -8.467  16.614  66.731  1.00  0.00    -0.270 A  
HETATM   18  C   UNL     1      -8.164  20.223  67.174  1.00  0.00    -0.385 A  
HETATM   19  C   UNL     1      -7.091  16.772  66.809  1.00  0.00    -0.235 A  
HETATM   20  C   UNL     1      -9.470  20.717  67.127  1.00  0.00    -0.505 A  
HETATM   21  C   UNL     1     -10.543  19.862  66.910  1.00  0.00    -0.534 A  
HETATM   22  N   UNL     1      -6.808  18.103  66.962  1.00  0.00    -0.182 NA 
HETATM   23  C   UNL     1      -7.964  18.842  67.001  1.00  0.00    -0.245 A  
HETATM   24  C   UNL     1      -5.475  18.656  67.055  1.00  0.00    -0.133 C  
HETATM   25  C   UNL     1      -9.029  17.947  66.814  1.00  0.00    -0.272 A  
HETATM   26  C   UNL     1     -10.336  18.482  66.764  1.00  0.00    -0.435 A  
ENDBRANCH  14  17
ENDBRANCH   9  11
ENDBRANCH   4   9
BRANCH   7  27
HETATM   27  N   UNL     1     -11.950   8.597  70.235  1.00  0.00    -0.436 N  
HETATM   28  O   UNL     1     -10.790   8.806  72.236  1.00  0.00    -0.352 OA 
HETATM   29  H   UNL     1     -12.868   8.379  69.848  1.00  0.00     0.000 HD 
HETATM   30  C   UNL     1     -11.773   8.456  71.594  1.00  0.00    -0.298 C  
BRANCH  30  31
HETATM   31  C   UNL     1     -12.977   7.893  72.260  1.00  0.00    -0.126 C  
HETATM   32  C   UNL     1     -14.158   7.905  71.631  1.00  0.00    -0.528 C  
ENDBRANCH  30  31
ENDBRANCH   7  27
BRANCH   5  33
HETATM   33  N   UNL     1     -10.011   6.752  69.095  1.00  0.00    -0.157 NA 
HETATM   34  C   UNL     1     -10.502   5.796  68.108  1.00  0.00    -0.217 C  
BRANCH  33  35
HETATM   35  C   UNL     1      -9.406   6.174  70.309  1.00  0.00    -0.160 C  
BRANCH  35  36
HETATM   36  C   UNL     1     -10.420   5.284  71.066  1.00  0.00    -0.203 C  
BRANCH  36  37
HETATM   37  N   UNL     1     -10.001   4.854  72.417  1.00  0.00    -0.171 NA 
HETATM   38  C   UNL     1     -11.195   4.734  73.263  1.00  0.00    -0.340 C  
HETATM   39  C   UNL     1      -9.070   5.809  73.024  1.00  0.00    -0.124 C  
ENDBRANCH  36  37
ENDBRANCH  35  36
ENDBRANCH  33  35
ENDBRANCH   5  33
ENDBRANCH   2   3
TORSDOF 10
ENDMDL
MODEL       78
REMARK 921   NORMALIZED FREE ENERGY PREDICTED BY IDOCK:   -5.91 KCAL/MOL
REMARK 922        TOTAL FREE ENERGY PREDICTED BY IDOCK:  -11.08 KCAL/MOL
REMARK 923 INTER-LIGAND FREE ENERGY PREDICTED BY IDOCK:  -10.21 KCAL/MOL
REMARK 924 INTRA-LIGAND FREE ENERGY PREDICTED BY IDOCK:   -0.87 KCAL/MOL
REMARK 927      BINDING AFFINITY PREDICTED BY RF-SCORE:    0.00 PKD
ROOT
HETATM    1  C   UNL     1     -13.651  13.328  72.341  1.00  0.00    -0.594 C  
HETATM    2  O   UNL     1     -12.862  13.399  71.158  1.00  0.00    -0.333 OA 
ENDROOT
BRANCH   2   3
HETATM    3  C   UNL     1     -12.402  12.213  70.638  1.00  0.00    -0.295 A  
HETATM    4  C   UNL     1     -11.624  12.043  69.491  1.00  0.00    -0.321 A  
HETATM    5  C   UNL     1     -12.465   9.752  71.014  1.00  0.00    -0.323 A  
HETATM    6  C   UNL     1     -11.142  10.755  69.225  1.00  0.00    -0.312 A  
HETATM    7  C   UNL     1     -11.595   9.625  69.915  1.00  0.00    -0.030 A  
HETATM    8  C   UNL     1     -12.783  11.079  71.388  1.00  0.00    -0.534 A  
BRANCH   4   9
HETATM    9  N   UNL     1     -11.322  13.092  68.604  1.00  0.00    -0.270 NA 
HETATM   10  H   UNL     1     -12.108  13.538  68.133  1.00  0.00     0.000 HD 
BRANCH   9  11
HETATM   11  C   UNL     1     -10.046  13.580  68.305  1.00  0.00    -0.247 A  
HETATM   12  N   UNL     1      -9.157  12.684  67.862  1.00  0.00    -0.192 NA 
HETATM   13  N   UNL     1      -9.781  14.893  68.430  1.00  0.00    -0.204 NA 
HETATM   14  C   UNL     1      -8.608  15.360  67.976  1.00  0.00    -0.151 A  
HETATM   15  C   UNL     1      -7.652  14.511  67.462  1.00  0.00    -0.211 A  
HETATM   16  C   UNL     1      -7.976  13.173  67.451  1.00  0.00    -0.171 A  
BRANCH  14  17
HETATM   17  C   UNL     1      -8.421  16.815  68.043  1.00  0.00    -0.205 A  
HETATM   18  C   UNL     1      -9.047  20.350  67.389  1.00  0.00    -0.484 A  
HETATM   19  C   UNL     1      -7.448  17.421  68.824  1.00  0.00    -0.258 A  
HETATM   20  C   UNL     1     -10.091  20.379  66.462  1.00  0.00    -0.419 A  
HETATM   21  C   UNL     1     -10.635  19.200  65.970  1.00  0.00    -0.524 A  
HETATM   22  N   UNL     1      -7.541  18.778  68.671  1.00  0.00    -0.318 NA 
HETATM   23  C   UNL     1      -8.564  19.099  67.814  1.00  0.00    -0.301 A  
HETATM   24  C   UNL     1      -6.672  19.742  69.311  1.00  0.00    -0.348 C  
HETATM   25  C   UNL     1      -9.115  17.889  67.362  1.00  0.00    -0.245 A  
HETATM   26  C   UNL     1     -10.165  17.957  66.419  1.00  0.00    -0.372 A  
ENDBRANCH  14  17
ENDBRANCH   9  11
ENDBRANCH   4   9
BRANCH   7  27
HETATM   27  N   UNL     1     -11.316   8.365  69.345  1.00  0.00    -0.348 N  
HETATM   28  O   UNL     1      -9.022   8.301  69.700  1.00  0.00    -0.147 OA 
HETATM   29  H   UNL     1     -12.101   7.811  69.005  1.00  0.00     0.000 HD 
HETATM   30  C   UNL     1     -10.051   7.838  69.221  1.00  0.00    -0.199 C  
BRANCH  30  31
HETATM   31  C   UNL     1     -10.053   6.542  68.491  1.00  0.00    -0.172 C  
HETATM   32  C   UNL     1      -9.130   5.614  68.770  1.00  0.00    -0.126 C  
ENDBRANCH  30  31
ENDBRANCH   7  27
BRANCH   5  33
HETATM   33  N   UNL     1     -12.998   8.661  71.701  1.00  0.00    -0.335 NA 
HETATM   34  C   UNL     1     -14.164   7.922  71.230  1.00  0.00    -0.264 C  
BRANCH  33  35
HETATM   35  C   UNL     1     -12.307   8.096  72.874  1.00  0.00     0.143 C  
BRANCH  35  36
HETATM   36  C   UNL     1     -10.773   8.107  72.676  1.00  0.00    -0.351 C  
BRANCH  36  37
HETATM   37  N   UNL     1     -10.098   6.806  72.869  1.00  0.00    -0.173 NA 
HETATM   38  C   UNL     1     -10.779   5.797  72.048  1.00  0.00    -0.233 C  
HETATM   39  C   UNL     1     -10.124   6.387  74.273  1.00  0.00    -0.347 C  
ENDBRANCH  36  37
ENDBRANCH  35  36
ENDBRANCH  33  35
ENDBRANCH   5  33
ENDBRANCH   2   3
TORSDOF 10
ENDMDL
MODEL       79
REMARK 921   NORMALIZED FREE ENERGY PREDICTED BY IDOCK:   -5.90 KCAL/MOL
REMARK 922        TOTAL FREE ENERGY PREDICTED BY IDOCK:  -11.06 KCAL/MOL
REMARK 923 INTER-LIGAND FREE ENERGY PREDICTED BY IDOCK:   -8.93 KCAL/MOL
REMARK 924 INTRA-LIGAND FREE ENERGY PREDICTED BY IDOCK:   -2.13 KCAL/MOL
REMARK 927      BINDING AFFINITY PREDICTED BY RF-SCORE:    0.00 PKD
ROOT
HETATM    1  C   UNL     1      -9.690  11.529  63.387  1.00  0.00    -0.361 C  
HETATM    2  O   UNL     1     -10.826  10.998  64.062  1.00  0.00    -0.361 OA 
ENDROOT
BRANCH   2   3
HETATM    3  C   UNL     1     -10.681  10.703  65.396  1.00  0.00    -0.036 A  
HETATM    4  C   UNL     1     -11.339  11.310  66.468  1.00  0.00    -0.047 A  
HETATM    5  C   UNL     1      -9.418   9.225  66.952  1.00  0.00    -0.161 A  
HETATM    6  C   UNL     1     -11.152  10.752  67.738  1.00  0.00    -0.381 A  
HETATM    7  C   UNL     1     -10.175   9.784  67.998  1.00  0.00    -0.190 A  
HETATM    8  C   UNL     1      -9.762   9.662  65.651  1.00  0.00    -0.363 A  
BRANCH   4   9
HETATM    9  N   UNL     1     -12.155  12.446  66.325  1.00  0.00    -0.630 NA 
HETATM   10  H   UNL     1     -13.117  12.368  66.655  1.00  0.00     0.000 HD 
BRANCH   9  11
HETATM   11  C   UNL     1     -11.775  13.674  65.774  1.00  0.00    -0.348 A  
HETATM   12  N   UNL     1     -12.292  13.973  64.577  1.00  0.00    -0.598 NA 
HETATM   13  N   UNL     1     -10.964  14.499  66.461  1.00  0.00    -0.315 NA 
HETATM   14  C   UNL     1     -10.753  15.737  65.989  1.00  0.00    -0.306 A  
HETATM   15  C   UNL     1     -11.285  16.142  64.784  1.00  0.00    -0.313 A  
HETATM   16  C   UNL     1     -12.033  15.203  64.109  1.00  0.00    -0.170 A  
BRANCH  14  17
HETATM   17  C   UNL     1      -9.946  16.624  66.837  1.00  0.00    -0.272 A  
HETATM   18  C   UNL     1      -6.998  17.915  68.556  1.00  0.00    -0.240 A  
HETATM   19  C   UNL     1     -10.450  17.769  67.436  1.00  0.00    -0.364 A  
HETATM   20  C   UNL     1      -5.985  16.985  68.310  1.00  0.00    -0.134 A  
HETATM   21  C   UNL     1      -6.240  15.838  67.570  1.00  0.00    -0.173 A  
HETATM   22  N   UNL     1      -9.448  18.371  68.148  1.00  0.00    -0.298 NA 
HETATM   23  C   UNL     1      -8.278  17.662  68.032  1.00  0.00    -0.242 A  
HETATM   24  C   UNL     1      -9.604  19.579  68.929  1.00  0.00    -0.395 C  
HETATM   25  C   UNL     1      -8.561  16.531  67.251  1.00  0.00    -0.202 A  
HETATM   26  C   UNL     1      -7.513  15.608  67.030  1.00  0.00    -0.228 A  
ENDBRANCH  14  17
ENDBRANCH   9  11
ENDBRANCH   4   9
BRANCH   7  27
HETATM   27  N   UNL     1      -9.839   9.551  69.348  1.00  0.00    -0.177 N  
HETATM   28  O   UNL     1     -11.219   7.730  69.760  1.00  0.00    -0.154 OA 
HETATM   29  H   UNL     1      -9.109  10.128  69.765  1.00  0.00     0.000 HD 
HETATM   30  C   UNL     1     -10.435   8.593  70.137  1.00  0.00    -0.217 C  
BRANCH  30  31
HETATM   31  C   UNL     1      -9.952   8.645  71.542  1.00  0.00    -0.344 C  
HETATM   32  C   UNL     1      -8.653   8.468  71.811  1.00  0.00    -0.254 C  
ENDBRANCH  30  31
ENDBRANCH   7  27
BRANCH   5  33
HETATM   33  N   UNL     1      -8.390   8.303  67.155  1.00  0.00    -0.122 NA 
HETATM   34  C   UNL     1      -8.634   6.881  67.369  1.00  0.00    -0.121 C  
BRANCH  33  35
HETATM   35  C   UNL     1      -6.978   8.701  67.010  1.00  0.00    -0.074 C  
BRANCH  35  36
HETATM   36  C   UNL     1      -6.504   9.527  68.229  1.00  0.00    -0.053 C  
BRANCH  36  37
HETATM   37  N   UNL     1      -6.147  10.933  67.944  1.00  0.00    -0.050 NA 
HETATM   38  C   UNL     1      -7.205  11.803  68.472  1.00  0.00    -0.095 C  
HETATM   39  C   UNL     1      -5.995  11.170  66.505  1.00  0.00    -0.143 C  
ENDBRANCH  36  37
ENDBRANCH  35  36
ENDBRANCH  33  35
ENDBRANCH   5  33
ENDBRANCH   2   3
TORSDOF 10
ENDMDL
MODEL       80
REMARK 921   NORMALIZED FREE ENERGY PREDICTED BY IDOCK:   -5.87 KCAL/MOL
REMARK 922        TOTAL FREE ENERGY PREDICTED BY IDOCK:  -11.02 KCAL/MOL
REMARK 923 INTER-LIGAND FREE ENERGY PREDICTED BY IDOCK:   -9.58 KCAL/MOL
REMARK 924 INTRA-LIGAND FREE ENERGY PREDICTED BY IDOCK:   -1.44 KCAL/MOL
REMARK 927      BINDING AFFINITY PREDICTED BY RF-SCORE:    0.00 PKD
ROOT
HETATM    1  C   UNL     1     -12.281  12.386  64.189  1.00  0.00    -0.468 C  
HETATM    2  O   UNL     1     -12.477  12.457  65.598  1.00  0.00    -0.640 OA 
ENDROOT
BRANCH   2   3
HETATM    3  C   UNL     1     -11.357  12.589  66.382  1.00  0.00    -0.329 A  
HETATM    4  C   UNL     1     -10.750  11.597  67.154  1.00  0.00    -0.247 A  
HETATM    5  C   UNL     1      -9.674  14.265  67.131  1.00  0.00    -0.254 A  
HETATM    6  C   UNL     1      -9.527  11.911  67.761  1.00  0.00    -0.184 A  
HETATM    7  C   UNL     1      -9.027  13.217  67.813  1.00  0.00    -0.194 A  
HETATM    8  C   UNL     1     -10.799  13.886  66.361  1.00  0.00    -0.291 A  
BRANCH   4   9
HETATM    9  N   UNL     1     -11.313  10.324  67.352  1.00  0.00    -0.448 NA 
HETATM   10  H   UNL     1     -12.330  10.272  67.397  1.00  0.00     0.000 HD 
BRANCH   9  11
HETATM   11  C   UNL     1     -10.612   9.123  67.495  1.00  0.00    -0.249 A  
HETATM   12  N   UNL     1      -9.847   8.755  66.460  1.00  0.00    -0.258 NA 
HETATM   13  N   UNL     1     -10.694   8.426  68.643  1.00  0.00    -0.102 NA 
HETATM   14  C   UNL     1      -9.882   7.373  68.819  1.00  0.00    -0.164 A  
HETATM   15  C   UNL     1      -9.031   6.953  67.819  1.00  0.00    -0.117 A  
HETATM   16  C   UNL     1      -9.075   7.674  66.647  1.00  0.00    -0.164 A  
BRANCH  14  17
HETATM   17  C   UNL     1      -9.944   6.720  70.133  1.00  0.00    -0.191 A  
HETATM   18  C   UNL     1      -9.781   4.033  72.596  1.00  0.00    -0.199 A  
HETATM   19  C   UNL     1     -10.186   7.407  71.313  1.00  0.00    -0.188 A  
HETATM   20  C   UNL     1      -9.562   2.866  71.862  1.00  0.00    -0.215 A  
HETATM   21  C   UNL     1      -9.485   2.904  70.476  1.00  0.00    -0.210 A  
HETATM   22  N   UNL     1     -10.175   6.517  72.352  1.00  0.00    -0.183 NA 
HETATM   23  C   UNL     1      -9.919   5.247  71.898  1.00  0.00    -0.187 A  
HETATM   24  C   UNL     1     -10.414   6.862  73.737  1.00  0.00    -0.357 C  
HETATM   25  C   UNL     1      -9.812   5.325  70.501  1.00  0.00    -0.274 A  
HETATM   26  C   UNL     1      -9.597   4.122  69.790  1.00  0.00    -0.281 A  
ENDBRANCH  14  17
ENDBRANCH   9  11
ENDBRANCH   4   9
BRANCH   7  27
HETATM   27  N   UNL     1      -7.989  13.475  68.732  1.00  0.00    -0.316 N  
HETATM   28  O   UNL     1      -6.170  13.226  67.310  1.00  0.00    -0.309 OA 
HETATM   29  H   UNL     1      -8.246  13.741  69.682  1.00  0.00     0.000 HD 
HETATM   30  C   UNL     1      -6.649  13.390  68.426  1.00  0.00    -0.094 C  
BRANCH  30  31
HETATM   31  C   UNL     1      -5.787  13.616  69.616  1.00  0.00    -0.108 C  
HETATM   32  C   UNL     1      -5.694  12.677  70.564  1.00  0.00    -0.169 C  
ENDBRANCH  30  31
ENDBRANCH   7  27
BRANCH   5  33
HETATM   33  N   UNL     1      -9.258  15.595  67.197  1.00  0.00    -0.206 NA 
HETATM   34  C   UNL     1      -8.102  16.099  66.463  1.00  0.00    -0.296 C  
BRANCH  33  35
HETATM   35  C   UNL     1     -10.068  16.607  67.898  1.00  0.00    -0.270 C  
BRANCH  35  36
HETATM   36  C   UNL     1      -9.439  18.013  67.766  1.00  0.00    -0.264 C  
BRANCH  36  37
HETATM   37  N   UNL     1     -10.397  19.119  67.550  1.00  0.00    -0.404 NA 
HETATM   38  C   UNL     1     -10.157  19.695  66.221  1.00  0.00    -0.480 C  
HETATM   39  C   UNL     1     -10.251  20.166  68.566  1.00  0.00    -0.270 C  
ENDBRANCH  36  37
ENDBRANCH  35  36
ENDBRANCH  33  35
ENDBRANCH   5  33
ENDBRANCH   2   3
TORSDOF 10
ENDMDL
MODEL       81
REMARK 921   NORMALIZED FREE ENERGY PREDICTED BY IDOCK:   -5.86 KCAL/MOL
REMARK 922        TOTAL FREE ENERGY PREDICTED BY IDOCK:  -11.00 KCAL/MOL
REMARK 923 INTER-LIGAND FREE ENERGY PREDICTED BY IDOCK:   -9.43 KCAL/MOL
REMARK 924 INTRA-LIGAND FREE ENERGY PREDICTED BY IDOCK:   -1.57 KCAL/MOL
REMARK 927      BINDING AFFINITY PREDICTED BY RF-SCORE:    0.00 PKD
ROOT
HETATM    1  C   UNL     1      -8.124  10.345  62.406  1.00  0.00    -0.169 C  
HETATM    2  O   UNL     1      -8.861   9.704  63.441  1.00  0.00    -0.217 OA 
ENDROOT
BRANCH   2   3
HETATM    3  C   UNL     1      -9.081  10.422  64.592  1.00  0.00    -0.222 A  
HETATM    4  C   UNL     1      -8.700  10.070  65.888  1.00  0.00    -0.140 A  
HETATM    5  C   UNL     1     -10.142  12.516  65.424  1.00  0.00    -0.267 A  
HETATM    6  C   UNL     1      -8.895  11.021  66.897  1.00  0.00    -0.150 A  
HETATM    7  C   UNL     1      -9.651  12.182  66.700  1.00  0.00    -0.220 A  
HETATM    8  C   UNL     1      -9.764  11.639  64.380  1.00  0.00    -0.199 A  
BRANCH   4   9
HETATM    9  N   UNL     1      -8.150   8.818  66.215  1.00  0.00    -0.105 NA 
HETATM   10  H   UNL     1      -7.137   8.728  66.151  1.00  0.00     0.000 HD 
BRANCH   9  11
HETATM   11  C   UNL     1      -8.861   7.684  66.620  1.00  0.00    -0.142 A  
HETATM   12  N   UNL     1      -8.839   6.640  65.784  1.00  0.00    -0.121 NA 
HETATM   13  N   UNL     1      -9.484   7.669  67.812  1.00  0.00    -0.141 NA 
HETATM   14  C   UNL     1     -10.012   6.516  68.251  1.00  0.00    -0.143 A  
HETATM   15  C   UNL     1      -9.993   5.380  67.471  1.00  0.00    -0.198 A  
HETATM   16  C   UNL     1      -9.409   5.510  66.230  1.00  0.00    -0.156 A  
BRANCH  14  17
HETATM   17  C   UNL     1     -10.584   6.539  69.603  1.00  0.00    -0.291 A  
HETATM   18  C   UNL     1     -11.245   5.462  73.026  1.00  0.00    -0.370 A  
HETATM   19  C   UNL     1     -11.406   7.557  70.064  1.00  0.00    -0.096 A  
HETATM   20  C   UNL     1     -10.589   4.236  73.165  1.00  0.00    -0.270 A  
HETATM   21  C   UNL     1      -9.903   3.675  72.097  1.00  0.00    -0.240 A  
HETATM   22  N   UNL     1     -11.763   7.286  71.357  1.00  0.00    -0.273 NA 
HETATM   23  C   UNL     1     -11.189   6.112  71.780  1.00  0.00    -0.284 A  
HETATM   24  C   UNL     1     -12.636   8.111  72.163  1.00  0.00    -0.310 C  
HETATM   25  C   UNL     1     -10.475   5.589  70.691  1.00  0.00    -0.342 A  
HETATM   26  C   UNL     1      -9.831   4.343  70.866  1.00  0.00    -0.266 A  
ENDBRANCH  14  17
ENDBRANCH   9  11
ENDBRANCH   4   9
BRANCH   7  27
HETATM   27  N   UNL     1     -10.073  12.882  67.850  1.00  0.00    -0.225 N  
HETATM   28  O   UNL     1     -11.912  11.583  68.417  1.00  0.00    -0.511 OA 
HETATM   29  H   UNL     1      -9.505  13.667  68.167  1.00  0.00     0.000 HD 
HETATM   30  C   UNL     1     -11.203  12.570  68.572  1.00  0.00    -0.283 C  
BRANCH  30  31
HETATM   31  C   UNL     1     -11.452  13.540  69.671  1.00  0.00    -0.283 C  
HETATM   32  C   UNL     1     -12.615  13.519  70.333  1.00  0.00    -0.267 C  
ENDBRANCH  30  31
ENDBRANCH   7  27
BRANCH   5  33
HETATM   33  N   UNL     1     -10.952  13.625  65.179  1.00  0.00    -0.315 NA 
HETATM   34  C   UNL     1     -12.400  13.602  65.358  1.00  0.00    -0.476 C  
BRANCH  33  35
HETATM   35  C   UNL     1     -10.361  14.939  64.869  1.00  0.00    -0.313 C  
BRANCH  35  36
HETATM   36  C   UNL     1     -10.620  15.949  66.012  1.00  0.00    -0.323 C  
BRANCH  36  37
HETATM   37  N   UNL     1      -9.718  17.120  66.041  1.00  0.00    -0.488 NA 
HETATM   38  C   UNL     1      -8.803  16.980  67.181  1.00  0.00    -0.218 C  
HETATM   39  C   UNL     1     -10.465  18.375  66.168  1.00  0.00    -0.395 C  
ENDBRANCH  36  37
ENDBRANCH  35  36
ENDBRANCH  33  35
ENDBRANCH   5  33
ENDBRANCH   2   3
TORSDOF 10
ENDMDL
MODEL       82
REMARK 921   NORMALIZED FREE ENERGY PREDICTED BY IDOCK:   -5.85 KCAL/MOL
REMARK 922        TOTAL FREE ENERGY PREDICTED BY IDOCK:  -10.99 KCAL/MOL
REMARK 923 INTER-LIGAND FREE ENERGY PREDICTED BY IDOCK:   -9.40 KCAL/MOL
REMARK 924 INTRA-LIGAND FREE ENERGY PREDICTED BY IDOCK:   -1.58 KCAL/MOL
REMARK 927      BINDING AFFINITY PREDICTED BY RF-SCORE:    0.00 PKD
ROOT
HETATM    1  C   UNL     1     -12.384  13.940  64.427  1.00  0.00    -0.361 C  
HETATM    2  O   UNL     1     -12.658  13.719  65.807  1.00  0.00    -0.484 OA 
ENDROOT
BRANCH   2   3
HETATM    3  C   UNL     1     -11.616  13.884  66.688  1.00  0.00    -0.374 A  
HETATM    4  C   UNL     1     -11.184  12.978  67.658  1.00  0.00    -0.280 A  
HETATM    5  C   UNL     1      -9.873  15.523  67.378  1.00  0.00    -0.224 A  
HETATM    6  C   UNL     1     -10.007  13.288  68.351  1.00  0.00    -0.226 A  
HETATM    7  C   UNL     1      -9.398  14.545  68.273  1.00  0.00    -0.203 A  
HETATM    8  C   UNL     1     -10.943  15.117  66.546  1.00  0.00    -0.318 A  
BRANCH   4   9
HETATM    9  N   UNL     1     -11.879  11.796  67.971  1.00  0.00    -0.546 NA 
HETATM   10  H   UNL     1     -12.556  11.464  67.285  1.00  0.00     0.000 HD 
BRANCH   9  11
HETATM   11  C   UNL     1     -11.731  11.033  69.133  1.00  0.00    -0.333 A  
HETATM   12  N   UNL     1     -12.383  11.469  70.217  1.00  0.00    -0.294 NA 
HETATM   13  N   UNL     1     -10.999   9.904  69.110  1.00  0.00    -0.220 NA 
HETATM   14  C   UNL     1     -11.013   9.103  70.186  1.00  0.00    -0.239 A  
HETATM   15  C   UNL     1     -11.696   9.457  71.330  1.00  0.00    -0.432 A  
HETATM   16  C   UNL     1     -12.348  10.669  71.293  1.00  0.00    -0.383 A  
BRANCH  14  17
HETATM   17  C   UNL     1     -10.280   7.837  70.060  1.00  0.00    -0.210 A  
HETATM   18  C   UNL     1      -9.099   4.738  68.539  1.00  0.00    -0.150 A  
HETATM   19  C   UNL     1      -9.415   7.359  71.033  1.00  0.00    -0.157 A  
HETATM   20  C   UNL     1      -9.783   4.633  67.325  1.00  0.00    -0.216 A  
HETATM   21  C   UNL     1     -10.716   5.591  66.952  1.00  0.00    -0.310 A  
HETATM   22  N   UNL     1      -8.891   6.167  70.611  1.00  0.00    -0.142 NA 
HETATM   23  C   UNL     1      -9.377   5.838  69.370  1.00  0.00    -0.126 A  
HETATM   24  C   UNL     1      -7.966   5.357  71.373  1.00  0.00    -0.115 C  
HETATM   25  C   UNL     1     -10.289   6.842  69.007  1.00  0.00    -0.212 A  
HETATM   26  C   UNL     1     -10.968   6.699  67.776  1.00  0.00    -0.367 A  
ENDBRANCH  14  17
ENDBRANCH   9  11
ENDBRANCH   4   9
BRANCH   7  27
HETATM   27  N   UNL     1      -8.440  14.861  69.258  1.00  0.00    -0.355 N  
HETATM   28  O   UNL     1      -6.539  14.060  68.193  1.00  0.00    -0.095 OA 
HETATM   29  H   UNL     1      -8.755  15.365  70.087  1.00  0.00     0.000 HD 
HETATM   30  C   UNL     1      -7.106  14.532  69.171  1.00  0.00    -0.130 C  
BRANCH  30  31
HETATM   31  C   UNL     1      -6.356  14.902  70.400  1.00  0.00    -0.105 C  
HETATM   32  C   UNL     1      -5.732  13.956  71.115  1.00  0.00    -0.220 C  
ENDBRANCH  30  31
ENDBRANCH   7  27
BRANCH   5  33
HETATM   33  N   UNL     1      -9.346  16.813  67.300  1.00  0.00    -0.228 NA 
HETATM   34  C   UNL     1      -9.918  17.945  68.022  1.00  0.00    -0.333 C  
BRANCH  33  35
HETATM   35  C   UNL     1      -8.077  17.070  66.596  1.00  0.00    -0.262 C  
BRANCH  35  36
HETATM   36  C   UNL     1      -7.512  18.463  66.959  1.00  0.00    -0.213 C  
BRANCH  36  37
HETATM   37  N   UNL     1      -6.060  18.507  67.236  1.00  0.00    -0.165 NA 
HETATM   38  C   UNL     1      -5.390  17.514  66.388  1.00  0.00    -0.194 C  
HETATM   39  C   UNL     1      -5.771  18.219  68.644  1.00  0.00    -0.182 C  
ENDBRANCH  36  37
ENDBRANCH  35  36
ENDBRANCH  33  35
ENDBRANCH   5  33
ENDBRANCH   2   3
TORSDOF 10
ENDMDL
MODEL       83
REMARK 921   NORMALIZED FREE ENERGY PREDICTED BY IDOCK:   -5.84 KCAL/MOL
REMARK 922        TOTAL FREE ENERGY PREDICTED BY IDOCK:  -10.98 KCAL/MOL
REMARK 923 INTER-LIGAND FREE ENERGY PREDICTED BY IDOCK:   -9.39 KCAL/MOL
REMARK 924 INTRA-LIGAND FREE ENERGY PREDICTED BY IDOCK:   -1.59 KCAL/MOL
REMARK 927      BINDING AFFINITY PREDICTED BY RF-SCORE:    0.00 PKD
ROOT
HETATM    1  C   UNL     1      -9.481   3.553  65.956  1.00  0.00    -0.137 C  
HETATM    2  O   UNL     1      -9.565   4.944  66.246  1.00  0.00    -0.147 OA 
ENDROOT
BRANCH   2   3
HETATM    3  C   UNL     1      -9.946   5.298  67.518  1.00  0.00    -0.171 A  
HETATM    4  C   UNL     1     -10.700   6.414  67.889  1.00  0.00    -0.299 A  
HETATM    5  C   UNL     1      -9.738   4.591  69.896  1.00  0.00    -0.218 A  
HETATM    6  C   UNL     1     -11.099   6.503  69.229  1.00  0.00    -0.393 A  
HETATM    7  C   UNL     1     -10.587   5.664  70.224  1.00  0.00    -0.300 A  
HETATM    8  C   UNL     1      -9.505   4.400  68.513  1.00  0.00    -0.217 A  
BRANCH   4   9
HETATM    9  N   UNL     1     -11.055   7.436  66.992  1.00  0.00    -0.537 NA 
HETATM   10  H   UNL     1     -11.801   7.229  66.329  1.00  0.00     0.000 HD 
BRANCH   9  11
HETATM   11  C   UNL     1     -10.482   8.710  66.921  1.00  0.00    -0.258 A  
HETATM   12  N   UNL     1      -9.573   8.899  65.958  1.00  0.00    -0.257 NA 
HETATM   13  N   UNL     1     -10.881   9.676  67.767  1.00  0.00    -0.259 NA 
HETATM   14  C   UNL     1     -10.444  10.929  67.569  1.00  0.00    -0.215 A  
HETATM   15  C   UNL     1      -9.539  11.220  66.570  1.00  0.00    -0.215 A  
HETATM   16  C   UNL     1      -9.121  10.153  65.806  1.00  0.00    -0.171 A  
BRANCH  14  17
HETATM   17  C   UNL     1     -10.998  11.957  68.459  1.00  0.00    -0.277 A  
HETATM   18  C   UNL     1     -12.733  13.373  71.340  1.00  0.00    -0.411 A  
HETATM   19  C   UNL     1     -10.843  13.318  68.239  1.00  0.00    -0.256 A  
HETATM   20  C   UNL     1     -13.238  12.279  72.047  1.00  0.00    -0.508 A  
HETATM   21  C   UNL     1     -13.052  10.985  71.577  1.00  0.00    -0.500 A  
HETATM   22  N   UNL     1     -11.468  14.002  69.247  1.00  0.00    -0.278 NA 
HETATM   23  C   UNL     1     -12.029  13.131  70.147  1.00  0.00    -0.310 A  
HETATM   24  C   UNL     1     -11.540  15.444  69.343  1.00  0.00    -0.340 C  
HETATM   25  C   UNL     1     -11.794  11.834  69.663  1.00  0.00    -0.407 A  
HETATM   26  C   UNL     1     -12.327  10.752  70.400  1.00  0.00    -0.438 A  
ENDBRANCH  14  17
ENDBRANCH   9  11
ENDBRANCH   4   9
BRANCH   7  27
HETATM   27  N   UNL     1     -10.782   6.058  71.565  1.00  0.00    -0.246 N  
HETATM   28  O   UNL     1      -9.751   8.137  71.490  1.00  0.00    -0.160 OA 
HETATM   29  H   UNL     1     -11.321   5.439  72.171  1.00  0.00     0.000 HD 
HETATM   30  C   UNL     1     -10.290   7.224  72.106  1.00  0.00    -0.193 C  
BRANCH  30  31
HETATM   31  C   UNL     1     -10.563   7.325  73.563  1.00  0.00    -0.408 C  
HETATM   32  C   UNL     1     -10.091   6.393  74.400  1.00  0.00    -0.367 C  
ENDBRANCH  30  31
ENDBRANCH   7  27
BRANCH   5  33
HETATM   33  N   UNL     1      -9.148   3.759  70.849  1.00  0.00    -0.101 NA 
HETATM   34  C   UNL     1      -9.910   2.801  71.643  1.00  0.00    -0.141 C  
BRANCH  33  35
HETATM   35  C   UNL     1      -7.682   3.698  70.995  1.00  0.00    -0.047 C  
BRANCH  35  36
HETATM   36  C   UNL     1      -7.218   4.447  72.266  1.00  0.00    -0.063 C  
BRANCH  36  37
HETATM   37  N   UNL     1      -6.283   5.570  72.035  1.00  0.00    -0.037 NA 
HETATM   38  C   UNL     1      -6.698   6.705  72.869  1.00  0.00    -0.068 C  
HETATM   39  C   UNL     1      -6.269   5.980  70.628  1.00  0.00    -0.035 C  
ENDBRANCH  36  37
ENDBRANCH  35  36
ENDBRANCH  33  35
ENDBRANCH   5  33
ENDBRANCH   2   3
TORSDOF 10
ENDMDL
MODEL       84
REMARK 921   NORMALIZED FREE ENERGY PREDICTED BY IDOCK:   -5.84 KCAL/MOL
REMARK 922        TOTAL FREE ENERGY PREDICTED BY IDOCK:  -10.96 KCAL/MOL
REMARK 923 INTER-LIGAND FREE ENERGY PREDICTED BY IDOCK:   -9.65 KCAL/MOL
REMARK 924 INTRA-LIGAND FREE ENERGY PREDICTED BY IDOCK:   -1.32 KCAL/MOL
REMARK 927      BINDING AFFINITY PREDICTED BY RF-SCORE:    0.00 PKD
ROOT
HETATM    1  C   UNL     1     -12.324  12.548  64.450  1.00  0.00    -0.455 C  
HETATM    2  O   UNL     1     -11.106  12.316  65.150  1.00  0.00    -0.300 OA 
ENDROOT
BRANCH   2   3
HETATM    3  C   UNL     1     -11.024  12.785  66.439  1.00  0.00    -0.276 A  
HETATM    4  C   UNL     1     -11.279  12.071  67.612  1.00  0.00    -0.282 A  
HETATM    5  C   UNL     1     -10.527  14.844  67.749  1.00  0.00    -0.255 A  
HETATM    6  C   UNL     1     -10.990  12.704  68.827  1.00  0.00    -0.289 A  
HETATM    7  C   UNL     1     -10.688  14.068  68.911  1.00  0.00    -0.248 A  
HETATM    8  C   UNL     1     -10.630  14.138  66.527  1.00  0.00    -0.282 A  
BRANCH   4   9
HETATM    9  N   UNL     1     -11.815  10.771  67.620  1.00  0.00    -0.605 NA 
HETATM   10  H   UNL     1     -12.823  10.688  67.490  1.00  0.00     0.000 HD 
BRANCH   9  11
HETATM   11  C   UNL     1     -11.099   9.582  67.789  1.00  0.00     0.034 A  
HETATM   12  N   UNL     1     -10.416   9.144  66.725  1.00  0.00    -0.231 NA 
HETATM   13  N   UNL     1     -11.088   8.967  68.985  1.00  0.00     0.071 NA 
HETATM   14  C   UNL     1     -10.260   7.927  69.169  1.00  0.00    -0.216 A  
HETATM   15  C   UNL     1      -9.488   7.439  68.137  1.00  0.00    -0.141 A  
HETATM   16  C   UNL     1      -9.626   8.078  66.925  1.00  0.00    -0.204 A  
BRANCH  14  17
HETATM   17  C   UNL     1     -10.217   7.366  70.525  1.00  0.00    -0.196 A  
HETATM   18  C   UNL     1      -9.115   6.905  73.973  1.00  0.00    -0.225 A  
HETATM   19  C   UNL     1     -11.097   6.392  70.973  1.00  0.00    -0.294 A  
HETATM   20  C   UNL     1      -8.015   7.752  74.130  1.00  0.00    -0.251 A  
HETATM   21  C   UNL     1      -7.551   8.515  73.067  1.00  0.00    -0.042 A  
HETATM   22  N   UNL     1     -10.797   6.091  72.274  1.00  0.00    -0.233 NA 
HETATM   23  C   UNL     1      -9.741   6.849  72.715  1.00  0.00    -0.150 A  
HETATM   24  C   UNL     1     -11.486   5.099  73.071  1.00  0.00    -0.274 C  
HETATM   25  C   UNL     1      -9.318   7.633  71.630  1.00  0.00    -0.165 A  
HETATM   26  C   UNL     1      -8.198   8.472  71.823  1.00  0.00    -0.209 A  
ENDBRANCH  14  17
ENDBRANCH   9  11
ENDBRANCH   4   9
BRANCH   7  27
HETATM   27  N   UNL     1     -10.759  14.668  70.186  1.00  0.00    -0.472 N  
HETATM   28  O   UNL     1     -13.029  14.397  70.592  1.00  0.00    -0.356 OA 
HETATM   29  H   UNL     1      -9.890  14.989  70.612  1.00  0.00     0.000 HD 
HETATM   30  C   UNL     1     -11.929  14.847  70.890  1.00  0.00    -0.316 C  
BRANCH  30  31
HETATM   31  C   UNL     1     -11.712  15.597  72.155  1.00  0.00    -0.576 C  
HETATM   32  C   UNL     1     -12.753  15.906  72.937  1.00  0.00    -0.584 C  
ENDBRANCH  30  31
ENDBRANCH   7  27
BRANCH   5  33
HETATM   33  N   UNL     1     -10.288  16.219  67.770  1.00  0.00    -0.279 NA 
HETATM   34  C   UNL     1     -11.321  17.196  68.096  1.00  0.00     0.197 C  
BRANCH  33  35
HETATM   35  C   UNL     1      -8.923  16.751  67.612  1.00  0.00    -0.210 C  
BRANCH  35  36
HETATM   36  C   UNL     1      -8.574  16.956  66.119  1.00  0.00    -0.242 C  
BRANCH  36  37
HETATM   37  N   UNL     1      -8.079  18.303  65.762  1.00  0.00    -0.488 NA 
HETATM   38  C   UNL     1      -6.628  18.343  65.977  1.00  0.00    -0.252 C  
HETATM   39  C   UNL     1      -8.719  19.345  66.570  1.00  0.00    -0.351 C  
ENDBRANCH  36  37
ENDBRANCH  35  36
ENDBRANCH  33  35
ENDBRANCH   5  33
ENDBRANCH   2   3
TORSDOF 10
ENDMDL
MODEL       85
REMARK 921   NORMALIZED FREE ENERGY PREDICTED BY IDOCK:   -5.82 KCAL/MOL
REMARK 922        TOTAL FREE ENERGY PREDICTED BY IDOCK:  -10.94 KCAL/MOL
REMARK 923 INTER-LIGAND FREE ENERGY PREDICTED BY IDOCK:  -10.22 KCAL/MOL
REMARK 924 INTRA-LIGAND FREE ENERGY PREDICTED BY IDOCK:   -0.71 KCAL/MOL
REMARK 927      BINDING AFFINITY PREDICTED BY RF-SCORE:    0.00 PKD
ROOT
HETATM    1  C   UNL     1     -12.092  14.215  66.233  1.00  0.00    -0.442 C  
HETATM    2  O   UNL     1     -10.741  14.504  65.889  1.00  0.00    -0.288 OA 
ENDROOT
BRANCH   2   3
HETATM    3  C   UNL     1     -10.071  15.404  66.682  1.00  0.00    -0.265 A  
HETATM    4  C   UNL     1      -9.583  15.187  67.972  1.00  0.00    -0.204 A  
HETATM    5  C   UNL     1      -9.257  17.758  66.722  1.00  0.00    -0.273 A  
HETATM    6  C   UNL     1      -8.798  16.197  68.542  1.00  0.00    -0.200 A  
HETATM    7  C   UNL     1      -8.687  17.472  67.977  1.00  0.00    -0.254 A  
HETATM    8  C   UNL     1      -9.878  16.663  66.074  1.00  0.00    -0.335 A  
BRANCH   4   9
HETATM    9  N   UNL     1      -9.854  14.022  68.711  1.00  0.00    -0.360 NA 
HETATM   10  H   UNL     1     -10.390  14.136  69.571  1.00  0.00     0.000 HD 
BRANCH   9  11
HETATM   11  C   UNL     1      -9.459  12.722  68.380  1.00  0.00    -0.162 A  
HETATM   12  N   UNL     1      -8.414  12.612  67.552  1.00  0.00    -0.165 NA 
HETATM   13  N   UNL     1     -10.094  11.666  68.921  1.00  0.00    -0.146 NA 
HETATM   14  C   UNL     1      -9.590  10.439  68.723  1.00  0.00    -0.177 A  
HETATM   15  C   UNL     1      -8.488  10.241  67.918  1.00  0.00    -0.118 A  
HETATM   16  C   UNL     1      -7.954  11.370  67.339  1.00  0.00    -0.139 A  
BRANCH  14  17
HETATM   17  C   UNL     1     -10.265   9.341  69.425  1.00  0.00    -0.214 A  
HETATM   18  C   UNL     1     -12.674   7.682  71.606  1.00  0.00    -0.368 A  
HETATM   19  C   UNL     1      -9.920   8.007  69.261  1.00  0.00    -0.191 A  
HETATM   20  C   UNL     1     -13.414   8.709  72.196  1.00  0.00    -0.434 A  
HETATM   21  C   UNL     1     -13.126  10.039  71.918  1.00  0.00    -0.563 A  
HETATM   22  N   UNL     1     -10.739   7.240  70.045  1.00  0.00    -0.240 NA 
HETATM   23  C   UNL     1     -11.636   8.027  70.723  1.00  0.00    -0.242 A  
HETATM   24  C   UNL     1     -10.662   5.799  70.155  1.00  0.00    -0.320 C  
HETATM   25  C   UNL     1     -11.341   9.360  70.395  1.00  0.00    -0.295 A  
HETATM   26  C   UNL     1     -12.105  10.373  71.016  1.00  0.00    -0.488 A  
ENDBRANCH  14  17
ENDBRANCH   9  11
ENDBRANCH   4   9
BRANCH   7  27
HETATM   27  N   UNL     1      -8.171  18.499  68.795  1.00  0.00    -0.290 N  
HETATM   28  O   UNL     1      -5.903  18.086  68.517  1.00  0.00    -0.177 OA 
HETATM   29  H   UNL     1      -8.833  19.149  69.220  1.00  0.00     0.000 HD 
HETATM   30  C   UNL     1      -6.831  18.680  69.054  1.00  0.00    -0.280 C  
BRANCH  30  31
HETATM   31  C   UNL     1      -6.592  19.776  70.029  1.00  0.00    -0.279 C  
HETATM   32  C   UNL     1      -5.631  19.654  70.953  1.00  0.00    -0.284 C  
ENDBRANCH  30  31
ENDBRANCH   7  27
BRANCH   5  33
HETATM   33  N   UNL     1      -9.232  19.024  66.137  1.00  0.00    -0.461 NA 
HETATM   34  C   UNL     1     -10.444  19.783  65.842  1.00  0.00    -0.486 C  
BRANCH  33  35
HETATM   35  C   UNL     1      -7.959  19.734  65.925  1.00  0.00    -0.280 C  
BRANCH  35  36
HETATM   36  C   UNL     1      -6.901  18.802  65.288  1.00  0.00    -0.062 C  
BRANCH  36  37
HETATM   37  N   UNL     1      -5.652  19.463  64.852  1.00  0.00    -0.185 NA 
HETATM   38  C   UNL     1      -5.712  20.880  65.235  1.00  0.00    -0.233 C  
HETATM   39  C   UNL     1      -5.464  19.359  63.403  1.00  0.00    -0.325 C  
ENDBRANCH  36  37
ENDBRANCH  35  36
ENDBRANCH  33  35
ENDBRANCH   5  33
ENDBRANCH   2   3
TORSDOF 10
ENDMDL
MODEL       86
REMARK 921   NORMALIZED FREE ENERGY PREDICTED BY IDOCK:   -5.82 KCAL/MOL
REMARK 922        TOTAL FREE ENERGY PREDICTED BY IDOCK:  -10.93 KCAL/MOL
REMARK 923 INTER-LIGAND FREE ENERGY PREDICTED BY IDOCK:  -10.42 KCAL/MOL
REMARK 924 INTRA-LIGAND FREE ENERGY PREDICTED BY IDOCK:   -0.51 KCAL/MOL
REMARK 927      BINDING AFFINITY PREDICTED BY RF-SCORE:    0.00 PKD
ROOT
HETATM    1  C   UNL     1     -12.566  10.778  71.350  1.00  0.00    -0.410 C  
HETATM    2  O   UNL     1     -12.049  10.491  70.055  1.00  0.00    -0.287 OA 
ENDROOT
BRANCH   2   3
HETATM    3  C   UNL     1     -11.307  11.474  69.444  1.00  0.00    -0.289 A  
HETATM    4  C   UNL     1     -10.116  11.309  68.735  1.00  0.00    -0.194 A  
HETATM    5  C   UNL     1     -11.243  13.935  69.067  1.00  0.00    -0.274 A  
HETATM    6  C   UNL     1      -9.604  12.428  68.066  1.00  0.00    -0.211 A  
HETATM    7  C   UNL     1     -10.103  13.719  68.271  1.00  0.00    -0.239 A  
HETATM    8  C   UNL     1     -11.860  12.766  69.573  1.00  0.00    -0.379 A  
BRANCH   4   9
HETATM    9  N   UNL     1      -9.416  10.090  68.678  1.00  0.00    -0.151 NA 
HETATM   10  H   UNL     1      -8.410  10.128  68.839  1.00  0.00     0.000 HD 
BRANCH   9  11
HETATM   11  C   UNL     1      -9.968   8.832  68.422  1.00  0.00    -0.179 A  
HETATM   12  N   UNL     1     -10.376   8.607  67.168  1.00  0.00    -0.284 NA 
HETATM   13  N   UNL     1     -10.028   7.910  69.400  1.00  0.00    -0.185 NA 
HETATM   14  C   UNL     1     -10.402   6.660  69.087  1.00  0.00    -0.194 A  
HETATM   15  C   UNL     1     -10.796   6.332  67.808  1.00  0.00    -0.424 A  
HETATM   16  C   UNL     1     -10.784   7.359  66.891  1.00  0.00    -0.254 A  
BRANCH  14  17
HETATM   17  C   UNL     1     -10.345   5.676  70.176  1.00  0.00    -0.341 A  
HETATM   18  C   UNL     1      -9.531   2.562  71.896  1.00  0.00    -0.195 A  
HETATM   19  C   UNL     1     -10.856   5.914  71.443  1.00  0.00    -0.271 A  
HETATM   20  C   UNL     1      -8.924   1.752  70.934  1.00  0.00    -0.126 A  
HETATM   21  C   UNL     1      -8.776   2.194  69.626  1.00  0.00    -0.119 A  
HETATM   22  N   UNL     1     -10.640   4.808  72.221  1.00  0.00    -0.188 NA 
HETATM   23  C   UNL     1      -9.985   3.836  71.507  1.00  0.00    -0.124 A  
HETATM   24  C   UNL     1     -11.059   4.675  73.600  1.00  0.00    -0.300 C  
HETATM   25  C   UNL     1      -9.820   4.326  70.202  1.00  0.00    -0.271 A  
HETATM   26  C   UNL     1      -9.208   3.475  69.254  1.00  0.00    -0.230 A  
ENDBRANCH  14  17
ENDBRANCH   9  11
ENDBRANCH   4   9
BRANCH   7  27
HETATM   27  N   UNL     1      -9.307  14.797  67.830  1.00  0.00    -0.196 N  
HETATM   28  O   UNL     1      -9.819  14.728  65.566  1.00  0.00    -0.342 OA 
HETATM   29  H   UNL     1      -8.798  15.335  68.531  1.00  0.00     0.000 HD 
HETATM   30  C   UNL     1      -9.174  15.169  66.511  1.00  0.00    -0.287 C  
BRANCH  30  31
HETATM   31  C   UNL     1      -8.194  16.272  66.335  1.00  0.00    -0.354 C  
HETATM   32  C   UNL     1      -7.861  17.045  67.376  1.00  0.00    -0.191 C  
ENDBRANCH  30  31
ENDBRANCH   7  27
BRANCH   5  33
HETATM   33  N   UNL     1     -11.749  15.202  69.358  1.00  0.00    -0.312 NA 
HETATM   34  C   UNL     1     -11.491  16.368  68.519  1.00  0.00    -0.209 C  
BRANCH  33  35
HETATM   35  C   UNL     1     -12.709  15.399  70.458  1.00  0.00    -0.405 C  
BRANCH  35  36
HETATM   36  C   UNL     1     -12.018  16.016  71.697  1.00  0.00    -0.499 C  
BRANCH  36  37
HETATM   37  N   UNL     1     -12.139  15.235  72.947  1.00  0.00    -0.399 NA 
HETATM   38  C   UNL     1     -13.201  14.236  72.775  1.00  0.00    -0.522 C  
HETATM   39  C   UNL     1     -12.460  16.093  74.091  1.00  0.00    -0.588 C  
ENDBRANCH  36  37
ENDBRANCH  35  36
ENDBRANCH  33  35
ENDBRANCH   5  33
ENDBRANCH   2   3
TORSDOF 10
ENDMDL
MODEL       87
REMARK 921   NORMALIZED FREE ENERGY PREDICTED BY IDOCK:   -5.80 KCAL/MOL
REMARK 922        TOTAL FREE ENERGY PREDICTED BY IDOCK:  -10.90 KCAL/MOL
REMARK 923 INTER-LIGAND FREE ENERGY PREDICTED BY IDOCK:  -10.01 KCAL/MOL
REMARK 924 INTRA-LIGAND FREE ENERGY PREDICTED BY IDOCK:   -0.90 KCAL/MOL
REMARK 927      BINDING AFFINITY PREDICTED BY RF-SCORE:    0.00 PKD
ROOT
HETATM    1  C   UNL     1     -11.554  13.315  64.310  1.00  0.00    -0.400 C  
HETATM    2  O   UNL     1     -10.343  13.490  65.037  1.00  0.00    -0.343 OA 
ENDROOT
BRANCH   2   3
HETATM    3  C   UNL     1     -10.450  13.863  66.355  1.00  0.00    -0.284 A  
HETATM    4  C   UNL     1     -10.949  13.094  67.408  1.00  0.00    -0.264 A  
HETATM    5  C   UNL     1     -10.048  15.784  67.888  1.00  0.00    -0.230 A  
HETATM    6  C   UNL     1     -10.830  13.619  68.701  1.00  0.00    -0.283 A  
HETATM    7  C   UNL     1     -10.456  14.946  68.943  1.00  0.00    -0.242 A  
HETATM    8  C   UNL     1      -9.987  15.171  66.614  1.00  0.00    -0.261 A  
BRANCH   4   9
HETATM    9  N   UNL     1     -11.565  11.844  67.224  1.00  0.00    -0.506 NA 
HETATM   10  H   UNL     1     -12.584  11.828  67.223  1.00  0.00     0.000 HD 
BRANCH   9  11
HETATM   11  C   UNL     1     -10.913  10.620  67.042  1.00  0.00    -0.208 A  
HETATM   12  N   UNL     1     -10.496  10.349  65.801  1.00  0.00    -0.170 NA 
HETATM   13  N   UNL     1     -10.700   9.808  68.093  1.00  0.00    -0.237 NA 
HETATM   14  C   UNL     1      -9.925   8.725  67.926  1.00  0.00    -0.187 A  
HETATM   15  C   UNL     1      -9.417   8.396  66.687  1.00  0.00    -0.267 A  
HETATM   16  C   UNL     1      -9.757   9.238  65.652  1.00  0.00    -0.232 A  
BRANCH  14  17
HETATM   17  C   UNL     1      -9.643   7.938  69.133  1.00  0.00    -0.153 A  
HETATM   18  C   UNL     1     -10.305   6.083  72.205  1.00  0.00    -0.232 A  
HETATM   19  C   UNL     1      -8.371   7.511  69.482  1.00  0.00    -0.131 A  
HETATM   20  C   UNL     1     -11.677   6.216  72.433  1.00  0.00    -0.319 A  
HETATM   21  C   UNL     1     -12.468   6.970  71.577  1.00  0.00    -0.426 A  
HETATM   22  N   UNL     1      -8.448   6.800  70.649  1.00  0.00    -0.136 NA 
HETATM   23  C   UNL     1      -9.748   6.729  71.086  1.00  0.00    -0.174 A  
HETATM   24  C   UNL     1      -7.317   6.217  71.337  1.00  0.00    -0.085 C  
HETATM   25  C   UNL     1     -10.525   7.470  70.183  1.00  0.00    -0.226 A  
HETATM   26  C   UNL     1     -11.908   7.589  70.450  1.00  0.00    -0.062 A  
ENDBRANCH  14  17
ENDBRANCH   9  11
ENDBRANCH   4   9
BRANCH   7  27
HETATM   27  N   UNL     1     -10.704  15.463  70.232  1.00  0.00    -0.365 N  
HETATM   28  O   UNL     1     -12.912  14.790  70.479  1.00  0.00    -0.350 OA 
HETATM   29  H   UNL     1      -9.930  15.906  70.726  1.00  0.00     0.000 HD 
HETATM   30  C   UNL     1     -11.925  15.406  70.864  1.00  0.00    -0.359 C  
BRANCH  30  31
HETATM   31  C   UNL     1     -11.915  16.120  72.168  1.00  0.00    -0.623 C  
HETATM   32  C   UNL     1     -12.322  15.493  73.279  1.00  0.00    -0.599 C  
ENDBRANCH  30  31
ENDBRANCH   7  27
BRANCH   5  33
HETATM   33  N   UNL     1      -9.724  17.130  68.059  1.00  0.00    -0.265 NA 
HETATM   34  C   UNL     1     -10.667  18.210  67.790  1.00  0.00    -0.335 C  
BRANCH  33  35
HETATM   35  C   UNL     1      -8.445  17.528  68.674  1.00  0.00    -0.258 C  
BRANCH  35  36
HETATM   36  C   UNL     1      -7.369  17.800  67.596  1.00  0.00    -0.200 C  
BRANCH  36  37
HETATM   37  N   UNL     1      -6.595  19.047  67.772  1.00  0.00    -0.207 NA 
HETATM   38  C   UNL     1      -5.533  18.806  68.757  1.00  0.00    -0.194 C  
HETATM   39  C   UNL     1      -7.444  20.149  68.233  1.00  0.00    -0.194 C  
ENDBRANCH  36  37
ENDBRANCH  35  36
ENDBRANCH  33  35
ENDBRANCH   5  33
ENDBRANCH   2   3
TORSDOF 10
ENDMDL
MODEL       88
REMARK 921   NORMALIZED FREE ENERGY PREDICTED BY IDOCK:   -5.78 KCAL/MOL
REMARK 922        TOTAL FREE ENERGY PREDICTED BY IDOCK:  -10.87 KCAL/MOL
REMARK 923 INTER-LIGAND FREE ENERGY PREDICTED BY IDOCK:  -10.21 KCAL/MOL
REMARK 924 INTRA-LIGAND FREE ENERGY PREDICTED BY IDOCK:   -0.66 KCAL/MOL
REMARK 927      BINDING AFFINITY PREDICTED BY RF-SCORE:    0.00 PKD
ROOT
HETATM    1  C   UNL     1     -11.019  16.305  64.726  1.00  0.00    -0.272 C  
HETATM    2  O   UNL     1     -10.718  14.918  64.835  1.00  0.00    -0.398 OA 
ENDROOT
BRANCH   2   3
HETATM    3  C   UNL     1     -11.107  14.279  65.987  1.00  0.00    -0.319 A  
HETATM    4  C   UNL     1     -11.508  12.948  66.116  1.00  0.00    -0.348 A  
HETATM    5  C   UNL     1     -11.481  14.673  68.417  1.00  0.00    -0.311 A  
HETATM    6  C   UNL     1     -11.722  12.462  67.412  1.00  0.00    -0.417 A  
HETATM    7  C   UNL     1     -11.777  13.302  68.530  1.00  0.00    -0.352 A  
HETATM    8  C   UNL     1     -11.074  15.104  67.132  1.00  0.00    -0.335 A  
BRANCH   4   9
HETATM    9  N   UNL     1     -11.713  12.096  65.016  1.00  0.00    -0.340 NA 
HETATM   10  H   UNL     1     -12.610  12.168  64.537  1.00  0.00     0.000 HD 
BRANCH   9  11
HETATM   11  C   UNL     1     -10.804  11.158  64.516  1.00  0.00    -0.250 A  
HETATM   12  N   UNL     1     -10.445  11.304  63.235  1.00  0.00    -0.350 NA 
HETATM   13  N   UNL     1     -10.307  10.204  65.324  1.00  0.00    -0.195 NA 
HETATM   14  C   UNL     1      -9.313   9.427  64.869  1.00  0.00    -0.150 A  
HETATM   15  C   UNL     1      -8.853   9.540  63.575  1.00  0.00    -0.235 A  
HETATM   16  C   UNL     1      -9.476  10.487  62.794  1.00  0.00    -0.325 A  
BRANCH  14  17
HETATM   17  C   UNL     1      -8.742   8.476  65.832  1.00  0.00    -0.203 A  
HETATM   18  C   UNL     1      -8.655   5.806  68.317  1.00  0.00    -0.112 A  
HETATM   19  C   UNL     1      -7.380   8.353  66.064  1.00  0.00    -0.073 A  
HETATM   20  C   UNL     1      -9.991   5.484  68.567  1.00  0.00    -0.211 A  
HETATM   21  C   UNL     1     -11.017   6.173  67.933  1.00  0.00    -0.399 A  
HETATM   22  N   UNL     1      -7.179   7.382  67.007  1.00  0.00    -0.086 NA 
HETATM   23  C   UNL     1      -8.375   6.840  67.406  1.00  0.00    -0.122 A  
HETATM   24  C   UNL     1      -5.886   6.990  67.524  1.00  0.00    -0.024 C  
HETATM   25  C   UNL     1      -9.387   7.532  66.722  1.00  0.00    -0.209 A  
HETATM   26  C   UNL     1     -10.728   7.186  67.006  1.00  0.00    -0.420 A  
ENDBRANCH  14  17
ENDBRANCH   9  11
ENDBRANCH   4   9
BRANCH   7  27
HETATM   27  N   UNL     1     -12.336  12.770  69.711  1.00  0.00    -0.108 N  
HETATM   28  O   UNL     1     -11.077  10.826  69.870  1.00  0.00    -0.266 OA 
HETATM   29  H   UNL     1     -13.038  13.325  70.199  1.00  0.00     0.000 HD 
HETATM   30  C   UNL     1     -11.993  11.549  70.245  1.00  0.00    -0.368 C  
BRANCH  30  31
HETATM   31  C   UNL     1     -12.817  11.205  71.434  1.00  0.00    -0.544 C  
HETATM   32  C   UNL     1     -13.111   9.927  71.698  1.00  0.00    -0.538 C  
ENDBRANCH  30  31
ENDBRANCH   7  27
BRANCH   5  33
HETATM   33  N   UNL     1     -11.579  15.570  69.482  1.00  0.00    -0.325 NA 
HETATM   34  C   UNL     1     -12.712  15.585  70.402  1.00  0.00    -0.338 C  
BRANCH  33  35
HETATM   35  C   UNL     1     -10.455  16.458  69.828  1.00  0.00    -0.246 C  
BRANCH  35  36
HETATM   36  C   UNL     1     -10.479  17.747  68.974  1.00  0.00    -0.152 C  
BRANCH  36  37
HETATM   37  N   UNL     1      -9.161  18.219  68.498  1.00  0.00    -0.317 NA 
HETATM   38  C   UNL     1      -9.288  18.632  67.096  1.00  0.00    -0.290 C  
HETATM   39  C   UNL     1      -8.142  17.171  68.606  1.00  0.00    -0.264 C  
ENDBRANCH  36  37
ENDBRANCH  35  36
ENDBRANCH  33  35
ENDBRANCH   5  33
ENDBRANCH   2   3
TORSDOF 10
ENDMDL
MODEL       89
REMARK 921   NORMALIZED FREE ENERGY PREDICTED BY IDOCK:   -5.78 KCAL/MOL
REMARK 922        TOTAL FREE ENERGY PREDICTED BY IDOCK:  -10.87 KCAL/MOL
REMARK 923 INTER-LIGAND FREE ENERGY PREDICTED BY IDOCK:   -9.48 KCAL/MOL
REMARK 924 INTRA-LIGAND FREE ENERGY PREDICTED BY IDOCK:   -1.39 KCAL/MOL
REMARK 927      BINDING AFFINITY PREDICTED BY RF-SCORE:    0.00 PKD
ROOT
HETATM    1  C   UNL     1     -12.860  12.279  63.356  1.00  0.00    -0.222 C  
HETATM    2  O   UNL     1     -12.826  12.239  64.779  1.00  0.00    -0.661 OA 
ENDROOT
BRANCH   2   3
HETATM    3  C   UNL     1     -11.805  12.914  65.402  1.00  0.00    -0.403 A  
HETATM    4  C   UNL     1     -10.472  12.986  64.992  1.00  0.00    -0.328 A  
HETATM    5  C   UNL     1     -11.311  14.312  67.404  1.00  0.00    -0.332 A  
HETATM    6  C   UNL     1      -9.627  13.853  65.697  1.00  0.00    -0.067 A  
HETATM    7  C   UNL     1     -10.002  14.451  66.905  1.00  0.00    -0.261 A  
HETATM    8  C   UNL     1     -12.204  13.593  66.573  1.00  0.00    -0.454 A  
BRANCH   4   9
HETATM    9  N   UNL     1      -9.952  12.228  63.928  1.00  0.00    -0.566 NA 
HETATM   10  H   UNL     1      -9.922  12.676  63.013  1.00  0.00     0.000 HD 
BRANCH   9  11
HETATM   11  C   UNL     1      -9.473  10.916  64.005  1.00  0.00    -0.262 A  
HETATM   12  N   UNL     1      -8.692  10.509  62.998  1.00  0.00    -0.188 NA 
HETATM   13  N   UNL     1      -9.769  10.152  65.072  1.00  0.00    -0.299 NA 
HETATM   14  C   UNL     1      -9.160   8.964  65.205  1.00  0.00    -0.097 A  
HETATM   15  C   UNL     1      -8.306   8.488  64.233  1.00  0.00    -0.113 A  
HETATM   16  C   UNL     1      -8.127   9.300  63.136  1.00  0.00    -0.158 A  
BRANCH  14  17
HETATM   17  C   UNL     1      -9.444   8.225  66.441  1.00  0.00    -0.287 A  
HETATM   18  C   UNL     1     -10.257   7.678  69.956  1.00  0.00    -0.213 A  
HETATM   19  C   UNL     1      -9.512   6.841  66.501  1.00  0.00    -0.150 A  
HETATM   20  C   UNL     1     -10.287   8.949  70.535  1.00  0.00    -0.246 A  
HETATM   21  C   UNL     1     -10.002  10.079  69.779  1.00  0.00    -0.276 A  
HETATM   22  N   UNL     1      -9.798   6.468  67.787  1.00  0.00    -0.121 NA 
HETATM   23  C   UNL     1      -9.936   7.572  68.591  1.00  0.00    -0.172 A  
HETATM   24  C   UNL     1      -9.923   5.100  68.241  1.00  0.00    -0.146 C  
HETATM   25  C   UNL     1      -9.677   8.696  67.791  1.00  0.00    -0.202 A  
HETATM   26  C   UNL     1      -9.708   9.966  68.412  1.00  0.00    -0.161 A  
ENDBRANCH  14  17
ENDBRANCH   9  11
ENDBRANCH   4   9
BRANCH   7  27
HETATM   27  N   UNL     1      -8.976  15.011  67.695  1.00  0.00    -0.174 N  
HETATM   28  O   UNL     1      -8.146  13.065  68.652  1.00  0.00    -0.112 OA 
HETATM   29  H   UNL     1      -8.813  16.015  67.625  1.00  0.00     0.000 HD 
HETATM   30  C   UNL     1      -8.181  14.286  68.553  1.00  0.00    -0.145 C  
BRANCH  30  31
HETATM   31  C   UNL     1      -7.256  15.155  69.328  1.00  0.00    -0.182 C  
HETATM   32  C   UNL     1      -6.100  14.661  69.788  1.00  0.00    -0.131 C  
ENDBRANCH  30  31
ENDBRANCH   7  27
BRANCH   5  33
HETATM   33  N   UNL     1     -11.725  14.831  68.630  1.00  0.00    -0.323 NA 
HETATM   34  C   UNL     1     -11.798  16.264  68.898  1.00  0.00    -0.060 C  
BRANCH  33  35
HETATM   35  C   UNL     1     -12.264  13.951  69.682  1.00  0.00    -0.321 C  
BRANCH  35  36
HETATM   36  C   UNL     1     -12.069  14.574  71.084  1.00  0.00    -0.344 C  
BRANCH  36  37
HETATM   37  N   UNL     1     -13.187  14.370  72.030  1.00  0.00    -0.343 NA 
HETATM   38  C   UNL     1     -14.270  15.299  71.685  1.00  0.00    -0.552 C  
HETATM   39  C   UNL     1     -12.770  14.603  73.416  1.00  0.00    -0.408 C  
ENDBRANCH  36  37
ENDBRANCH  35  36
ENDBRANCH  33  35
ENDBRANCH   5  33
ENDBRANCH   2   3
TORSDOF 10
ENDMDL
MODEL       90
REMARK 921   NORMALIZED FREE ENERGY PREDICTED BY IDOCK:   -5.77 KCAL/MOL
REMARK 922        TOTAL FREE ENERGY PREDICTED BY IDOCK:  -10.85 KCAL/MOL
REMARK 923 INTER-LIGAND FREE ENERGY PREDICTED BY IDOCK:   -9.09 KCAL/MOL
REMARK 924 INTRA-LIGAND FREE ENERGY PREDICTED BY IDOCK:   -1.77 KCAL/MOL
REMARK 927      BINDING AFFINITY PREDICTED BY RF-SCORE:    0.00 PKD
ROOT
HETATM    1  C   UNL     1      -7.767  12.310  68.310  1.00  0.00    -0.143 C  
HETATM    2  O   UNL     1      -7.418  11.859  67.005  1.00  0.00    -0.148 OA 
ENDROOT
BRANCH   2   3
HETATM    3  C   UNL     1      -7.878  10.622  66.625  1.00  0.00    -0.135 A  
HETATM    4  C   UNL     1      -8.647  10.321  65.498  1.00  0.00    -0.164 A  
HETATM    5  C   UNL     1      -7.904   8.235  67.334  1.00  0.00    -0.106 A  
HETATM    6  C   UNL     1      -8.883   8.969  65.222  1.00  0.00    -0.234 A  
HETATM    7  C   UNL     1      -8.586   7.951  66.136  1.00  0.00    -0.150 A  
HETATM    8  C   UNL     1      -7.500   9.581  67.500  1.00  0.00    -0.091 A  
BRANCH   4   9
HETATM    9  N   UNL     1      -9.192  11.304  64.654  1.00  0.00    -0.376 NA 
HETATM   10  H   UNL     1      -8.743  11.436  63.748  1.00  0.00     0.000 HD 
BRANCH   9  11
HETATM   11  C   UNL     1     -10.292  12.120  64.939  1.00  0.00    -0.289 A  
HETATM   12  N   UNL     1     -11.403  11.887  64.231  1.00  0.00    -0.350 NA 
HETATM   13  N   UNL     1     -10.210  13.048  65.909  1.00  0.00    -0.288 NA 
HETATM   14  C   UNL     1     -11.324  13.697  66.279  1.00  0.00    -0.312 A  
HETATM   15  C   UNL     1     -12.522  13.484  65.630  1.00  0.00    -0.528 A  
HETATM   16  C   UNL     1     -12.494  12.578  64.593  1.00  0.00    -0.463 A  
BRANCH  14  17
HETATM   17  C   UNL     1     -11.191  14.619  67.413  1.00  0.00    -0.351 A  
HETATM   18  C   UNL     1     -11.355  15.803  70.861  1.00  0.00    -0.426 A  
HETATM   19  C   UNL     1     -10.660  15.896  67.297  1.00  0.00    -0.314 A  
HETATM   20  C   UNL     1     -11.955  14.768  71.583  1.00  0.00    -0.411 A  
HETATM   21  C   UNL     1     -12.375  13.609  70.944  1.00  0.00    -0.450 A  
HETATM   22  N   UNL     1     -10.669  16.491  68.529  1.00  0.00    -0.318 NA 
HETATM   23  C   UNL     1     -11.184  15.639  69.474  1.00  0.00    -0.313 A  
HETATM   24  C   UNL     1     -10.215  17.838  68.798  1.00  0.00    -0.373 C  
HETATM   25  C   UNL     1     -11.565  14.466  68.804  1.00  0.00    -0.348 A  
HETATM   26  C   UNL     1     -12.176  13.444  69.565  1.00  0.00    -0.260 A  
ENDBRANCH  14  17
ENDBRANCH   9  11
ENDBRANCH   4   9
BRANCH   7  27
HETATM   27  N   UNL     1      -9.173   6.689  65.911  1.00  0.00    -0.363 N  
HETATM   28  O   UNL     1     -11.212   7.040  66.966  1.00  0.00    -0.328 OA 
HETATM   29  H   UNL     1      -8.654   6.013  65.351  1.00  0.00     0.000 HD 
HETATM   30  C   UNL     1     -10.403   6.312  66.402  1.00  0.00    -0.005 C  
BRANCH  30  31
HETATM   31  C   UNL     1     -10.719   4.893  66.093  1.00  0.00    -0.243 C  
HETATM   32  C   UNL     1     -10.102   4.275  65.078  1.00  0.00    -0.207 C  
ENDBRANCH  30  31
ENDBRANCH   7  27
BRANCH   5  33
HETATM   33  N   UNL     1      -7.635   7.275  68.310  1.00  0.00    -0.115 NA 
HETATM   34  C   UNL     1      -8.471   7.094  69.493  1.00  0.00    -0.134 C  
BRANCH  33  35
HETATM   35  C   UNL     1      -6.566   6.278  68.117  1.00  0.00    -0.066 C  
BRANCH  35  36
HETATM   36  C   UNL     1      -6.923   4.939  68.803  1.00  0.00    -0.052 C  
BRANCH  36  37
HETATM   37  N   UNL     1      -7.930   4.114  68.101  1.00  0.00    -0.081 NA 
HETATM   38  C   UNL     1      -8.685   3.345  69.097  1.00  0.00    -0.090 C  
HETATM   39  C   UNL     1      -7.304   3.193  67.148  1.00  0.00    -0.062 C  
ENDBRANCH  36  37
ENDBRANCH  35  36
ENDBRANCH  33  35
ENDBRANCH   5  33
ENDBRANCH   2   3
TORSDOF 10
ENDMDL
MODEL       91
REMARK 921   NORMALIZED FREE ENERGY PREDICTED BY IDOCK:   -5.76 KCAL/MOL
REMARK 922        TOTAL FREE ENERGY PREDICTED BY IDOCK:  -10.85 KCAL/MOL
REMARK 923 INTER-LIGAND FREE ENERGY PREDICTED BY IDOCK:   -8.97 KCAL/MOL
REMARK 924 INTRA-LIGAND FREE ENERGY PREDICTED BY IDOCK:   -1.88 KCAL/MOL
REMARK 927      BINDING AFFINITY PREDICTED BY RF-SCORE:    0.00 PKD
ROOT
HETATM    1  C   UNL     1      -9.063  10.305  62.439  1.00  0.00    -0.288 C  
HETATM    2  O   UNL     1      -8.018   9.869  63.302  1.00  0.00    -0.137 OA 
ENDROOT
BRANCH   2   3
HETATM    3  C   UNL     1      -8.383   9.385  64.535  1.00  0.00    -0.164 A  
HETATM    4  C   UNL     1      -8.779  10.131  65.647  1.00  0.00    -0.158 A  
HETATM    5  C   UNL     1      -8.624   7.263  65.816  1.00  0.00    -0.131 A  
HETATM    6  C   UNL     1      -9.251   9.424  66.761  1.00  0.00    -0.179 A  
HETATM    7  C   UNL     1      -9.120   8.036  66.881  1.00  0.00    -0.152 A  
HETATM    8  C   UNL     1      -8.339   7.977  64.628  1.00  0.00    -0.065 A  
BRANCH   4   9
HETATM    9  N   UNL     1      -8.712  11.534  65.696  1.00  0.00    -0.396 NA 
HETATM   10  H   UNL     1      -7.793  11.957  65.571  1.00  0.00     0.000 HD 
BRANCH   9  11
HETATM   11  C   UNL     1      -9.786  12.406  65.900  1.00  0.00    -0.252 A  
HETATM   12  N   UNL     1     -10.331  12.944  64.803  1.00  0.00    -0.325 NA 
HETATM   13  N   UNL     1     -10.244  12.631  67.145  1.00  0.00    -0.224 NA 
HETATM   14  C   UNL     1     -11.377  13.332  67.300  1.00  0.00    -0.314 A  
HETATM   15  C   UNL     1     -12.027  13.885  66.217  1.00  0.00    -0.462 A  
HETATM   16  C   UNL     1     -11.441  13.674  64.989  1.00  0.00    -0.327 A  
BRANCH  14  17
HETATM   17  C   UNL     1     -11.881  13.454  68.673  1.00  0.00    -0.397 A  
HETATM   18  C   UNL     1     -13.009  12.398  71.979  1.00  0.00    -0.376 A  
HETATM   19  C   UNL     1     -12.121  14.673  69.290  1.00  0.00    -0.272 A  
HETATM   20  C   UNL     1     -13.020  11.002  71.942  1.00  0.00    -0.485 A  
HETATM   21  C   UNL     1     -12.675  10.321  70.782  1.00  0.00    -0.434 A  
HETATM   22  N   UNL     1     -12.576  14.443  70.560  1.00  0.00    -0.342 NA 
HETATM   23  C   UNL     1     -12.637  13.095  70.815  1.00  0.00    -0.260 A  
HETATM   24  C   UNL     1     -12.956  15.475  71.500  1.00  0.00    -0.472 C  
HETATM   25  C   UNL     1     -12.250  12.438  69.637  1.00  0.00    -0.171 A  
HETATM   26  C   UNL     1     -12.281  11.024  69.634  1.00  0.00    -0.370 A  
ENDBRANCH  14  17
ENDBRANCH   9  11
ENDBRANCH   4   9
BRANCH   7  27
HETATM   27  N   UNL     1      -9.303   7.479  68.164  1.00  0.00    -0.137 N  
HETATM   28  O   UNL     1     -11.243   6.267  67.765  1.00  0.00    -0.325 OA 
HETATM   29  H   UNL     1      -8.592   7.664  68.872  1.00  0.00     0.000 HD 
HETATM   30  C   UNL     1     -10.381   6.701  68.521  1.00  0.00    -0.192 C  
BRANCH  30  31
HETATM   31  C   UNL     1     -10.359   6.340  69.963  1.00  0.00    -0.252 C  
HETATM   32  C   UNL     1     -11.198   6.939  70.817  1.00  0.00    -0.338 C  
ENDBRANCH  30  31
ENDBRANCH   7  27
BRANCH   5  33
HETATM   33  N   UNL     1      -8.414   5.886  65.898  1.00  0.00    -0.136 NA 
HETATM   34  C   UNL     1      -9.202   4.919  65.140  1.00  0.00    -0.123 C  
BRANCH  33  35
HETATM   35  C   UNL     1      -7.270   5.339  66.649  1.00  0.00    -0.077 C  
BRANCH  35  36
HETATM   36  C   UNL     1      -7.575   3.916  67.172  1.00  0.00    -0.080 C  
BRANCH  36  37
HETATM   37  N   UNL     1      -7.809   3.812  68.628  1.00  0.00    -0.063 NA 
HETATM   38  C   UNL     1      -6.998   4.829  69.308  1.00  0.00    -0.051 C  
HETATM   39  C   UNL     1      -7.453   2.485  69.138  1.00  0.00    -0.044 C  
ENDBRANCH  36  37
ENDBRANCH  35  36
ENDBRANCH  33  35
ENDBRANCH   5  33
ENDBRANCH   2   3
TORSDOF 10
ENDMDL
MODEL       92
REMARK 921   NORMALIZED FREE ENERGY PREDICTED BY IDOCK:   -5.74 KCAL/MOL
REMARK 922        TOTAL FREE ENERGY PREDICTED BY IDOCK:  -10.80 KCAL/MOL
REMARK 923 INTER-LIGAND FREE ENERGY PREDICTED BY IDOCK:   -8.94 KCAL/MOL
REMARK 924 INTRA-LIGAND FREE ENERGY PREDICTED BY IDOCK:   -1.86 KCAL/MOL
REMARK 927      BINDING AFFINITY PREDICTED BY RF-SCORE:    0.00 PKD
ROOT
HETATM    1  C   UNL     1      -7.640   9.280  70.226  1.00  0.00    -0.123 C  
HETATM    2  O   UNL     1      -7.253   9.338  68.856  1.00  0.00    -0.070 OA 
ENDROOT
BRANCH   2   3
HETATM    3  C   UNL     1      -7.880   8.475  67.990  1.00  0.00    -0.103 A  
HETATM    4  C   UNL     1      -8.380   8.774  66.721  1.00  0.00    -0.108 A  
HETATM    5  C   UNL     1      -8.651   6.116  67.788  1.00  0.00    -0.114 A  
HETATM    6  C   UNL     1      -8.850   7.706  65.947  1.00  0.00    -0.163 A  
HETATM    7  C   UNL     1      -9.048   6.424  66.474  1.00  0.00    -0.151 A  
HETATM    8  C   UNL     1      -7.997   7.159  68.487  1.00  0.00    -0.124 A  
BRANCH   4   9
HETATM    9  N   UNL     1      -8.441  10.081  66.206  1.00  0.00    -0.128 NA 
HETATM   10  H   UNL     1      -7.625  10.412  65.692  1.00  0.00     0.000 HD 
BRANCH   9  11
HETATM   11  C   UNL     1      -9.513  10.969  66.332  1.00  0.00    -0.193 A  
HETATM   12  N   UNL     1      -9.973  11.509  65.198  1.00  0.00    -0.252 NA 
HETATM   13  N   UNL     1     -10.053  11.207  67.541  1.00  0.00    -0.181 NA 
HETATM   14  C   UNL     1     -11.183  11.926  67.614  1.00  0.00    -0.276 A  
HETATM   15  C   UNL     1     -11.748  12.483  66.486  1.00  0.00    -0.454 A  
HETATM   16  C   UNL     1     -11.081  12.258  65.303  1.00  0.00    -0.316 A  
BRANCH  14  17
HETATM   17  C   UNL     1     -11.780  12.062  68.949  1.00  0.00    -0.383 A  
HETATM   18  C   UNL     1     -13.130  13.713  71.909  1.00  0.00    -0.476 A  
HETATM   19  C   UNL     1     -12.166  10.977  69.723  1.00  0.00    -0.318 A  
HETATM   20  C   UNL     1     -12.944  15.080  71.692  1.00  0.00    -0.432 A  
HETATM   21  C   UNL     1     -12.319  15.536  70.539  1.00  0.00    -0.461 A  
HETATM   22  N   UNL     1     -12.688  11.439  70.901  1.00  0.00    -0.332 NA 
HETATM   23  C   UNL     1     -12.672  12.812  70.931  1.00  0.00    -0.192 A  
HETATM   24  C   UNL     1     -13.174  10.599  71.973  1.00  0.00    -0.368 C  
HETATM   25  C   UNL     1     -12.068  13.241  69.739  1.00  0.00    -0.355 A  
HETATM   26  C   UNL     1     -11.889  14.631  69.557  1.00  0.00    -0.374 A  
ENDBRANCH  14  17
ENDBRANCH   9  11
ENDBRANCH   4   9
BRANCH   7  27
HETATM   27  N   UNL     1      -9.839   5.531  65.721  1.00  0.00    -0.367 N  
HETATM   28  O   UNL     1      -8.147   4.294  64.723  1.00  0.00    -0.092 OA 
HETATM   29  H   UNL     1     -10.852   5.587  65.824  1.00  0.00     0.000 HD 
HETATM   30  C   UNL     1      -9.329   4.589  64.857  1.00  0.00    -0.149 C  
BRANCH  30  31
HETATM   31  C   UNL     1     -10.399   3.861  64.126  1.00  0.00    -0.238 C  
HETATM   32  C   UNL     1     -10.122   2.706  63.508  1.00  0.00    -0.150 C  
ENDBRANCH  30  31
ENDBRANCH   7  27
BRANCH   5  33
HETATM   33  N   UNL     1      -8.878   4.876  68.388  1.00  0.00    -0.101 NA 
HETATM   34  C   UNL     1      -7.956   3.753  68.255  1.00  0.00    -0.071 C  
BRANCH  33  35
HETATM   35  C   UNL     1      -9.998   4.684  69.326  1.00  0.00    -0.161 C  
BRANCH  35  36
HETATM   36  C   UNL     1     -11.014   5.846  69.225  1.00  0.00    -0.327 C  
BRANCH  36  37
HETATM   37  N   UNL     1     -11.470   6.405  70.516  1.00  0.00    -0.373 NA 
HETATM   38  C   UNL     1     -11.038   7.805  70.600  1.00  0.00    -0.256 C  
HETATM   39  C   UNL     1     -10.921   5.658  71.651  1.00  0.00    -0.211 C  
ENDBRANCH  36  37
ENDBRANCH  35  36
ENDBRANCH  33  35
ENDBRANCH   5  33
ENDBRANCH   2   3
TORSDOF 10
ENDMDL
MODEL       93
REMARK 921   NORMALIZED FREE ENERGY PREDICTED BY IDOCK:   -5.71 KCAL/MOL
REMARK 922        TOTAL FREE ENERGY PREDICTED BY IDOCK:  -10.76 KCAL/MOL
REMARK 923 INTER-LIGAND FREE ENERGY PREDICTED BY IDOCK:  -10.07 KCAL/MOL
REMARK 924 INTRA-LIGAND FREE ENERGY PREDICTED BY IDOCK:   -0.69 KCAL/MOL
REMARK 927      BINDING AFFINITY PREDICTED BY RF-SCORE:    0.00 PKD
ROOT
HETATM    1  C   UNL     1     -11.998  13.549  63.100  1.00  0.00     0.086 C  
HETATM    2  O   UNL     1     -12.351  14.475  64.121  1.00  0.00    -0.622 OA 
ENDROOT
BRANCH   2   3
HETATM    3  C   UNL     1     -11.427  14.699  65.113  1.00  0.00    -0.375 A  
HETATM    4  C   UNL     1     -11.000  13.791  66.084  1.00  0.00    -0.292 A  
HETATM    5  C   UNL     1      -9.948  16.469  66.052  1.00  0.00    -0.337 A  
HETATM    6  C   UNL     1      -9.938  14.183  66.909  1.00  0.00    -0.261 A  
HETATM    7  C   UNL     1      -9.463  15.499  66.949  1.00  0.00    -0.228 A  
HETATM    8  C   UNL     1     -10.880  16.000  65.096  1.00  0.00    -0.411 A  
BRANCH   4   9
HETATM    9  N   UNL     1     -11.591  12.529  66.271  1.00  0.00    -0.374 NA 
HETATM   10  H   UNL     1     -12.597  12.511  66.435  1.00  0.00     0.000 HD 
BRANCH   9  11
HETATM   11  C   UNL     1     -10.931  11.297  66.254  1.00  0.00    -0.205 A  
HETATM   12  N   UNL     1     -10.057  11.105  65.260  1.00  0.00    -0.260 NA 
HETATM   13  N   UNL     1     -11.159  10.397  67.228  1.00  0.00    -0.250 NA 
HETATM   14  C   UNL     1     -10.391   9.298  67.285  1.00  0.00    -0.265 A  
HETATM   15  C   UNL     1      -9.435   9.045  66.324  1.00  0.00    -0.306 A  
HETATM   16  C   UNL     1      -9.329   9.980  65.318  1.00  0.00    -0.237 A  
BRANCH  14  17
HETATM   17  C   UNL     1     -10.619   8.408  68.430  1.00  0.00    -0.155 A  
HETATM   18  C   UNL     1     -11.668   7.374  71.768  1.00  0.00    -0.319 A  
HETATM   19  C   UNL     1     -10.337   7.049  68.404  1.00  0.00    -0.193 A  
HETATM   20  C   UNL     1     -12.088   8.544  72.406  1.00  0.00    -0.436 A  
HETATM   21  C   UNL     1     -12.015   9.770  71.759  1.00  0.00    -0.388 A  
HETATM   22  N   UNL     1     -10.666   6.508  69.617  1.00  0.00    -0.243 NA 
HETATM   23  C   UNL     1     -11.174   7.470  70.455  1.00  0.00    -0.253 A  
HETATM   24  C   UNL     1     -10.489   5.117  69.975  1.00  0.00    -0.235 C  
HETATM   25  C   UNL     1     -11.119   8.688  69.760  1.00  0.00    -0.073 A  
HETATM   26  C   UNL     1     -11.545   9.852  70.440  1.00  0.00    -0.356 A  
ENDBRANCH  14  17
ENDBRANCH   9  11
ENDBRANCH   4   9
BRANCH   7  27
HETATM   27  N   UNL     1      -8.648  15.859  68.043  1.00  0.00    -0.163 N  
HETATM   28  O   UNL     1      -6.623  15.009  67.287  1.00  0.00    -0.292 OA 
HETATM   29  H   UNL     1      -9.071  16.399  68.797  1.00  0.00     0.000 HD 
HETATM   30  C   UNL     1      -7.317  15.525  68.156  1.00  0.00    -0.115 C  
BRANCH  30  31
HETATM   31  C   UNL     1      -6.742  15.949  69.459  1.00  0.00    -0.192 C  
HETATM   32  C   UNL     1      -5.892  16.982  69.513  1.00  0.00    -0.203 C  
ENDBRANCH  30  31
ENDBRANCH   7  27
BRANCH   5  33
HETATM   33  N   UNL     1      -9.558  17.808  66.085  1.00  0.00    -0.502 NA 
HETATM   34  C   UNL     1     -10.515  18.909  66.135  1.00  0.00    -0.457 C  
BRANCH  33  35
HETATM   35  C   UNL     1      -8.139  18.180  66.227  1.00  0.00    -0.221 C  
BRANCH  35  36
HETATM   36  C   UNL     1      -7.963  19.716  66.225  1.00  0.00    -0.328 C  
BRANCH  36  37
HETATM   37  N   UNL     1      -7.383  20.291  67.458  1.00  0.00    -0.291 NA 
HETATM   38  C   UNL     1      -6.007  19.801  67.602  1.00  0.00    -0.190 C  
HETATM   39  C   UNL     1      -8.159  19.916  68.644  1.00  0.00    -0.129 C  
ENDBRANCH  36  37
ENDBRANCH  35  36
ENDBRANCH  33  35
ENDBRANCH   5  33
ENDBRANCH   2   3
TORSDOF 10
ENDMDL
MODEL       94
REMARK 921   NORMALIZED FREE ENERGY PREDICTED BY IDOCK:   -5.70 KCAL/MOL
REMARK 922        TOTAL FREE ENERGY PREDICTED BY IDOCK:  -10.75 KCAL/MOL
REMARK 923 INTER-LIGAND FREE ENERGY PREDICTED BY IDOCK:   -9.62 KCAL/MOL
REMARK 924 INTRA-LIGAND FREE ENERGY PREDICTED BY IDOCK:   -1.13 KCAL/MOL
REMARK 927      BINDING AFFINITY PREDICTED BY RF-SCORE:    0.00 PKD
ROOT
HETATM    1  C   UNL     1     -11.446  14.756  69.432  1.00  0.00    -0.301 C  
HETATM    2  O   UNL     1     -12.256  13.905  68.627  1.00  0.00    -0.345 OA 
ENDROOT
BRANCH   2   3
HETATM    3  C   UNL     1     -11.887  12.585  68.540  1.00  0.00    -0.295 A  
HETATM    4  C   UNL     1     -11.461  11.904  67.397  1.00  0.00    -0.323 A  
HETATM    5  C   UNL     1     -11.674  10.514  69.906  1.00  0.00    -0.294 A  
HETATM    6  C   UNL     1     -10.991  10.596  67.564  1.00  0.00    -0.371 A  
HETATM    7  C   UNL     1     -11.150   9.887  68.761  1.00  0.00    -0.135 A  
HETATM    8  C   UNL     1     -11.959  11.893  69.768  1.00  0.00    -0.377 A  
BRANCH   4   9
HETATM    9  N   UNL     1     -11.498  12.466  66.109  1.00  0.00    -0.359 NA 
HETATM   10  H   UNL     1     -11.932  11.908  65.374  1.00  0.00     0.000 HD 
BRANCH   9  11
HETATM   11  C   UNL     1     -10.995  13.717  65.738  1.00  0.00    -0.280 A  
HETATM   12  N   UNL     1     -11.780  14.464  64.954  1.00  0.00    -0.388 NA 
HETATM   13  N   UNL     1      -9.801  14.128  66.202  1.00  0.00    -0.303 NA 
HETATM   14  C   UNL     1      -9.420  15.394  65.973  1.00  0.00    -0.346 A  
HETATM   15  C   UNL     1     -10.191  16.245  65.211  1.00  0.00    -0.155 A  
HETATM   16  C   UNL     1     -11.357  15.713  64.707  1.00  0.00    -0.343 A  
BRANCH  14  17
HETATM   17  C   UNL     1      -8.156  15.812  66.594  1.00  0.00    -0.282 A  
HETATM   18  C   UNL     1      -5.376  17.999  67.487  1.00  0.00    -0.142 A  
HETATM   19  C   UNL     1      -7.412  14.993  67.431  1.00  0.00    -0.205 A  
HETATM   20  C   UNL     1      -5.590  19.184  66.779  1.00  0.00    -0.157 A  
HETATM   21  C   UNL     1      -6.678  19.312  65.925  1.00  0.00    -0.273 A  
HETATM   22  N   UNL     1      -6.302  15.677  67.845  1.00  0.00    -0.135 NA 
HETATM   23  C   UNL     1      -6.289  16.943  67.315  1.00  0.00    -0.171 A  
HETATM   24  C   UNL     1      -5.275  15.137  68.710  1.00  0.00    -0.095 C  
HETATM   25  C   UNL     1      -7.416  17.052  66.486  1.00  0.00    -0.327 A  
HETATM   26  C   UNL     1      -7.597  18.263  65.780  1.00  0.00    -0.069 A  
ENDBRANCH  14  17
ENDBRANCH   9  11
ENDBRANCH   4   9
BRANCH   7  27
HETATM   27  N   UNL     1     -10.963   8.490  68.714  1.00  0.00    -0.433 N  
HETATM   28  O   UNL     1      -8.714   8.439  68.138  1.00  0.00    -0.140 OA 
HETATM   29  H   UNL     1     -11.749   7.893  68.973  1.00  0.00     0.000 HD 
HETATM   30  C   UNL     1      -9.786   7.880  68.340  1.00  0.00    -0.173 C  
BRANCH  30  31
HETATM   31  C   UNL     1      -9.914   6.400  68.286  1.00  0.00    -0.147 C  
HETATM   32  C   UNL     1     -10.655   5.826  67.330  1.00  0.00    -0.353 C  
ENDBRANCH  30  31
ENDBRANCH   7  27
BRANCH   5  33
HETATM   33  N   UNL     1     -11.913   9.844  71.107  1.00  0.00    -0.353 NA 
HETATM   34  C   UNL     1     -13.255   9.623  71.636  1.00  0.00    -0.411 C  
BRANCH  33  35
HETATM   35  C   UNL     1     -10.815   9.182  71.834  1.00  0.00    -0.283 C  
BRANCH  35  36
HETATM   36  C   UNL     1     -11.361   8.131  72.830  1.00  0.00    -0.336 C  
BRANCH  36  37
HETATM   37  N   UNL     1     -10.951   6.735  72.567  1.00  0.00    -0.237 NA 
HETATM   38  C   UNL     1      -9.722   6.749  71.764  1.00  0.00    -0.160 C  
HETATM   39  C   UNL     1     -11.991   5.993  71.849  1.00  0.00    -0.122 C  
ENDBRANCH  36  37
ENDBRANCH  35  36
ENDBRANCH  33  35
ENDBRANCH   5  33
ENDBRANCH   2   3
TORSDOF 10
ENDMDL
MODEL       95
REMARK 921   NORMALIZED FREE ENERGY PREDICTED BY IDOCK:   -5.70 KCAL/MOL
REMARK 922        TOTAL FREE ENERGY PREDICTED BY IDOCK:  -10.75 KCAL/MOL
REMARK 923 INTER-LIGAND FREE ENERGY PREDICTED BY IDOCK:   -9.06 KCAL/MOL
REMARK 924 INTRA-LIGAND FREE ENERGY PREDICTED BY IDOCK:   -1.68 KCAL/MOL
REMARK 927      BINDING AFFINITY PREDICTED BY RF-SCORE:    0.00 PKD
ROOT
HETATM    1  C   UNL     1     -10.614  13.208  64.751  1.00  0.00    -0.372 C  
HETATM    2  O   UNL     1     -11.364  12.116  65.273  1.00  0.00    -0.324 OA 
ENDROOT
BRANCH   2   3
HETATM    3  C   UNL     1     -10.946  11.584  66.470  1.00  0.00    -0.293 A  
HETATM    4  C   UNL     1     -11.406  11.920  67.745  1.00  0.00    -0.292 A  
HETATM    5  C   UNL     1      -9.337   9.946  67.432  1.00  0.00    -0.137 A  
HETATM    6  C   UNL     1     -10.948  11.146  68.818  1.00  0.00    -0.268 A  
HETATM    7  C   UNL     1      -9.897  10.231  68.691  1.00  0.00    -0.173 A  
HETATM    8  C   UNL     1      -9.950  10.594  66.334  1.00  0.00    -0.273 A  
BRANCH   4   9
HETATM    9  N   UNL     1     -12.285  12.990  67.989  1.00  0.00    -0.144 NA 
HETATM   10  H   UNL     1     -13.235  12.898  67.632  1.00  0.00     0.000 HD 
BRANCH   9  11
HETATM   11  C   UNL     1     -11.979  14.170  68.674  1.00  0.00    -0.338 A  
HETATM   12  N   UNL     1     -12.301  14.204  69.972  1.00  0.00    -0.346 NA 
HETATM   13  N   UNL     1     -11.354  15.177  68.037  1.00  0.00    -0.326 NA 
HETATM   14  C   UNL     1     -10.919  16.224  68.754  1.00  0.00    -0.343 A  
HETATM   15  C   UNL     1     -11.171  16.317  70.106  1.00  0.00    -0.340 A  
HETATM   16  C   UNL     1     -11.891  15.281  70.659  1.00  0.00    -0.335 A  
BRANCH  14  17
HETATM   17  C   UNL     1     -10.153  17.239  68.020  1.00  0.00    -0.324 A  
HETATM   18  C   UNL     1      -7.373  18.712  66.173  1.00  0.00    -0.291 A  
HETATM   19  C   UNL     1     -10.652  18.498  67.719  1.00  0.00    -0.385 A  
HETATM   20  C   UNL     1      -6.364  17.746  66.183  1.00  0.00    -0.278 A  
HETATM   21  C   UNL     1      -6.545  16.539  66.845  1.00  0.00    -0.212 A  
HETATM   22  N   UNL     1      -9.700  19.196  67.027  1.00  0.00    -0.314 NA 
HETATM   23  C   UNL     1      -8.575  18.430  66.845  1.00  0.00    -0.271 A  
HETATM   24  C   UNL     1      -9.850  20.559  66.564  1.00  0.00    -0.203 C  
HETATM   25  C   UNL     1      -8.804  17.206  67.494  1.00  0.00    -0.218 A  
HETATM   26  C   UNL     1      -7.758  16.256  67.491  1.00  0.00    -0.169 A  
ENDBRANCH  14  17
ENDBRANCH   9  11
ENDBRANCH   4   9
BRANCH   7  27
HETATM   27  N   UNL     1      -9.291   9.773  69.880  1.00  0.00    -0.223 N  
HETATM   28  O   UNL     1     -10.868   8.189  70.509  1.00  0.00    -0.233 OA 
HETATM   29  H   UNL     1      -8.378  10.154  70.129  1.00  0.00     0.000 HD 
HETATM   30  C   UNL     1      -9.856   8.845  70.726  1.00  0.00    -0.223 C  
BRANCH  30  31
HETATM   31  C   UNL     1      -9.040   8.632  71.950  1.00  0.00    -0.326 C  
HETATM   32  C   UNL     1      -9.538   7.929  72.974  1.00  0.00    -0.341 C  
ENDBRANCH  30  31
ENDBRANCH   7  27
BRANCH   5  33
HETATM   33  N   UNL     1      -8.249   9.092  67.251  1.00  0.00    -0.104 NA 
HETATM   34  C   UNL     1      -6.869   9.566  67.210  1.00  0.00    -0.084 C  
BRANCH  33  35
HETATM   35  C   UNL     1      -8.428   7.629  67.247  1.00  0.00    -0.121 C  
BRANCH  35  36
HETATM   36  C   UNL     1      -8.810   7.119  65.837  1.00  0.00    -0.103 C  
BRANCH  36  37
HETATM   37  N   UNL     1      -7.919   6.082  65.274  1.00  0.00    -0.110 NA 
HETATM   38  C   UNL     1      -7.313   6.602  64.042  1.00  0.00    -0.078 C  
HETATM   39  C   UNL     1      -8.649   4.848  64.973  1.00  0.00    -0.147 C  
ENDBRANCH  36  37
ENDBRANCH  35  36
ENDBRANCH  33  35
ENDBRANCH   5  33
ENDBRANCH   2   3
TORSDOF 10
ENDMDL
MODEL       96
REMARK 921   NORMALIZED FREE ENERGY PREDICTED BY IDOCK:   -5.68 KCAL/MOL
REMARK 922        TOTAL FREE ENERGY PREDICTED BY IDOCK:  -10.72 KCAL/MOL
REMARK 923 INTER-LIGAND FREE ENERGY PREDICTED BY IDOCK:   -8.77 KCAL/MOL
REMARK 924 INTRA-LIGAND FREE ENERGY PREDICTED BY IDOCK:   -1.94 KCAL/MOL
REMARK 927      BINDING AFFINITY PREDICTED BY RF-SCORE:    0.00 PKD
ROOT
HETATM    1  C   UNL     1      -6.294  14.194  70.252  1.00  0.00    -0.121 C  
HETATM    2  O   UNL     1      -6.163  13.219  69.223  1.00  0.00    -0.093 OA 
ENDROOT
BRANCH   2   3
HETATM    3  C   UNL     1      -7.211  13.089  68.344  1.00  0.00    -0.110 A  
HETATM    4  C   UNL     1      -7.470  12.008  67.499  1.00  0.00    -0.140 A  
HETATM    5  C   UNL     1      -9.209  14.299  67.482  1.00  0.00    -0.197 A  
HETATM    6  C   UNL     1      -8.679  12.019  66.791  1.00  0.00    -0.192 A  
HETATM    7  C   UNL     1      -9.499  13.151  66.722  1.00  0.00    -0.252 A  
HETATM    8  C   UNL     1      -8.090  14.193  68.342  1.00  0.00    -0.144 A  
BRANCH   4   9
HETATM    9  N   UNL     1      -6.577  10.936  67.325  1.00  0.00    -0.073 NA 
HETATM   10  H   UNL     1      -5.690  11.144  66.867  1.00  0.00     0.000 HD 
BRANCH   9  11
HETATM   11  C   UNL     1      -6.789   9.611  67.719  1.00  0.00    -0.078 A  
HETATM   12  N   UNL     1      -6.216   8.668  66.963  1.00  0.00    -0.055 NA 
HETATM   13  N   UNL     1      -7.500   9.344  68.829  1.00  0.00    -0.075 NA 
HETATM   14  C   UNL     1      -7.544   8.081  69.280  1.00  0.00    -0.096 A  
HETATM   15  C   UNL     1      -6.943   7.054  68.584  1.00  0.00    -0.079 A  
HETATM   16  C   UNL     1      -6.309   7.408  67.413  1.00  0.00    -0.055 A  
BRANCH  14  17
HETATM   17  C   UNL     1      -8.247   7.871  70.552  1.00  0.00    -0.118 A  
HETATM   18  C   UNL     1     -10.913   6.861  72.828  1.00  0.00    -0.315 A  
HETATM   19  C   UNL     1      -7.687   8.164  71.787  1.00  0.00    -0.102 A  
HETATM   20  C   UNL     1     -11.963   6.436  72.009  1.00  0.00    -0.375 A  
HETATM   21  C   UNL     1     -11.850   6.493  70.626  1.00  0.00    -0.398 A  
HETATM   22  N   UNL     1      -8.590   7.850  72.766  1.00  0.00    -0.152 NA 
HETATM   23  C   UNL     1      -9.741   7.342  72.217  1.00  0.00    -0.155 A  
HETATM   24  C   UNL     1      -8.370   8.042  74.183  1.00  0.00    -0.253 C  
HETATM   25  C   UNL     1      -9.582   7.380  70.823  1.00  0.00    -0.170 A  
HETATM   26  C   UNL     1     -10.667   6.950  70.026  1.00  0.00    -0.276 A  
ENDBRANCH  14  17
ENDBRANCH   9  11
ENDBRANCH   4   9
BRANCH   7  27
HETATM   27  N   UNL     1     -10.490  13.170  65.719  1.00  0.00    -0.278 N  
HETATM   28  O   UNL     1     -12.280  12.357  66.955  1.00  0.00    -0.508 OA 
HETATM   29  H   UNL     1     -10.240  13.550  64.806  1.00  0.00     0.000 HD 
HETATM   30  C   UNL     1     -11.776  12.709  65.895  1.00  0.00    -0.420 C  
BRANCH  30  31
HETATM   31  C   UNL     1     -12.567  12.760  64.638  1.00  0.00    -0.491 C  
HETATM   32  C   UNL     1     -12.147  12.096  63.554  1.00  0.00    -0.649 C  
ENDBRANCH  30  31
ENDBRANCH   7  27
BRANCH   5  33
HETATM   33  N   UNL     1      -9.954  15.477  67.408  1.00  0.00    -0.233 NA 
HETATM   34  C   UNL     1      -9.636  16.557  66.479  1.00  0.00    -0.271 C  
BRANCH  33  35
HETATM   35  C   UNL     1     -11.208  15.628  68.167  1.00  0.00    -0.345 C  
BRANCH  35  36
HETATM   36  C   UNL     1     -10.943  16.226  69.568  1.00  0.00    -0.339 C  
BRANCH  36  37
HETATM   37  N   UNL     1     -11.233  15.329  70.707  1.00  0.00    -0.313 NA 
HETATM   38  C   UNL     1     -12.004  14.180  70.216  1.00  0.00    -0.334 C  
HETATM   39  C   UNL     1     -11.997  16.015  71.753  1.00  0.00    -0.517 C  
ENDBRANCH  36  37
ENDBRANCH  35  36
ENDBRANCH  33  35
ENDBRANCH   5  33
ENDBRANCH   2   3
TORSDOF 10
ENDMDL
MODEL       97
REMARK 921   NORMALIZED FREE ENERGY PREDICTED BY IDOCK:   -5.68 KCAL/MOL
REMARK 922        TOTAL FREE ENERGY PREDICTED BY IDOCK:  -10.71 KCAL/MOL
REMARK 923 INTER-LIGAND FREE ENERGY PREDICTED BY IDOCK:   -9.12 KCAL/MOL
REMARK 924 INTRA-LIGAND FREE ENERGY PREDICTED BY IDOCK:   -1.59 KCAL/MOL
REMARK 927      BINDING AFFINITY PREDICTED BY RF-SCORE:    0.00 PKD
ROOT
HETATM    1  C   UNL     1      -7.468   8.366  65.124  1.00  0.00    -0.084 C  
HETATM    2  O   UNL     1      -7.575   9.431  66.061  1.00  0.00    -0.097 OA 
ENDROOT
BRANCH   2   3
HETATM    3  C   UNL     1      -8.668   9.426  66.895  1.00  0.00    -0.127 A  
HETATM    4  C   UNL     1      -9.878  10.094  66.697  1.00  0.00    -0.200 A  
HETATM    5  C   UNL     1      -9.466   8.531  69.077  1.00  0.00    -0.150 A  
HETATM    6  C   UNL     1     -10.913   9.831  67.603  1.00  0.00    -0.226 A  
HETATM    7  C   UNL     1     -10.709   9.129  68.796  1.00  0.00    -0.131 A  
HETATM    8  C   UNL     1      -8.493   8.642  68.055  1.00  0.00    -0.127 A  
BRANCH   4   9
HETATM    9  N   UNL     1     -10.090  11.011  65.652  1.00  0.00    -0.245 NA 
HETATM   10  H   UNL     1      -9.808  10.718  64.717  1.00  0.00     0.000 HD 
BRANCH   9  11
HETATM   11  C   UNL     1     -10.650  12.286  65.773  1.00  0.00    -0.254 A  
HETATM   12  N   UNL     1     -11.954  12.391  65.491  1.00  0.00    -0.490 NA 
HETATM   13  N   UNL     1      -9.895  13.317  66.194  1.00  0.00    -0.287 NA 
HETATM   14  C   UNL     1     -10.493  14.487  66.465  1.00  0.00    -0.285 A  
HETATM   15  C   UNL     1     -11.842  14.667  66.245  1.00  0.00    -0.299 A  
HETATM   16  C   UNL     1     -12.520  13.583  65.733  1.00  0.00    -0.462 A  
BRANCH  14  17
HETATM   17  C   UNL     1      -9.633  15.540  67.020  1.00  0.00    -0.233 A  
HETATM   18  C   UNL     1      -8.360  18.901  67.646  1.00  0.00    -0.296 A  
HETATM   19  C   UNL     1      -8.608  15.288  67.921  1.00  0.00    -0.152 A  
HETATM   20  C   UNL     1      -9.116  19.745  66.829  1.00  0.00    -0.442 A  
HETATM   21  C   UNL     1     -10.090  19.228  65.985  1.00  0.00    -0.459 A  
HETATM   22  N   UNL     1      -8.007  16.474  68.247  1.00  0.00    -0.171 NA 
HETATM   23  C   UNL     1      -8.613  17.519  67.595  1.00  0.00    -0.219 A  
HETATM   24  C   UNL     1      -6.879  16.607  69.143  1.00  0.00    -0.224 C  
HETATM   25  C   UNL     1      -9.613  16.968  66.779  1.00  0.00    -0.274 A  
HETATM   26  C   UNL     1     -10.352  17.851  65.960  1.00  0.00    -0.318 A  
ENDBRANCH  14  17
ENDBRANCH   9  11
ENDBRANCH   4   9
BRANCH   7  27
HETATM   27  N   UNL     1     -11.713   9.223  69.782  1.00  0.00    -0.419 N  
HETATM   28  O   UNL     1     -11.467  11.463  70.345  1.00  0.00    -0.247 OA 
HETATM   29  H   UNL     1     -12.290   8.401  69.957  1.00  0.00     0.000 HD 
HETATM   30  C   UNL     1     -11.963  10.357  70.523  1.00  0.00    -0.334 C  
BRANCH  30  31
HETATM   31  C   UNL     1     -13.009  10.132  71.555  1.00  0.00    -0.547 C  
HETATM   32  C   UNL     1     -13.314   8.886  71.940  1.00  0.00    -0.455 C  
ENDBRANCH  30  31
ENDBRANCH   7  27
BRANCH   5  33
HETATM   33  N   UNL     1      -9.184   7.872  70.274  1.00  0.00    -0.152 NA 
HETATM   34  C   UNL     1      -8.717   8.569  71.469  1.00  0.00    -0.189 C  
BRANCH  33  35
HETATM   35  C   UNL     1      -9.493   6.441  70.441  1.00  0.00    -0.162 C  
BRANCH  35  36
HETATM   36  C   UNL     1      -8.249   5.566  70.160  1.00  0.00    -0.102 C  
BRANCH  36  37
HETATM   37  N   UNL     1      -7.642   4.926  71.347  1.00  0.00    -0.081 NA 
HETATM   38  C   UNL     1      -8.653   4.848  72.407  1.00  0.00    -0.123 C  
HETATM   39  C   UNL     1      -6.484   5.681  71.834  1.00  0.00    -0.052 C  
ENDBRANCH  36  37
ENDBRANCH  35  36
ENDBRANCH  33  35
ENDBRANCH   5  33
ENDBRANCH   2   3
TORSDOF 10
ENDMDL
MODEL       98
REMARK 921   NORMALIZED FREE ENERGY PREDICTED BY IDOCK:   -5.67 KCAL/MOL
REMARK 922        TOTAL FREE ENERGY PREDICTED BY IDOCK:  -10.71 KCAL/MOL
REMARK 923 INTER-LIGAND FREE ENERGY PREDICTED BY IDOCK:   -9.20 KCAL/MOL
REMARK 924 INTRA-LIGAND FREE ENERGY PREDICTED BY IDOCK:   -1.51 KCAL/MOL
REMARK 927      BINDING AFFINITY PREDICTED BY RF-SCORE:    0.00 PKD
ROOT
HETATM    1  C   UNL     1     -13.217   9.697  72.042  1.00  0.00    -0.453 C  
HETATM    2  O   UNL     1     -12.908  10.633  71.014  1.00  0.00    -0.361 OA 
ENDROOT
BRANCH   2   3
HETATM    3  C   UNL     1     -11.763  10.412  70.287  1.00  0.00    -0.321 A  
HETATM    4  C   UNL     1     -11.383  11.049  69.104  1.00  0.00    -0.280 A  
HETATM    5  C   UNL     1      -9.710   9.004  70.242  1.00  0.00    -0.196 A  
HETATM    6  C   UNL     1     -10.102  10.774  68.608  1.00  0.00    -0.194 A  
HETATM    7  C   UNL     1      -9.307   9.738  69.111  1.00  0.00    -0.182 A  
HETATM    8  C   UNL     1     -10.917   9.430  70.846  1.00  0.00    -0.391 A  
BRANCH   4   9
HETATM    9  N   UNL     1     -12.224  11.927  68.398  1.00  0.00    -0.352 NA 
HETATM   10  H   UNL     1     -13.214  11.911  68.640  1.00  0.00     0.000 HD 
BRANCH   9  11
HETATM   11  C   UNL     1     -11.832  12.820  67.396  1.00  0.00    -0.342 A  
HETATM   12  N   UNL     1     -12.261  12.549  66.159  1.00  0.00    -0.608 NA 
HETATM   13  N   UNL     1     -11.099  13.904  67.709  1.00  0.00    -0.256 NA 
HETATM   14  C   UNL     1     -10.883  14.831  66.764  1.00  0.00    -0.316 A  
HETATM   15  C   UNL     1     -11.328  14.651  65.472  1.00  0.00    -0.341 A  
HETATM   16  C   UNL     1     -11.996  13.473  65.222  1.00  0.00    -0.373 A  
BRANCH  14  17
HETATM   17  C   UNL     1     -10.168  16.040  67.194  1.00  0.00    -0.278 A  
HETATM   18  C   UNL     1      -7.344  18.235  67.913  1.00  0.00    -0.233 A  
HETATM   19  C   UNL     1     -10.811  17.200  67.598  1.00  0.00    -0.241 A  
HETATM   20  C   UNL     1      -6.202  17.462  67.688  1.00  0.00    -0.164 A  
HETATM   21  C   UNL     1      -6.312  16.131  67.306  1.00  0.00    -0.204 A  
HETATM   22  N   UNL     1      -9.868  18.136  67.927  1.00  0.00    -0.299 NA 
HETATM   23  C   UNL     1      -8.603  17.634  67.740  1.00  0.00    -0.228 A  
HETATM   24  C   UNL     1     -10.160  19.465  68.417  1.00  0.00    -0.444 C  
HETATM   25  C   UNL     1      -8.749  16.302  67.322  1.00  0.00    -0.200 A  
HETATM   26  C   UNL     1      -7.573  15.548  67.111  1.00  0.00    -0.253 A  
ENDBRANCH  14  17
ENDBRANCH   9  11
ENDBRANCH   4   9
BRANCH   7  27
HETATM   27  N   UNL     1      -8.208   9.328  68.328  1.00  0.00    -0.114 N  
HETATM   28  O   UNL     1      -9.346   8.122  66.703  1.00  0.00    -0.171 OA 
HETATM   29  H   UNL     1      -7.282   9.667  68.588  1.00  0.00     0.000 HD 
HETATM   30  C   UNL     1      -8.308   8.500  67.233  1.00  0.00    -0.115 C  
BRANCH  30  31
HETATM   31  C   UNL     1      -6.977   8.157  66.666  1.00  0.00    -0.072 C  
HETATM   32  C   UNL     1      -6.128   9.130  66.313  1.00  0.00    -0.060 C  
ENDBRANCH  30  31
ENDBRANCH   7  27
BRANCH   5  33
HETATM   33  N   UNL     1      -8.990   7.922  70.751  1.00  0.00    -0.139 NA 
HETATM   34  C   UNL     1      -8.214   7.999  71.984  1.00  0.00    -0.137 C  
BRANCH  33  35
HETATM   35  C   UNL     1      -9.105   6.584  70.143  1.00  0.00    -0.155 C  
BRANCH  35  36
HETATM   36  C   UNL     1     -10.419   5.889  70.570  1.00  0.00    -0.254 C  
BRANCH  36  37
HETATM   37  N   UNL     1     -10.279   4.487  71.019  1.00  0.00    -0.149 NA 
HETATM   38  C   UNL     1      -9.916   4.484  72.441  1.00  0.00    -0.171 C  
HETATM   39  C   UNL     1      -9.251   3.776  70.254  1.00  0.00    -0.149 C  
ENDBRANCH  36  37
ENDBRANCH  35  36
ENDBRANCH  33  35
ENDBRANCH   5  33
ENDBRANCH   2   3
TORSDOF 10
ENDMDL
MODEL       99
REMARK 921   NORMALIZED FREE ENERGY PREDICTED BY IDOCK:   -5.67 KCAL/MOL
REMARK 922        TOTAL FREE ENERGY PREDICTED BY IDOCK:  -10.69 KCAL/MOL
REMARK 923 INTER-LIGAND FREE ENERGY PREDICTED BY IDOCK:   -9.23 KCAL/MOL
REMARK 924 INTRA-LIGAND FREE ENERGY PREDICTED BY IDOCK:   -1.46 KCAL/MOL
REMARK 927      BINDING AFFINITY PREDICTED BY RF-SCORE:    0.00 PKD
ROOT
HETATM    1  C   UNL     1      -7.256  12.621  68.295  1.00  0.00    -0.113 C  
HETATM    2  O   UNL     1      -8.290  12.142  67.442  1.00  0.00    -0.157 OA 
ENDROOT
BRANCH   2   3
HETATM    3  C   UNL     1      -9.148  11.203  67.961  1.00  0.00    -0.153 A  
HETATM    4  C   UNL     1     -10.522  11.343  68.167  1.00  0.00    -0.187 A  
HETATM    5  C   UNL     1      -9.198   8.896  68.897  1.00  0.00    -0.140 A  
HETATM    6  C   UNL     1     -11.232  10.206  68.572  1.00  0.00    -0.226 A  
HETATM    7  C   UNL     1     -10.595   9.032  68.992  1.00  0.00    -0.190 A  
HETATM    8  C   UNL     1      -8.520   9.985  68.300  1.00  0.00    -0.111 A  
BRANCH   4   9
HETATM    9  N   UNL     1     -11.205  12.561  67.999  1.00  0.00    -0.251 NA 
HETATM   10  H   UNL     1     -11.866  12.823  68.730  1.00  0.00     0.000 HD 
BRANCH   9  11
HETATM   11  C   UNL     1     -11.064  13.446  66.926  1.00  0.00    -0.292 A  
HETATM   12  N   UNL     1     -11.662  13.093  65.783  1.00  0.00    -0.355 NA 
HETATM   13  N   UNL     1     -10.393  14.601  67.088  1.00  0.00    -0.263 NA 
HETATM   14  C   UNL     1     -10.419  15.507  66.100  1.00  0.00    -0.313 A  
HETATM   15  C   UNL     1     -11.050  15.241  64.903  1.00  0.00    -0.435 A  
HETATM   16  C   UNL     1     -11.639  14.000  64.795  1.00  0.00    -0.381 A  
BRANCH  14  17
HETATM   17  C   UNL     1      -9.757  16.788  66.378  1.00  0.00    -0.309 A  
HETATM   18  C   UNL     1      -7.041  19.121  67.081  1.00  0.00    -0.212 A  
HETATM   19  C   UNL     1     -10.431  18.000  66.414  1.00  0.00    -0.339 A  
HETATM   20  C   UNL     1      -5.897  18.332  67.219  1.00  0.00    -0.149 A  
HETATM   21  C   UNL     1      -5.973  16.949  67.115  1.00  0.00    -0.208 A  
HETATM   22  N   UNL     1      -9.533  18.996  66.690  1.00  0.00    -0.329 NA 
HETATM   23  C   UNL     1      -8.268  18.482  66.830  1.00  0.00    -0.257 A  
HETATM   24  C   UNL     1      -9.872  20.395  66.832  1.00  0.00    -0.431 C  
HETATM   25  C   UNL     1      -8.374  17.089  66.684  1.00  0.00    -0.285 A  
HETATM   26  C   UNL     1      -7.197  16.322  66.839  1.00  0.00    -0.257 A  
ENDBRANCH  14  17
ENDBRANCH   9  11
ENDBRANCH   4   9
BRANCH   7  27
HETATM   27  N   UNL     1     -11.375   8.092  69.698  1.00  0.00    -0.438 N  
HETATM   28  O   UNL     1     -11.367   9.104  71.788  1.00  0.00    -0.350 OA 
HETATM   29  H   UNL     1     -11.768   7.309  69.177  1.00  0.00     0.000 HD 
HETATM   30  C   UNL     1     -11.638   8.166  71.048  1.00  0.00    -0.279 C  
BRANCH  30  31
HETATM   31  C   UNL     1     -12.398   6.985  71.536  1.00  0.00    -0.420 C  
HETATM   32  C   UNL     1     -11.755   5.975  72.134  1.00  0.00    -0.335 C  
ENDBRANCH  30  31
ENDBRANCH   7  27
BRANCH   5  33
HETATM   33  N   UNL     1      -8.503   7.777  69.356  1.00  0.00    -0.133 NA 
HETATM   34  C   UNL     1      -7.757   7.769  70.610  1.00  0.00    -0.091 C  
BRANCH  33  35
HETATM   35  C   UNL     1      -8.615   6.480  68.664  1.00  0.00    -0.124 C  
BRANCH  35  36
HETATM   36  C   UNL     1      -8.298   6.624  67.157  1.00  0.00    -0.113 C  
BRANCH  36  37
HETATM   37  N   UNL     1      -9.386   6.227  66.239  1.00  0.00    -0.153 NA 
HETATM   38  C   UNL     1     -10.554   5.832  67.036  1.00  0.00    -0.300 C  
HETATM   39  C   UNL     1      -8.985   5.110  65.378  1.00  0.00    -0.156 C  
ENDBRANCH  36  37
ENDBRANCH  35  36
ENDBRANCH  33  35
ENDBRANCH   5  33
ENDBRANCH   2   3
TORSDOF 10
ENDMDL
MODEL      100
REMARK 921   NORMALIZED FREE ENERGY PREDICTED BY IDOCK:   -5.66 KCAL/MOL
REMARK 922        TOTAL FREE ENERGY PREDICTED BY IDOCK:  -10.68 KCAL/MOL
REMARK 923 INTER-LIGAND FREE ENERGY PREDICTED BY IDOCK:  -10.06 KCAL/MOL
REMARK 924 INTRA-LIGAND FREE ENERGY PREDICTED BY IDOCK:   -0.62 KCAL/MOL
REMARK 927      BINDING AFFINITY PREDICTED BY RF-SCORE:    0.00 PKD
ROOT
HETATM    1  C   UNL     1     -12.278  15.534  64.027  1.00  0.00     0.108 C  
HETATM    2  O   UNL     1     -11.655  14.335  64.475  1.00  0.00    -0.387 OA 
ENDROOT
BRANCH   2   3
HETATM    3  C   UNL     1     -10.691  14.453  65.446  1.00  0.00    -0.348 A  
HETATM    4  C   UNL     1      -9.885  13.435  65.958  1.00  0.00    -0.263 A  
HETATM    5  C   UNL     1      -9.643  16.115  66.977  1.00  0.00    -0.224 A  
HETATM    6  C   UNL     1      -8.863  13.806  66.841  1.00  0.00    -0.203 A  
HETATM    7  C   UNL     1      -8.775  15.089  67.394  1.00  0.00    -0.194 A  
HETATM    8  C   UNL     1     -10.540  15.767  65.939  1.00  0.00    -0.350 A  
BRANCH   4   9
HETATM    9  N   UNL     1     -10.063  12.078  65.638  1.00  0.00    -0.238 NA 
HETATM   10  H   UNL     1     -10.075  11.835  64.648  1.00  0.00     0.000 HD 
BRANCH   9  11
HETATM   11  C   UNL     1     -10.225  11.029  66.548  1.00  0.00    -0.234 A  
HETATM   12  N   UNL     1      -9.528   9.914  66.300  1.00  0.00    -0.180 NA 
HETATM   13  N   UNL     1     -11.016  11.187  67.625  1.00  0.00    -0.249 NA 
HETATM   14  C   UNL     1     -11.020  10.233  68.569  1.00  0.00    -0.247 A  
HETATM   15  C   UNL     1     -10.295   9.071  68.413  1.00  0.00    -0.242 A  
HETATM   16  C   UNL     1      -9.581   8.959  67.241  1.00  0.00    -0.164 A  
BRANCH  14  17
HETATM   17  C   UNL     1     -11.821  10.512  69.768  1.00  0.00    -0.329 A  
HETATM   18  C   UNL     1     -13.627  12.470  72.261  1.00  0.00    -0.443 A  
HETATM   19  C   UNL     1     -12.321   9.518  70.596  1.00  0.00    -0.080 A  
HETATM   20  C   UNL     1     -13.413  13.806  71.914  1.00  0.00    -0.514 A  
HETATM   21  C   UNL     1     -12.615  14.136  70.827  1.00  0.00    -0.432 A  
HETATM   22  N   UNL     1     -13.025  10.104  71.614  1.00  0.00    -0.420 NA 
HETATM   23  C   UNL     1     -13.018  11.471  71.481  1.00  0.00    -0.380 A  
HETATM   24  C   UNL     1     -13.672   9.386  72.689  1.00  0.00    -0.266 C  
HETATM   25  C   UNL     1     -12.233  11.770  70.356  1.00  0.00    -0.416 A  
HETATM   26  C   UNL     1     -12.032  13.132  70.040  1.00  0.00    -0.391 A  
ENDBRANCH  14  17
ENDBRANCH   9  11
ENDBRANCH   4   9
BRANCH   7  27
HETATM   27  N   UNL     1      -7.938  15.253  68.517  1.00  0.00    -0.134 N  
HETATM   28  O   UNL     1      -5.876  15.013  67.475  1.00  0.00    -0.316 OA 
HETATM   29  H   UNL     1      -8.375  15.474  69.412  1.00  0.00     0.000 HD 
HETATM   30  C   UNL     1      -6.566  15.133  68.481  1.00  0.00    -0.099 C  
BRANCH  30  31
HETATM   31  C   UNL     1      -5.957  15.256  69.831  1.00  0.00    -0.141 C  
HETATM   32  C   UNL     1      -5.695  14.158  70.552  1.00  0.00    -0.159 C  
ENDBRANCH  30  31
ENDBRANCH   7  27
BRANCH   5  33
HETATM   33  N   UNL     1      -9.644  17.394  67.535  1.00  0.00    -0.253 NA 
HETATM   34  C   UNL     1     -10.696  18.371  67.269  1.00  0.00    -0.353 C  
BRANCH  33  35
HETATM   35  C   UNL     1      -8.652  17.775  68.555  1.00  0.00    -0.291 C  
BRANCH  35  36
HETATM   36  C   UNL     1      -8.387  19.299  68.532  1.00  0.00    -0.366 C  
BRANCH  36  37
HETATM   37  N   UNL     1      -6.963  19.695  68.483  1.00  0.00    -0.298 NA 
HETATM   38  C   UNL     1      -6.214  18.667  67.750  1.00  0.00    -0.194 C  
HETATM   39  C   UNL     1      -6.397  19.843  69.827  1.00  0.00    -0.367 C  
ENDBRANCH  36  37
ENDBRANCH  35  36
ENDBRANCH  33  35
ENDBRANCH   5  33
ENDBRANCH   2   3
TORSDOF 10
ENDMDL
MODEL      101
REMARK 921   NORMALIZED FREE ENERGY PREDICTED BY IDOCK:   -5.63 KCAL/MOL
REMARK 922        TOTAL FREE ENERGY PREDICTED BY IDOCK:  -10.64 KCAL/MOL
REMARK 923 INTER-LIGAND FREE ENERGY PREDICTED BY IDOCK:   -8.82 KCAL/MOL
REMARK 924 INTRA-LIGAND FREE ENERGY PREDICTED BY IDOCK:   -1.82 KCAL/MOL
REMARK 927      BINDING AFFINITY PREDICTED BY RF-SCORE:    0.00 PKD
ROOT
HETATM    1  C   UNL     1     -11.904  12.372  68.868  1.00  0.00    -0.301 C  
HETATM    2  O   UNL     1     -10.898  11.605  68.214  1.00  0.00    -0.197 OA 
ENDROOT
BRANCH   2   3
HETATM    3  C   UNL     1     -10.189  10.714  68.984  1.00  0.00    -0.215 A  
HETATM    4  C   UNL     1      -8.802  10.558  69.025  1.00  0.00    -0.169 A  
HETATM    5  C   UNL     1     -10.490   8.881  70.643  1.00  0.00    -0.221 A  
HETATM    6  C   UNL     1      -8.280   9.690  69.992  1.00  0.00    -0.197 A  
HETATM    7  C   UNL     1      -9.087   8.823  70.738  1.00  0.00    -0.192 A  
HETATM    8  C   UNL     1     -11.000   9.901  69.805  1.00  0.00    -0.304 A  
BRANCH   4   9
HETATM    9  N   UNL     1      -7.927  11.215  68.142  1.00  0.00    -0.119 NA 
HETATM   10  H   UNL     1      -7.500  10.649  67.409  1.00  0.00     0.000 HD 
BRANCH   9  11
HETATM   11  C   UNL     1      -7.586  12.571  68.173  1.00  0.00    -0.127 A  
HETATM   12  N   UNL     1      -6.387  12.869  68.685  1.00  0.00    -0.070 NA 
HETATM   13  N   UNL     1      -8.428  13.489  67.665  1.00  0.00    -0.170 NA 
HETATM   14  C   UNL     1      -8.007  14.758  67.551  1.00  0.00    -0.188 A  
HETATM   15  C   UNL     1      -6.767  15.142  68.013  1.00  0.00    -0.153 A  
HETATM   16  C   UNL     1      -6.005  14.153  68.594  1.00  0.00    -0.089 A  
BRANCH  14  17
HETATM   17  C   UNL     1      -8.931  15.690  66.893  1.00  0.00    -0.267 A  
HETATM   18  C   UNL     1     -10.660  18.826  66.195  1.00  0.00    -0.435 A  
HETATM   19  C   UNL     1      -9.719  15.340  65.807  1.00  0.00    -0.350 A  
HETATM   20  C   UNL     1     -10.225  19.719  67.177  1.00  0.00    -0.574 A  
HETATM   21  C   UNL     1      -9.338  19.310  68.164  1.00  0.00    -0.400 A  
HETATM   22  N   UNL     1     -10.458  16.428  65.428  1.00  0.00    -0.583 NA 
HETATM   23  C   UNL     1     -10.175  17.506  66.229  1.00  0.00    -0.355 A  
HETATM   24  C   UNL     1     -11.416  16.438  64.344  1.00  0.00     0.003 C  
HETATM   25  C   UNL     1      -9.252  17.070  67.192  1.00  0.00    -0.242 A  
HETATM   26  C   UNL     1      -8.839  17.999  68.174  1.00  0.00    -0.277 A  
ENDBRANCH  14  17
ENDBRANCH   9  11
ENDBRANCH   4   9
BRANCH   7  27
HETATM   27  N   UNL     1      -8.445   7.765  71.416  1.00  0.00    -0.113 N  
HETATM   28  O   UNL     1      -8.388   8.679  73.550  1.00  0.00    -0.393 OA 
HETATM   29  H   UNL     1      -8.234   6.918  70.889  1.00  0.00     0.000 HD 
HETATM   30  C   UNL     1      -8.085   7.806  72.744  1.00  0.00    -0.124 C  
BRANCH  30  31
HETATM   31  C   UNL     1      -7.335   6.592  73.159  1.00  0.00    -0.085 C  
HETATM   32  C   UNL     1      -6.879   5.737  72.235  1.00  0.00    -0.073 C  
ENDBRANCH  30  31
ENDBRANCH   7  27
BRANCH   5  33
HETATM   33  N   UNL     1     -11.343   8.003  71.313  1.00  0.00    -0.259 NA 
HETATM   34  C   UNL     1     -11.784   8.224  72.686  1.00  0.00    -0.337 C  
BRANCH  33  35
HETATM   35  C   UNL     1     -11.972   6.873  70.606  1.00  0.00    -0.348 C  
BRANCH  35  36
HETATM   36  C   UNL     1     -10.954   6.153  69.690  1.00  0.00    -0.389 C  
BRANCH  36  37
HETATM   37  N   UNL     1      -9.952   5.319  70.387  1.00  0.00    -0.214 NA 
HETATM   38  C   UNL     1      -9.548   4.226  69.493  1.00  0.00    -0.204 C  
HETATM   39  C   UNL     1     -10.488   4.756  71.630  1.00  0.00    -0.093 C  
ENDBRANCH  36  37
ENDBRANCH  35  36
ENDBRANCH  33  35
ENDBRANCH   5  33
ENDBRANCH   2   3
TORSDOF 10
ENDMDL
MODEL      102
REMARK 921   NORMALIZED FREE ENERGY PREDICTED BY IDOCK:   -5.63 KCAL/MOL
REMARK 922        TOTAL FREE ENERGY PREDICTED BY IDOCK:  -10.63 KCAL/MOL
REMARK 923 INTER-LIGAND FREE ENERGY PREDICTED BY IDOCK:   -9.15 KCAL/MOL
REMARK 924 INTRA-LIGAND FREE ENERGY PREDICTED BY IDOCK:   -1.48 KCAL/MOL
REMARK 927      BINDING AFFINITY PREDICTED BY RF-SCORE:    0.00 PKD
ROOT
HETATM    1  C   UNL     1     -12.455  12.814  63.458  1.00  0.00    -0.379 C  
HETATM    2  O   UNL     1     -12.687  12.541  64.836  1.00  0.00    -0.657 OA 
ENDROOT
BRANCH   2   3
HETATM    3  C   UNL     1     -11.653  12.787  65.708  1.00  0.00    -0.376 A  
HETATM    4  C   UNL     1     -10.696  11.873  66.154  1.00  0.00    -0.278 A  
HETATM    5  C   UNL     1     -10.650  14.589  67.103  1.00  0.00    -0.274 A  
HETATM    6  C   UNL     1      -9.641  12.373  66.927  1.00  0.00    -0.219 A  
HETATM    7  C   UNL     1      -9.640  13.672  67.449  1.00  0.00    -0.226 A  
HETATM    8  C   UNL     1     -11.599  14.121  66.163  1.00  0.00    -0.377 A  
BRANCH   4   9
HETATM    9  N   UNL     1     -10.756  10.497  65.874  1.00  0.00    -0.063 NA 
HETATM   10  H   UNL     1     -11.525  10.179  65.285  1.00  0.00     0.000 HD 
BRANCH   9  11
HETATM   11  C   UNL     1      -9.861   9.522  66.326  1.00  0.00    -0.266 A  
HETATM   12  N   UNL     1      -8.993   9.049  65.424  1.00  0.00    -0.204 NA 
HETATM   13  N   UNL     1      -9.877   9.139  67.615  1.00  0.00    -0.163 NA 
HETATM   14  C   UNL     1      -8.901   8.333  68.061  1.00  0.00    -0.135 A  
HETATM   15  C   UNL     1      -7.940   7.835  67.207  1.00  0.00    -0.118 A  
HETATM   16  C   UNL     1      -8.052   8.213  65.888  1.00  0.00    -0.115 A  
BRANCH  14  17
HETATM   17  C   UNL     1      -8.914   8.036  69.499  1.00  0.00    -0.148 A  
HETATM   18  C   UNL     1     -10.257   7.620  72.866  1.00  0.00    -0.356 A  
HETATM   19  C   UNL     1      -7.797   7.594  70.194  1.00  0.00    -0.097 A  
HETATM   20  C   UNL     1     -11.591   8.029  72.789  1.00  0.00    -0.390 A  
HETATM   21  C   UNL     1     -12.118   8.505  71.596  1.00  0.00    -0.373 A  
HETATM   22  N   UNL     1      -8.140   7.405  71.506  1.00  0.00    -0.099 NA 
HETATM   23  C   UNL     1      -9.466   7.698  71.706  1.00  0.00    -0.145 A  
HETATM   24  C   UNL     1      -7.228   6.971  72.542  1.00  0.00    -0.080 C  
HETATM   25  C   UNL     1      -9.978   8.142  70.476  1.00  0.00    -0.195 A  
HETATM   26  C   UNL     1     -11.329   8.555  70.438  1.00  0.00    -0.193 A  
ENDBRANCH  14  17
ENDBRANCH   9  11
ENDBRANCH   4   9
BRANCH   7  27
HETATM   27  N   UNL     1      -8.722  13.953  68.483  1.00  0.00    -0.261 N  
HETATM   28  O   UNL     1      -6.954  14.738  67.199  1.00  0.00    -0.219 OA 
HETATM   29  H   UNL     1      -9.031  13.821  69.446  1.00  0.00     0.000 HD 
HETATM   30  C   UNL     1      -7.435  14.394  68.272  1.00  0.00    -0.123 C  
BRANCH  30  31
HETATM   31  C   UNL     1      -6.667  14.508  69.540  1.00  0.00    -0.151 C  
HETATM   32  C   UNL     1      -6.147  13.414  70.109  1.00  0.00    -0.112 C  
ENDBRANCH  30  31
ENDBRANCH   7  27
BRANCH   5  33
HETATM   33  N   UNL     1     -10.737  15.874  67.639  1.00  0.00    -0.308 NA 
HETATM   34  C   UNL     1     -11.507  16.180  68.840  1.00  0.00    -0.331 C  
BRANCH  33  35
HETATM   35  C   UNL     1      -9.919  16.975  67.099  1.00  0.00    -0.281 C  
BRANCH  35  36
HETATM   36  C   UNL     1     -10.372  18.338  67.672  1.00  0.00    -0.396 C  
BRANCH  36  37
HETATM   37  N   UNL     1      -9.486  19.482  67.367  1.00  0.00    -0.310 NA 
HETATM   38  C   UNL     1      -9.911  20.080  66.095  1.00  0.00    -0.468 C  
HETATM   39  C   UNL     1      -8.084  19.066  67.263  1.00  0.00    -0.262 C  
ENDBRANCH  36  37
ENDBRANCH  35  36
ENDBRANCH  33  35
ENDBRANCH   5  33
ENDBRANCH   2   3
TORSDOF 10
ENDMDL
MODEL      103
REMARK 921   NORMALIZED FREE ENERGY PREDICTED BY IDOCK:   -5.61 KCAL/MOL
REMARK 922        TOTAL FREE ENERGY PREDICTED BY IDOCK:  -10.61 KCAL/MOL
REMARK 923 INTER-LIGAND FREE ENERGY PREDICTED BY IDOCK:   -8.92 KCAL/MOL
REMARK 924 INTRA-LIGAND FREE ENERGY PREDICTED BY IDOCK:   -1.69 KCAL/MOL
REMARK 927      BINDING AFFINITY PREDICTED BY RF-SCORE:    0.00 PKD
ROOT
HETATM    1  C   UNL     1      -6.003  12.674  70.083  1.00  0.00    -0.138 C  
HETATM    2  O   UNL     1      -6.384  11.514  69.352  1.00  0.00    -0.080 OA 
ENDROOT
BRANCH   2   3
HETATM    3  C   UNL     1      -7.397  11.654  68.434  1.00  0.00    -0.096 A  
HETATM    4  C   UNL     1      -7.908  10.667  67.589  1.00  0.00    -0.105 A  
HETATM    5  C   UNL     1      -8.961  13.343  67.484  1.00  0.00    -0.207 A  
HETATM    6  C   UNL     1      -9.043  10.991  66.835  1.00  0.00    -0.165 A  
HETATM    7  C   UNL     1      -9.524  12.300  66.723  1.00  0.00    -0.222 A  
HETATM    8  C   UNL     1      -7.944  12.955  68.388  1.00  0.00    -0.137 A  
BRANCH   4   9
HETATM    9  N   UNL     1      -7.333   9.391  67.460  1.00  0.00    -0.083 NA 
HETATM   10  H   UNL     1      -6.324   9.353  67.315  1.00  0.00     0.000 HD 
BRANCH   9  11
HETATM   11  C   UNL     1      -8.011   8.170  67.510  1.00  0.00    -0.122 A  
HETATM   12  N   UNL     1      -7.706   7.281  66.558  1.00  0.00    -0.092 NA 
HETATM   13  N   UNL     1      -8.885   7.924  68.504  1.00  0.00    -0.134 NA 
HETATM   14  C   UNL     1      -9.391   6.688  68.627  1.00  0.00    -0.129 A  
HETATM   15  C   UNL     1      -9.093   5.700  67.714  1.00  0.00    -0.106 A  
HETATM   16  C   UNL     1      -8.258   6.064  66.682  1.00  0.00    -0.106 A  
BRANCH  14  17
HETATM   17  C   UNL     1     -10.255   6.456  69.792  1.00  0.00    -0.226 A  
HETATM   18  C   UNL     1     -11.321   5.106  73.010  1.00  0.00    -0.381 A  
HETATM   19  C   UNL     1     -11.480   7.082  69.967  1.00  0.00    -0.215 A  
HETATM   20  C   UNL     1     -10.320   4.208  73.388  1.00  0.00    -0.232 A  
HETATM   21  C   UNL     1      -9.229   3.974  72.562  1.00  0.00    -0.148 A  
HETATM   22  N   UNL     1     -12.028   6.658  71.147  1.00  0.00    -0.362 NA 
HETATM   23  C   UNL     1     -11.193   5.769  71.776  1.00  0.00    -0.211 A  
HETATM   24  C   UNL     1     -13.317   7.076  71.656  1.00  0.00    -0.285 C  
HETATM   25  C   UNL     1     -10.086   5.581  70.934  1.00  0.00    -0.276 A  
HETATM   26  C   UNL     1      -9.097   4.658  71.345  1.00  0.00    -0.173 A  
ENDBRANCH  14  17
ENDBRANCH   9  11
ENDBRANCH   4   9
BRANCH   7  27
HETATM   27  N   UNL     1     -10.437  12.567  65.682  1.00  0.00    -0.267 N  
HETATM   28  O   UNL     1     -12.406  12.574  66.914  1.00  0.00    -0.431 OA 
HETATM   29  H   UNL     1     -10.062  12.737  64.749  1.00  0.00     0.000 HD 
HETATM   30  C   UNL     1     -11.803  12.612  65.847  1.00  0.00    -0.444 C  
BRANCH  30  31
HETATM   31  C   UNL     1     -12.517  12.812  64.558  1.00  0.00    -0.501 C  
HETATM   32  C   UNL     1     -12.301  11.976  63.536  1.00  0.00    -0.661 C  
ENDBRANCH  30  31
ENDBRANCH   7  27
BRANCH   5  33
HETATM   33  N   UNL     1      -9.357  14.676  67.370  1.00  0.00    -0.191 NA 
HETATM   34  C   UNL     1     -10.452  15.244  68.149  1.00  0.00    -0.246 C  
BRANCH  33  35
HETATM   35  C   UNL     1      -8.578  15.629  66.560  1.00  0.00    -0.300 C  
BRANCH  35  36
HETATM   36  C   UNL     1      -8.762  17.077  67.074  1.00  0.00    -0.221 C  
BRANCH  36  37
HETATM   37  N   UNL     1      -8.998  18.096  66.029  1.00  0.00    -0.511 NA 
HETATM   38  C   UNL     1      -7.996  19.159  66.175  1.00  0.00    -0.276 C  
HETATM   39  C   UNL     1     -10.340  18.676  66.135  1.00  0.00    -0.443 C  
ENDBRANCH  36  37
ENDBRANCH  35  36
ENDBRANCH  33  35
ENDBRANCH   5  33
ENDBRANCH   2   3
TORSDOF 10
ENDMDL
MODEL      104
REMARK 921   NORMALIZED FREE ENERGY PREDICTED BY IDOCK:   -5.60 KCAL/MOL
REMARK 922        TOTAL FREE ENERGY PREDICTED BY IDOCK:  -10.59 KCAL/MOL
REMARK 923 INTER-LIGAND FREE ENERGY PREDICTED BY IDOCK:   -9.05 KCAL/MOL
REMARK 924 INTRA-LIGAND FREE ENERGY PREDICTED BY IDOCK:   -1.54 KCAL/MOL
REMARK 927      BINDING AFFINITY PREDICTED BY RF-SCORE:    0.00 PKD
ROOT
HETATM    1  C   UNL     1     -11.658  15.905  64.257  1.00  0.00    -0.178 C  
HETATM    2  O   UNL     1     -11.254  14.660  64.816  1.00  0.00    -0.379 OA 
ENDROOT
BRANCH   2   3
HETATM    3  C   UNL     1     -10.152  14.668  65.636  1.00  0.00    -0.363 A  
HETATM    4  C   UNL     1      -9.740  13.652  66.500  1.00  0.00    -0.292 A  
HETATM    5  C   UNL     1      -8.241  16.102  66.339  1.00  0.00    -0.301 A  
HETATM    6  C   UNL     1      -8.502  13.810  67.136  1.00  0.00    -0.189 A  
HETATM    7  C   UNL     1      -7.796  15.018  67.119  1.00  0.00    -0.190 A  
HETATM    8  C   UNL     1      -9.389  15.853  65.550  1.00  0.00    -0.016 A  
BRANCH   4   9
HETATM    9  N   UNL     1     -10.510  12.505  66.762  1.00  0.00    -0.225 NA 
HETATM   10  H   UNL     1     -10.852  11.985  65.955  1.00  0.00     0.000 HD 
BRANCH   9  11
HETATM   11  C   UNL     1     -10.851  12.009  68.024  1.00  0.00    -0.216 A  
HETATM   12  N   UNL     1     -11.452  12.866  68.856  1.00  0.00    -0.284 NA 
HETATM   13  N   UNL     1     -10.609  10.721  68.331  1.00  0.00    -0.184 NA 
HETATM   14  C   UNL     1     -11.098  10.228  69.478  1.00  0.00    -0.262 A  
HETATM   15  C   UNL     1     -11.769  11.033  70.373  1.00  0.00    -0.437 A  
HETATM   16  C   UNL     1     -11.897  12.357  70.015  1.00  0.00    -0.288 A  
BRANCH  14  17
HETATM   17  C   UNL     1     -10.892   8.791  69.705  1.00  0.00    -0.196 A  
HETATM   18  C   UNL     1     -10.653   5.647  71.541  1.00  0.00    -0.306 A  
HETATM   19  C   UNL     1     -10.637   7.889  68.683  1.00  0.00    -0.111 A  
HETATM   20  C   UNL     1     -10.813   5.987  72.886  1.00  0.00    -0.291 A  
HETATM   21  C   UNL     1     -10.983   7.312  73.267  1.00  0.00    -0.355 A  
HETATM   22  N   UNL     1     -10.501   6.638  69.222  1.00  0.00    -0.199 NA 
HETATM   23  C   UNL     1     -10.671   6.678  70.584  1.00  0.00    -0.241 A  
HETATM   24  C   UNL     1     -10.204   5.442  68.466  1.00  0.00    -0.169 C  
HETATM   25  C   UNL     1     -10.875   8.023  70.932  1.00  0.00    -0.248 A  
HETATM   26  C   UNL     1     -11.026   8.330  72.304  1.00  0.00    -0.418 A  
ENDBRANCH  14  17
ENDBRANCH   9  11
ENDBRANCH   4   9
BRANCH   7  27
HETATM   27  N   UNL     1      -6.759  15.174  68.061  1.00  0.00    -0.126 N  
HETATM   28  O   UNL     1      -8.039  15.619  69.947  1.00  0.00    -0.062 OA 
HETATM   29  H   UNL     1      -5.801  15.014  67.749  1.00  0.00     0.000 HD 
HETATM   30  C   UNL     1      -6.958  15.529  69.377  1.00  0.00    -0.187 C  
BRANCH  30  31
HETATM   31  C   UNL     1      -5.676  15.718  70.106  1.00  0.00    -0.159 C  
HETATM   32  C   UNL     1      -5.232  16.952  70.372  1.00  0.00    -0.223 C  
ENDBRANCH  30  31
ENDBRANCH   7  27
BRANCH   5  33
HETATM   33  N   UNL     1      -7.616  17.350  66.330  1.00  0.00    -0.280 NA 
HETATM   34  C   UNL     1      -6.245  17.543  65.869  1.00  0.00    -0.091 C  
BRANCH  33  35
HETATM   35  C   UNL     1      -8.370  18.576  66.645  1.00  0.00    -0.272 C  
BRANCH  35  36
HETATM   36  C   UNL     1      -8.789  18.605  68.134  1.00  0.00    -0.311 C  
BRANCH  36  37
HETATM   37  N   UNL     1     -10.246  18.637  68.383  1.00  0.00    -0.382 NA 
HETATM   38  C   UNL     1     -10.715  17.263  68.601  1.00  0.00    -0.280 C  
HETATM   39  C   UNL     1     -10.974  19.226  67.255  1.00  0.00    -0.338 C  
ENDBRANCH  36  37
ENDBRANCH  35  36
ENDBRANCH  33  35
ENDBRANCH   5  33
ENDBRANCH   2   3
TORSDOF 10
ENDMDL
MODEL      105
REMARK 921   NORMALIZED FREE ENERGY PREDICTED BY IDOCK:   -5.58 KCAL/MOL
REMARK 922        TOTAL FREE ENERGY PREDICTED BY IDOCK:  -10.55 KCAL/MOL
REMARK 923 INTER-LIGAND FREE ENERGY PREDICTED BY IDOCK:   -9.38 KCAL/MOL
REMARK 924 INTRA-LIGAND FREE ENERGY PREDICTED BY IDOCK:   -1.18 KCAL/MOL
REMARK 927      BINDING AFFINITY PREDICTED BY RF-SCORE:    0.00 PKD
ROOT
HETATM    1  C   UNL     1      -7.715   8.145  65.224  1.00  0.00    -0.101 C  
HETATM    2  O   UNL     1      -7.578   9.102  66.270  1.00  0.00    -0.091 OA 
ENDROOT
BRANCH   2   3
HETATM    3  C   UNL     1      -8.671   9.313  67.074  1.00  0.00    -0.124 A  
HETATM    4  C   UNL     1      -9.768  10.134  66.803  1.00  0.00    -0.187 A  
HETATM    5  C   UNL     1      -9.624   8.699  69.292  1.00  0.00    -0.166 A  
HETATM    6  C   UNL     1     -10.843  10.089  67.699  1.00  0.00    -0.336 A  
HETATM    7  C   UNL     1     -10.761   9.449  68.941  1.00  0.00    -0.178 A  
HETATM    8  C   UNL     1      -8.630   8.596  68.289  1.00  0.00    -0.138 A  
BRANCH   4   9
HETATM    9  N   UNL     1      -9.828  10.996  65.694  1.00  0.00    -0.226 NA 
HETATM   10  H   UNL     1      -9.260  10.747  64.884  1.00  0.00     0.000 HD 
BRANCH   9  11
HETATM   11  C   UNL     1     -10.592  12.164  65.595  1.00  0.00    -0.262 A  
HETATM   12  N   UNL     1     -11.867  12.009  65.223  1.00  0.00    -0.328 NA 
HETATM   13  N   UNL     1     -10.047  13.353  65.907  1.00  0.00    -0.291 NA 
HETATM   14  C   UNL     1     -10.843  14.431  65.970  1.00  0.00    -0.309 A  
HETATM   15  C   UNL     1     -12.180  14.351  65.645  1.00  0.00    -0.352 A  
HETATM   16  C   UNL     1     -12.633  13.110  65.255  1.00  0.00    -0.472 A  
BRANCH  14  17
HETATM   17  C   UNL     1     -10.211  15.678  66.419  1.00  0.00    -0.300 A  
HETATM   18  C   UNL     1      -7.950  17.858  68.276  1.00  0.00    -0.292 A  
HETATM   19  C   UNL     1     -10.534  16.924  65.901  1.00  0.00    -0.285 A  
HETATM   20  C   UNL     1      -7.260  17.020  69.155  1.00  0.00    -0.209 A  
HETATM   21  C   UNL     1      -7.537  15.660  69.201  1.00  0.00    -0.206 A  
HETATM   22  N   UNL     1      -9.767  17.873  66.522  1.00  0.00    -0.316 NA 
HETATM   23  C   UNL     1      -8.926  17.291  67.438  1.00  0.00    -0.222 A  
HETATM   24  C   UNL     1      -9.842  19.294  66.261  1.00  0.00    -0.392 C  
HETATM   25  C   UNL     1      -9.206  15.915  67.435  1.00  0.00    -0.207 A  
HETATM   26  C   UNL     1      -8.495  15.099  68.343  1.00  0.00    -0.157 A  
ENDBRANCH  14  17
ENDBRANCH   9  11
ENDBRANCH   4   9
BRANCH   7  27
HETATM   27  N   UNL     1     -11.755   9.757  69.893  1.00  0.00    -0.448 N  
HETATM   28  O   UNL     1     -11.597  12.073  69.853  1.00  0.00    -0.291 OA 
HETATM   29  H   UNL     1     -12.294   8.986  70.288  1.00  0.00     0.000 HD 
HETATM   30  C   UNL     1     -12.044  11.033  70.323  1.00  0.00    -0.362 C  
BRANCH  30  31
HETATM   31  C   UNL     1     -13.065  11.043  71.403  1.00  0.00    -0.441 C  
HETATM   32  C   UNL     1     -13.332   9.922  72.083  1.00  0.00    -0.498 C  
ENDBRANCH  30  31
ENDBRANCH   7  27
BRANCH   5  33
HETATM   33  N   UNL     1      -9.458   8.091  70.537  1.00  0.00    -0.165 NA 
HETATM   34  C   UNL     1      -9.696   6.669  70.760  1.00  0.00    -0.179 C  
BRANCH  33  35
HETATM   35  C   UNL     1      -8.879   8.835  71.670  1.00  0.00    -0.208 C  
BRANCH  35  36
HETATM   36  C   UNL     1      -7.613   8.129  72.210  1.00  0.00    -0.117 C  
BRANCH  36  37
HETATM   37  N   UNL     1      -7.137   8.600  73.528  1.00  0.00    -0.341 NA 
HETATM   38  C   UNL     1      -5.759   9.084  73.384  1.00  0.00    -0.061 C  
HETATM   39  C   UNL     1      -7.174   7.530  74.529  1.00  0.00    -0.120 C  
ENDBRANCH  36  37
ENDBRANCH  35  36
ENDBRANCH  33  35
ENDBRANCH   5  33
ENDBRANCH   2   3
TORSDOF 10
ENDMDL
MODEL      106
REMARK 921   NORMALIZED FREE ENERGY PREDICTED BY IDOCK:   -5.58 KCAL/MOL
REMARK 922        TOTAL FREE ENERGY PREDICTED BY IDOCK:  -10.55 KCAL/MOL
REMARK 923 INTER-LIGAND FREE ENERGY PREDICTED BY IDOCK:   -9.01 KCAL/MOL
REMARK 924 INTRA-LIGAND FREE ENERGY PREDICTED BY IDOCK:   -1.54 KCAL/MOL
REMARK 927      BINDING AFFINITY PREDICTED BY RF-SCORE:    0.00 PKD
ROOT
HETATM    1  C   UNL     1      -9.598  11.546  63.325  1.00  0.00    -0.346 C  
HETATM    2  O   UNL     1     -10.654  10.881  64.010  1.00  0.00    -0.372 OA 
ENDROOT
BRANCH   2   3
HETATM    3  C   UNL     1     -10.409  10.473  65.299  1.00  0.00    -0.229 A  
HETATM    4  C   UNL     1     -11.023  10.944  66.461  1.00  0.00    -0.121 A  
HETATM    5  C   UNL     1      -8.975   8.930  66.628  1.00  0.00    -0.136 A  
HETATM    6  C   UNL     1     -10.726  10.283  67.659  1.00  0.00    -0.339 A  
HETATM    7  C   UNL     1      -9.688   9.351  67.767  1.00  0.00    -0.151 A  
HETATM    8  C   UNL     1      -9.425   9.466  65.398  1.00  0.00    -0.322 A  
BRANCH   4   9
HETATM    9  N   UNL     1     -11.902  12.042  66.476  1.00  0.00    -0.605 NA 
HETATM   10  H   UNL     1     -12.789  11.915  66.961  1.00  0.00     0.000 HD 
BRANCH   9  11
HETATM   11  C   UNL     1     -11.674  13.290  65.889  1.00  0.00    -0.365 A  
HETATM   12  N   UNL     1     -12.263  13.506  64.707  1.00  0.00    -0.411 NA 
HETATM   13  N   UNL     1     -10.933  14.212  66.530  1.00  0.00    -0.305 NA 
HETATM   14  C   UNL     1     -10.872  15.454  66.028  1.00  0.00    -0.314 A  
HETATM   15  C   UNL     1     -11.487  15.774  64.837  1.00  0.00    -0.193 A  
HETATM   16  C   UNL     1     -12.153  14.746  64.207  1.00  0.00    -0.394 A  
BRANCH  14  17
HETATM   17  C   UNL     1     -10.135  16.440  66.829  1.00  0.00    -0.287 A  
HETATM   18  C   UNL     1      -7.293  18.039  68.466  1.00  0.00    -0.276 A  
HETATM   19  C   UNL     1     -10.726  17.568  67.379  1.00  0.00    -0.250 A  
HETATM   20  C   UNL     1      -6.210  17.182  68.255  1.00  0.00    -0.144 A  
HETATM   21  C   UNL     1      -6.376  15.986  67.569  1.00  0.00    -0.200 A  
HETATM   22  N   UNL     1      -9.773  18.280  68.056  1.00  0.00    -0.299 NA 
HETATM   23  C   UNL     1      -8.551  17.662  67.964  1.00  0.00    -0.248 A  
HETATM   24  C   UNL     1     -10.021  19.507  68.782  1.00  0.00    -0.463 C  
HETATM   25  C   UNL     1      -8.746  16.477  67.237  1.00  0.00    -0.204 A  
HETATM   26  C   UNL     1      -7.629  15.631  67.050  1.00  0.00    -0.245 A  
ENDBRANCH  14  17
ENDBRANCH   9  11
ENDBRANCH   4   9
BRANCH   7  27
HETATM   27  N   UNL     1      -9.254   9.014  69.066  1.00  0.00    -0.139 N  
HETATM   28  O   UNL     1     -10.702   7.250  69.492  1.00  0.00    -0.233 OA 
HETATM   29  H   UNL     1      -8.457   9.522  69.450  1.00  0.00     0.000 HD 
HETATM   30  C   UNL     1      -9.838   8.043  69.848  1.00  0.00    -0.186 C  
BRANCH  30  31
HETATM   31  C   UNL     1      -9.235   7.979  71.205  1.00  0.00    -0.174 C  
HETATM   32  C   UNL     1      -9.933   8.394  72.269  1.00  0.00    -0.383 C  
ENDBRANCH  30  31
ENDBRANCH   7  27
BRANCH   5  33
HETATM   33  N   UNL     1      -7.892   8.052  66.681  1.00  0.00    -0.097 NA 
HETATM   34  C   UNL     1      -6.507   8.508  66.730  1.00  0.00    -0.057 C  
BRANCH  33  35
HETATM   35  C   UNL     1      -8.102   6.603  66.848  1.00  0.00    -0.113 C  
BRANCH  35  36
HETATM   36  C   UNL     1      -7.210   5.796  65.875  1.00  0.00    -0.075 C  
BRANCH  36  37
HETATM   37  N   UNL     1      -7.929   5.080  64.800  1.00  0.00    -0.095 NA 
HETATM   38  C   UNL     1      -7.973   5.940  63.610  1.00  0.00    -0.114 C  
HETATM   39  C   UNL     1      -9.296   4.736  65.201  1.00  0.00    -0.127 C  
ENDBRANCH  36  37
ENDBRANCH  35  36
ENDBRANCH  33  35
ENDBRANCH   5  33
ENDBRANCH   2   3
TORSDOF 10
ENDMDL
MODEL      107
REMARK 921   NORMALIZED FREE ENERGY PREDICTED BY IDOCK:   -5.58 KCAL/MOL
REMARK 922        TOTAL FREE ENERGY PREDICTED BY IDOCK:  -10.55 KCAL/MOL
REMARK 923 INTER-LIGAND FREE ENERGY PREDICTED BY IDOCK:   -9.09 KCAL/MOL
REMARK 924 INTRA-LIGAND FREE ENERGY PREDICTED BY IDOCK:   -1.47 KCAL/MOL
REMARK 927      BINDING AFFINITY PREDICTED BY RF-SCORE:    0.00 PKD
ROOT
HETATM    1  C   UNL     1      -7.512   7.610  71.358  1.00  0.00    -0.079 C  
HETATM    2  O   UNL     1      -8.192   8.437  70.420  1.00  0.00    -0.106 OA 
ENDROOT
BRANCH   2   3
HETATM    3  C   UNL     1      -8.760   7.817  69.333  1.00  0.00    -0.135 A  
HETATM    4  C   UNL     1     -10.035   7.252  69.259  1.00  0.00    -0.170 A  
HETATM    5  C   UNL     1      -8.279   7.151  66.982  1.00  0.00    -0.117 A  
HETATM    6  C   UNL     1     -10.468   6.802  68.005  1.00  0.00    -0.253 A  
HETATM    7  C   UNL     1      -9.605   6.687  66.909  1.00  0.00    -0.157 A  
HETATM    8  C   UNL     1      -7.923   7.782  68.198  1.00  0.00    -0.122 A  
BRANCH   4   9
HETATM    9  N   UNL     1     -10.879   7.108  70.374  1.00  0.00    -0.239 NA 
HETATM   10  H   UNL     1     -10.852   6.213  70.860  1.00  0.00     0.000 HD 
BRANCH   9  11
HETATM   11  C   UNL     1     -11.753   8.076  70.879  1.00  0.00    -0.251 A  
HETATM   12  N   UNL     1     -12.566   7.684  71.867  1.00  0.00    -0.314 NA 
HETATM   13  N   UNL     1     -11.716   9.333  70.401  1.00  0.00    -0.178 NA 
HETATM   14  C   UNL     1     -12.439  10.280  71.017  1.00  0.00    -0.384 A  
HETATM   15  C   UNL     1     -13.271   9.970  72.072  1.00  0.00    -0.545 A  
HETATM   16  C   UNL     1     -13.309   8.643  72.440  1.00  0.00    -0.343 A  
BRANCH  14  17
HETATM   17  C   UNL     1     -12.275  11.650  70.515  1.00  0.00    -0.451 A  
HETATM   18  C   UNL     1     -12.489  15.292  70.460  1.00  0.00    -0.454 A  
HETATM   19  C   UNL     1     -11.626  11.951  69.326  1.00  0.00    -0.315 A  
HETATM   20  C   UNL     1     -13.213  15.641  71.603  1.00  0.00    -0.554 A  
HETATM   21  C   UNL     1     -13.706  14.662  72.456  1.00  0.00    -0.572 A  
HETATM   22  N   UNL     1     -11.638  13.308  69.149  1.00  0.00    -0.299 NA 
HETATM   23  C   UNL     1     -12.270  13.928  70.198  1.00  0.00    -0.358 A  
HETATM   24  C   UNL     1     -11.076  13.995  68.006  1.00  0.00    -0.263 C  
HETATM   25  C   UNL     1     -12.725  12.915  71.057  1.00  0.00    -0.338 A  
HETATM   26  C   UNL     1     -13.460  13.305  72.200  1.00  0.00    -0.655 A  
ENDBRANCH  14  17
ENDBRANCH   9  11
ENDBRANCH   4   9
BRANCH   7  27
HETATM   27  N   UNL     1     -10.047   5.909  65.818  1.00  0.00    -0.324 N  
HETATM   28  O   UNL     1      -9.762   3.795  66.736  1.00  0.00    -0.208 OA 
HETATM   29  H   UNL     1     -10.407   6.396  64.997  1.00  0.00     0.000 HD 
HETATM   30  C   UNL     1     -10.024   4.532  65.793  1.00  0.00    -0.239 C  
BRANCH  30  31
HETATM   31  C   UNL     1     -10.454   3.989  64.477  1.00  0.00    -0.215 C  
HETATM   32  C   UNL     1      -9.949   2.832  64.033  1.00  0.00    -0.142 C  
ENDBRANCH  30  31
ENDBRANCH   7  27
BRANCH   5  33
HETATM   33  N   UNL     1      -7.357   7.008  65.945  1.00  0.00    -0.073 NA 
HETATM   34  C   UNL     1      -6.988   8.106  65.058  1.00  0.00    -0.070 C  
BRANCH  33  35
HETATM   35  C   UNL     1      -6.583   5.763  65.788  1.00  0.00    -0.044 C  
BRANCH  35  36
HETATM   36  C   UNL     1      -5.765   5.452  67.063  1.00  0.00    -0.017 C  
BRANCH  36  37
HETATM   37  N   UNL     1      -5.913   4.079  67.592  1.00  0.00    -0.026 NA 
HETATM   38  C   UNL     1      -6.366   3.203  66.505  1.00  0.00    -0.028 C  
HETATM   39  C   UNL     1      -6.878   4.025  68.693  1.00  0.00    -0.047 C  
ENDBRANCH  36  37
ENDBRANCH  35  36
ENDBRANCH  33  35
ENDBRANCH   5  33
ENDBRANCH   2   3
TORSDOF 10
ENDMDL
MODEL      108
REMARK 921   NORMALIZED FREE ENERGY PREDICTED BY IDOCK:   -5.57 KCAL/MOL
REMARK 922        TOTAL FREE ENERGY PREDICTED BY IDOCK:  -10.54 KCAL/MOL
REMARK 923 INTER-LIGAND FREE ENERGY PREDICTED BY IDOCK:   -9.16 KCAL/MOL
REMARK 924 INTRA-LIGAND FREE ENERGY PREDICTED BY IDOCK:   -1.38 KCAL/MOL
REMARK 927      BINDING AFFINITY PREDICTED BY RF-SCORE:    0.00 PKD
ROOT
HETATM    1  C   UNL     1      -6.892  11.926  68.830  1.00  0.00    -0.103 C  
HETATM    2  O   UNL     1      -8.170  11.949  68.204  1.00  0.00    -0.142 OA 
ENDROOT
BRANCH   2   3
HETATM    3  C   UNL     1      -9.091  11.020  68.624  1.00  0.00    -0.174 A  
HETATM    4  C   UNL     1     -10.469  11.204  68.761  1.00  0.00    -0.203 A  
HETATM    5  C   UNL     1      -9.280   8.671  69.428  1.00  0.00    -0.150 A  
HETATM    6  C   UNL     1     -11.242  10.077  69.063  1.00  0.00    -0.180 A  
HETATM    7  C   UNL     1     -10.675   8.858  69.453  1.00  0.00    -0.181 A  
HETATM    8  C   UNL     1      -8.529   9.762  68.930  1.00  0.00    -0.129 A  
BRANCH   4   9
HETATM    9  N   UNL     1     -11.095  12.455  68.622  1.00  0.00    -0.242 NA 
HETATM   10  H   UNL     1     -11.504  12.862  69.463  1.00  0.00     0.000 HD 
BRANCH   9  11
HETATM   11  C   UNL     1     -11.212  13.195  67.441  1.00  0.00    -0.287 A  
HETATM   12  N   UNL     1     -12.044  12.706  66.515  1.00  0.00    -0.552 NA 
HETATM   13  N   UNL     1     -10.540  14.352  67.301  1.00  0.00    -0.276 NA 
HETATM   14  C   UNL     1     -10.800  15.125  66.236  1.00  0.00    -0.333 A  
HETATM   15  C   UNL     1     -11.678  14.717  65.255  1.00  0.00    -0.346 A  
HETATM   16  C   UNL     1     -12.256  13.481  65.439  1.00  0.00    -0.447 A  
BRANCH  14  17
HETATM   17  C   UNL     1     -10.113  16.422  66.195  1.00  0.00    -0.364 A  
HETATM   18  C   UNL     1      -7.350  18.803  66.299  1.00  0.00    -0.282 A  
HETATM   19  C   UNL     1     -10.766  17.621  65.944  1.00  0.00    -0.113 A  
HETATM   20  C   UNL     1      -6.218  18.048  66.615  1.00  0.00    -0.208 A  
HETATM   21  C   UNL     1      -6.319  16.682  66.845  1.00  0.00    -0.208 A  
HETATM   22  N   UNL     1      -9.848  18.636  65.967  1.00  0.00    -0.523 NA 
HETATM   23  C   UNL     1      -8.591  18.146  66.217  1.00  0.00    -0.179 A  
HETATM   24  C   UNL     1     -10.161  20.035  65.771  1.00  0.00    -0.351 C  
HETATM   25  C   UNL     1      -8.721  16.762  66.410  1.00  0.00    -0.337 A  
HETATM   26  C   UNL     1      -7.556  16.031  66.736  1.00  0.00    -0.247 A  
ENDBRANCH  14  17
ENDBRANCH   9  11
ENDBRANCH   4   9
BRANCH   7  27
HETATM   27  N   UNL     1     -11.528   7.914  70.063  1.00  0.00    -0.471 N  
HETATM   28  O   UNL     1     -11.928   9.021  72.065  1.00  0.00    -0.356 OA 
HETATM   29  H   UNL     1     -11.791   7.090  69.524  1.00  0.00     0.000 HD 
HETATM   30  C   UNL     1     -12.027   8.037  71.340  1.00  0.00    -0.298 C  
BRANCH  30  31
HETATM   31  C   UNL     1     -12.812   6.844  71.752  1.00  0.00    -0.349 C  
HETATM   32  C   UNL     1     -14.147   6.853  71.651  1.00  0.00    -0.314 C  
ENDBRANCH  30  31
ENDBRANCH   7  27
BRANCH   5  33
HETATM   33  N   UNL     1      -8.654   7.502  69.864  1.00  0.00    -0.138 NA 
HETATM   34  C   UNL     1      -8.112   6.507  68.945  1.00  0.00    -0.115 C  
BRANCH  33  35
HETATM   35  C   UNL     1      -8.369   7.285  71.293  1.00  0.00    -0.111 C  
BRANCH  35  36
HETATM   36  C   UNL     1      -7.524   6.006  71.503  1.00  0.00    -0.094 C  
BRANCH  36  37
HETATM   37  N   UNL     1      -8.119   4.992  72.401  1.00  0.00    -0.107 NA 
HETATM   38  C   UNL     1      -9.254   4.365  71.713  1.00  0.00    -0.134 C  
HETATM   39  C   UNL     1      -8.582   5.589  73.657  1.00  0.00    -0.114 C  
ENDBRANCH  36  37
ENDBRANCH  35  36
ENDBRANCH  33  35
ENDBRANCH   5  33
ENDBRANCH   2   3
TORSDOF 10
ENDMDL
MODEL      109
REMARK 921   NORMALIZED FREE ENERGY PREDICTED BY IDOCK:   -5.56 KCAL/MOL
REMARK 922        TOTAL FREE ENERGY PREDICTED BY IDOCK:  -10.52 KCAL/MOL
REMARK 923 INTER-LIGAND FREE ENERGY PREDICTED BY IDOCK:   -9.03 KCAL/MOL
REMARK 924 INTRA-LIGAND FREE ENERGY PREDICTED BY IDOCK:   -1.50 KCAL/MOL
REMARK 927      BINDING AFFINITY PREDICTED BY RF-SCORE:    0.00 PKD
ROOT
HETATM    1  C   UNL     1      -6.969  12.393  68.150  1.00  0.00    -0.087 C  
HETATM    2  O   UNL     1      -8.315  12.052  68.465  1.00  0.00    -0.153 OA 
ENDROOT
BRANCH   2   3
HETATM    3  C   UNL     1      -8.775  10.837  68.017  1.00  0.00    -0.132 A  
HETATM    4  C   UNL     1      -9.479  10.587  66.837  1.00  0.00    -0.165 A  
HETATM    5  C   UNL     1      -8.888   8.430  68.647  1.00  0.00    -0.136 A  
HETATM    6  C   UNL     1      -9.723   9.249  66.504  1.00  0.00    -0.305 A  
HETATM    7  C   UNL     1      -9.501   8.198  67.401  1.00  0.00    -0.155 A  
HETATM    8  C   UNL     1      -8.470   9.762  68.880  1.00  0.00    -0.129 A  
BRANCH   4   9
HETATM    9  N   UNL     1      -9.954  11.607  65.994  1.00  0.00    -0.220 NA 
HETATM   10  H   UNL     1      -9.902  11.437  64.990  1.00  0.00     0.000 HD 
BRANCH   9  11
HETATM   11  C   UNL     1     -10.489  12.833  66.401  1.00  0.00    -0.250 A  
HETATM   12  N   UNL     1     -11.695  12.791  66.978  1.00  0.00    -0.362 NA 
HETATM   13  N   UNL     1      -9.780  13.965  66.242  1.00  0.00    -0.295 NA 
HETATM   14  C   UNL     1     -10.239  15.098  66.793  1.00  0.00    -0.264 A  
HETATM   15  C   UNL     1     -11.454  15.134  67.444  1.00  0.00    -0.284 A  
HETATM   16  C   UNL     1     -12.151  13.947  67.486  1.00  0.00    -0.331 A  
BRANCH  14  17
HETATM   17  C   UNL     1      -9.369  16.275  66.675  1.00  0.00    -0.272 A  
HETATM   18  C   UNL     1      -8.352  19.774  66.858  1.00  0.00    -0.348 A  
HETATM   19  C   UNL     1      -8.043  16.203  66.275  1.00  0.00    -0.175 A  
HETATM   20  C   UNL     1      -9.498  20.477  67.240  1.00  0.00    -0.559 A  
HETATM   21  C   UNL     1     -10.704  19.815  67.432  1.00  0.00    -0.515 A  
HETATM   22  N   UNL     1      -7.513  17.465  66.274  1.00  0.00    -0.299 NA 
HETATM   23  C   UNL     1      -8.450  18.383  66.677  1.00  0.00    -0.269 A  
HETATM   24  C   UNL     1      -6.157  17.790  65.888  1.00  0.00    -0.193 C  
HETATM   25  C   UNL     1      -9.645  17.680  66.896  1.00  0.00    -0.286 A  
HETATM   26  C   UNL     1     -10.786  18.424  67.274  1.00  0.00    -0.389 A  
ENDBRANCH  14  17
ENDBRANCH   9  11
ENDBRANCH   4   9
BRANCH   7  27
HETATM   27  N   UNL     1     -10.098   6.955  67.101  1.00  0.00    -0.189 N  
HETATM   28  O   UNL     1      -8.305   5.937  66.032  1.00  0.00    -0.118 OA 
HETATM   29  H   UNL     1     -11.045   6.786  67.437  1.00  0.00     0.000 HD 
HETATM   30  C   UNL     1      -9.479   5.956  66.383  1.00  0.00    -0.155 C  
BRANCH  30  31
HETATM   31  C   UNL     1     -10.384   4.803  66.135  1.00  0.00    -0.337 C  
HETATM   32  C   UNL     1     -10.807   4.539  64.892  1.00  0.00    -0.018 C  
ENDBRANCH  30  31
ENDBRANCH   7  27
BRANCH   5  33
HETATM   33  N   UNL     1      -8.697   7.435  69.606  1.00  0.00    -0.137 NA 
HETATM   34  C   UNL     1      -7.657   6.417  69.493  1.00  0.00    -0.095 C  
BRANCH  33  35
HETATM   35  C   UNL     1      -9.447   7.453  70.875  1.00  0.00    -0.165 C  
BRANCH  35  36
HETATM   36  C   UNL     1     -10.934   7.093  70.648  1.00  0.00    -0.258 C  
BRANCH  36  37
HETATM   37  N   UNL     1     -11.895   8.196  70.865  1.00  0.00    -0.261 NA 
HETATM   38  C   UNL     1     -11.231   9.252  71.639  1.00  0.00    -0.379 C  
HETATM   39  C   UNL     1     -13.086   7.740  71.587  1.00  0.00    -0.345 C  
ENDBRANCH  36  37
ENDBRANCH  35  36
ENDBRANCH  33  35
ENDBRANCH   5  33
ENDBRANCH   2   3
TORSDOF 10
ENDMDL
MODEL      110
REMARK 921   NORMALIZED FREE ENERGY PREDICTED BY IDOCK:   -5.56 KCAL/MOL
REMARK 922        TOTAL FREE ENERGY PREDICTED BY IDOCK:  -10.52 KCAL/MOL
REMARK 923 INTER-LIGAND FREE ENERGY PREDICTED BY IDOCK:   -8.80 KCAL/MOL
REMARK 924 INTRA-LIGAND FREE ENERGY PREDICTED BY IDOCK:   -1.72 KCAL/MOL
REMARK 927      BINDING AFFINITY PREDICTED BY RF-SCORE:    0.00 PKD
ROOT
HETATM    1  C   UNL     1     -13.268  11.610  71.908  1.00  0.00    -0.369 C  
HETATM    2  O   UNL     1     -12.891  10.374  71.310  1.00  0.00    -0.365 OA 
ENDROOT
BRANCH   2   3
HETATM    3  C   UNL     1     -11.781  10.381  70.501  1.00  0.00    -0.344 A  
HETATM    4  C   UNL     1     -10.572   9.719  70.726  1.00  0.00    -0.301 A  
HETATM    5  C   UNL     1     -10.908  11.343  68.376  1.00  0.00    -0.207 A  
HETATM    6  C   UNL     1      -9.623   9.743  69.697  1.00  0.00    -0.239 A  
HETATM    7  C   UNL     1      -9.744  10.579  68.581  1.00  0.00    -0.173 A  
HETATM    8  C   UNL     1     -11.937  11.151  69.328  1.00  0.00    -0.421 A  
BRANCH   4   9
HETATM    9  N   UNL     1     -10.272   9.053  71.928  1.00  0.00    -0.335 NA 
HETATM   10  H   UNL     1      -9.987   9.632  72.717  1.00  0.00     0.000 HD 
BRANCH   9  11
HETATM   11  C   UNL     1     -10.327   7.673  72.144  1.00  0.00    -0.221 A  
HETATM   12  N   UNL     1     -10.802   7.275  73.329  1.00  0.00    -0.371 NA 
HETATM   13  N   UNL     1      -9.953   6.823  71.170  1.00  0.00    -0.182 NA 
HETATM   14  C   UNL     1     -10.175   5.511  71.337  1.00  0.00    -0.215 A  
HETATM   15  C   UNL     1     -10.703   5.021  72.513  1.00  0.00    -0.271 A  
HETATM   16  C   UNL     1     -10.977   5.955  73.487  1.00  0.00    -0.137 A  
BRANCH  14  17
HETATM   17  C   UNL     1      -9.843   4.647  70.197  1.00  0.00    -0.306 A  
HETATM   18  C   UNL     1      -9.378   3.650  66.718  1.00  0.00    -0.210 A  
HETATM   19  C   UNL     1      -9.355   3.356  70.338  1.00  0.00    -0.170 A  
HETATM   20  C   UNL     1      -9.824   4.733  65.956  1.00  0.00    -0.229 A  
HETATM   21  C   UNL     1     -10.344   5.865  66.571  1.00  0.00    -0.237 A  
HETATM   22  N   UNL     1      -9.141   2.827  69.094  1.00  0.00    -0.122 NA 
HETATM   23  C   UNL     1      -9.464   3.738  68.119  1.00  0.00    -0.157 A  
HETATM   24  C   UNL     1      -8.657   1.487  68.840  1.00  0.00    -0.057 C  
HETATM   25  C   UNL     1      -9.952   4.881  68.772  1.00  0.00    -0.206 A  
HETATM   26  C   UNL     1     -10.402   5.953  67.969  1.00  0.00    -0.257 A  
ENDBRANCH  14  17
ENDBRANCH   9  11
ENDBRANCH   4   9
BRANCH   7  27
HETATM   27  N   UNL     1      -8.590  10.782  67.797  1.00  0.00    -0.126 N  
HETATM   28  O   UNL     1      -8.790   8.960  66.371  1.00  0.00    -0.138 OA 
HETATM   29  H   UNL     1      -8.032  11.617  67.974  1.00  0.00     0.000 HD 
HETATM   30  C   UNL     1      -8.169   9.923  66.806  1.00  0.00    -0.124 C  
BRANCH  30  31
HETATM   31  C   UNL     1      -6.868  10.339  66.219  1.00  0.00    -0.110 C  
HETATM   32  C   UNL     1      -6.138  11.290  66.814  1.00  0.00    -0.131 C  
ENDBRANCH  30  31
ENDBRANCH   7  27
BRANCH   5  33
HETATM   33  N   UNL     1     -11.062  12.239  67.317  1.00  0.00    -0.259 NA 
HETATM   34  C   UNL     1     -11.293  11.806  65.942  1.00  0.00    -0.263 C  
BRANCH  33  35
HETATM   35  C   UNL     1     -11.153  13.689  67.561  1.00  0.00    -0.277 C  
BRANCH  35  36
HETATM   36  C   UNL     1     -10.122  14.464  66.707  1.00  0.00    -0.266 C  
BRANCH  36  37
HETATM   37  N   UNL     1     -10.598  15.745  66.143  1.00  0.00    -0.311 NA 
HETATM   38  C   UNL     1     -10.943  15.537  64.731  1.00  0.00    -0.399 C  
HETATM   39  C   UNL     1      -9.578  16.792  66.245  1.00  0.00    -0.289 C  
ENDBRANCH  36  37
ENDBRANCH  35  36
ENDBRANCH  33  35
ENDBRANCH   5  33
ENDBRANCH   2   3
TORSDOF 10
ENDMDL
MODEL      111
REMARK 921   NORMALIZED FREE ENERGY PREDICTED BY IDOCK:   -5.52 KCAL/MOL
REMARK 922        TOTAL FREE ENERGY PREDICTED BY IDOCK:  -10.47 KCAL/MOL
REMARK 923 INTER-LIGAND FREE ENERGY PREDICTED BY IDOCK:   -9.61 KCAL/MOL
REMARK 924 INTRA-LIGAND FREE ENERGY PREDICTED BY IDOCK:   -0.86 KCAL/MOL
REMARK 927      BINDING AFFINITY PREDICTED BY RF-SCORE:    0.00 PKD
ROOT
HETATM    1  C   UNL     1      -7.727  10.006  64.870  1.00  0.00    -0.138 C  
HETATM    2  O   UNL     1      -9.151   9.990  64.903  1.00  0.00    -0.185 OA 
ENDROOT
BRANCH   2   3
HETATM    3  C   UNL     1      -9.761  10.605  65.969  1.00  0.00    -0.208 A  
HETATM    4  C   UNL     1     -10.565  10.004  66.939  1.00  0.00    -0.192 A  
HETATM    5  C   UNL     1     -10.073  12.837  67.029  1.00  0.00    -0.240 A  
HETATM    6  C   UNL     1     -10.966  10.794  68.024  1.00  0.00    -0.336 A  
HETATM    7  C   UNL     1     -10.791  12.182  68.048  1.00  0.00    -0.222 A  
HETATM    8  C   UNL     1      -9.508  11.992  66.045  1.00  0.00    -0.229 A  
BRANCH   4   9
HETATM    9  N   UNL     1     -10.991   8.666  66.864  1.00  0.00    -0.187 NA 
HETATM   10  H   UNL     1     -11.937   8.502  66.522  1.00  0.00     0.000 HD 
BRANCH   9  11
HETATM   11  C   UNL     1     -10.241   7.539  67.215  1.00  0.00    -0.267 A  
HETATM   12  N   UNL     1      -9.320   7.140  66.331  1.00  0.00    -0.166 NA 
HETATM   13  N   UNL     1     -10.437   6.943  68.406  1.00  0.00    -0.193 NA 
HETATM   14  C   UNL     1      -9.592   5.975  68.790  1.00  0.00    -0.129 A  
HETATM   15  C   UNL     1      -8.586   5.533  67.956  1.00  0.00    -0.100 A  
HETATM   16  C   UNL     1      -8.513   6.142  66.723  1.00  0.00    -0.111 A  
BRANCH  14  17
HETATM   17  C   UNL     1      -9.793   5.438  70.141  1.00  0.00    -0.273 A  
HETATM   18  C   UNL     1     -10.509   5.436  73.719  1.00  0.00    -0.305 A  
HETATM   19  C   UNL     1      -9.738   4.084  70.438  1.00  0.00    -0.193 A  
HETATM   20  C   UNL     1     -10.642   6.781  74.074  1.00  0.00    -0.185 A  
HETATM   21  C   UNL     1     -10.468   7.784  73.130  1.00  0.00    -0.413 A  
HETATM   22  N   UNL     1      -9.974   3.915  71.775  1.00  0.00    -0.182 NA 
HETATM   23  C   UNL     1     -10.198   5.125  72.383  1.00  0.00    -0.198 A  
HETATM   24  C   UNL     1      -9.972   2.639  72.458  1.00  0.00    -0.156 C  
HETATM   25  C   UNL     1     -10.049   6.113  71.397  1.00  0.00    -0.230 A  
HETATM   26  C   UNL     1     -10.183   7.463  71.794  1.00  0.00    -0.212 A  
ENDBRANCH  14  17
ENDBRANCH   9  11
ENDBRANCH   4   9
BRANCH   7  27
HETATM   27  N   UNL     1     -11.529  12.910  69.005  1.00  0.00    -0.289 N  
HETATM   28  O   UNL     1     -11.793  11.249  70.606  1.00  0.00    -0.340 OA 
HETATM   29  H   UNL     1     -11.702  13.899  68.823  1.00  0.00     0.000 HD 
HETATM   30  C   UNL     1     -12.028  12.370  70.168  1.00  0.00    -0.298 C  
BRANCH  30  31
HETATM   31  C   UNL     1     -12.850  13.345  70.932  1.00  0.00    -0.279 C  
HETATM   32  C   UNL     1     -13.422  12.982  72.086  1.00  0.00    -0.638 C  
ENDBRANCH  30  31
ENDBRANCH   7  27
BRANCH   5  33
HETATM   33  N   UNL     1      -9.919  14.222  66.967  1.00  0.00    -0.254 NA 
HETATM   34  C   UNL     1      -8.763  14.915  67.528  1.00  0.00    -0.187 C  
BRANCH  33  35
HETATM   35  C   UNL     1     -10.852  15.053  66.185  1.00  0.00    -0.329 C  
BRANCH  35  36
HETATM   36  C   UNL     1     -10.943  14.561  64.722  1.00  0.00    -0.391 C  
BRANCH  36  37
HETATM   37  N   UNL     1     -12.286  14.131  64.278  1.00  0.00    -0.660 NA 
HETATM   38  C   UNL     1     -13.124  13.912  65.464  1.00  0.00    -0.187 C  
HETATM   39  C   UNL     1     -12.225  12.896  63.491  1.00  0.00    -0.512 C  
ENDBRANCH  36  37
ENDBRANCH  35  36
ENDBRANCH  33  35
ENDBRANCH   5  33
ENDBRANCH   2   3
TORSDOF 10
ENDMDL
MODEL      112
REMARK 921   NORMALIZED FREE ENERGY PREDICTED BY IDOCK:   -5.52 KCAL/MOL
REMARK 922        TOTAL FREE ENERGY PREDICTED BY IDOCK:  -10.46 KCAL/MOL
REMARK 923 INTER-LIGAND FREE ENERGY PREDICTED BY IDOCK:   -8.89 KCAL/MOL
REMARK 924 INTRA-LIGAND FREE ENERGY PREDICTED BY IDOCK:   -1.56 KCAL/MOL
REMARK 927      BINDING AFFINITY PREDICTED BY RF-SCORE:    0.00 PKD
ROOT
HETATM    1  C   UNL     1      -7.443  10.278  65.591  1.00  0.00    -0.149 C  
HETATM    2  O   UNL     1      -7.238  10.121  66.991  1.00  0.00    -0.088 OA 
ENDROOT
BRANCH   2   3
HETATM    3  C   UNL     1      -8.353   9.939  67.772  1.00  0.00    -0.114 A  
HETATM    4  C   UNL     1      -9.135  10.933  68.366  1.00  0.00    -0.164 A  
HETATM    5  C   UNL     1      -9.785   8.159  68.764  1.00  0.00    -0.153 A  
HETATM    6  C   UNL     1     -10.316  10.529  69.001  1.00  0.00    -0.232 A  
HETATM    7  C   UNL     1     -10.610   9.186  69.258  1.00  0.00    -0.216 A  
HETATM    8  C   UNL     1      -8.703   8.584  67.956  1.00  0.00    -0.142 A  
BRANCH   4   9
HETATM    9  N   UNL     1      -8.782  12.294  68.362  1.00  0.00    -0.282 NA 
HETATM   10  H   UNL     1      -8.197  12.621  69.130  1.00  0.00     0.000 HD 
BRANCH   9  11
HETATM   11  C   UNL     1      -9.159  13.242  67.406  1.00  0.00    -0.216 A  
HETATM   12  N   UNL     1      -9.795  12.776  66.326  1.00  0.00    -0.264 NA 
HETATM   13  N   UNL     1      -8.914  14.548  67.619  1.00  0.00    -0.185 NA 
HETATM   14  C   UNL     1      -9.435  15.449  66.772  1.00  0.00    -0.241 A  
HETATM   15  C   UNL     1     -10.143  15.055  65.657  1.00  0.00    -0.390 A  
HETATM   16  C   UNL     1     -10.272  13.696  65.473  1.00  0.00    -0.302 A  
BRANCH  14  17
HETATM   17  C   UNL     1      -9.222  16.860  67.117  1.00  0.00    -0.238 A  
HETATM   18  C   UNL     1      -7.704  20.178  67.047  1.00  0.00    -0.350 A  
HETATM   19  C   UNL     1     -10.032  17.558  68.002  1.00  0.00    -0.310 A  
HETATM   20  C   UNL     1      -6.602  20.067  66.197  1.00  0.00    -0.238 A  
HETATM   21  C   UNL     1      -6.278  18.849  65.612  1.00  0.00    -0.279 A  
HETATM   22  N   UNL     1      -9.573  18.843  68.100  1.00  0.00    -0.321 NA 
HETATM   23  C   UNL     1      -8.478  19.029  67.293  1.00  0.00    -0.277 A  
HETATM   24  C   UNL     1     -10.150  19.862  68.950  1.00  0.00    -0.335 C  
HETATM   25  C   UNL     1      -8.199  17.793  66.691  1.00  0.00    -0.287 A  
HETATM   26  C   UNL     1      -7.071  17.715  65.842  1.00  0.00    -0.250 A  
ENDBRANCH  14  17
ENDBRANCH   9  11
ENDBRANCH   4   9
BRANCH   7  27
HETATM   27  N   UNL     1     -11.630   8.915  70.194  1.00  0.00    -0.462 N  
HETATM   28  O   UNL     1     -10.349   8.873  72.131  1.00  0.00    -0.333 OA 
HETATM   29  H   UNL     1     -12.591   8.868  69.855  1.00  0.00     0.000 HD 
HETATM   30  C   UNL     1     -11.410   8.712  71.538  1.00  0.00    -0.289 C  
BRANCH  30  31
HETATM   31  C   UNL     1     -12.656   8.347  72.261  1.00  0.00    -0.401 C  
HETATM   32  C   UNL     1     -13.755   9.099  72.126  1.00  0.00    -0.531 C  
ENDBRANCH  30  31
ENDBRANCH   7  27
BRANCH   5  33
HETATM   33  N   UNL     1      -9.992   6.807  69.039  1.00  0.00    -0.152 NA 
HETATM   34  C   UNL     1     -10.897   5.970  68.257  1.00  0.00    -0.284 C  
BRANCH  33  35
HETATM   35  C   UNL     1      -9.181   6.108  70.051  1.00  0.00    -0.151 C  
BRANCH  35  36
HETATM   36  C   UNL     1      -8.557   4.817  69.471  1.00  0.00    -0.085 C  
BRANCH  36  37
HETATM   37  N   UNL     1      -7.677   5.009  68.298  1.00  0.00    -0.082 NA 
HETATM   38  C   UNL     1      -7.638   3.757  67.531  1.00  0.00    -0.067 C  
HETATM   39  C   UNL     1      -6.316   5.376  68.698  1.00  0.00    -0.035 C  
ENDBRANCH  36  37
ENDBRANCH  35  36
ENDBRANCH  33  35
ENDBRANCH   5  33
ENDBRANCH   2   3
TORSDOF 10
ENDMDL
MODEL      113
REMARK 921   NORMALIZED FREE ENERGY PREDICTED BY IDOCK:   -5.51 KCAL/MOL
REMARK 922        TOTAL FREE ENERGY PREDICTED BY IDOCK:  -10.45 KCAL/MOL
REMARK 923 INTER-LIGAND FREE ENERGY PREDICTED BY IDOCK:   -9.11 KCAL/MOL
REMARK 924 INTRA-LIGAND FREE ENERGY PREDICTED BY IDOCK:   -1.34 KCAL/MOL
REMARK 927      BINDING AFFINITY PREDICTED BY RF-SCORE:    0.00 PKD
ROOT
HETATM    1  C   UNL     1     -12.379  11.022  69.875  1.00  0.00    -0.288 C  
HETATM    2  O   UNL     1     -12.054  11.089  68.491  1.00  0.00    -0.573 OA 
ENDROOT
BRANCH   2   3
HETATM    3  C   UNL     1     -10.983  11.873  68.135  1.00  0.00    -0.227 A  
HETATM    4  C   UNL     1      -9.633  11.612  68.376  1.00  0.00    -0.195 A  
HETATM    5  C   UNL     1     -10.414  14.032  67.032  1.00  0.00    -0.275 A  
HETATM    6  C   UNL     1      -8.696  12.475  67.795  1.00  0.00    -0.178 A  
HETATM    7  C   UNL     1      -9.060  13.687  67.198  1.00  0.00    -0.239 A  
HETATM    8  C   UNL     1     -11.346  13.052  67.450  1.00  0.00    -0.347 A  
BRANCH   4   9
HETATM    9  N   UNL     1      -9.187  10.544  69.175  1.00  0.00    -0.241 NA 
HETATM   10  H   UNL     1      -8.825  10.779  70.099  1.00  0.00     0.000 HD 
BRANCH   9  11
HETATM   11  C   UNL     1      -9.191   9.191  68.823  1.00  0.00    -0.136 A  
HETATM   12  N   UNL     1      -8.794   8.900  67.579  1.00  0.00    -0.130 NA 
HETATM   13  N   UNL     1      -9.541   8.260  69.729  1.00  0.00    -0.170 NA 
HETATM   14  C   UNL     1      -9.373   6.965  69.422  1.00  0.00    -0.146 A  
HETATM   15  C   UNL     1      -8.926   6.579  68.176  1.00  0.00    -0.116 A  
HETATM   16  C   UNL     1      -8.672   7.596  67.284  1.00  0.00    -0.124 A  
BRANCH  14  17
HETATM   17  C   UNL     1      -9.673   6.002  70.489  1.00  0.00    -0.210 A  
HETATM   18  C   UNL     1      -9.977   2.770  72.156  1.00  0.00    -0.238 A  
HETATM   19  C   UNL     1     -10.110   6.377  71.751  1.00  0.00    -0.185 A  
HETATM   20  C   UNL     1      -9.645   1.818  71.189  1.00  0.00    -0.206 A  
HETATM   21  C   UNL     1      -9.325   2.205  69.895  1.00  0.00    -0.168 A  
HETATM   22  N   UNL     1     -10.292   5.252  72.508  1.00  0.00    -0.194 NA 
HETATM   23  C   UNL     1      -9.975   4.127  71.787  1.00  0.00    -0.176 A  
HETATM   24  C   UNL     1     -10.767   5.245  73.875  1.00  0.00    -0.272 C  
HETATM   25  C   UNL     1      -9.623   4.554  70.497  1.00  0.00    -0.274 A  
HETATM   26  C   UNL     1      -9.301   3.563  69.542  1.00  0.00    -0.243 A  
ENDBRANCH  14  17
ENDBRANCH   9  11
ENDBRANCH   4   9
BRANCH   7  27
HETATM   27  N   UNL     1      -8.034  14.627  66.964  1.00  0.00    -0.348 N  
HETATM   28  O   UNL     1      -7.869  15.528  69.098  1.00  0.00    -0.179 OA 
HETATM   29  H   UNL     1      -7.608  14.648  66.038  1.00  0.00     0.000 HD 
HETATM   30  C   UNL     1      -7.572  15.515  67.909  1.00  0.00    -0.133 C  
BRANCH  30  31
HETATM   31  C   UNL     1      -6.560  16.451  67.350  1.00  0.00    -0.204 C  
HETATM   32  C   UNL     1      -6.922  17.365  66.442  1.00  0.00    -0.314 C  
ENDBRANCH  30  31
ENDBRANCH   7  27
BRANCH   5  33
HETATM   33  N   UNL     1     -10.837  15.251  66.501  1.00  0.00    -0.313 NA 
HETATM   34  C   UNL     1     -11.268  15.402  65.115  1.00  0.00    -0.350 C  
BRANCH  33  35
HETATM   35  C   UNL     1     -11.019  16.431  67.365  1.00  0.00    -0.145 C  
BRANCH  35  36
HETATM   36  C   UNL     1     -10.520  17.716  66.665  1.00  0.00    -0.286 C  
BRANCH  36  37
HETATM   37  N   UNL     1     -10.509  18.933  67.505  1.00  0.00    -0.426 NA 
HETATM   38  C   UNL     1     -10.109  20.075  66.673  1.00  0.00    -0.479 C  
HETATM   39  C   UNL     1      -9.580  18.804  68.631  1.00  0.00    -0.387 C  
ENDBRANCH  36  37
ENDBRANCH  35  36
ENDBRANCH  33  35
ENDBRANCH   5  33
ENDBRANCH   2   3
TORSDOF 10
ENDMDL
MODEL      114
REMARK 921   NORMALIZED FREE ENERGY PREDICTED BY IDOCK:   -5.51 KCAL/MOL
REMARK 922        TOTAL FREE ENERGY PREDICTED BY IDOCK:  -10.45 KCAL/MOL
REMARK 923 INTER-LIGAND FREE ENERGY PREDICTED BY IDOCK:   -9.13 KCAL/MOL
REMARK 924 INTRA-LIGAND FREE ENERGY PREDICTED BY IDOCK:   -1.32 KCAL/MOL
REMARK 927      BINDING AFFINITY PREDICTED BY RF-SCORE:    0.00 PKD
ROOT
HETATM    1  C   UNL     1     -13.036  11.906  71.602  1.00  0.00    -0.328 C  
HETATM    2  O   UNL     1     -12.126  12.630  70.781  1.00  0.00    -0.329 OA 
ENDROOT
BRANCH   2   3
HETATM    3  C   UNL     1     -11.798  12.077  69.567  1.00  0.00    -0.326 A  
HETATM    4  C   UNL     1     -11.418  10.756  69.322  1.00  0.00    -0.298 A  
HETATM    5  C   UNL     1     -11.534  12.648  67.158  1.00  0.00    -0.346 A  
HETATM    6  C   UNL     1     -11.270  10.367  67.984  1.00  0.00    -0.340 A  
HETATM    7  C   UNL     1     -11.259  11.287  66.930  1.00  0.00    -0.230 A  
HETATM    8  C   UNL     1     -11.876  12.985  68.490  1.00  0.00    -0.360 A  
BRANCH   4   9
HETATM    9  N   UNL     1     -11.170   9.823  70.344  1.00  0.00    -0.278 NA 
HETATM   10  H   UNL     1     -11.886   9.728  71.064  1.00  0.00     0.000 HD 
BRANCH   9  11
HETATM   11  C   UNL     1     -10.036   9.015  70.469  1.00  0.00    -0.215 A  
HETATM   12  N   UNL     1      -8.867   9.650  70.603  1.00  0.00    -0.186 NA 
HETATM   13  N   UNL     1     -10.162   7.676  70.491  1.00  0.00    -0.200 NA 
HETATM   14  C   UNL     1      -9.086   6.930  70.782  1.00  0.00    -0.154 A  
HETATM   15  C   UNL     1      -7.850   7.508  70.979  1.00  0.00    -0.091 A  
HETATM   16  C   UNL     1      -7.797   8.879  70.854  1.00  0.00    -0.133 A  
BRANCH  14  17
HETATM   17  C   UNL     1      -9.311   5.484  70.895  1.00  0.00    -0.191 A  
HETATM   18  C   UNL     1      -9.561   1.998  69.847  1.00  0.00    -0.050 A  
HETATM   19  C   UNL     1      -9.604   4.851  72.094  1.00  0.00    -0.152 A  
HETATM   20  C   UNL     1      -9.364   2.008  68.465  1.00  0.00    -0.244 A  
HETATM   21  C   UNL     1      -9.164   3.203  67.786  1.00  0.00    -0.241 A  
HETATM   22  N   UNL     1      -9.749   3.510  71.862  1.00  0.00    -0.155 NA 
HETATM   23  C   UNL     1      -9.548   3.225  70.534  1.00  0.00    -0.148 A  
HETATM   24  C   UNL     1     -10.083   2.529  72.872  1.00  0.00    -0.137 C  
HETATM   25  C   UNL     1      -9.313   4.447  69.884  1.00  0.00    -0.225 A  
HETATM   26  C   UNL     1      -9.126   4.420  68.483  1.00  0.00    -0.168 A  
ENDBRANCH  14  17
ENDBRANCH   9  11
ENDBRANCH   4   9
BRANCH   7  27
HETATM   27  N   UNL     1     -10.761  10.841  65.688  1.00  0.00    -0.133 N  
HETATM   28  O   UNL     1      -8.489  11.115  66.083  1.00  0.00    -0.169 OA 
HETATM   29  H   UNL     1     -11.430  10.485  65.005  1.00  0.00     0.000 HD 
HETATM   30  C   UNL     1      -9.429  10.856  65.340  1.00  0.00    -0.214 C  
BRANCH  30  31
HETATM   31  C   UNL     1      -9.212  10.424  63.934  1.00  0.00    -0.301 C  
HETATM   32  C   UNL     1      -9.261  11.320  62.942  1.00  0.00    -0.344 C  
ENDBRANCH  30  31
ENDBRANCH   7  27
BRANCH   5  33
HETATM   33  N   UNL     1     -11.478  13.621  66.159  1.00  0.00    -0.317 NA 
HETATM   34  C   UNL     1     -12.651  14.048  65.404  1.00  0.00    -0.505 C  
BRANCH  33  35
HETATM   35  C   UNL     1     -10.242  14.387  65.919  1.00  0.00    -0.325 C  
BRANCH  35  36
HETATM   36  C   UNL     1     -10.559  15.802  65.381  1.00  0.00    -0.421 C  
BRANCH  36  37
HETATM   37  N   UNL     1     -10.149  16.921  66.256  1.00  0.00    -0.311 NA 
HETATM   38  C   UNL     1      -8.689  16.890  66.406  1.00  0.00    -0.286 C  
HETATM   39  C   UNL     1     -10.775  16.830  67.578  1.00  0.00    -0.275 C  
ENDBRANCH  36  37
ENDBRANCH  35  36
ENDBRANCH  33  35
ENDBRANCH   5  33
ENDBRANCH   2   3
TORSDOF 10
ENDMDL
MODEL      115
REMARK 921   NORMALIZED FREE ENERGY PREDICTED BY IDOCK:   -5.50 KCAL/MOL
REMARK 922        TOTAL FREE ENERGY PREDICTED BY IDOCK:  -10.42 KCAL/MOL
REMARK 923 INTER-LIGAND FREE ENERGY PREDICTED BY IDOCK:   -9.63 KCAL/MOL
REMARK 924 INTRA-LIGAND FREE ENERGY PREDICTED BY IDOCK:   -0.79 KCAL/MOL
REMARK 927      BINDING AFFINITY PREDICTED BY RF-SCORE:    0.00 PKD
ROOT
HETATM    1  C   UNL     1     -13.359  12.122  71.623  1.00  0.00    -0.147 C  
HETATM    2  O   UNL     1     -12.224  12.757  71.044  1.00  0.00    -0.307 OA 
ENDROOT
BRANCH   2   3
HETATM    3  C   UNL     1     -11.974  12.507  69.716  1.00  0.00    -0.289 A  
HETATM    4  C   UNL     1     -11.755  11.263  69.122  1.00  0.00    -0.341 A  
HETATM    5  C   UNL     1     -11.668  13.656  67.528  1.00  0.00    -0.371 A  
HETATM    6  C   UNL     1     -11.666  11.223  67.725  1.00  0.00    -0.254 A  
HETATM    7  C   UNL     1     -11.557  12.380  66.945  1.00  0.00    -0.370 A  
HETATM    8  C   UNL     1     -11.955  13.668  68.914  1.00  0.00    -0.392 A  
BRANCH   4   9
HETATM    9  N   UNL     1     -11.609  10.074  69.858  1.00  0.00    -0.389 NA 
HETATM   10  H   UNL     1     -12.438   9.724  70.338  1.00  0.00     0.000 HD 
BRANCH   9  11
HETATM   11  C   UNL     1     -10.436   9.325  69.995  1.00  0.00    -0.226 A  
HETATM   12  N   UNL     1      -9.291  10.016  70.019  1.00  0.00    -0.186 NA 
HETATM   13  N   UNL     1     -10.502   7.989  70.135  1.00  0.00    -0.220 NA 
HETATM   14  C   UNL     1      -9.381   7.315  70.436  1.00  0.00    -0.158 A  
HETATM   15  C   UNL     1      -8.165   7.957  70.523  1.00  0.00    -0.118 A  
HETATM   16  C   UNL     1      -8.179   9.313  70.282  1.00  0.00    -0.172 A  
BRANCH  14  17
HETATM   17  C   UNL     1      -9.537   5.875  70.680  1.00  0.00    -0.208 A  
HETATM   18  C   UNL     1     -10.344   2.809  72.485  1.00  0.00    -0.196 A  
HETATM   19  C   UNL     1      -9.286   4.909  69.717  1.00  0.00    -0.138 A  
HETATM   20  C   UNL     1     -10.689   3.214  73.776  1.00  0.00    -0.292 A  
HETATM   21  C   UNL     1     -10.642   4.556  74.133  1.00  0.00    -0.335 A  
HETATM   22  N   UNL     1      -9.531   3.675  70.256  1.00  0.00    -0.176 NA 
HETATM   23  C   UNL     1      -9.952   3.791  71.557  1.00  0.00    -0.124 A  
HETATM   24  C   UNL     1      -9.355   2.421  69.557  1.00  0.00    -0.094 C  
HETATM   25  C   UNL     1      -9.926   5.157  71.876  1.00  0.00    -0.239 A  
HETATM   26  C   UNL     1     -10.274   5.530  73.194  1.00  0.00    -0.213 A  
ENDBRANCH  14  17
ENDBRANCH   9  11
ENDBRANCH   4   9
BRANCH   7  27
HETATM   27  N   UNL     1     -11.127  12.222  65.611  1.00  0.00    -0.305 N  
HETATM   28  O   UNL     1     -13.193  12.277  64.552  1.00  0.00    -0.799 OA 
HETATM   29  H   UNL     1     -10.124  12.186  65.433  1.00  0.00     0.000 HD 
HETATM   30  C   UNL     1     -11.978  12.113  64.534  1.00  0.00    -0.337 C  
BRANCH  30  31
HETATM   31  C   UNL     1     -11.247  11.853  63.266  1.00  0.00    -0.382 C  
HETATM   32  C   UNL     1      -9.933  11.599  63.290  1.00  0.00    -0.442 C  
ENDBRANCH  30  31
ENDBRANCH   7  27
BRANCH   5  33
HETATM   33  N   UNL     1     -11.507  14.844  66.813  1.00  0.00    -0.333 NA 
HETATM   34  C   UNL     1     -12.352  15.205  65.680  1.00  0.00     0.418 C  
BRANCH  33  35
HETATM   35  C   UNL     1     -10.562  15.878  67.269  1.00  0.00    -0.314 C  
BRANCH  35  36
HETATM   36  C   UNL     1     -10.394  16.987  66.204  1.00  0.00    -0.319 C  
BRANCH  36  37
HETATM   37  N   UNL     1     -10.221  18.356  66.735  1.00  0.00    -0.367 NA 
HETATM   38  C   UNL     1     -10.437  19.314  65.644  1.00  0.00    -0.227 C  
HETATM   39  C   UNL     1      -8.882  18.553  67.297  1.00  0.00    -0.270 C  
ENDBRANCH  36  37
ENDBRANCH  35  36
ENDBRANCH  33  35
ENDBRANCH   5  33
ENDBRANCH   2   3
TORSDOF 10
ENDMDL
MODEL      116
REMARK 921   NORMALIZED FREE ENERGY PREDICTED BY IDOCK:   -5.49 KCAL/MOL
REMARK 922        TOTAL FREE ENERGY PREDICTED BY IDOCK:  -10.41 KCAL/MOL
REMARK 923 INTER-LIGAND FREE ENERGY PREDICTED BY IDOCK:   -8.53 KCAL/MOL
REMARK 924 INTRA-LIGAND FREE ENERGY PREDICTED BY IDOCK:   -1.88 KCAL/MOL
REMARK 927      BINDING AFFINITY PREDICTED BY RF-SCORE:    0.00 PKD
ROOT
HETATM    1  C   UNL     1      -7.067   9.295  70.687  1.00  0.00    -0.111 C  
HETATM    2  O   UNL     1      -8.476   9.110  70.592  1.00  0.00    -0.174 OA 
ENDROOT
BRANCH   2   3
HETATM    3  C   UNL     1      -8.947   8.432  69.494  1.00  0.00    -0.149 A  
HETATM    4  C   UNL     1     -10.283   8.203  69.157  1.00  0.00    -0.214 A  
HETATM    5  C   UNL     1      -8.179   7.172  67.488  1.00  0.00    -0.117 A  
HETATM    6  C   UNL     1     -10.542   7.615  67.913  1.00  0.00    -0.233 A  
HETATM    7  C   UNL     1      -9.533   7.051  67.123  1.00  0.00    -0.145 A  
HETATM    8  C   UNL     1      -7.929   7.942  68.649  1.00  0.00    -0.124 A  
BRANCH   4   9
HETATM    9  N   UNL     1     -11.356   8.522  70.007  1.00  0.00    -0.450 NA 
HETATM   10  H   UNL     1     -11.818   7.745  70.479  1.00  0.00     0.000 HD 
BRANCH   9  11
HETATM   11  C   UNL     1     -11.853   9.803  70.267  1.00  0.00    -0.144 A  
HETATM   12  N   UNL     1     -12.426   9.987  71.462  1.00  0.00    -0.389 NA 
HETATM   13  N   UNL     1     -11.702  10.782  69.356  1.00  0.00    -0.297 NA 
HETATM   14  C   UNL     1     -12.031  12.037  69.697  1.00  0.00    -0.293 A  
HETATM   15  C   UNL     1     -12.588  12.321  70.925  1.00  0.00    -0.334 A  
HETATM   16  C   UNL     1     -12.784  11.245  71.762  1.00  0.00    -0.273 A  
BRANCH  14  17
HETATM   17  C   UNL     1     -11.745  13.075  68.698  1.00  0.00    -0.359 A  
HETATM   18  C   UNL     1     -10.749  16.325  67.373  1.00  0.00    -0.287 A  
HETATM   19  C   UNL     1     -11.832  12.859  67.330  1.00  0.00    -0.360 A  
HETATM   20  C   UNL     1     -10.532  17.134  68.490  1.00  0.00    -0.377 A  
HETATM   21  C   UNL     1     -10.739  16.642  69.772  1.00  0.00    -0.254 A  
HETATM   22  N   UNL     1     -11.499  14.015  66.679  1.00  0.00    -0.348 NA 
HETATM   23  C   UNL     1     -11.178  15.001  67.578  1.00  0.00    -0.330 A  
HETATM   24  C   UNL     1     -11.499  14.181  65.241  1.00  0.00    -0.330 C  
HETATM   25  C   UNL     1     -11.363  14.463  68.861  1.00  0.00    -0.300 A  
HETATM   26  C   UNL     1     -11.142  15.313  69.968  1.00  0.00    -0.303 A  
ENDBRANCH  14  17
ENDBRANCH   9  11
ENDBRANCH   4   9
BRANCH   7  27
HETATM   27  N   UNL     1      -9.934   6.192  66.079  1.00  0.00    -0.393 N  
HETATM   28  O   UNL     1     -10.011   4.193  67.259  1.00  0.00    -0.168 OA 
HETATM   29  H   UNL     1     -10.134   6.606  65.169  1.00  0.00     0.000 HD 
HETATM   30  C   UNL     1     -10.072   4.828  66.212  1.00  0.00    -0.264 C  
BRANCH  30  31
HETATM   31  C   UNL     1     -10.407   4.170  64.922  1.00  0.00    -0.210 C  
HETATM   32  C   UNL     1      -9.446   3.935  64.021  1.00  0.00    -0.157 C  
ENDBRANCH  30  31
ENDBRANCH   7  27
BRANCH   5  33
HETATM   33  N   UNL     1      -7.136   6.580  66.775  1.00  0.00    -0.067 NA 
HETATM   34  C   UNL     1      -6.535   5.308  67.164  1.00  0.00    -0.048 C  
BRANCH  33  35
HETATM   35  C   UNL     1      -6.686   7.139  65.488  1.00  0.00    -0.052 C  
BRANCH  35  36
HETATM   36  C   UNL     1      -6.368   8.648  65.618  1.00  0.00    -0.056 C  
BRANCH  36  37
HETATM   37  N   UNL     1      -7.234   9.549  64.827  1.00  0.00    -0.107 NA 
HETATM   38  C   UNL     1      -7.962  10.429  65.749  1.00  0.00    -0.152 C  
HETATM   39  C   UNL     1      -8.194   8.798  64.013  1.00  0.00    -0.161 C  
ENDBRANCH  36  37
ENDBRANCH  35  36
ENDBRANCH  33  35
ENDBRANCH   5  33
ENDBRANCH   2   3
TORSDOF 10
ENDMDL
MODEL      117
REMARK 921   NORMALIZED FREE ENERGY PREDICTED BY IDOCK:   -5.49 KCAL/MOL
REMARK 922        TOTAL FREE ENERGY PREDICTED BY IDOCK:  -10.41 KCAL/MOL
REMARK 923 INTER-LIGAND FREE ENERGY PREDICTED BY IDOCK:   -8.74 KCAL/MOL
REMARK 924 INTRA-LIGAND FREE ENERGY PREDICTED BY IDOCK:   -1.67 KCAL/MOL
REMARK 927      BINDING AFFINITY PREDICTED BY RF-SCORE:    0.00 PKD
ROOT
HETATM    1  C   UNL     1      -7.109   5.238  67.331  1.00  0.00    -0.067 C  
HETATM    2  O   UNL     1      -7.340   6.560  67.807  1.00  0.00    -0.090 OA 
ENDROOT
BRANCH   2   3
HETATM    3  C   UNL     1      -8.490   6.776  68.526  1.00  0.00    -0.123 A  
HETATM    4  C   UNL     1      -9.766   7.026  68.016  1.00  0.00    -0.129 A  
HETATM    5  C   UNL     1      -9.338   6.965  70.860  1.00  0.00    -0.157 A  
HETATM    6  C   UNL     1     -10.827   7.071  68.929  1.00  0.00    -0.203 A  
HETATM    7  C   UNL     1     -10.627   7.108  70.313  1.00  0.00    -0.227 A  
HETATM    8  C   UNL     1      -8.304   6.723  69.924  1.00  0.00    -0.135 A  
BRANCH   4   9
HETATM    9  N   UNL     1     -10.019   7.242  66.650  1.00  0.00    -0.363 NA 
HETATM   10  H   UNL     1     -10.566   6.532  66.164  1.00  0.00     0.000 HD 
BRANCH   9  11
HETATM   11  C   UNL     1      -9.592   8.338  65.894  1.00  0.00     0.008 A  
HETATM   12  N   UNL     1      -8.693   8.085  64.936  1.00  0.00     0.030 NA 
HETATM   13  N   UNL     1     -10.114   9.558  66.120  1.00  0.00    -0.281 NA 
HETATM   14  C   UNL     1      -9.817  10.554  65.273  1.00  0.00    -0.284 A  
HETATM   15  C   UNL     1      -8.933  10.367  64.232  1.00  0.00    -0.249 A  
HETATM   16  C   UNL     1      -8.383   9.109  64.127  1.00  0.00    -0.178 A  
BRANCH  14  17
HETATM   17  C   UNL     1     -10.500  11.832  65.512  1.00  0.00    -0.311 A  
HETATM   18  C   UNL     1     -11.952  14.603  67.390  1.00  0.00    -0.309 A  
HETATM   19  C   UNL     1     -10.910  12.678  64.492  1.00  0.00    -0.336 A  
HETATM   20  C   UNL     1     -11.849  14.239  68.734  1.00  0.00    -0.377 A  
HETATM   21  C   UNL     1     -11.307  13.012  69.096  1.00  0.00    -0.328 A  
HETATM   22  N   UNL     1     -11.504  13.780  65.044  1.00  0.00    -0.321 NA 
HETATM   23  C   UNL     1     -11.491  13.701  66.414  1.00  0.00    -0.338 A  
HETATM   24  C   UNL     1     -12.080  14.872  64.289  1.00  0.00    -0.353 C  
HETATM   25  C   UNL     1     -10.908  12.468  66.748  1.00  0.00    -0.281 A  
HETATM   26  C   UNL     1     -10.827  12.129  68.118  1.00  0.00    -0.256 A  
ENDBRANCH  14  17
ENDBRANCH   9  11
ENDBRANCH   4   9
BRANCH   7  27
HETATM   27  N   UNL     1     -11.720   7.501  71.114  1.00  0.00    -0.285 N  
HETATM   28  O   UNL     1     -11.486   9.805  70.950  1.00  0.00    -0.309 OA 
HETATM   29  H   UNL     1     -12.327   6.770  71.485  1.00  0.00     0.000 HD 
HETATM   30  C   UNL     1     -12.019   8.808  71.424  1.00  0.00    -0.310 C  
BRANCH  30  31
HETATM   31  C   UNL     1     -13.164   8.913  72.366  1.00  0.00    -0.482 C  
HETATM   32  C   UNL     1     -14.380   8.496  71.992  1.00  0.00    -0.537 C  
ENDBRANCH  30  31
ENDBRANCH   7  27
BRANCH   5  33
HETATM   33  N   UNL     1      -9.069   7.056  72.226  1.00  0.00    -0.133 NA 
HETATM   34  C   UNL     1      -9.058   8.325  72.947  1.00  0.00    -0.262 C  
BRANCH  33  35
HETATM   35  C   UNL     1      -8.933   5.843  73.052  1.00  0.00    -0.121 C  
BRANCH  35  36
HETATM   36  C   UNL     1     -10.305   5.388  73.604  1.00  0.00    -0.234 C  
BRANCH  36  37
HETATM   37  N   UNL     1     -10.876   4.182  72.968  1.00  0.00    -0.184 NA 
HETATM   38  C   UNL     1     -11.144   3.183  74.010  1.00  0.00    -0.061 C  
HETATM   39  C   UNL     1      -9.964   3.613  71.972  1.00  0.00    -0.162 C  
ENDBRANCH  36  37
ENDBRANCH  35  36
ENDBRANCH  33  35
ENDBRANCH   5  33
ENDBRANCH   2   3
TORSDOF 10
ENDMDL
MODEL      118
REMARK 921   NORMALIZED FREE ENERGY PREDICTED BY IDOCK:   -5.48 KCAL/MOL
REMARK 922        TOTAL FREE ENERGY PREDICTED BY IDOCK:  -10.40 KCAL/MOL
REMARK 923 INTER-LIGAND FREE ENERGY PREDICTED BY IDOCK:   -9.24 KCAL/MOL
REMARK 924 INTRA-LIGAND FREE ENERGY PREDICTED BY IDOCK:   -1.16 KCAL/MOL
REMARK 927      BINDING AFFINITY PREDICTED BY RF-SCORE:    0.00 PKD
ROOT
HETATM    1  C   UNL     1     -12.640   9.792  71.273  1.00  0.00    -0.365 C  
HETATM    2  O   UNL     1     -11.452  10.438  70.826  1.00  0.00    -0.328 OA 
ENDROOT
BRANCH   2   3
HETATM    3  C   UNL     1     -11.569  11.299  69.761  1.00  0.00    -0.333 A  
HETATM    4  C   UNL     1     -11.641  10.958  68.409  1.00  0.00    -0.276 A  
HETATM    5  C   UNL     1     -11.692  13.722  69.203  1.00  0.00    -0.334 A  
HETATM    6  C   UNL     1     -11.906  11.988  67.499  1.00  0.00    -0.275 A  
HETATM    7  C   UNL     1     -11.868  13.340  67.860  1.00  0.00    -0.349 A  
HETATM    8  C   UNL     1     -11.623  12.659  70.134  1.00  0.00    -0.141 A  
BRANCH   4   9
HETATM    9  N   UNL     1     -11.448   9.649  67.934  1.00  0.00    -0.384 NA 
HETATM   10  H   UNL     1     -12.275   9.058  67.861  1.00  0.00     0.000 HD 
BRANCH   9  11
HETATM   11  C   UNL     1     -10.229   9.079  67.552  1.00  0.00    -0.241 A  
HETATM   12  N   UNL     1      -9.178   9.905  67.503  1.00  0.00    -0.134 NA 
HETATM   13  N   UNL     1     -10.151   7.761  67.299  1.00  0.00    -0.211 NA 
HETATM   14  C   UNL     1      -8.943   7.211  67.103  1.00  0.00    -0.125 A  
HETATM   15  C   UNL     1      -7.802   7.984  67.080  1.00  0.00    -0.105 A  
HETATM   16  C   UNL     1      -7.986   9.336  67.266  1.00  0.00    -0.106 A  
BRANCH  14  17
HETATM   17  C   UNL     1      -8.914   5.752  66.936  1.00  0.00    -0.114 A  
HETATM   18  C   UNL     1      -9.162   2.228  67.848  1.00  0.00    -0.240 A  
HETATM   19  C   UNL     1      -8.686   5.130  65.718  1.00  0.00    -0.139 A  
HETATM   20  C   UNL     1      -9.384   2.214  69.227  1.00  0.00    -0.176 A  
HETATM   21  C   UNL     1      -9.434   3.399  69.949  1.00  0.00    -0.236 A  
HETATM   22  N   UNL     1      -8.729   3.775  65.899  1.00  0.00    -0.113 NA 
HETATM   23  C   UNL     1      -8.994   3.470  67.211  1.00  0.00    -0.146 A  
HETATM   24  C   UNL     1      -8.511   2.796  64.856  1.00  0.00    -0.094 C  
HETATM   25  C   UNL     1      -9.073   4.688  67.906  1.00  0.00    -0.140 A  
HETATM   26  C   UNL     1      -9.292   4.634  69.301  1.00  0.00    -0.207 A  
ENDBRANCH  14  17
ENDBRANCH   9  11
ENDBRANCH   4   9
BRANCH   7  27
HETATM   27  N   UNL     1     -11.803  14.287  66.817  1.00  0.00    -0.412 N  
HETATM   28  O   UNL     1      -9.804  13.620  65.841  1.00  0.00    -0.289 OA 
HETATM   29  H   UNL     1     -12.586  14.930  66.706  1.00  0.00     0.000 HD 
HETATM   30  C   UNL     1     -10.748  14.396  65.939  1.00  0.00    -0.306 C  
BRANCH  30  31
HETATM   31  C   UNL     1     -10.908  15.547  65.012  1.00  0.00    -0.468 C  
HETATM   32  C   UNL     1     -12.029  15.677  64.292  1.00  0.00    -0.121 C  
ENDBRANCH  30  31
ENDBRANCH   7  27
BRANCH   5  33
HETATM   33  N   UNL     1     -11.584  15.051  69.615  1.00  0.00    -0.284 NA 
HETATM   34  C   UNL     1     -12.606  15.714  70.420  1.00  0.00    -0.336 C  
BRANCH  33  35
HETATM   35  C   UNL     1     -10.346  15.816  69.386  1.00  0.00    -0.263 C  
BRANCH  35  36
HETATM   36  C   UNL     1     -10.610  17.047  68.488  1.00  0.00    -0.370 C  
BRANCH  36  37
HETATM   37  N   UNL     1      -9.835  18.260  68.828  1.00  0.00    -0.366 NA 
HETATM   38  C   UNL     1     -10.405  19.401  68.101  1.00  0.00    -0.415 C  
HETATM   39  C   UNL     1      -8.421  18.114  68.471  1.00  0.00    -0.299 C  
ENDBRANCH  36  37
ENDBRANCH  35  36
ENDBRANCH  33  35
ENDBRANCH   5  33
ENDBRANCH   2   3
TORSDOF 10
ENDMDL
MODEL      119
REMARK 921   NORMALIZED FREE ENERGY PREDICTED BY IDOCK:   -5.46 KCAL/MOL
REMARK 922        TOTAL FREE ENERGY PREDICTED BY IDOCK:  -10.37 KCAL/MOL
REMARK 923 INTER-LIGAND FREE ENERGY PREDICTED BY IDOCK:   -8.85 KCAL/MOL
REMARK 924 INTRA-LIGAND FREE ENERGY PREDICTED BY IDOCK:   -1.52 KCAL/MOL
REMARK 927      BINDING AFFINITY PREDICTED BY RF-SCORE:    0.00 PKD
ROOT
HETATM    1  C   UNL     1      -7.274  11.489  67.551  1.00  0.00    -0.111 C  
HETATM    2  O   UNL     1      -7.666  12.340  68.623  1.00  0.00    -0.121 OA 
ENDROOT
BRANCH   2   3
HETATM    3  C   UNL     1      -8.346  13.488  68.296  1.00  0.00    -0.165 A  
HETATM    4  C   UNL     1      -9.725  13.628  68.126  1.00  0.00    -0.229 A  
HETATM    5  C   UNL     1      -7.989  15.891  67.745  1.00  0.00    -0.141 A  
HETATM    6  C   UNL     1     -10.222  14.924  67.938  1.00  0.00    -0.228 A  
HETATM    7  C   UNL     1      -9.389  16.020  67.686  1.00  0.00    -0.214 A  
HETATM    8  C   UNL     1      -7.513  14.615  68.131  1.00  0.00    -0.125 A  
BRANCH   4   9
HETATM    9  N   UNL     1     -10.615  12.539  68.123  1.00  0.00    -0.219 NA 
HETATM   10  H   UNL     1     -10.947  12.217  67.215  1.00  0.00     0.000 HD 
BRANCH   9  11
HETATM   11  C   UNL     1     -11.089  11.857  69.248  1.00  0.00    -0.203 A  
HETATM   12  N   UNL     1     -12.197  12.347  69.816  1.00  0.00    -0.188 NA 
HETATM   13  N   UNL     1     -10.461  10.748  69.678  1.00  0.00    -0.188 NA 
HETATM   14  C   UNL     1     -11.031  10.018  70.648  1.00  0.00    -0.322 A  
HETATM   15  C   UNL     1     -12.197  10.428  71.258  1.00  0.00    -0.491 A  
HETATM   16  C   UNL     1     -12.725  11.619  70.812  1.00  0.00    -0.201 A  
BRANCH  14  17
HETATM   17  C   UNL     1     -10.351   8.764  71.000  1.00  0.00    -0.297 A  
HETATM   18  C   UNL     1      -9.233   5.306  70.677  1.00  0.00    -0.187 A  
HETATM   19  C   UNL     1      -9.563   8.618  72.131  1.00  0.00    -0.307 A  
HETATM   20  C   UNL     1      -9.854   4.818  69.525  1.00  0.00    -0.292 A  
HETATM   21  C   UNL     1     -10.721   5.620  68.794  1.00  0.00    -0.267 A  
HETATM   22  N   UNL     1      -9.073   7.340  72.166  1.00  0.00    -0.132 NA 
HETATM   23  C   UNL     1      -9.505   6.627  71.075  1.00  0.00    -0.164 A  
HETATM   24  C   UNL     1      -8.229   6.809  73.214  1.00  0.00    -0.110 C  
HETATM   25  C   UNL     1     -10.348   7.475  70.340  1.00  0.00    -0.216 A  
HETATM   26  C   UNL     1     -10.965   6.945  69.184  1.00  0.00    -0.240 A  
ENDBRANCH  14  17
ENDBRANCH   9  11
ENDBRANCH   4   9
BRANCH   7  27
HETATM   27  N   UNL     1      -9.994  17.187  67.173  1.00  0.00    -0.275 N  
HETATM   28  O   UNL     1      -9.893  18.519  69.072  1.00  0.00    -0.358 OA 
HETATM   29  H   UNL     1     -10.250  17.198  66.185  1.00  0.00     0.000 HD 
HETATM   30  C   UNL     1     -10.259  18.311  67.921  1.00  0.00    -0.384 C  
BRANCH  30  31
HETATM   31  C   UNL     1     -10.992  19.343  67.141  1.00  0.00    -0.454 C  
HETATM   32  C   UNL     1     -10.678  19.562  65.858  1.00  0.00    -0.518 C  
ENDBRANCH  30  31
ENDBRANCH   7  27
BRANCH   5  33
HETATM   33  N   UNL     1      -7.108  16.930  67.444  1.00  0.00    -0.148 NA 
HETATM   34  C   UNL     1      -6.213  17.519  68.434  1.00  0.00    -0.175 C  
BRANCH  33  35
HETATM   35  C   UNL     1      -6.926  17.388  66.055  1.00  0.00    -0.211 C  
BRANCH  35  36
HETATM   36  C   UNL     1      -5.594  18.158  65.894  1.00  0.00    -0.197 C  
BRANCH  36  37
HETATM   37  N   UNL     1      -5.702  19.485  65.250  1.00  0.00    -0.171 NA 
HETATM   38  C   UNL     1      -7.024  20.048  65.553  1.00  0.00    -0.310 C  
HETATM   39  C   UNL     1      -5.534  19.395  63.797  1.00  0.00    -0.296 C  
ENDBRANCH  36  37
ENDBRANCH  35  36
ENDBRANCH  33  35
ENDBRANCH   5  33
ENDBRANCH   2   3
TORSDOF 10
ENDMDL
MODEL      120
REMARK 921   NORMALIZED FREE ENERGY PREDICTED BY IDOCK:   -5.46 KCAL/MOL
REMARK 922        TOTAL FREE ENERGY PREDICTED BY IDOCK:  -10.36 KCAL/MOL
REMARK 923 INTER-LIGAND FREE ENERGY PREDICTED BY IDOCK:   -9.37 KCAL/MOL
REMARK 924 INTRA-LIGAND FREE ENERGY PREDICTED BY IDOCK:   -1.00 KCAL/MOL
REMARK 927      BINDING AFFINITY PREDICTED BY RF-SCORE:    0.00 PKD
ROOT
HETATM    1  C   UNL     1      -7.354  12.002  67.737  1.00  0.00    -0.113 C  
HETATM    2  O   UNL     1      -8.638  11.458  67.449  1.00  0.00    -0.136 OA 
ENDROOT
BRANCH   2   3
HETATM    3  C   UNL     1      -9.181  10.605  68.379  1.00  0.00    -0.159 A  
HETATM    4  C   UNL     1     -10.261  10.863  69.226  1.00  0.00    -0.166 A  
HETATM    5  C   UNL     1      -8.902   8.331  69.354  1.00  0.00    -0.146 A  
HETATM    6  C   UNL     1     -10.745   9.797  69.995  1.00  0.00    -0.326 A  
HETATM    7  C   UNL     1     -10.057   8.585  70.117  1.00  0.00    -0.190 A  
HETATM    8  C   UNL     1      -8.543   9.347  68.437  1.00  0.00    -0.124 A  
BRANCH   4   9
HETATM    9  N   UNL     1     -10.862  12.129  69.343  1.00  0.00    -0.453 NA 
HETATM   10  H   UNL     1     -11.305  12.348  70.235  1.00  0.00     0.000 HD 
BRANCH   9  11
HETATM   11  C   UNL     1     -10.909  13.116  68.354  1.00  0.00    -0.262 A  
HETATM   12  N   UNL     1     -11.799  12.930  67.373  1.00  0.00    -0.374 NA 
HETATM   13  N   UNL     1     -10.117  14.200  68.445  1.00  0.00    -0.233 NA 
HETATM   14  C   UNL     1     -10.303  15.209  67.581  1.00  0.00    -0.248 A  
HETATM   15  C   UNL     1     -11.230  15.117  66.565  1.00  0.00    -0.283 A  
HETATM   16  C   UNL     1     -11.937  13.937  66.497  1.00  0.00    -0.439 A  
BRANCH  14  17
HETATM   17  C   UNL     1      -9.480  16.406  67.797  1.00  0.00    -0.222 A  
HETATM   18  C   UNL     1      -8.486  19.913  67.639  1.00  0.00    -0.374 A  
HETATM   19  C   UNL     1      -8.300  16.396  68.525  1.00  0.00    -0.202 A  
HETATM   20  C   UNL     1      -9.452  20.540  66.848  1.00  0.00    -0.475 A  
HETATM   21  C   UNL     1     -10.492  19.810  66.287  1.00  0.00    -0.614 A  
HETATM   22  N   UNL     1      -7.782  17.663  68.544  1.00  0.00    -0.272 NA 
HETATM   23  C   UNL     1      -8.595  18.528  67.855  1.00  0.00    -0.287 A  
HETATM   24  C   UNL     1      -6.542  18.037  69.189  1.00  0.00    -0.253 C  
HETATM   25  C   UNL     1      -9.652  17.767  67.331  1.00  0.00    -0.264 A  
HETATM   26  C   UNL     1     -10.607  18.433  66.529  1.00  0.00    -0.344 A  
ENDBRANCH  14  17
ENDBRANCH   9  11
ENDBRANCH   4   9
BRANCH   7  27
HETATM   27  N   UNL     1     -10.440   7.727  71.170  1.00  0.00    -0.208 N  
HETATM   28  O   UNL     1     -11.980   6.414  70.032  1.00  0.00    -0.333 OA 
HETATM   29  H   UNL     1      -9.963   7.829  72.066  1.00  0.00     0.000 HD 
HETATM   30  C   UNL     1     -11.416   6.762  71.063  1.00  0.00    -0.324 C  
BRANCH  30  31
HETATM   31  C   UNL     1     -11.676   6.082  72.359  1.00  0.00    -0.322 C  
HETATM   32  C   UNL     1     -10.796   5.194  72.838  1.00  0.00    -0.324 C  
ENDBRANCH  30  31
ENDBRANCH   7  27
BRANCH   5  33
HETATM   33  N   UNL     1      -8.140   7.168  69.478  1.00  0.00    -0.128 NA 
HETATM   34  C   UNL     1      -6.940   7.093  70.305  1.00  0.00    -0.061 C  
BRANCH  33  35
HETATM   35  C   UNL     1      -8.601   5.897  68.892  1.00  0.00    -0.110 C  
BRANCH  35  36
HETATM   36  C   UNL     1      -9.030   6.085  67.418  1.00  0.00    -0.108 C  
BRANCH  36  37
HETATM   37  N   UNL     1      -9.235   4.838  66.652  1.00  0.00    -0.123 NA 
HETATM   38  C   UNL     1      -8.212   4.758  65.602  1.00  0.00    -0.113 C  
HETATM   39  C   UNL     1     -10.565   4.793  66.039  1.00  0.00    -0.254 C  
ENDBRANCH  36  37
ENDBRANCH  35  36
ENDBRANCH  33  35
ENDBRANCH   5  33
ENDBRANCH   2   3
TORSDOF 10
ENDMDL
MODEL      121
REMARK 921   NORMALIZED FREE ENERGY PREDICTED BY IDOCK:   -5.45 KCAL/MOL
REMARK 922        TOTAL FREE ENERGY PREDICTED BY IDOCK:  -10.35 KCAL/MOL
REMARK 923 INTER-LIGAND FREE ENERGY PREDICTED BY IDOCK:   -8.68 KCAL/MOL
REMARK 924 INTRA-LIGAND FREE ENERGY PREDICTED BY IDOCK:   -1.67 KCAL/MOL
REMARK 927      BINDING AFFINITY PREDICTED BY RF-SCORE:    0.00 PKD
ROOT
HETATM    1  C   UNL     1     -13.845   9.016  72.385  1.00  0.00    -0.475 C  
HETATM    2  O   UNL     1     -13.526   9.937  71.347  1.00  0.00    -0.364 OA 
ENDROOT
BRANCH   2   3
HETATM    3  C   UNL     1     -12.270   9.852  70.796  1.00  0.00    -0.291 A  
HETATM    4  C   UNL     1     -11.634  10.809  70.004  1.00  0.00    -0.334 A  
HETATM    5  C   UNL     1     -10.313   8.324  70.603  1.00  0.00    -0.199 A  
HETATM    6  C   UNL     1     -10.293  10.579  69.670  1.00  0.00    -0.231 A  
HETATM    7  C   UNL     1      -9.661   9.352  69.897  1.00  0.00    -0.212 A  
HETATM    8  C   UNL     1     -11.597   8.650  71.102  1.00  0.00    -0.330 A  
BRANCH   4   9
HETATM    9  N   UNL     1     -12.277  11.964  69.527  1.00  0.00    -0.192 NA 
HETATM   10  H   UNL     1     -12.928  11.843  68.752  1.00  0.00     0.000 HD 
BRANCH   9  11
HETATM   11  C   UNL     1     -12.108  13.265  70.013  1.00  0.00    -0.315 A  
HETATM   12  N   UNL     1     -12.473  13.475  71.283  1.00  0.00    -0.335 NA 
HETATM   13  N   UNL     1     -11.565  14.213  69.228  1.00  0.00    -0.283 NA 
HETATM   14  C   UNL     1     -11.257  15.401  69.770  1.00  0.00    -0.288 A  
HETATM   15  C   UNL     1     -11.558  15.686  71.084  1.00  0.00    -0.462 A  
HETATM   16  C   UNL     1     -12.190  14.685  71.789  1.00  0.00    -0.338 A  
BRANCH  14  17
HETATM   17  C   UNL     1     -10.571  16.355  68.889  1.00  0.00    -0.307 A  
HETATM   18  C   UNL     1      -7.918  17.748  66.808  1.00  0.00    -0.265 A  
HETATM   19  C   UNL     1     -11.161  17.523  68.428  1.00  0.00     0.108 A  
HETATM   20  C   UNL     1      -6.843  16.865  66.932  1.00  0.00    -0.250 A  
HETATM   21  C   UNL     1      -6.933  15.751  67.756  1.00  0.00    -0.173 A  
HETATM   22  N   UNL     1     -10.266  18.184  67.630  1.00  0.00    -0.355 NA 
HETATM   23  C   UNL     1      -9.092  17.479  67.534  1.00  0.00    -0.234 A  
HETATM   24  C   UNL     1     -10.517  19.456  66.988  1.00  0.00    -0.463 C  
HETATM   25  C   UNL     1      -9.228  16.344  68.349  1.00  0.00    -0.217 A  
HETATM   26  C   UNL     1      -8.117  15.477  68.456  1.00  0.00    -0.146 A  
ENDBRANCH  14  17
ENDBRANCH   9  11
ENDBRANCH   4   9
BRANCH   7  27
HETATM   27  N   UNL     1      -8.446   9.115  69.219  1.00  0.00    -0.128 N  
HETATM   28  O   UNL     1      -6.991  10.155  70.701  1.00  0.00    -0.298 OA 
HETATM   29  H   UNL     1      -8.475   8.555  68.368  1.00  0.00     0.000 HD 
HETATM   30  C   UNL     1      -7.224   9.593  69.636  1.00  0.00    -0.084 C  
BRANCH  30  31
HETATM   31  C   UNL     1      -6.139   9.273  68.672  1.00  0.00    -0.044 C  
HETATM   32  C   UNL     1      -5.425  10.259  68.115  1.00  0.00    -0.034 C  
ENDBRANCH  30  31
ENDBRANCH   7  27
BRANCH   5  33
HETATM   33  N   UNL     1      -9.759   7.060  70.806  1.00  0.00    -0.169 NA 
HETATM   34  C   UNL     1      -9.862   5.984  69.825  1.00  0.00    -0.165 C  
BRANCH  33  35
HETATM   35  C   UNL     1      -8.897   6.790  71.971  1.00  0.00    -0.134 C  
BRANCH  35  36
HETATM   36  C   UNL     1      -9.063   5.333  72.461  1.00  0.00    -0.136 C  
BRANCH  36  37
HETATM   37  N   UNL     1     -10.343   5.033  73.138  1.00  0.00    -0.175 NA 
HETATM   38  C   UNL     1     -10.524   5.983  74.242  1.00  0.00    -0.199 C  
HETATM   39  C   UNL     1     -10.367   3.665  73.665  1.00  0.00    -0.163 C  
ENDBRANCH  36  37
ENDBRANCH  35  36
ENDBRANCH  33  35
ENDBRANCH   5  33
ENDBRANCH   2   3
TORSDOF 10
ENDMDL
MODEL      122
REMARK 921   NORMALIZED FREE ENERGY PREDICTED BY IDOCK:   -5.44 KCAL/MOL
REMARK 922        TOTAL FREE ENERGY PREDICTED BY IDOCK:  -10.34 KCAL/MOL
REMARK 923 INTER-LIGAND FREE ENERGY PREDICTED BY IDOCK:   -8.54 KCAL/MOL
REMARK 924 INTRA-LIGAND FREE ENERGY PREDICTED BY IDOCK:   -1.80 KCAL/MOL
REMARK 927      BINDING AFFINITY PREDICTED BY RF-SCORE:    0.00 PKD
ROOT
HETATM    1  C   UNL     1     -10.412   7.599  66.931  1.00  0.00    -0.318 C  
HETATM    2  O   UNL     1     -10.893   8.542  67.883  1.00  0.00    -0.125 OA 
ENDROOT
BRANCH   2   3
HETATM    3  C   UNL     1     -10.237   9.748  67.959  1.00  0.00    -0.190 A  
HETATM    4  C   UNL     1      -9.203  10.088  68.833  1.00  0.00    -0.169 A  
HETATM    5  C   UNL     1     -10.202  12.027  66.957  1.00  0.00    -0.203 A  
HETATM    6  C   UNL     1      -8.577  11.326  68.638  1.00  0.00    -0.139 A  
HETATM    7  C   UNL     1      -9.092  12.302  67.778  1.00  0.00    -0.191 A  
HETATM    8  C   UNL     1     -10.697  10.703  67.027  1.00  0.00    -0.317 A  
BRANCH   4   9
HETATM    9  N   UNL     1      -8.782   9.258  69.887  1.00  0.00    -0.162 NA 
HETATM   10  H   UNL     1      -7.779   9.091  69.970  1.00  0.00     0.000 HD 
BRANCH   9  11
HETATM   11  C   UNL     1      -9.606   8.640  70.832  1.00  0.00    -0.203 A  
HETATM   12  N   UNL     1     -10.563   9.402  71.373  1.00  0.00    -0.340 NA 
HETATM   13  N   UNL     1      -9.441   7.337  71.122  1.00  0.00    -0.157 NA 
HETATM   14  C   UNL     1     -10.348   6.728  71.899  1.00  0.00    -0.197 A  
HETATM   15  C   UNL     1     -11.392   7.430  72.462  1.00  0.00    -0.358 A  
HETATM   16  C   UNL     1     -11.435   8.777  72.180  1.00  0.00    -0.351 A  
BRANCH  14  17
HETATM   17  C   UNL     1     -10.171   5.283  72.092  1.00  0.00    -0.252 A  
HETATM   18  C   UNL     1      -9.452   1.810  71.236  1.00  0.00    -0.198 A  
HETATM   19  C   UNL     1     -10.289   4.660  73.325  1.00  0.00    -0.181 A  
HETATM   20  C   UNL     1      -9.255   1.798  69.853  1.00  0.00    -0.169 A  
HETATM   21  C   UNL     1      -9.383   2.964  69.110  1.00  0.00    -0.211 A  
HETATM   22  N   UNL     1     -10.060   3.320  73.167  1.00  0.00    -0.133 NA 
HETATM   23  C   UNL     1      -9.779   3.029  71.855  1.00  0.00    -0.164 A  
HETATM   24  C   UNL     1     -10.122   2.341  74.231  1.00  0.00    -0.116 C  
HETATM   25  C   UNL     1      -9.882   4.232  71.138  1.00  0.00    -0.250 A  
HETATM   26  C   UNL     1      -9.684   4.181  69.739  1.00  0.00    -0.278 A  
ENDBRANCH  14  17
ENDBRANCH   9  11
ENDBRANCH   4   9
BRANCH   7  27
HETATM   27  N   UNL     1      -8.595  13.615  67.919  1.00  0.00    -0.169 N  
HETATM   28  O   UNL     1      -6.410  13.256  67.221  1.00  0.00    -0.284 OA 
HETATM   29  H   UNL     1      -9.248  14.345  68.201  1.00  0.00     0.000 HD 
HETATM   30  C   UNL     1      -7.284  13.971  67.698  1.00  0.00    -0.176 C  
BRANCH  30  31
HETATM   31  C   UNL     1      -7.029  15.399  68.022  1.00  0.00    -0.144 C  
HETATM   32  C   UNL     1      -7.124  16.331  67.065  1.00  0.00    -0.259 C  
ENDBRANCH  30  31
ENDBRANCH   7  27
BRANCH   5  33
HETATM   33  N   UNL     1     -10.797  12.978  66.127  1.00  0.00    -0.277 NA 
HETATM   34  C   UNL     1     -10.419  13.152  64.728  1.00  0.00    -0.372 C  
BRANCH  33  35
HETATM   35  C   UNL     1     -11.960  13.759  66.583  1.00  0.00    -0.431 C  
BRANCH  35  36
HETATM   36  C   UNL     1     -11.574  15.236  66.834  1.00  0.00    -0.067 C  
BRANCH  36  37
HETATM   37  N   UNL     1     -10.914  15.509  68.128  1.00  0.00    -0.299 NA 
HETATM   38  C   UNL     1     -11.784  15.031  69.209  1.00  0.00    -0.323 C  
HETATM   39  C   UNL     1     -10.655  16.940  68.310  1.00  0.00    -0.363 C  
ENDBRANCH  36  37
ENDBRANCH  35  36
ENDBRANCH  33  35
ENDBRANCH   5  33
ENDBRANCH   2   3
TORSDOF 10
ENDMDL
MODEL      123
REMARK 921   NORMALIZED FREE ENERGY PREDICTED BY IDOCK:   -5.44 KCAL/MOL
REMARK 922        TOTAL FREE ENERGY PREDICTED BY IDOCK:  -10.34 KCAL/MOL
REMARK 923 INTER-LIGAND FREE ENERGY PREDICTED BY IDOCK:   -9.26 KCAL/MOL
REMARK 924 INTRA-LIGAND FREE ENERGY PREDICTED BY IDOCK:   -1.07 KCAL/MOL
REMARK 927      BINDING AFFINITY PREDICTED BY RF-SCORE:    0.00 PKD
ROOT
HETATM    1  C   UNL     1      -8.207   8.434  63.736  1.00  0.00    -0.105 C  
HETATM    2  O   UNL     1      -7.852   9.292  64.816  1.00  0.00    -0.110 OA 
ENDROOT
BRANCH   2   3
HETATM    3  C   UNL     1      -8.703   9.331  65.893  1.00  0.00    -0.154 A  
HETATM    4  C   UNL     1      -9.906  10.034  65.989  1.00  0.00    -0.257 A  
HETATM    5  C   UNL     1      -8.960   8.485  68.221  1.00  0.00    -0.139 A  
HETATM    6  C   UNL     1     -10.691   9.814  67.127  1.00  0.00    -0.273 A  
HETATM    7  C   UNL     1     -10.217   9.119  68.246  1.00  0.00    -0.206 A  
HETATM    8  C   UNL     1      -8.268   8.554  66.989  1.00  0.00    -0.107 A  
BRANCH   4   9
HETATM    9  N   UNL     1     -10.344  10.945  65.012  1.00  0.00    -0.295 NA 
HETATM   10  H   UNL     1     -10.240  10.663  64.038  1.00  0.00     0.000 HD 
BRANCH   9  11
HETATM   11  C   UNL     1     -10.909  12.202  65.249  1.00  0.00    -0.293 A  
HETATM   12  N   UNL     1     -12.200  12.343  64.926  1.00  0.00    -0.439 NA 
HETATM   13  N   UNL     1     -10.173  13.177  65.812  1.00  0.00    -0.286 NA 
HETATM   14  C   UNL     1     -10.782  14.312  66.185  1.00  0.00    -0.295 A  
HETATM   15  C   UNL     1     -12.120  14.522  65.929  1.00  0.00    -0.288 A  
HETATM   16  C   UNL     1     -12.776  13.504  65.273  1.00  0.00    -0.427 A  
BRANCH  14  17
HETATM   17  C   UNL     1      -9.947  15.294  66.889  1.00  0.00    -0.243 A  
HETATM   18  C   UNL     1      -8.700  18.561  67.931  1.00  0.00    -0.301 A  
HETATM   19  C   UNL     1      -8.964  14.941  67.802  1.00  0.00    -0.177 A  
HETATM   20  C   UNL     1      -9.416  19.492  67.176  1.00  0.00    -0.422 A  
HETATM   21  C   UNL     1     -10.352  19.075  66.238  1.00  0.00    -0.530 A  
HETATM   22  N   UNL     1      -8.377  16.080  68.281  1.00  0.00    -0.160 NA 
HETATM   23  C   UNL     1      -8.951  17.193  67.719  1.00  0.00    -0.226 A  
HETATM   24  C   UNL     1      -7.291  16.109  69.236  1.00  0.00    -0.231 C  
HETATM   25  C   UNL     1      -9.914  16.739  66.804  1.00  0.00    -0.286 A  
HETATM   26  C   UNL     1     -10.614  17.710  66.053  1.00  0.00    -0.220 A  
ENDBRANCH  14  17
ENDBRANCH   9  11
ENDBRANCH   4   9
BRANCH   7  27
HETATM   27  N   UNL     1     -10.942   9.256  69.447  1.00  0.00    -0.393 N  
HETATM   28  O   UNL     1     -12.195  11.135  68.908  1.00  0.00    -0.522 OA 
HETATM   29  H   UNL     1     -10.812   8.546  70.168  1.00  0.00     0.000 HD 
HETATM   30  C   UNL     1     -11.816  10.288  69.708  1.00  0.00    -0.147 C  
BRANCH  30  31
HETATM   31  C   UNL     1     -12.357  10.228  71.091  1.00  0.00    -0.501 C  
HETATM   32  C   UNL     1     -13.003  11.282  71.605  1.00  0.00    -0.537 C  
ENDBRANCH  30  31
ENDBRANCH   7  27
BRANCH   5  33
HETATM   33  N   UNL     1      -8.409   7.831  69.324  1.00  0.00    -0.135 NA 
HETATM   34  C   UNL     1      -8.764   6.465  69.691  1.00  0.00    -0.138 C  
BRANCH  33  35
HETATM   35  C   UNL     1      -7.310   8.442  70.093  1.00  0.00    -0.058 C  
BRANCH  35  36
HETATM   36  C   UNL     1      -7.312   9.981  69.941  1.00  0.00    -0.161 C  
BRANCH  36  37
HETATM   37  N   UNL     1      -6.030  10.578  69.509  1.00  0.00    -0.043 NA 
HETATM   38  C   UNL     1      -5.164   9.510  68.994  1.00  0.00    -0.037 C  
HETATM   39  C   UNL     1      -5.353  11.262  70.614  1.00  0.00    -0.124 C  
ENDBRANCH  36  37
ENDBRANCH  35  36
ENDBRANCH  33  35
ENDBRANCH   5  33
ENDBRANCH   2   3
TORSDOF 10
ENDMDL
MODEL      124
REMARK 921   NORMALIZED FREE ENERGY PREDICTED BY IDOCK:   -5.43 KCAL/MOL
REMARK 922        TOTAL FREE ENERGY PREDICTED BY IDOCK:  -10.33 KCAL/MOL
REMARK 923 INTER-LIGAND FREE ENERGY PREDICTED BY IDOCK:   -9.59 KCAL/MOL
REMARK 924 INTRA-LIGAND FREE ENERGY PREDICTED BY IDOCK:   -0.73 KCAL/MOL
REMARK 927      BINDING AFFINITY PREDICTED BY RF-SCORE:    0.00 PKD
ROOT
HETATM    1  C   UNL     1     -13.498  12.808  72.344  1.00  0.00    -0.409 C  
HETATM    2  O   UNL     1     -12.997  12.864  71.012  1.00  0.00    -0.223 OA 
ENDROOT
BRANCH   2   3
HETATM    3  C   UNL     1     -12.230  11.807  70.585  1.00  0.00    -0.349 A  
HETATM    4  C   UNL     1     -11.352  11.791  69.499  1.00  0.00    -0.248 A  
HETATM    5  C   UNL     1     -11.728   9.420  71.083  1.00  0.00    -0.345 A  
HETATM    6  C   UNL     1     -10.558  10.650  69.330  1.00  0.00    -0.270 A  
HETATM    7  C   UNL     1     -10.775   9.470  70.049  1.00  0.00    -0.243 A  
HETATM    8  C   UNL     1     -12.381  10.643  71.367  1.00  0.00    -0.455 A  
BRANCH   4   9
HETATM    9  N   UNL     1     -11.246  12.849  68.579  1.00  0.00    -0.256 NA 
HETATM   10  H   UNL     1     -12.108  13.158  68.130  1.00  0.00     0.000 HD 
BRANCH   9  11
HETATM   11  C   UNL     1     -10.072  13.518  68.220  1.00  0.00    -0.247 A  
HETATM   12  N   UNL     1      -8.980  12.761  68.068  1.00  0.00    -0.190 NA 
HETATM   13  N   UNL     1     -10.091  14.847  68.007  1.00  0.00    -0.219 NA 
HETATM   14  C   UNL     1      -8.997  15.435  67.500  1.00  0.00    -0.183 A  
HETATM   15  C   UNL     1      -7.842  14.718  67.271  1.00  0.00    -0.223 A  
HETATM   16  C   UNL     1      -7.887  13.381  67.597  1.00  0.00    -0.173 A  
BRANCH  14  17
HETATM   17  C   UNL     1      -9.116  16.866  67.191  1.00  0.00    -0.228 A  
HETATM   18  C   UNL     1      -8.248  20.409  67.143  1.00  0.00    -0.374 A  
HETATM   19  C   UNL     1     -10.133  17.393  66.409  1.00  0.00    -0.327 A  
HETATM   20  C   UNL     1      -7.113  20.527  67.950  1.00  0.00    -0.312 A  
HETATM   21  C   UNL     1      -6.582  19.416  68.591  1.00  0.00    -0.310 A  
HETATM   22  N   UNL     1      -9.956  18.746  66.308  1.00  0.00    -0.389 NA 
HETATM   23  C   UNL     1      -8.834  19.140  66.996  1.00  0.00    -0.295 A  
HETATM   24  C   UNL     1     -10.836  19.642  65.590  1.00  0.00    -0.257 C  
HETATM   25  C   UNL     1      -8.302  17.991  67.603  1.00  0.00    -0.238 A  
HETATM   26  C   UNL     1      -7.158  18.149  68.417  1.00  0.00    -0.256 A  
ENDBRANCH  14  17
ENDBRANCH   9  11
ENDBRANCH   4   9
BRANCH   7  27
HETATM   27  N   UNL     1     -10.162   8.295  69.564  1.00  0.00    -0.206 N  
HETATM   28  O   UNL     1     -10.877   8.393  67.357  1.00  0.00    -0.213 OA 
HETATM   29  H   UNL     1      -9.566   7.769  70.202  1.00  0.00     0.000 HD 
HETATM   30  C   UNL     1     -10.318   7.816  68.283  1.00  0.00    -0.198 C  
BRANCH  30  31
HETATM   31  C   UNL     1      -9.638   6.509  68.087  1.00  0.00    -0.123 C  
HETATM   32  C   UNL     1      -8.955   6.271  66.960  1.00  0.00    -0.115 C  
ENDBRANCH  30  31
ENDBRANCH   7  27
BRANCH   5  33
HETATM   33  N   UNL     1     -12.032   8.257  71.792  1.00  0.00    -0.297 NA 
HETATM   34  C   UNL     1     -13.122   7.363  71.414  1.00  0.00    -0.350 C  
BRANCH  33  35
HETATM   35  C   UNL     1     -11.160   7.786  72.883  1.00  0.00    -0.398 C  
BRANCH  35  36
HETATM   36  C   UNL     1     -11.008   6.247  72.849  1.00  0.00    -0.254 C  
BRANCH  36  37
HETATM   37  N   UNL     1      -9.618   5.747  72.792  1.00  0.00    -0.149 NA 
HETATM   38  C   UNL     1      -8.714   6.891  72.620  1.00  0.00    -0.120 C  
HETATM   39  C   UNL     1      -9.427   4.806  71.685  1.00  0.00    -0.151 C  
ENDBRANCH  36  37
ENDBRANCH  35  36
ENDBRANCH  33  35
ENDBRANCH   5  33
ENDBRANCH   2   3
TORSDOF 10
ENDMDL
MODEL      125
REMARK 921   NORMALIZED FREE ENERGY PREDICTED BY IDOCK:   -5.41 KCAL/MOL
REMARK 922        TOTAL FREE ENERGY PREDICTED BY IDOCK:  -10.29 KCAL/MOL
REMARK 923 INTER-LIGAND FREE ENERGY PREDICTED BY IDOCK:   -9.73 KCAL/MOL
REMARK 924 INTRA-LIGAND FREE ENERGY PREDICTED BY IDOCK:   -0.56 KCAL/MOL
REMARK 927      BINDING AFFINITY PREDICTED BY RF-SCORE:    0.00 PKD
ROOT
HETATM    1  C   UNL     1     -12.486  13.362  63.523  1.00  0.00    -0.210 C  
HETATM    2  O   UNL     1     -12.520  14.396  64.502  1.00  0.00    -0.608 OA 
ENDROOT
BRANCH   2   3
HETATM    3  C   UNL     1     -11.412  14.541  65.301  1.00  0.00    -0.355 A  
HETATM    4  C   UNL     1     -10.860  13.583  66.154  1.00  0.00    -0.281 A  
HETATM    5  C   UNL     1      -9.681  16.201  65.971  1.00  0.00    -0.344 A  
HETATM    6  C   UNL     1      -9.640  13.894  66.767  1.00  0.00    -0.288 A  
HETATM    7  C   UNL     1      -9.090  15.181  66.740  1.00  0.00    -0.256 A  
HETATM    8  C   UNL     1     -10.804  15.811  65.203  1.00  0.00    -0.444 A  
BRANCH   4   9
HETATM    9  N   UNL     1     -11.477  12.349  66.428  1.00  0.00    -0.352 NA 
HETATM   10  H   UNL     1     -12.480  12.365  66.608  1.00  0.00     0.000 HD 
BRANCH   9  11
HETATM   11  C   UNL     1     -10.845  11.103  66.476  1.00  0.00    -0.245 A  
HETATM   12  N   UNL     1     -10.062  10.794  65.437  1.00  0.00    -0.270 NA 
HETATM   13  N   UNL     1     -11.008  10.306  67.548  1.00  0.00    -0.301 NA 
HETATM   14  C   UNL     1     -10.260   9.197  67.647  1.00  0.00    -0.236 A  
HETATM   15  C   UNL     1      -9.394   8.827  66.640  1.00  0.00    -0.242 A  
HETATM   16  C   UNL     1      -9.354   9.659  65.543  1.00  0.00    -0.248 A  
BRANCH  14  17
HETATM   17  C   UNL     1     -10.407   8.425  68.888  1.00  0.00    -0.231 A  
HETATM   18  C   UNL     1     -10.342   5.535  71.114  1.00  0.00    -0.300 A  
HETATM   19  C   UNL     1     -10.780   8.994  70.097  1.00  0.00    -0.233 A  
HETATM   20  C   UNL     1     -10.010   4.447  70.303  1.00  0.00    -0.248 A  
HETATM   21  C   UNL     1      -9.815   4.613  68.938  1.00  0.00    -0.211 A  
HETATM   22  N   UNL     1     -10.820   8.014  71.052  1.00  0.00    -0.231 NA 
HETATM   23  C   UNL     1     -10.471   6.801  70.514  1.00  0.00    -0.209 A  
HETATM   24  C   UNL     1     -11.193   8.224  72.434  1.00  0.00    -0.381 C  
HETATM   25  C   UNL     1     -10.247   7.009  69.144  1.00  0.00    -0.193 A  
HETATM   26  C   UNL     1      -9.920   5.884  68.354  1.00  0.00    -0.184 A  
ENDBRANCH  14  17
ENDBRANCH   9  11
ENDBRANCH   4   9
BRANCH   7  27
HETATM   27  N   UNL     1      -8.062  15.464  67.663  1.00  0.00    -0.140 N  
HETATM   28  O   UNL     1      -9.264  15.227  69.635  1.00  0.00    -0.230 OA 
HETATM   29  H   UNL     1      -7.124  15.627  67.298  1.00  0.00     0.000 HD 
HETATM   30  C   UNL     1      -8.246  15.534  69.025  1.00  0.00    -0.227 C  
BRANCH  30  31
HETATM   31  C   UNL     1      -7.009  15.950  69.737  1.00  0.00    -0.072 C  
HETATM   32  C   UNL     1      -6.146  15.026  70.176  1.00  0.00    -0.156 C  
ENDBRANCH  30  31
ENDBRANCH   7  27
BRANCH   5  33
HETATM   33  N   UNL     1      -9.216  17.516  65.954  1.00  0.00    -0.513 NA 
HETATM   34  C   UNL     1     -10.105  18.670  66.044  1.00  0.00    -0.297 C  
BRANCH  33  35
HETATM   35  C   UNL     1      -7.772  17.808  65.998  1.00  0.00    -0.188 C  
BRANCH  35  36
HETATM   36  C   UNL     1      -7.516  19.324  66.168  1.00  0.00    -0.278 C  
BRANCH  36  37
HETATM   37  N   UNL     1      -6.173  19.689  66.668  1.00  0.00    -0.172 NA 
HETATM   38  C   UNL     1      -5.197  19.477  65.591  1.00  0.00    -0.154 C  
HETATM   39  C   UNL     1      -5.793  18.884  67.832  1.00  0.00    -0.198 C  
ENDBRANCH  36  37
ENDBRANCH  35  36
ENDBRANCH  33  35
ENDBRANCH   5  33
ENDBRANCH   2   3
TORSDOF 10
ENDMDL
MODEL      126
REMARK 921   NORMALIZED FREE ENERGY PREDICTED BY IDOCK:   -5.41 KCAL/MOL
REMARK 922        TOTAL FREE ENERGY PREDICTED BY IDOCK:  -10.28 KCAL/MOL
REMARK 923 INTER-LIGAND FREE ENERGY PREDICTED BY IDOCK:   -8.61 KCAL/MOL
REMARK 924 INTRA-LIGAND FREE ENERGY PREDICTED BY IDOCK:   -1.67 KCAL/MOL
REMARK 927      BINDING AFFINITY PREDICTED BY RF-SCORE:    0.00 PKD
ROOT
HETATM    1  C   UNL     1      -5.848   8.482  73.789  1.00  0.00    -0.110 C  
HETATM    2  O   UNL     1      -7.163   8.892  73.431  1.00  0.00    -0.359 OA 
ENDROOT
BRANCH   2   3
HETATM    3  C   UNL     1      -7.694   8.362  72.279  1.00  0.00    -0.105 A  
HETATM    4  C   UNL     1      -7.402   8.741  70.967  1.00  0.00    -0.092 A  
HETATM    5  C   UNL     1      -9.331   6.667  71.473  1.00  0.00    -0.153 A  
HETATM    6  C   UNL     1      -7.948   7.966  69.937  1.00  0.00    -0.109 A  
HETATM    7  C   UNL     1      -8.935   7.001  70.164  1.00  0.00    -0.145 A  
HETATM    8  C   UNL     1      -8.622   7.324  72.507  1.00  0.00    -0.131 A  
BRANCH   4   9
HETATM    9  N   UNL     1      -6.607   9.856  70.647  1.00  0.00    -0.187 NA 
HETATM   10  H   UNL     1      -5.976  10.196  71.373  1.00  0.00     0.000 HD 
BRANCH   9  11
HETATM   11  C   UNL     1      -6.599  10.543  69.430  1.00  0.00    -0.069 A  
HETATM   12  N   UNL     1      -5.457  10.505  68.734  1.00  0.00    -0.041 NA 
HETATM   13  N   UNL     1      -7.714  11.159  68.996  1.00  0.00    -0.133 NA 
HETATM   14  C   UNL     1      -7.731  11.662  67.753  1.00  0.00    -0.126 A  
HETATM   15  C   UNL     1      -6.610  11.626  66.952  1.00  0.00    -0.129 A  
HETATM   16  C   UNL     1      -5.489  11.051  67.509  1.00  0.00    -0.041 A  
BRANCH  14  17
HETATM   17  C   UNL     1      -9.009  12.227  67.301  1.00  0.00    -0.187 A  
HETATM   18  C   UNL     1     -11.920  12.753  65.165  1.00  0.00    -0.466 A  
HETATM   19  C   UNL     1      -9.735  13.151  68.038  1.00  0.00    -0.224 A  
HETATM   20  C   UNL     1     -11.698  11.969  64.030  1.00  0.00    -0.498 A  
HETATM   21  C   UNL     1     -10.529  11.231  63.897  1.00  0.00    -0.452 A  
HETATM   22  N   UNL     1     -10.873  13.471  67.348  1.00  0.00    -0.266 NA 
HETATM   23  C   UNL     1     -10.934  12.773  66.168  1.00  0.00    -0.283 A  
HETATM   24  C   UNL     1     -11.867  14.424  67.792  1.00  0.00    -0.368 C  
HETATM   25  C   UNL     1      -9.758  12.012  66.080  1.00  0.00    -0.256 A  
HETATM   26  C   UNL     1      -9.563  11.237  64.914  1.00  0.00    -0.266 A  
ENDBRANCH  14  17
ENDBRANCH   9  11
ENDBRANCH   4   9
BRANCH   7  27
HETATM   27  N   UNL     1      -9.655   6.536  69.043  1.00  0.00    -0.133 N  
HETATM   28  O   UNL     1     -10.487   8.563  68.275  1.00  0.00    -0.210 OA 
HETATM   29  H   UNL     1      -9.600   5.543  68.818  1.00  0.00     0.000 HD 
HETATM   30  C   UNL     1     -10.426   7.339  68.234  1.00  0.00    -0.199 C  
BRANCH  30  31
HETATM   31  C   UNL     1     -11.147   6.560  67.194  1.00  0.00    -0.434 C  
HETATM   32  C   UNL     1     -10.573   5.482  66.646  1.00  0.00    -0.365 C  
ENDBRANCH  30  31
ENDBRANCH   7  27
BRANCH   5  33
HETATM   33  N   UNL     1     -10.351   5.759  71.759  1.00  0.00    -0.214 NA 
HETATM   34  C   UNL     1     -10.092   4.400  72.222  1.00  0.00    -0.189 C  
BRANCH  33  35
HETATM   35  C   UNL     1     -11.762   6.182  71.756  1.00  0.00    -0.253 C  
BRANCH  35  36
HETATM   36  C   UNL     1     -11.917   7.610  72.330  1.00  0.00    -0.285 C  
BRANCH  36  37
HETATM   37  N   UNL     1     -12.607   8.577  71.450  1.00  0.00    -0.304 NA 
HETATM   38  C   UNL     1     -11.844   9.831  71.439  1.00  0.00    -0.408 C  
HETATM   39  C   UNL     1     -13.974   8.844  71.908  1.00  0.00    -0.419 C  
ENDBRANCH  36  37
ENDBRANCH  35  36
ENDBRANCH  33  35
ENDBRANCH   5  33
ENDBRANCH   2   3
TORSDOF 10
ENDMDL
MODEL      127
REMARK 921   NORMALIZED FREE ENERGY PREDICTED BY IDOCK:   -5.40 KCAL/MOL
REMARK 922        TOTAL FREE ENERGY PREDICTED BY IDOCK:  -10.27 KCAL/MOL
REMARK 923 INTER-LIGAND FREE ENERGY PREDICTED BY IDOCK:   -8.72 KCAL/MOL
REMARK 924 INTRA-LIGAND FREE ENERGY PREDICTED BY IDOCK:   -1.55 KCAL/MOL
REMARK 927      BINDING AFFINITY PREDICTED BY RF-SCORE:    0.00 PKD
ROOT
HETATM    1  C   UNL     1      -6.068  15.038  69.844  1.00  0.00    -0.143 C  
HETATM    2  O   UNL     1      -6.440  13.683  69.613  1.00  0.00    -0.118 OA 
ENDROOT
BRANCH   2   3
HETATM    3  C   UNL     1      -7.455  13.455  68.715  1.00  0.00    -0.061 A  
HETATM    4  C   UNL     1      -7.752  12.252  68.071  1.00  0.00    -0.132 A  
HETATM    5  C   UNL     1      -9.320  14.603  67.531  1.00  0.00    -0.195 A  
HETATM    6  C   UNL     1      -8.924  12.205  67.305  1.00  0.00    -0.184 A  
HETATM    7  C   UNL     1      -9.657  13.352  66.981  1.00  0.00    -0.244 A  
HETATM    8  C   UNL     1      -8.251  14.591  68.458  1.00  0.00    -0.154 A  
BRANCH   4   9
HETATM    9  N   UNL     1      -6.931  11.114  68.150  1.00  0.00    -0.067 NA 
HETATM   10  H   UNL     1      -6.348  10.909  67.339  1.00  0.00     0.000 HD 
BRANCH   9  11
HETATM   11  C   UNL     1      -6.840  10.234  69.233  1.00  0.00    -0.068 A  
HETATM   12  N   UNL     1      -5.628  10.090  69.780  1.00  0.00    -0.037 NA 
HETATM   13  N   UNL     1      -7.943   9.619  69.696  1.00  0.00    -0.120 NA 
HETATM   14  C   UNL     1      -7.859   8.917  70.837  1.00  0.00    -0.133 A  
HETATM   15  C   UNL     1      -6.656   8.756  71.489  1.00  0.00    -0.080 A  
HETATM   16  C   UNL     1      -5.564   9.351  70.897  1.00  0.00    -0.051 A  
BRANCH  14  17
HETATM   17  C   UNL     1      -9.118   8.358  71.347  1.00  0.00    -0.240 A  
HETATM   18  C   UNL     1     -11.431   5.873  72.684  1.00  0.00    -0.319 A  
HETATM   19  C   UNL     1     -10.268   9.113  71.526  1.00  0.00    -0.333 A  
HETATM   20  C   UNL     1     -10.720   4.671  72.699  1.00  0.00    -0.249 A  
HETATM   21  C   UNL     1      -9.415   4.613  72.226  1.00  0.00    -0.182 A  
HETATM   22  N   UNL     1     -11.256   8.303  72.017  1.00  0.00    -0.298 NA 
HETATM   23  C   UNL     1     -10.792   7.022  72.183  1.00  0.00    -0.224 A  
HETATM   24  C   UNL     1     -12.607   8.733  72.307  1.00  0.00    -0.394 C  
HETATM   25  C   UNL     1      -9.463   7.005  71.730  1.00  0.00    -0.157 A  
HETATM   26  C   UNL     1      -8.778   5.769  71.753  1.00  0.00    -0.136 A  
ENDBRANCH  14  17
ENDBRANCH   9  11
ENDBRANCH   4   9
BRANCH   7  27
HETATM   27  N   UNL     1     -10.599  13.243  65.937  1.00  0.00    -0.278 N  
HETATM   28  O   UNL     1     -12.243  12.038  67.049  1.00  0.00    -0.516 OA 
HETATM   29  H   UNL     1     -10.394  13.716  65.057  1.00  0.00     0.000 HD 
HETATM   30  C   UNL     1     -11.778  12.539  66.031  1.00  0.00    -0.417 C  
BRANCH  30  31
HETATM   31  C   UNL     1     -12.521  12.515  64.744  1.00  0.00    -0.532 C  
HETATM   32  C   UNL     1     -11.918  12.082  63.630  1.00  0.00    -0.612 C  
ENDBRANCH  30  31
ENDBRANCH   7  27
BRANCH   5  33
HETATM   33  N   UNL     1      -9.975  15.790  67.198  1.00  0.00    -0.238 NA 
HETATM   34  C   UNL     1     -11.054  16.350  68.004  1.00  0.00    -0.292 C  
BRANCH  33  35
HETATM   35  C   UNL     1      -9.498  16.629  66.084  1.00  0.00    -0.287 C  
BRANCH  35  36
HETATM   36  C   UNL     1      -8.322  17.529  66.528  1.00  0.00    -0.270 C  
BRANCH  36  37
HETATM   37  N   UNL     1      -8.685  18.915  66.894  1.00  0.00    -0.290 NA 
HETATM   38  C   UNL     1      -7.842  19.840  66.127  1.00  0.00    -0.335 C  
HETATM   39  C   UNL     1      -8.498  19.162  68.327  1.00  0.00    -0.332 C  
ENDBRANCH  36  37
ENDBRANCH  35  36
ENDBRANCH  33  35
ENDBRANCH   5  33
ENDBRANCH   2   3
TORSDOF 10
ENDMDL
MODEL      128
REMARK 921   NORMALIZED FREE ENERGY PREDICTED BY IDOCK:   -5.38 KCAL/MOL
REMARK 922        TOTAL FREE ENERGY PREDICTED BY IDOCK:  -10.23 KCAL/MOL
REMARK 923 INTER-LIGAND FREE ENERGY PREDICTED BY IDOCK:   -8.44 KCAL/MOL
REMARK 924 INTRA-LIGAND FREE ENERGY PREDICTED BY IDOCK:   -1.79 KCAL/MOL
REMARK 927      BINDING AFFINITY PREDICTED BY RF-SCORE:    0.00 PKD
ROOT
HETATM    1  C   UNL     1      -8.125   8.208  74.364  1.00  0.00    -0.234 C  
HETATM    2  O   UNL     1      -7.601   8.633  73.110  1.00  0.00    -0.360 OA 
ENDROOT
BRANCH   2   3
HETATM    3  C   UNL     1      -7.759   7.783  72.043  1.00  0.00    -0.089 A  
HETATM    4  C   UNL     1      -8.054   8.135  70.724  1.00  0.00    -0.102 A  
HETATM    5  C   UNL     1      -7.754   5.366  71.443  1.00  0.00    -0.108 A  
HETATM    6  C   UNL     1      -8.026   7.116  69.764  1.00  0.00    -0.123 A  
HETATM    7  C   UNL     1      -7.946   5.761  70.107  1.00  0.00    -0.100 A  
HETATM    8  C   UNL     1      -7.588   6.421  72.372  1.00  0.00    -0.097 A  
BRANCH   4   9
HETATM    9  N   UNL     1      -8.386   9.444  70.333  1.00  0.00    -0.192 NA 
HETATM   10  H   UNL     1      -7.615  10.103  70.226  1.00  0.00     0.000 HD 
BRANCH   9  11
HETATM   11  C   UNL     1      -9.672   9.930  70.077  1.00  0.00    -0.227 A  
HETATM   12  N   UNL     1     -10.670   9.352  70.755  1.00  0.00    -0.279 NA 
HETATM   13  N   UNL     1      -9.848  10.953  69.222  1.00  0.00    -0.146 NA 
HETATM   14  C   UNL     1     -11.065  11.511  69.125  1.00  0.00    -0.259 A  
HETATM   15  C   UNL     1     -12.140  11.004  69.822  1.00  0.00    -0.424 A  
HETATM   16  C   UNL     1     -11.884   9.903  70.609  1.00  0.00    -0.303 A  
BRANCH  14  17
HETATM   17  C   UNL     1     -11.169  12.689  68.254  1.00  0.00    -0.312 A  
HETATM   18  C   UNL     1     -11.808  14.626  65.230  1.00  0.00    -0.324 A  
HETATM   19  C   UNL     1     -10.934  13.983  68.695  1.00  0.00    -0.263 A  
HETATM   20  C   UNL     1     -12.108  13.687  64.240  1.00  0.00    -0.480 A  
HETATM   21  C   UNL     1     -12.083  12.328  64.523  1.00  0.00    -0.462 A  
HETATM   22  N   UNL     1     -11.119  14.846  67.650  1.00  0.00    -0.301 NA 
HETATM   23  C   UNL     1     -11.486  14.162  66.517  1.00  0.00    -0.358 A  
HETATM   24  C   UNL     1     -10.939  16.280  67.722  1.00  0.00    -0.281 C  
HETATM   25  C   UNL     1     -11.485  12.797  66.845  1.00  0.00    -0.396 A  
HETATM   26  C   UNL     1     -11.785  11.875  65.817  1.00  0.00    -0.210 A  
ENDBRANCH  14  17
ENDBRANCH   9  11
ENDBRANCH   4   9
BRANCH   7  27
HETATM   27  N   UNL     1      -8.273   4.821  69.107  1.00  0.00    -0.081 N  
HETATM   28  O   UNL     1     -10.533   5.302  68.876  1.00  0.00    -0.193 OA 
HETATM   29  H   UNL     1      -7.519   4.256  68.717  1.00  0.00     0.000 HD 
HETATM   30  C   UNL     1      -9.547   4.620  68.624  1.00  0.00    -0.162 C  
BRANCH  30  31
HETATM   31  C   UNL     1      -9.606   3.497  67.652  1.00  0.00    -0.180 C  
HETATM   32  C   UNL     1      -9.513   3.742  66.339  1.00  0.00    -0.197 C  
ENDBRANCH  30  31
ENDBRANCH   7  27
BRANCH   5  33
HETATM   33  N   UNL     1      -7.729   4.032  71.854  1.00  0.00    -0.065 NA 
HETATM   34  C   UNL     1      -6.672   3.104  71.462  1.00  0.00    -0.026 C  
BRANCH  33  35
HETATM   35  C   UNL     1      -8.698   3.527  72.842  1.00  0.00    -0.089 C  
BRANCH  35  36
HETATM   36  C   UNL     1     -10.151   3.764  72.368  1.00  0.00    -0.167 C  
BRANCH  36  37
HETATM   37  N   UNL     1     -10.965   4.646  73.233  1.00  0.00    -0.276 NA 
HETATM   38  C   UNL     1     -11.298   5.862  72.481  1.00  0.00    -0.304 C  
HETATM   39  C   UNL     1     -10.248   5.013  74.457  1.00  0.00    -0.274 C  
ENDBRANCH  36  37
ENDBRANCH  35  36
ENDBRANCH  33  35
ENDBRANCH   5  33
ENDBRANCH   2   3
TORSDOF 10
ENDMDL
MODEL      129
REMARK 921   NORMALIZED FREE ENERGY PREDICTED BY IDOCK:   -5.37 KCAL/MOL
REMARK 922        TOTAL FREE ENERGY PREDICTED BY IDOCK:  -10.23 KCAL/MOL
REMARK 923 INTER-LIGAND FREE ENERGY PREDICTED BY IDOCK:   -8.50 KCAL/MOL
REMARK 924 INTRA-LIGAND FREE ENERGY PREDICTED BY IDOCK:   -1.73 KCAL/MOL
REMARK 927      BINDING AFFINITY PREDICTED BY RF-SCORE:    0.00 PKD
ROOT
HETATM    1  C   UNL     1      -8.433  13.955  68.231  1.00  0.00    -0.169 C  
HETATM    2  O   UNL     1      -9.732  13.426  68.476  1.00  0.00    -0.218 OA 
ENDROOT
BRANCH   2   3
HETATM    3  C   UNL     1      -9.972  12.137  68.067  1.00  0.00    -0.203 A  
HETATM    4  C   UNL     1     -10.722  11.168  68.737  1.00  0.00    -0.199 A  
HETATM    5  C   UNL     1      -9.450  10.531  66.237  1.00  0.00    -0.177 A  
HETATM    6  C   UNL     1     -10.962   9.962  68.067  1.00  0.00    -0.269 A  
HETATM    7  C   UNL     1     -10.298   9.614  66.885  1.00  0.00    -0.238 A  
HETATM    8  C   UNL     1      -9.378  11.815  66.828  1.00  0.00    -0.199 A  
BRANCH   4   9
HETATM    9  N   UNL     1     -11.225  11.349  70.037  1.00  0.00    -0.482 NA 
HETATM   10  H   UNL     1     -11.219  12.299  70.407  1.00  0.00     0.000 HD 
BRANCH   9  11
HETATM   11  C   UNL     1     -11.733  10.349  70.873  1.00  0.00    -0.360 A  
HETATM   12  N   UNL     1     -13.064  10.218  70.902  1.00  0.00    -0.388 NA 
HETATM   13  N   UNL     1     -10.892   9.555  71.561  1.00  0.00    -0.330 NA 
HETATM   14  C   UNL     1     -11.395   8.498  72.218  1.00  0.00    -0.371 A  
HETATM   15  C   UNL     1     -12.753   8.265  72.262  1.00  0.00    -0.338 A  
HETATM   16  C   UNL     1     -13.543   9.177  71.599  1.00  0.00    -0.390 A  
BRANCH  14  17
HETATM   17  C   UNL     1     -10.417   7.611  72.861  1.00  0.00    -0.394 A  
HETATM   18  C   UNL     1      -8.993   4.521  74.179  1.00  0.00    -0.108 A  
HETATM   19  C   UNL     1      -9.168   8.037  73.286  1.00  0.00    -0.278 A  
HETATM   20  C   UNL     1      -9.995   3.558  74.037  1.00  0.00    -0.173 A  
HETATM   21  C   UNL     1     -11.235   3.897  73.513  1.00  0.00    -0.312 A  
HETATM   22  N   UNL     1      -8.501   6.974  73.833  1.00  0.00    -0.136 NA 
HETATM   23  C   UNL     1      -9.271   5.839  73.774  1.00  0.00    -0.126 A  
HETATM   24  C   UNL     1      -7.175   7.039  74.408  1.00  0.00    -0.100 C  
HETATM   25  C   UNL     1     -10.502   6.207  73.209  1.00  0.00    -0.261 A  
HETATM   26  C   UNL     1     -11.495   5.208  73.089  1.00  0.00    -0.348 A  
ENDBRANCH  14  17
ENDBRANCH   9  11
ENDBRANCH   4   9
BRANCH   7  27
HETATM   27  N   UNL     1     -10.347   8.260  66.491  1.00  0.00    -0.423 N  
HETATM   28  O   UNL     1      -8.839   7.378  68.021  1.00  0.00    -0.127 OA 
HETATM   29  H   UNL     1     -11.002   8.000  65.754  1.00  0.00     0.000 HD 
HETATM   30  C   UNL     1      -9.566   7.268  67.041  1.00  0.00    -0.166 C  
BRANCH  30  31
HETATM   31  C   UNL     1      -9.759   5.961  66.359  1.00  0.00    -0.168 C  
HETATM   32  C   UNL     1      -9.571   4.820  67.033  1.00  0.00    -0.187 C  
ENDBRANCH  30  31
ENDBRANCH   7  27
BRANCH   5  33
HETATM   33  N   UNL     1      -8.715  10.220  65.092  1.00  0.00    -0.166 NA 
HETATM   34  C   UNL     1      -9.323  10.102  63.770  1.00  0.00    -0.288 C  
BRANCH  33  35
HETATM   35  C   UNL     1      -7.244  10.147  65.134  1.00  0.00    -0.141 C  
BRANCH  35  36
HETATM   36  C   UNL     1      -6.769   8.742  65.576  1.00  0.00    -0.071 C  
BRANCH  36  37
HETATM   37  N   UNL     1      -6.212   7.894  64.501  1.00  0.00    -0.052 NA 
HETATM   38  C   UNL     1      -5.735   8.761  63.417  1.00  0.00    -0.076 C  
HETATM   39  C   UNL     1      -7.214   6.963  63.973  1.00  0.00    -0.069 C  
ENDBRANCH  36  37
ENDBRANCH  35  36
ENDBRANCH  33  35
ENDBRANCH   5  33
ENDBRANCH   2   3
TORSDOF 10
ENDMDL
MODEL      130
REMARK 921   NORMALIZED FREE ENERGY PREDICTED BY IDOCK:   -5.37 KCAL/MOL
REMARK 922        TOTAL FREE ENERGY PREDICTED BY IDOCK:  -10.22 KCAL/MOL
REMARK 923 INTER-LIGAND FREE ENERGY PREDICTED BY IDOCK:   -8.93 KCAL/MOL
REMARK 924 INTRA-LIGAND FREE ENERGY PREDICTED BY IDOCK:   -1.29 KCAL/MOL
REMARK 927      BINDING AFFINITY PREDICTED BY RF-SCORE:    0.00 PKD
ROOT
HETATM    1  C   UNL     1     -11.899  13.361  69.509  1.00  0.00    -0.332 C  
HETATM    2  O   UNL     1     -12.158  12.776  68.237  1.00  0.00    -0.282 OA 
ENDROOT
BRANCH   2   3
HETATM    3  C   UNL     1     -11.393  11.692  67.878  1.00  0.00    -0.299 A  
HETATM    4  C   UNL     1     -11.022  11.317  66.585  1.00  0.00    -0.268 A  
HETATM    5  C   UNL     1     -10.205   9.725  68.837  1.00  0.00    -0.200 A  
HETATM    6  C   UNL     1     -10.115  10.258  66.457  1.00  0.00    -0.290 A  
HETATM    7  C   UNL     1      -9.761   9.437  67.533  1.00  0.00    -0.157 A  
HETATM    8  C   UNL     1     -10.960  10.915  68.973  1.00  0.00    -0.285 A  
BRANCH   4   9
HETATM    9  N   UNL     1     -11.525  11.940  65.429  1.00  0.00    -0.293 NA 
HETATM   10  H   UNL     1     -11.993  11.342  64.749  1.00  0.00     0.000 HD 
BRANCH   9  11
HETATM   11  C   UNL     1     -11.443  13.302  65.122  1.00  0.00    -0.295 A  
HETATM   12  N   UNL     1     -12.408  13.793  64.337  1.00  0.00    -0.605 NA 
HETATM   13  N   UNL     1     -10.456  14.053  65.645  1.00  0.00    -0.305 NA 
HETATM   14  C   UNL     1     -10.498  15.383  65.476  1.00  0.00    -0.380 A  
HETATM   15  C   UNL     1     -11.484  15.975  64.716  1.00  0.00    -0.201 A  
HETATM   16  C   UNL     1     -12.404  15.121  64.150  1.00  0.00    -0.094 A  
BRANCH  14  17
HETATM   17  C   UNL     1      -9.452  16.155  66.159  1.00  0.00    -0.362 A  
HETATM   18  C   UNL     1      -7.919  18.924  67.974  1.00  0.00    -0.315 A  
HETATM   19  C   UNL     1      -8.164  15.682  66.356  1.00  0.00    -0.098 A  
HETATM   20  C   UNL     1      -8.907  19.908  68.060  1.00  0.00    -0.335 A  
HETATM   21  C   UNL     1     -10.154  19.712  67.480  1.00  0.00    -0.538 A  
HETATM   22  N   UNL     1      -7.441  16.633  67.024  1.00  0.00    -0.181 NA 
HETATM   23  C   UNL     1      -8.219  17.732  67.290  1.00  0.00    -0.215 A  
HETATM   24  C   UNL     1      -6.046  16.507  67.385  1.00  0.00    -0.161 C  
HETATM   25  C   UNL     1      -9.480  17.489  66.723  1.00  0.00    -0.282 A  
HETATM   26  C   UNL     1     -10.453  18.510  66.822  1.00  0.00    -0.432 A  
ENDBRANCH  14  17
ENDBRANCH   9  11
ENDBRANCH   4   9
BRANCH   7  27
HETATM   27  N   UNL     1      -9.130   8.212  67.231  1.00  0.00    -0.136 N  
HETATM   28  O   UNL     1     -11.013   6.928  66.789  1.00  0.00    -0.329 OA 
HETATM   29  H   UNL     1      -8.111   8.190  67.218  1.00  0.00     0.000 HD 
HETATM   30  C   UNL     1      -9.805   7.044  66.954  1.00  0.00    -0.199 C  
BRANCH  30  31
HETATM   31  C   UNL     1      -8.881   5.893  66.774  1.00  0.00    -0.118 C  
HETATM   32  C   UNL     1      -7.565   6.102  66.654  1.00  0.00    -0.095 C  
ENDBRANCH  30  31
ENDBRANCH   7  27
BRANCH   5  33
HETATM   33  N   UNL     1      -9.937   8.911  69.938  1.00  0.00    -0.183 NA 
HETATM   34  C   UNL     1     -10.811   7.815  70.342  1.00  0.00    -0.244 C  
BRANCH  33  35
HETATM   35  C   UNL     1      -8.660   9.020  70.666  1.00  0.00    -0.210 C  
BRANCH  35  36
HETATM   36  C   UNL     1      -7.582   8.103  70.041  1.00  0.00    -0.077 C  
BRANCH  36  37
HETATM   37  N   UNL     1      -6.194   8.604  70.129  1.00  0.00    -0.033 NA 
HETATM   38  C   UNL     1      -6.059   9.402  71.354  1.00  0.00    -0.060 C  
HETATM   39  C   UNL     1      -5.844   9.430  68.970  1.00  0.00    -0.039 C  
ENDBRANCH  36  37
ENDBRANCH  35  36
ENDBRANCH  33  35
ENDBRANCH   5  33
ENDBRANCH   2   3
TORSDOF 10
ENDMDL
MODEL      131
REMARK 921   NORMALIZED FREE ENERGY PREDICTED BY IDOCK:   -5.36 KCAL/MOL
REMARK 922        TOTAL FREE ENERGY PREDICTED BY IDOCK:  -10.21 KCAL/MOL
REMARK 923 INTER-LIGAND FREE ENERGY PREDICTED BY IDOCK:   -9.49 KCAL/MOL
REMARK 924 INTRA-LIGAND FREE ENERGY PREDICTED BY IDOCK:   -0.72 KCAL/MOL
REMARK 927      BINDING AFFINITY PREDICTED BY RF-SCORE:    0.00 PKD
ROOT
HETATM    1  C   UNL     1     -11.809  12.391  68.526  1.00  0.00    -0.304 C  
HETATM    2  O   UNL     1     -11.752  11.613  67.335  1.00  0.00    -0.556 OA 
ENDROOT
BRANCH   2   3
HETATM    3  C   UNL     1     -10.981  10.476  67.364  1.00  0.00    -0.288 A  
HETATM    4  C   UNL     1     -10.115  10.022  66.368  1.00  0.00    -0.241 A  
HETATM    5  C   UNL     1     -10.458   8.498  68.784  1.00  0.00    -0.184 A  
HETATM    6  C   UNL     1      -9.314   8.912  66.668  1.00  0.00    -0.237 A  
HETATM    7  C   UNL     1      -9.516   8.125  67.807  1.00  0.00    -0.142 A  
HETATM    8  C   UNL     1     -11.117   9.729  68.555  1.00  0.00    -0.138 A  
BRANCH   4   9
HETATM    9  N   UNL     1     -10.026  10.615  65.096  1.00  0.00    -0.281 NA 
HETATM   10  H   UNL     1      -9.453  10.135  64.403  1.00  0.00     0.000 HD 
BRANCH   9  11
HETATM   11  C   UNL     1     -10.648  11.800  64.692  1.00  0.00    -0.308 A  
HETATM   12  N   UNL     1     -11.673  11.673  63.842  1.00  0.00    -0.336 NA 
HETATM   13  N   UNL     1     -10.236  12.981  65.189  1.00  0.00    -0.290 NA 
HETATM   14  C   UNL     1     -10.955  14.081  64.920  1.00  0.00    -0.392 A  
HETATM   15  C   UNL     1     -12.053  14.030  64.087  1.00  0.00    -0.456 A  
HETATM   16  C   UNL     1     -12.351  12.795  63.557  1.00  0.00    -0.467 A  
BRANCH  14  17
HETATM   17  C   UNL     1     -10.515  15.319  65.576  1.00  0.00    -0.396 A  
HETATM   18  C   UNL     1      -8.723  17.462  67.923  1.00  0.00    -0.237 A  
HETATM   19  C   UNL     1     -10.911  16.581  65.161  1.00  0.00    -0.233 A  
HETATM   20  C   UNL     1      -8.050  16.592  68.784  1.00  0.00    -0.247 A  
HETATM   21  C   UNL     1      -8.182  15.217  68.647  1.00  0.00    -0.154 A  
HETATM   22  N   UNL     1     -10.325  17.516  65.970  1.00  0.00    -0.489 NA 
HETATM   23  C   UNL     1      -9.533  16.910  66.914  1.00  0.00    -0.251 A  
HETATM   24  C   UNL     1     -10.523  18.945  65.859  1.00  0.00    -0.391 C  
HETATM   25  C   UNL     1      -9.661  15.525  66.728  1.00  0.00    -0.252 A  
HETATM   26  C   UNL     1      -8.972  14.675  67.623  1.00  0.00    -0.187 A  
ENDBRANCH  14  17
ENDBRANCH   9  11
ENDBRANCH   4   9
BRANCH   7  27
HETATM   27  N   UNL     1      -8.900   6.856  67.834  1.00  0.00    -0.124 N  
HETATM   28  O   UNL     1     -10.495   5.649  66.655  1.00  0.00    -0.238 OA 
HETATM   29  H   UNL     1      -7.976   6.782  68.259  1.00  0.00     0.000 HD 
HETATM   30  C   UNL     1      -9.468   5.712  67.320  1.00  0.00    -0.115 C  
BRANCH  30  31
HETATM   31  C   UNL     1      -8.636   4.508  67.580  1.00  0.00    -0.106 C  
HETATM   32  C   UNL     1      -9.165   3.286  67.448  1.00  0.00    -0.233 C  
ENDBRANCH  30  31
ENDBRANCH   7  27
BRANCH   5  33
HETATM   33  N   UNL     1     -10.747   7.723  69.908  1.00  0.00    -0.246 NA 
HETATM   34  C   UNL     1     -11.691   6.610  69.880  1.00  0.00    -0.270 C  
BRANCH  33  35
HETATM   35  C   UNL     1      -9.987   7.893  71.159  1.00  0.00    -0.173 C  
BRANCH  35  36
HETATM   36  C   UNL     1     -10.040   6.610  72.022  1.00  0.00    -0.183 C  
BRANCH  36  37
HETATM   37  N   UNL     1      -8.764   5.875  72.146  1.00  0.00    -0.136 NA 
HETATM   38  C   UNL     1      -8.935   4.800  73.132  1.00  0.00    -0.114 C  
HETATM   39  C   UNL     1      -7.673   6.756  72.573  1.00  0.00    -0.096 C  
ENDBRANCH  36  37
ENDBRANCH  35  36
ENDBRANCH  33  35
ENDBRANCH   5  33
ENDBRANCH   2   3
TORSDOF 10
ENDMDL
MODEL      132
REMARK 921   NORMALIZED FREE ENERGY PREDICTED BY IDOCK:   -5.36 KCAL/MOL
REMARK 922        TOTAL FREE ENERGY PREDICTED BY IDOCK:  -10.21 KCAL/MOL
REMARK 923 INTER-LIGAND FREE ENERGY PREDICTED BY IDOCK:   -9.18 KCAL/MOL
REMARK 924 INTRA-LIGAND FREE ENERGY PREDICTED BY IDOCK:   -1.02 KCAL/MOL
REMARK 927      BINDING AFFINITY PREDICTED BY RF-SCORE:    0.00 PKD
ROOT
HETATM    1  C   UNL     1      -7.608  10.166  65.854  1.00  0.00    -0.128 C  
HETATM    2  O   UNL     1      -8.987  10.121  66.206  1.00  0.00    -0.145 OA 
ENDROOT
BRANCH   2   3
HETATM    3  C   UNL     1      -9.469  11.146  66.984  1.00  0.00    -0.177 A  
HETATM    4  C   UNL     1      -9.413  11.244  68.375  1.00  0.00    -0.192 A  
HETATM    5  C   UNL     1     -10.679  13.318  66.836  1.00  0.00    -0.271 A  
HETATM    6  C   UNL     1      -9.835  12.447  68.954  1.00  0.00     0.105 A  
HETATM    7  C   UNL     1     -10.511  13.434  68.229  1.00  0.00    -0.250 A  
HETATM    8  C   UNL     1     -10.070  12.187  66.243  1.00  0.00    -0.247 A  
BRANCH   4   9
HETATM    9  N   UNL     1      -8.970  10.196  69.203  1.00  0.00    -0.165 NA 
HETATM   10  H   UNL     1      -8.016  10.261  69.556  1.00  0.00     0.000 HD 
BRANCH   9  11
HETATM   11  C   UNL     1      -9.712   9.075  69.585  1.00  0.00    -0.172 A  
HETATM   12  N   UNL     1     -10.702   9.289  70.459  1.00  0.00    -0.237 NA 
HETATM   13  N   UNL     1      -9.441   7.872  69.048  1.00  0.00    -0.151 NA 
HETATM   14  C   UNL     1     -10.273   6.850  69.300  1.00  0.00    -0.186 A  
HETATM   15  C   UNL     1     -11.344   6.996  70.155  1.00  0.00    -0.321 A  
HETATM   16  C   UNL     1     -11.496   8.240  70.725  1.00  0.00    -0.252 A  
BRANCH  14  17
HETATM   17  C   UNL     1      -9.982   5.591  68.602  1.00  0.00    -0.222 A  
HETATM   18  C   UNL     1      -9.289   2.036  68.164  1.00  0.00    -0.248 A  
HETATM   19  C   UNL     1      -9.908   5.488  67.220  1.00  0.00    -0.150 A  
HETATM   20  C   UNL     1      -9.190   1.513  69.456  1.00  0.00    -0.164 A  
HETATM   21  C   UNL     1      -9.321   2.337  70.566  1.00  0.00    -0.198 A  
HETATM   22  N   UNL     1      -9.630   4.189  66.889  1.00  0.00    -0.198 NA 
HETATM   23  C   UNL     1      -9.528   3.414  68.017  1.00  0.00    -0.156 A  
HETATM   24  C   UNL     1      -9.453   3.702  65.538  1.00  0.00    -0.158 C  
HETATM   25  C   UNL     1      -9.699   4.268  69.118  1.00  0.00    -0.226 A  
HETATM   26  C   UNL     1      -9.585   3.705  70.410  1.00  0.00    -0.254 A  
ENDBRANCH  14  17
ENDBRANCH   9  11
ENDBRANCH   4   9
BRANCH   7  27
HETATM   27  N   UNL     1     -11.189  14.428  68.966  1.00  0.00    -0.251 N  
HETATM   28  O   UNL     1     -12.416  13.059  70.384  1.00  0.00    -0.280 OA 
HETATM   29  H   UNL     1     -10.965  15.403  68.772  1.00  0.00     0.000 HD 
HETATM   30  C   UNL     1     -12.134  14.162  69.931  1.00  0.00    -0.347 C  
BRANCH  30  31
HETATM   31  C   UNL     1     -12.753  15.403  70.466  1.00  0.00    -0.455 C  
HETATM   32  C   UNL     1     -12.670  15.684  71.772  1.00  0.00    -0.519 C  
ENDBRANCH  30  31
ENDBRANCH   7  27
BRANCH   5  33
HETATM   33  N   UNL     1     -11.396  14.238  66.070  1.00  0.00    -0.328 NA 
HETATM   34  C   UNL     1     -12.655  13.906  65.410  1.00  0.00    -0.507 C  
BRANCH  33  35
HETATM   35  C   UNL     1     -10.991  15.654  66.014  1.00  0.00    -0.213 C  
BRANCH  35  36
HETATM   36  C   UNL     1      -9.452  15.791  65.954  1.00  0.00    -0.342 C  
BRANCH  36  37
HETATM   37  N   UNL     1      -8.943  17.170  65.795  1.00  0.00    -0.501 NA 
HETATM   38  C   UNL     1      -7.583  17.235  66.344  1.00  0.00    -0.314 C  
HETATM   39  C   UNL     1      -9.794  18.143  66.487  1.00  0.00    -0.362 C  
ENDBRANCH  36  37
ENDBRANCH  35  36
ENDBRANCH  33  35
ENDBRANCH   5  33
ENDBRANCH   2   3
TORSDOF 10
ENDMDL
MODEL      133
REMARK 921   NORMALIZED FREE ENERGY PREDICTED BY IDOCK:   -5.35 KCAL/MOL
REMARK 922        TOTAL FREE ENERGY PREDICTED BY IDOCK:  -10.19 KCAL/MOL
REMARK 923 INTER-LIGAND FREE ENERGY PREDICTED BY IDOCK:   -8.60 KCAL/MOL
REMARK 924 INTRA-LIGAND FREE ENERGY PREDICTED BY IDOCK:   -1.59 KCAL/MOL
REMARK 927      BINDING AFFINITY PREDICTED BY RF-SCORE:    0.00 PKD
ROOT
HETATM    1  C   UNL     1      -6.565  11.150  66.310  1.00  0.00    -0.069 C  
HETATM    2  O   UNL     1      -7.767  10.788  65.638  1.00  0.00    -0.138 OA 
ENDROOT
BRANCH   2   3
HETATM    3  C   UNL     1      -8.655   9.994  66.324  1.00  0.00    -0.129 A  
HETATM    4  C   UNL     1      -9.992  10.279  66.606  1.00  0.00    -0.216 A  
HETATM    5  C   UNL     1      -8.816   7.821  67.529  1.00  0.00    -0.124 A  
HETATM    6  C   UNL     1     -10.757   9.262  67.191  1.00  0.00    -0.222 A  
HETATM    7  C   UNL     1     -10.186   8.091  67.703  1.00  0.00    -0.228 A  
HETATM    8  C   UNL     1      -8.102   8.771  66.761  1.00  0.00    -0.104 A  
BRANCH   4   9
HETATM    9  N   UNL     1     -10.586  11.526  66.342  1.00  0.00    -0.250 NA 
HETATM   10  H   UNL     1     -10.816  11.731  65.370  1.00  0.00     0.000 HD 
BRANCH   9  11
HETATM   11  C   UNL     1     -10.890  12.512  67.285  1.00  0.00    -0.245 A  
HETATM   12  N   UNL     1     -11.912  12.251  68.108  1.00  0.00    -0.423 NA 
HETATM   13  N   UNL     1     -10.145  13.630  67.357  1.00  0.00    -0.239 NA 
HETATM   14  C   UNL     1     -10.349  14.477  68.376  1.00  0.00    -0.241 A  
HETATM   15  C   UNL     1     -11.353  14.260  69.296  1.00  0.00    -0.322 A  
HETATM   16  C   UNL     1     -12.121  13.135  69.096  1.00  0.00    -0.214 A  
BRANCH  14  17
HETATM   17  C   UNL     1      -9.434  15.623  68.458  1.00  0.00    -0.200 A  
HETATM   18  C   UNL     1      -8.301  19.084  68.222  1.00  0.00    -0.369 A  
HETATM   19  C   UNL     1      -8.130  15.524  68.922  1.00  0.00    -0.194 A  
HETATM   20  C   UNL     1      -9.374  19.791  67.674  1.00  0.00    -0.445 A  
HETATM   21  C   UNL     1     -10.546  19.137  67.318  1.00  0.00    -0.573 A  
HETATM   22  N   UNL     1      -7.550  16.763  68.879  1.00  0.00    -0.234 NA 
HETATM   23  C   UNL     1      -8.440  17.696  68.406  1.00  0.00    -0.287 A  
HETATM   24  C   UNL     1      -6.185  17.048  69.262  1.00  0.00    -0.222 C  
HETATM   25  C   UNL     1      -9.623  17.011  68.088  1.00  0.00    -0.266 A  
HETATM   26  C   UNL     1     -10.684  17.758  67.529  1.00  0.00    -0.315 A  
ENDBRANCH  14  17
ENDBRANCH   9  11
ENDBRANCH   4   9
BRANCH   7  27
HETATM   27  N   UNL     1     -10.980   7.310  68.568  1.00  0.00    -0.441 N  
HETATM   28  O   UNL     1     -10.634   8.482  70.543  1.00  0.00    -0.203 OA 
HETATM   29  H   UNL     1     -11.511   6.538  68.164  1.00  0.00     0.000 HD 
HETATM   30  C   UNL     1     -11.084   7.524  69.924  1.00  0.00    -0.171 C  
BRANCH  30  31
HETATM   31  C   UNL     1     -11.909   6.485  70.594  1.00  0.00    -0.398 C  
HETATM   32  C   UNL     1     -12.442   6.725  71.798  1.00  0.00    -0.394 C  
ENDBRANCH  30  31
ENDBRANCH   7  27
BRANCH   5  33
HETATM   33  N   UNL     1      -8.179   6.703  68.069  1.00  0.00    -0.116 NA 
HETATM   34  C   UNL     1      -8.440   5.344  67.605  1.00  0.00    -0.105 C  
BRANCH  33  35
HETATM   35  C   UNL     1      -7.083   6.854  69.042  1.00  0.00    -0.088 C  
BRANCH  35  36
HETATM   36  C   UNL     1      -7.182   5.791  70.161  1.00  0.00    -0.072 C  
BRANCH  36  37
HETATM   37  N   UNL     1      -8.238   6.026  71.169  1.00  0.00    -0.121 NA 
HETATM   38  C   UNL     1      -7.664   6.793  72.281  1.00  0.00    -0.094 C  
HETATM   39  C   UNL     1      -8.787   4.767  71.679  1.00  0.00    -0.126 C  
ENDBRANCH  36  37
ENDBRANCH  35  36
ENDBRANCH  33  35
ENDBRANCH   5  33
ENDBRANCH   2   3
TORSDOF 10
ENDMDL
MODEL      134
REMARK 921   NORMALIZED FREE ENERGY PREDICTED BY IDOCK:   -5.34 KCAL/MOL
REMARK 922        TOTAL FREE ENERGY PREDICTED BY IDOCK:  -10.18 KCAL/MOL
REMARK 923 INTER-LIGAND FREE ENERGY PREDICTED BY IDOCK:   -9.10 KCAL/MOL
REMARK 924 INTRA-LIGAND FREE ENERGY PREDICTED BY IDOCK:   -1.08 KCAL/MOL
REMARK 927      BINDING AFFINITY PREDICTED BY RF-SCORE:    0.00 PKD
ROOT
HETATM    1  C   UNL     1      -7.387  10.344  66.674  1.00  0.00    -0.114 C  
HETATM    2  O   UNL     1      -8.520  11.003  66.117  1.00  0.00    -0.165 OA 
ENDROOT
BRANCH   2   3
HETATM    3  C   UNL     1      -9.279  11.772  66.965  1.00  0.00    -0.187 A  
HETATM    4  C   UNL     1     -10.449  11.391  67.625  1.00  0.00    -0.194 A  
HETATM    5  C   UNL     1      -9.416  14.057  67.947  1.00  0.00    -0.210 A  
HETATM    6  C   UNL     1     -10.982  12.287  68.560  1.00  0.00    -0.275 A  
HETATM    7  C   UNL     1     -10.531  13.607  68.679  1.00  0.00    -0.234 A  
HETATM    8  C   UNL     1      -8.772  13.076  67.156  1.00  0.00    -0.204 A  
BRANCH   4   9
HETATM    9  N   UNL     1     -11.106  10.172  67.383  1.00  0.00    -0.320 NA 
HETATM   10  H   UNL     1     -11.998  10.219  66.891  1.00  0.00     0.000 HD 
BRANCH   9  11
HETATM   11  C   UNL     1     -10.655   8.902  67.755  1.00  0.00    -0.202 A  
HETATM   12  N   UNL     1     -10.517   8.009  66.768  1.00  0.00    -0.313 NA 
HETATM   13  N   UNL     1     -10.346   8.645  69.038  1.00  0.00    -0.212 NA 
HETATM   14  C   UNL     1      -9.755   7.478  69.339  1.00  0.00    -0.164 A  
HETATM   15  C   UNL     1      -9.536   6.519  68.374  1.00  0.00    -0.120 A  
HETATM   16  C   UNL     1      -9.961   6.835  67.102  1.00  0.00    -0.167 A  
BRANCH  14  17
HETATM   17  C   UNL     1      -9.347   7.301  70.739  1.00  0.00    -0.160 A  
HETATM   18  C   UNL     1      -9.393   5.998  74.147  1.00  0.00    -0.143 A  
HETATM   19  C   UNL     1      -8.249   7.938  71.297  1.00  0.00    -0.101 A  
HETATM   20  C   UNL     1     -10.517   5.173  74.216  1.00  0.00    -0.315 A  
HETATM   21  C   UNL     1     -11.357   5.025  73.120  1.00  0.00    -0.397 A  
HETATM   22  N   UNL     1      -8.138   7.559  72.607  1.00  0.00    -0.106 NA 
HETATM   23  C   UNL     1      -9.131   6.671  72.940  1.00  0.00    -0.128 A  
HETATM   24  C   UNL     1      -7.124   8.038  73.522  1.00  0.00    -0.125 C  
HETATM   25  C   UNL     1      -9.940   6.518  71.803  1.00  0.00    -0.192 A  
HETATM   26  C   UNL     1     -11.074   5.681  71.913  1.00  0.00    -0.278 A  
ENDBRANCH  14  17
ENDBRANCH   9  11
ENDBRANCH   4   9
BRANCH   7  27
HETATM   27  N   UNL     1     -11.351  14.509  69.387  1.00  0.00    -0.266 N  
HETATM   28  O   UNL     1     -12.243  13.043  70.952  1.00  0.00    -0.354 OA 
HETATM   29  H   UNL     1     -11.321  15.493  69.121  1.00  0.00     0.000 HD 
HETATM   30  C   UNL     1     -12.190  14.144  70.416  1.00  0.00    -0.356 C  
BRANCH  30  31
HETATM   31  C   UNL     1     -13.007  15.286  70.905  1.00  0.00    -0.522 C  
HETATM   32  C   UNL     1     -13.712  15.170  72.037  1.00  0.00    -0.576 C  
ENDBRANCH  30  31
ENDBRANCH   7  27
BRANCH   5  33
HETATM   33  N   UNL     1      -8.958  15.375  67.977  1.00  0.00    -0.170 NA 
HETATM   34  C   UNL     1      -8.260  15.943  69.126  1.00  0.00    -0.240 C  
BRANCH  33  35
HETATM   35  C   UNL     1      -9.022  16.225  66.775  1.00  0.00    -0.231 C  
BRANCH  35  36
HETATM   36  C   UNL     1     -10.153  17.273  66.893  1.00  0.00    -0.304 C  
BRANCH  36  37
HETATM   37  N   UNL     1      -9.725  18.624  67.315  1.00  0.00    -0.296 NA 
HETATM   38  C   UNL     1     -10.863  19.541  67.176  1.00  0.00    -0.437 C  
HETATM   39  C   UNL     1      -8.606  19.113  66.505  1.00  0.00    -0.322 C  
ENDBRANCH  36  37
ENDBRANCH  35  36
ENDBRANCH  33  35
ENDBRANCH   5  33
ENDBRANCH   2   3
TORSDOF 10
ENDMDL
MODEL      135
REMARK 921   NORMALIZED FREE ENERGY PREDICTED BY IDOCK:   -5.32 KCAL/MOL
REMARK 922        TOTAL FREE ENERGY PREDICTED BY IDOCK:  -10.14 KCAL/MOL
REMARK 923 INTER-LIGAND FREE ENERGY PREDICTED BY IDOCK:   -8.20 KCAL/MOL
REMARK 924 INTRA-LIGAND FREE ENERGY PREDICTED BY IDOCK:   -1.94 KCAL/MOL
REMARK 927      BINDING AFFINITY PREDICTED BY RF-SCORE:    0.00 PKD
ROOT
HETATM    1  C   UNL     1      -9.248  10.454  62.658  1.00  0.00    -0.303 C  
HETATM    2  O   UNL     1      -9.547   9.798  63.886  1.00  0.00    -0.175 OA 
ENDROOT
BRANCH   2   3
HETATM    3  C   UNL     1      -9.639  10.583  65.010  1.00  0.00    -0.276 A  
HETATM    4  C   UNL     1      -9.131  10.296  66.279  1.00  0.00    -0.154 A  
HETATM    5  C   UNL     1     -10.582  12.738  65.826  1.00  0.00    -0.273 A  
HETATM    6  C   UNL     1      -9.210  11.305  67.247  1.00  0.00    -0.170 A  
HETATM    7  C   UNL     1      -9.967  12.467  67.062  1.00  0.00    -0.214 A  
HETATM    8  C   UNL     1     -10.325  11.798  64.799  1.00  0.00    -0.333 A  
BRANCH   4   9
HETATM    9  N   UNL     1      -8.566   9.054  66.619  1.00  0.00    -0.125 NA 
HETATM   10  H   UNL     1      -7.600   8.895  66.338  1.00  0.00     0.000 HD 
BRANCH   9  11
HETATM   11  C   UNL     1      -9.205   8.017  67.306  1.00  0.00    -0.139 A  
HETATM   12  N   UNL     1     -10.140   7.343  66.627  1.00  0.00    -0.215 NA 
HETATM   13  N   UNL     1      -8.839   7.717  68.565  1.00  0.00    -0.131 NA 
HETATM   14  C   UNL     1      -9.343   6.614  69.139  1.00  0.00    -0.134 A  
HETATM   15  C   UNL     1     -10.280   5.838  68.492  1.00  0.00    -0.246 A  
HETATM   16  C   UNL     1     -10.658   6.267  67.239  1.00  0.00    -0.302 A  
BRANCH  14  17
HETATM   17  C   UNL     1      -8.825   6.284  70.473  1.00  0.00    -0.144 A  
HETATM   18  C   UNL     1      -8.880   5.281  73.981  1.00  0.00    -0.117 A  
HETATM   19  C   UNL     1      -7.472   6.264  70.780  1.00  0.00    -0.091 A  
HETATM   20  C   UNL     1     -10.231   5.169  74.316  1.00  0.00    -0.291 A  
HETATM   21  C   UNL     1     -11.219   5.457  73.384  1.00  0.00    -0.270 A  
HETATM   22  N   UNL     1      -7.323   5.915  72.095  1.00  0.00    -0.092 NA 
HETATM   23  C   UNL     1      -8.546   5.688  72.676  1.00  0.00    -0.120 A  
HETATM   24  C   UNL     1      -6.055   5.814  72.783  1.00  0.00    -0.047 C  
HETATM   25  C   UNL     1      -9.519   5.953  71.700  1.00  0.00    -0.166 A  
HETATM   26  C   UNL     1     -10.877   5.837  72.078  1.00  0.00    -0.306 A  
ENDBRANCH  14  17
ENDBRANCH   9  11
ENDBRANCH   4   9
BRANCH   7  27
HETATM   27  N   UNL     1     -10.260  13.237  68.207  1.00  0.00    -0.246 N  
HETATM   28  O   UNL     1     -11.938  11.916  69.118  1.00  0.00    -0.306 OA 
HETATM   29  H   UNL     1      -9.692  14.066  68.384  1.00  0.00     0.000 HD 
HETATM   30  C   UNL     1     -11.263  12.939  69.101  1.00  0.00    -0.237 C  
BRANCH  30  31
HETATM   31  C   UNL     1     -11.405  13.981  70.152  1.00  0.00    -0.109 C  
HETATM   32  C   UNL     1     -12.540  14.074  70.855  1.00  0.00    -0.431 C  
ENDBRANCH  30  31
ENDBRANCH   7  27
BRANCH   5  33
HETATM   33  N   UNL     1     -11.399  13.847  65.601  1.00  0.00    -0.305 NA 
HETATM   34  C   UNL     1     -12.830  13.846  65.887  1.00  0.00    -0.339 C  
BRANCH  33  35
HETATM   35  C   UNL     1     -10.822  15.143  65.202  1.00  0.00    -0.422 C  
BRANCH  35  36
HETATM   36  C   UNL     1     -10.756  16.116  66.402  1.00  0.00    -0.211 C  
BRANCH  36  37
HETATM   37  N   UNL     1      -9.595  15.937  67.301  1.00  0.00    -0.216 NA 
HETATM   38  C   UNL     1      -9.514  17.096  68.199  1.00  0.00    -0.269 C  
HETATM   39  C   UNL     1      -8.343  15.817  66.549  1.00  0.00    -0.278 C  
ENDBRANCH  36  37
ENDBRANCH  35  36
ENDBRANCH  33  35
ENDBRANCH   5  33
ENDBRANCH   2   3
TORSDOF 10
ENDMDL
MODEL      136
REMARK 921   NORMALIZED FREE ENERGY PREDICTED BY IDOCK:   -5.28 KCAL/MOL
REMARK 922        TOTAL FREE ENERGY PREDICTED BY IDOCK:  -10.08 KCAL/MOL
REMARK 923 INTER-LIGAND FREE ENERGY PREDICTED BY IDOCK:   -8.27 KCAL/MOL
REMARK 924 INTRA-LIGAND FREE ENERGY PREDICTED BY IDOCK:   -1.81 KCAL/MOL
REMARK 927      BINDING AFFINITY PREDICTED BY RF-SCORE:    0.00 PKD
ROOT
HETATM    1  C   UNL     1     -10.685   7.452  67.019  1.00  0.00    -0.319 C  
HETATM    2  O   UNL     1      -9.594   7.865  66.202  1.00  0.00    -0.159 OA 
ENDROOT
BRANCH   2   3
HETATM    3  C   UNL     1      -9.278   9.202  66.206  1.00  0.00    -0.194 A  
HETATM    4  C   UNL     1      -8.122   9.791  66.722  1.00  0.00    -0.120 A  
HETATM    5  C   UNL     1     -10.171  11.430  65.544  1.00  0.00    -0.264 A  
HETATM    6  C   UNL     1      -7.937  11.159  66.487  1.00  0.00    -0.158 A  
HETATM    7  C   UNL     1      -8.949  11.978  65.976  1.00  0.00    -0.021 A  
HETATM    8  C   UNL     1     -10.261  10.019  65.607  1.00  0.00    -0.258 A  
BRANCH   4   9
HETATM    9  N   UNL     1      -7.162   9.080  67.464  1.00  0.00    -0.079 NA 
HETATM   10  H   UNL     1      -6.374   8.691  66.946  1.00  0.00     0.000 HD 
BRANCH   9  11
HETATM   11  C   UNL     1      -7.184   8.856  68.844  1.00  0.00    -0.074 A  
HETATM   12  N   UNL     1      -6.094   9.230  69.524  1.00  0.00    -0.039 NA 
HETATM   13  N   UNL     1      -8.278   8.330  69.424  1.00  0.00    -0.115 NA 
HETATM   14  C   UNL     1      -8.340   8.284  70.763  1.00  0.00    -0.123 A  
HETATM   15  C   UNL     1      -7.278   8.692  71.541  1.00  0.00    -0.112 A  
HETATM   16  C   UNL     1      -6.167   9.137  70.860  1.00  0.00    -0.062 A  
BRANCH  14  17
HETATM   17  C   UNL     1      -9.601   7.798  71.337  1.00  0.00    -0.182 A  
HETATM   18  C   UNL     1     -13.101   7.847  72.368  1.00  0.00     0.004 A  
HETATM   19  C   UNL     1      -9.765   6.514  71.835  1.00  0.00    -0.150 A  
HETATM   20  C   UNL     1     -13.550   9.143  72.104  1.00  0.00    -0.534 A  
HETATM   21  C   UNL     1     -12.687  10.101  71.586  1.00  0.00    -0.549 A  
HETATM   22  N   UNL     1     -11.049   6.376  72.287  1.00  0.00    -0.252 NA 
HETATM   23  C   UNL     1     -11.757   7.536  72.093  1.00  0.00    -0.303 A  
HETATM   24  C   UNL     1     -11.584   5.179  72.899  1.00  0.00    -0.205 C  
HETATM   25  C   UNL     1     -10.868   8.470  71.538  1.00  0.00    -0.332 A  
HETATM   26  C   UNL     1     -11.356   9.774  71.291  1.00  0.00    -0.445 A  
ENDBRANCH  14  17
ENDBRANCH   9  11
ENDBRANCH   4   9
BRANCH   7  27
HETATM   27  N   UNL     1      -8.780  13.372  66.107  1.00  0.00    -0.213 N  
HETATM   28  O   UNL     1      -8.395  13.483  68.394  1.00  0.00    -0.156 OA 
HETATM   29  H   UNL     1      -8.802  13.938  65.259  1.00  0.00     0.000 HD 
HETATM   30  C   UNL     1      -8.588  14.017  67.308  1.00  0.00    -0.216 C  
BRANCH  30  31
HETATM   31  C   UNL     1      -8.543  15.495  67.151  1.00  0.00    -0.240 C  
HETATM   32  C   UNL     1      -8.985  16.062  66.021  1.00  0.00    -0.345 C  
ENDBRANCH  30  31
ENDBRANCH   7  27
BRANCH   5  33
HETATM   33  N   UNL     1     -11.239  12.201  65.083  1.00  0.00    -0.321 NA 
HETATM   34  C   UNL     1     -11.791  12.065  63.739  1.00  0.00    -0.484 C  
BRANCH  33  35
HETATM   35  C   UNL     1     -11.973  13.097  65.995  1.00  0.00    -0.433 C  
BRANCH  35  36
HETATM   36  C   UNL     1     -12.033  12.508  67.424  1.00  0.00    -0.213 C  
BRANCH  36  37
HETATM   37  N   UNL     1     -12.382  13.470  68.492  1.00  0.00    -0.094 NA 
HETATM   38  C   UNL     1     -12.020  14.820  68.046  1.00  0.00    -0.227 C  
HETATM   39  C   UNL     1     -11.679  13.167  69.742  1.00  0.00    -0.280 C  
ENDBRANCH  36  37
ENDBRANCH  35  36
ENDBRANCH  33  35
ENDBRANCH   5  33
ENDBRANCH   2   3
TORSDOF 10
ENDMDL
MODEL      137
REMARK 921   NORMALIZED FREE ENERGY PREDICTED BY IDOCK:   -5.27 KCAL/MOL
REMARK 922        TOTAL FREE ENERGY PREDICTED BY IDOCK:  -10.06 KCAL/MOL
REMARK 923 INTER-LIGAND FREE ENERGY PREDICTED BY IDOCK:   -8.50 KCAL/MOL
REMARK 924 INTRA-LIGAND FREE ENERGY PREDICTED BY IDOCK:   -1.56 KCAL/MOL
REMARK 927      BINDING AFFINITY PREDICTED BY RF-SCORE:    0.00 PKD
ROOT
HETATM    1  C   UNL     1     -11.582  12.473  66.945  1.00  0.00    -0.370 C  
HETATM    2  O   UNL     1     -10.906  12.199  68.168  1.00  0.00    -0.203 OA 
ENDROOT
BRANCH   2   3
HETATM    3  C   UNL     1     -10.049  11.125  68.185  1.00  0.00    -0.179 A  
HETATM    4  C   UNL     1      -8.717  11.107  67.769  1.00  0.00    -0.132 A  
HETATM    5  C   UNL     1      -9.951   8.703  68.756  1.00  0.00    -0.183 A  
HETATM    6  C   UNL     1      -7.982   9.940  68.011  1.00  0.00    -0.100 A  
HETATM    7  C   UNL     1      -8.583   8.746  68.428  1.00  0.00    -0.134 A  
HETATM    8  C   UNL     1     -10.630   9.943  68.692  1.00  0.00    -0.244 A  
BRANCH   4   9
HETATM    9  N   UNL     1      -8.099  12.189  67.117  1.00  0.00    -0.174 NA 
HETATM   10  H   UNL     1      -8.034  12.139  66.100  1.00  0.00     0.000 HD 
BRANCH   9  11
HETATM   11  C   UNL     1      -7.565  13.327  67.729  1.00  0.00    -0.161 A  
HETATM   12  N   UNL     1      -6.775  13.116  68.788  1.00  0.00    -0.095 NA 
HETATM   13  N   UNL     1      -7.822  14.548  67.224  1.00  0.00    -0.195 NA 
HETATM   14  C   UNL     1      -7.163  15.604  67.722  1.00  0.00    -0.155 A  
HETATM   15  C   UNL     1      -6.296  15.468  68.786  1.00  0.00    -0.103 A  
HETATM   16  C   UNL     1      -6.159  14.196  69.294  1.00  0.00    -0.101 A  
BRANCH  14  17
HETATM   17  C   UNL     1      -7.407  16.892  67.059  1.00  0.00    -0.228 A  
HETATM   18  C   UNL     1      -9.167  19.950  66.132  1.00  0.00    -0.414 A  
HETATM   19  C   UNL     1      -6.477  17.512  66.238  1.00  0.00    -0.249 A  
HETATM   20  C   UNL     1     -10.421  19.858  66.740  1.00  0.00    -0.575 A  
HETATM   21  C   UNL     1     -10.769  18.737  67.482  1.00  0.00    -0.474 A  
HETATM   22  N   UNL     1      -7.006  18.691  65.785  1.00  0.00    -0.387 NA 
HETATM   23  C   UNL     1      -8.266  18.882  66.293  1.00  0.00    -0.268 A  
HETATM   24  C   UNL     1      -6.336  19.602  64.883  1.00  0.00    -0.271 C  
HETATM   25  C   UNL     1      -8.573  17.750  67.064  1.00  0.00    -0.248 A  
HETATM   26  C   UNL     1      -9.854  17.688  67.659  1.00  0.00    -0.294 A  
ENDBRANCH  14  17
ENDBRANCH   9  11
ENDBRANCH   4   9
BRANCH   7  27
HETATM   27  N   UNL     1      -7.824   7.564  68.305  1.00  0.00    -0.120 N  
HETATM   28  O   UNL     1      -6.962   7.456  70.459  1.00  0.00    -0.051 OA 
HETATM   29  H   UNL     1      -7.872   7.054  67.423  1.00  0.00     0.000 HD 
HETATM   30  C   UNL     1      -7.023   7.054  69.303  1.00  0.00    -0.074 C  
BRANCH  30  31
HETATM   31  C   UNL     1      -6.265   5.856  68.855  1.00  0.00    -0.036 C  
HETATM   32  C   UNL     1      -6.866   4.925  68.104  1.00  0.00    -0.056 C  
ENDBRANCH  30  31
ENDBRANCH   7  27
BRANCH   5  33
HETATM   33  N   UNL     1     -10.617   7.532  69.117  1.00  0.00    -0.217 NA 
HETATM   34  C   UNL     1     -11.039   6.530  68.144  1.00  0.00    -0.240 C  
BRANCH  33  35
HETATM   35  C   UNL     1     -10.796   7.170  70.535  1.00  0.00    -0.246 C  
BRANCH  35  36
HETATM   36  C   UNL     1     -12.282   6.884  70.853  1.00  0.00    -0.353 C  
BRANCH  36  37
HETATM   37  N   UNL     1     -12.884   7.740  71.897  1.00  0.00    -0.311 NA 
HETATM   38  C   UNL     1     -14.322   7.869  71.628  1.00  0.00    -0.479 C  
HETATM   39  C   UNL     1     -12.274   9.072  71.921  1.00  0.00    -0.381 C  
ENDBRANCH  36  37
ENDBRANCH  35  36
ENDBRANCH  33  35
ENDBRANCH   5  33
ENDBRANCH   2   3
TORSDOF 10
ENDMDL
MODEL      138
REMARK 921   NORMALIZED FREE ENERGY PREDICTED BY IDOCK:   -5.27 KCAL/MOL
REMARK 922        TOTAL FREE ENERGY PREDICTED BY IDOCK:  -10.06 KCAL/MOL
REMARK 923 INTER-LIGAND FREE ENERGY PREDICTED BY IDOCK:   -8.45 KCAL/MOL
REMARK 924 INTRA-LIGAND FREE ENERGY PREDICTED BY IDOCK:   -1.61 KCAL/MOL
REMARK 927      BINDING AFFINITY PREDICTED BY RF-SCORE:    0.00 PKD
ROOT
HETATM    1  C   UNL     1     -13.956   9.267  72.169  1.00  0.00    -0.355 C  
HETATM    2  O   UNL     1     -13.108  10.250  71.585  1.00  0.00    -0.395 OA 
ENDROOT
BRANCH   2   3
HETATM    3  C   UNL     1     -12.051   9.801  70.831  1.00  0.00    -0.321 A  
HETATM    4  C   UNL     1     -11.467  10.441  69.737  1.00  0.00    -0.280 A  
HETATM    5  C   UNL     1     -10.485   7.878  70.598  1.00  0.00    -0.213 A  
HETATM    6  C   UNL     1     -10.303   9.874  69.204  1.00  0.00    -0.225 A  
HETATM    7  C   UNL     1      -9.853   8.599  69.568  1.00  0.00    -0.187 A  
HETATM    8  C   UNL     1     -11.539   8.556  71.257  1.00  0.00    -0.332 A  
BRANCH   4   9
HETATM    9  N   UNL     1     -11.999  11.604  69.152  1.00  0.00    -0.327 NA 
HETATM   10  H   UNL     1     -12.779  12.049  69.636  1.00  0.00     0.000 HD 
BRANCH   9  11
HETATM   11  C   UNL     1     -11.562  12.209  67.969  1.00  0.00    -0.348 A  
HETATM   12  N   UNL     1     -12.216  11.871  66.853  1.00  0.00    -0.246 NA 
HETATM   13  N   UNL     1     -10.562  13.108  68.002  1.00  0.00    -0.230 NA 
HETATM   14  C   UNL     1     -10.277  13.798  66.887  1.00  0.00    -0.261 A  
HETATM   15  C   UNL     1     -10.935  13.544  65.703  1.00  0.00    -0.296 A  
HETATM   16  C   UNL     1     -11.885  12.548  65.742  1.00  0.00    -0.437 A  
BRANCH  14  17
HETATM   17  C   UNL     1      -9.248  14.839  67.015  1.00  0.00    -0.248 A  
HETATM   18  C   UNL     1      -7.819  18.190  67.218  1.00  0.00    -0.230 A  
HETATM   19  C   UNL     1      -7.905  14.559  67.217  1.00  0.00    -0.173 A  
HETATM   20  C   UNL     1      -8.887  19.065  67.005  1.00  0.00    -0.309 A  
HETATM   21  C   UNL     1     -10.162  18.578  66.747  1.00  0.00    -0.423 A  
HETATM   22  N   UNL     1      -7.215  15.738  67.298  1.00  0.00    -0.205 NA 
HETATM   23  C   UNL     1      -8.068  16.806  67.167  1.00  0.00    -0.183 A  
HETATM   24  C   UNL     1      -5.784  15.847  67.481  1.00  0.00    -0.111 C  
HETATM   25  C   UNL     1      -9.350  16.282  66.943  1.00  0.00    -0.241 A  
HETATM   26  C   UNL     1     -10.405  17.197  66.724  1.00  0.00    -0.302 A  
ENDBRANCH  14  17
ENDBRANCH   9  11
ENDBRANCH   4   9
BRANCH   7  27
HETATM   27  N   UNL     1      -8.893   7.990  68.734  1.00  0.00    -0.138 N  
HETATM   28  O   UNL     1      -6.965   8.684  69.827  1.00  0.00    -0.045 OA 
HETATM   29  H   UNL     1      -9.226   7.404  67.969  1.00  0.00     0.000 HD 
HETATM   30  C   UNL     1      -7.532   8.138  68.888  1.00  0.00    -0.089 C  
BRANCH  30  31
HETATM   31  C   UNL     1      -6.770   7.465  67.804  1.00  0.00    -0.062 C  
HETATM   32  C   UNL     1      -7.398   7.060  66.694  1.00  0.00    -0.080 C  
ENDBRANCH  30  31
ENDBRANCH   7  27
BRANCH   5  33
HETATM   33  N   UNL     1     -10.122   6.582  70.963  1.00  0.00    -0.184 NA 
HETATM   34  C   UNL     1     -10.728   5.394  70.370  1.00  0.00    -0.206 C  
BRANCH  33  35
HETATM   35  C   UNL     1      -8.982   6.341  71.867  1.00  0.00    -0.139 C  
BRANCH  35  36
HETATM   36  C   UNL     1      -9.074   4.941  72.517  1.00  0.00    -0.132 C  
BRANCH  36  37
HETATM   37  N   UNL     1      -9.175   4.932  73.992  1.00  0.00    -0.114 NA 
HETATM   38  C   UNL     1      -9.563   3.585  74.428  1.00  0.00    -0.102 C  
HETATM   39  C   UNL     1     -10.164   5.901  74.472  1.00  0.00    -0.278 C  
ENDBRANCH  36  37
ENDBRANCH  35  36
ENDBRANCH  33  35
ENDBRANCH   5  33
ENDBRANCH   2   3
TORSDOF 10
ENDMDL
MODEL      139
REMARK 921   NORMALIZED FREE ENERGY PREDICTED BY IDOCK:   -5.25 KCAL/MOL
REMARK 922        TOTAL FREE ENERGY PREDICTED BY IDOCK:  -10.03 KCAL/MOL
REMARK 923 INTER-LIGAND FREE ENERGY PREDICTED BY IDOCK:   -8.78 KCAL/MOL
REMARK 924 INTRA-LIGAND FREE ENERGY PREDICTED BY IDOCK:   -1.25 KCAL/MOL
REMARK 927      BINDING AFFINITY PREDICTED BY RF-SCORE:    0.00 PKD
ROOT
HETATM    1  C   UNL     1     -12.849  10.009  71.343  1.00  0.00    -0.417 C  
HETATM    2  O   UNL     1     -11.426  10.053  71.289  1.00  0.00    -0.364 OA 
ENDROOT
BRANCH   2   3
HETATM    3  C   UNL     1     -10.841   9.925  70.053  1.00  0.00    -0.294 A  
HETATM    4  C   UNL     1     -10.476  10.956  69.184  1.00  0.00    -0.221 A  
HETATM    5  C   UNL     1     -10.053   8.213  68.424  1.00  0.00    -0.200 A  
HETATM    6  C   UNL     1      -9.756  10.605  68.035  1.00  0.00    -0.170 A  
HETATM    7  C   UNL     1      -9.602   9.277  67.621  1.00  0.00    -0.142 A  
HETATM    8  C   UNL     1     -10.601   8.586  69.674  1.00  0.00    -0.221 A  
BRANCH   4   9
HETATM    9  N   UNL     1     -10.807  12.304  69.408  1.00  0.00    -0.457 NA 
HETATM   10  H   UNL     1     -10.904  12.600  70.379  1.00  0.00     0.000 HD 
BRANCH   9  11
HETATM   11  C   UNL     1     -11.018  13.277  68.426  1.00  0.00    -0.264 A  
HETATM   12  N   UNL     1     -11.924  12.985  67.486  1.00  0.00    -0.342 NA 
HETATM   13  N   UNL     1     -10.357  14.447  68.484  1.00  0.00    -0.242 NA 
HETATM   14  C   UNL     1     -10.702  15.426  67.634  1.00  0.00    -0.292 A  
HETATM   15  C   UNL     1     -11.658  15.223  66.661  1.00  0.00    -0.036 A  
HETATM   16  C   UNL     1     -12.222  13.967  66.622  1.00  0.00    -0.428 A  
BRANCH  14  17
HETATM   17  C   UNL     1     -10.018  16.712  67.816  1.00  0.00    -0.262 A  
HETATM   18  C   UNL     1      -7.325  19.039  68.620  1.00  0.00    -0.353 A  
HETATM   19  C   UNL     1     -10.607  17.934  67.526  1.00  0.00    -0.376 A  
HETATM   20  C   UNL     1      -6.278  18.248  69.098  1.00  0.00    -0.246 A  
HETATM   21  C   UNL     1      -6.424  16.871  69.210  1.00  0.00    -0.228 A  
HETATM   22  N   UNL     1      -9.711  18.932  67.798  1.00  0.00    -0.313 NA 
HETATM   23  C   UNL     1      -8.527  18.407  68.253  1.00  0.00    -0.303 A  
HETATM   24  C   UNL     1      -9.977  20.346  67.642  1.00  0.00    -0.374 C  
HETATM   25  C   UNL     1      -8.695  17.015  68.322  1.00  0.00    -0.241 A  
HETATM   26  C   UNL     1      -7.617  16.247  68.817  1.00  0.00    -0.199 A  
ENDBRANCH  14  17
ENDBRANCH   9  11
ENDBRANCH   4   9
BRANCH   7  27
HETATM   27  N   UNL     1      -9.174   9.060  66.294  1.00  0.00    -0.189 N  
HETATM   28  O   UNL     1      -6.880   9.007  66.653  1.00  0.00    -0.077 OA 
HETATM   29  H   UNL     1      -9.887   8.929  65.577  1.00  0.00     0.000 HD 
HETATM   30  C   UNL     1      -7.853   9.012  65.908  1.00  0.00    -0.102 C  
BRANCH  30  31
HETATM   31  C   UNL     1      -7.705   8.872  64.435  1.00  0.00    -0.120 C  
HETATM   32  C   UNL     1      -7.881   9.934  63.640  1.00  0.00    -0.145 C  
ENDBRANCH  30  31
ENDBRANCH   7  27
BRANCH   5  33
HETATM   33  N   UNL     1      -9.982   6.875  68.037  1.00  0.00    -0.149 NA 
HETATM   34  C   UNL     1     -11.035   6.217  67.269  1.00  0.00    -0.366 C  
BRANCH  33  35
HETATM   35  C   UNL     1      -8.755   6.089  68.254  1.00  0.00    -0.113 C  
BRANCH  35  36
HETATM   36  C   UNL     1      -9.046   4.571  68.184  1.00  0.00    -0.124 C  
BRANCH  36  37
HETATM   37  N   UNL     1      -9.511   3.955  69.445  1.00  0.00    -0.181 NA 
HETATM   38  C   UNL     1      -8.844   4.625  70.569  1.00  0.00    -0.103 C  
HETATM   39  C   UNL     1      -9.211   2.521  69.488  1.00  0.00    -0.123 C  
ENDBRANCH  36  37
ENDBRANCH  35  36
ENDBRANCH  33  35
ENDBRANCH   5  33
ENDBRANCH   2   3
TORSDOF 10
ENDMDL
MODEL      140
REMARK 921   NORMALIZED FREE ENERGY PREDICTED BY IDOCK:   -5.25 KCAL/MOL
REMARK 922        TOTAL FREE ENERGY PREDICTED BY IDOCK:  -10.03 KCAL/MOL
REMARK 923 INTER-LIGAND FREE ENERGY PREDICTED BY IDOCK:   -8.46 KCAL/MOL
REMARK 924 INTRA-LIGAND FREE ENERGY PREDICTED BY IDOCK:   -1.56 KCAL/MOL
REMARK 927      BINDING AFFINITY PREDICTED BY RF-SCORE:    0.00 PKD
ROOT
HETATM    1  C   UNL     1     -10.859  19.751  65.639  1.00  0.00    -0.232 C  
HETATM    2  O   UNL     1     -10.934  18.380  65.261  1.00  0.00    -0.563 OA 
ENDROOT
BRANCH   2   3
HETATM    3  C   UNL     1      -9.991  17.532  65.788  1.00  0.00    -0.042 A  
HETATM    4  C   UNL     1      -9.977  16.138  65.709  1.00  0.00    -0.340 A  
HETATM    5  C   UNL     1      -7.891  17.522  67.127  1.00  0.00    -0.207 A  
HETATM    6  C   UNL     1      -8.839  15.477  66.190  1.00  0.00    -0.273 A  
HETATM    7  C   UNL     1      -7.852  16.128  66.938  1.00  0.00    -0.248 A  
HETATM    8  C   UNL     1      -8.945  18.195  66.465  1.00  0.00    -0.288 A  
BRANCH   4   9
HETATM    9  N   UNL     1     -11.044  15.386  65.187  1.00  0.00    -0.393 NA 
HETATM   10  H   UNL     1     -11.813  15.907  64.767  1.00  0.00     0.000 HD 
BRANCH   9  11
HETATM   11  C   UNL     1     -11.152  13.992  65.191  1.00  0.00    -0.341 A  
HETATM   12  N   UNL     1     -11.334  13.407  64.001  1.00  0.00    -0.359 NA 
HETATM   13  N   UNL     1     -11.031  13.309  66.344  1.00  0.00    -0.287 NA 
HETATM   14  C   UNL     1     -10.967  11.970  66.298  1.00  0.00    -0.299 A  
HETATM   15  C   UNL     1     -11.101  11.290  65.106  1.00  0.00    -0.149 A  
HETATM   16  C   UNL     1     -11.306  12.066  63.988  1.00  0.00    -0.403 A  
BRANCH  14  17
HETATM   17  C   UNL     1     -10.729  11.289  67.577  1.00  0.00    -0.275 A  
HETATM   18  C   UNL     1      -8.862   9.689  70.272  1.00  0.00    -0.253 A  
HETATM   19  C   UNL     1     -11.737  11.010  68.488  1.00  0.00    -0.278 A  
HETATM   20  C   UNL     1      -7.538   9.635  69.830  1.00  0.00    -0.123 A  
HETATM   21  C   UNL     1      -7.192  10.111  68.571  1.00  0.00    -0.080 A  
HETATM   22  N   UNL     1     -11.189  10.379  69.573  1.00  0.00    -0.253 NA 
HETATM   23  C   UNL     1      -9.832  10.238  69.415  1.00  0.00    -0.227 A  
HETATM   24  C   UNL     1     -11.936   9.911  70.719  1.00  0.00    -0.323 C  
HETATM   25  C   UNL     1      -9.510  10.758  68.152  1.00  0.00    -0.161 A  
HETATM   26  C   UNL     1      -8.162  10.680  67.734  1.00  0.00    -0.111 A  
ENDBRANCH  14  17
ENDBRANCH   9  11
ENDBRANCH   4   9
BRANCH   7  27
HETATM   27  N   UNL     1      -6.949  15.319  67.659  1.00  0.00    -0.170 N  
HETATM   28  O   UNL     1      -8.467  14.170  68.989  1.00  0.00    -0.054 OA 
HETATM   29  H   UNL     1      -5.960  15.372  67.416  1.00  0.00     0.000 HD 
HETATM   30  C   UNL     1      -7.320  14.460  68.670  1.00  0.00    -0.123 C  
BRANCH  30  31
HETATM   31  C   UNL     1      -6.146  13.815  69.316  1.00  0.00    -0.100 C  
HETATM   32  C   UNL     1      -5.908  14.009  70.618  1.00  0.00    -0.192 C  
ENDBRANCH  30  31
ENDBRANCH   7  27
BRANCH   5  33
HETATM   33  N   UNL     1      -6.971  18.217  67.913  1.00  0.00    -0.206 NA 
HETATM   34  C   UNL     1      -7.228  18.569  69.306  1.00  0.00    -0.106 C  
BRANCH  33  35
HETATM   35  C   UNL     1      -5.613  18.499  67.416  1.00  0.00    -0.145 C  
BRANCH  35  36
HETATM   36  C   UNL     1      -5.620  18.748  65.889  1.00  0.00    -0.161 C  
BRANCH  36  37
HETATM   37  N   UNL     1      -5.409  20.151  65.474  1.00  0.00    -0.161 NA 
HETATM   38  C   UNL     1      -5.717  21.029  66.609  1.00  0.00    -0.239 C  
HETATM   39  C   UNL     1      -6.260  20.511  64.336  1.00  0.00    -0.302 C  
ENDBRANCH  36  37
ENDBRANCH  35  36
ENDBRANCH  33  35
ENDBRANCH   5  33
ENDBRANCH   2   3
TORSDOF 10
ENDMDL
MODEL      141
REMARK 921   NORMALIZED FREE ENERGY PREDICTED BY IDOCK:   -5.24 KCAL/MOL
REMARK 922        TOTAL FREE ENERGY PREDICTED BY IDOCK:  -10.02 KCAL/MOL
REMARK 923 INTER-LIGAND FREE ENERGY PREDICTED BY IDOCK:   -8.48 KCAL/MOL
REMARK 924 INTRA-LIGAND FREE ENERGY PREDICTED BY IDOCK:   -1.54 KCAL/MOL
REMARK 927      BINDING AFFINITY PREDICTED BY RF-SCORE:    0.00 PKD
ROOT
HETATM    1  C   UNL     1     -11.622  11.825  67.759  1.00  0.00    -0.304 C  
HETATM    2  O   UNL     1     -10.806  12.528  68.691  1.00  0.00    -0.235 OA 
ENDROOT
BRANCH   2   3
HETATM    3  C   UNL     1      -9.897  13.422  68.179  1.00  0.00    -0.234 A  
HETATM    4  C   UNL     1      -8.506  13.306  68.191  1.00  0.00    -0.173 A  
HETATM    5  C   UNL     1      -9.748  15.632  67.041  1.00  0.00    -0.227 A  
HETATM    6  C   UNL     1      -7.774  14.266  67.481  1.00  0.00    -0.208 A  
HETATM    7  C   UNL     1      -8.356  15.433  66.975  1.00  0.00    -0.236 A  
HETATM    8  C   UNL     1     -10.490  14.558  67.587  1.00  0.00    -0.246 A  
BRANCH   4   9
HETATM    9  N   UNL     1      -7.824  12.291  68.885  1.00  0.00    -0.330 NA 
HETATM   10  H   UNL     1      -7.257  12.577  69.682  1.00  0.00     0.000 HD 
BRANCH   9  11
HETATM   11  C   UNL     1      -7.850  10.925  68.586  1.00  0.00    -0.126 A  
HETATM   12  N   UNL     1      -6.958  10.497  67.686  1.00  0.00    -0.078 NA 
HETATM   13  N   UNL     1      -8.712  10.112  69.223  1.00  0.00    -0.168 NA 
HETATM   14  C   UNL     1      -8.601   8.787  69.045  1.00  0.00    -0.132 A  
HETATM   15  C   UNL     1      -7.678   8.259  68.168  1.00  0.00    -0.106 A  
HETATM   16  C   UNL     1      -6.894   9.171  67.496  1.00  0.00    -0.077 A  
BRANCH  14  17
HETATM   17  C   UNL     1      -9.500   7.948  69.848  1.00  0.00    -0.160 A  
HETATM   18  C   UNL     1     -12.446   7.031  71.796  1.00  0.00    -0.393 A  
HETATM   19  C   UNL     1      -9.243   6.615  70.135  1.00  0.00    -0.155 A  
HETATM   20  C   UNL     1     -13.203   8.200  71.901  1.00  0.00    -0.348 A  
HETATM   21  C   UNL     1     -12.751   9.390  71.344  1.00  0.00    -0.425 A  
HETATM   22  N   UNL     1     -10.270   6.121  70.892  1.00  0.00    -0.195 NA 
HETATM   23  C   UNL     1     -11.219   7.088  71.111  1.00  0.00    -0.270 A  
HETATM   24  C   UNL     1     -10.340   4.770  71.405  1.00  0.00    -0.122 C  
HETATM   25  C   UNL     1     -10.750   8.266  70.507  1.00  0.00    -0.238 A  
HETATM   26  C   UNL     1     -11.539   9.431  70.640  1.00  0.00    -0.330 A  
ENDBRANCH  14  17
ENDBRANCH   9  11
ENDBRANCH   4   9
BRANCH   7  27
HETATM   27  N   UNL     1      -7.487  16.477  66.595  1.00  0.00    -0.255 N  
HETATM   28  O   UNL     1      -6.999  17.333  68.697  1.00  0.00    -0.198 OA 
HETATM   29  H   UNL     1      -7.251  16.567  65.607  1.00  0.00     0.000 HD 
HETATM   30  C   UNL     1      -6.936  17.382  67.474  1.00  0.00    -0.159 C  
BRANCH  30  31
HETATM   31  C   UNL     1      -6.144  18.429  66.778  1.00  0.00    -0.179 C  
HETATM   32  C   UNL     1      -6.308  18.632  65.465  1.00  0.00    -0.320 C  
ENDBRANCH  30  31
ENDBRANCH   7  27
BRANCH   5  33
HETATM   33  N   UNL     1     -10.378  16.800  66.610  1.00  0.00    -0.306 NA 
HETATM   34  C   UNL     1     -10.712  17.048  65.211  1.00  0.00    -0.096 C  
BRANCH  33  35
HETATM   35  C   UNL     1     -10.884  17.788  67.579  1.00  0.00    -0.211 C  
BRANCH  35  36
HETATM   36  C   UNL     1     -10.810  19.222  67.003  1.00  0.00    -0.414 C  
BRANCH  36  37
HETATM   37  N   UNL     1     -10.076  20.202  67.832  1.00  0.00    -0.409 NA 
HETATM   38  C   UNL     1      -8.982  20.767  67.033  1.00  0.00    -0.103 C  
HETATM   39  C   UNL     1      -9.526  19.582  69.040  1.00  0.00    -0.320 C  
ENDBRANCH  36  37
ENDBRANCH  35  36
ENDBRANCH  33  35
ENDBRANCH   5  33
ENDBRANCH   2   3
TORSDOF 10
ENDMDL
MODEL      142
REMARK 921   NORMALIZED FREE ENERGY PREDICTED BY IDOCK:   -5.23 KCAL/MOL
REMARK 922        TOTAL FREE ENERGY PREDICTED BY IDOCK:  -10.01 KCAL/MOL
REMARK 923 INTER-LIGAND FREE ENERGY PREDICTED BY IDOCK:   -8.04 KCAL/MOL
REMARK 924 INTRA-LIGAND FREE ENERGY PREDICTED BY IDOCK:   -1.97 KCAL/MOL
REMARK 927      BINDING AFFINITY PREDICTED BY RF-SCORE:    0.00 PKD
ROOT
HETATM    1  C   UNL     1      -7.472   8.294  72.671  1.00  0.00    -0.112 C  
HETATM    2  O   UNL     1      -8.571   7.424  72.420  1.00  0.00    -0.113 OA 
ENDROOT
BRANCH   2   3
HETATM    3  C   UNL     1      -8.740   6.982  71.130  1.00  0.00    -0.137 A  
HETATM    4  C   UNL     1      -9.940   6.615  70.517  1.00  0.00    -0.179 A  
HETATM    5  C   UNL     1      -7.466   6.442  69.059  1.00  0.00    -0.095 A  
HETATM    6  C   UNL     1      -9.902   6.334  69.146  1.00  0.00    -0.168 A  
HETATM    7  C   UNL     1      -8.703   6.182  68.441  1.00  0.00    -0.115 A  
HETATM    8  C   UNL     1      -7.539   6.916  70.391  1.00  0.00    -0.088 A  
BRANCH   4   9
HETATM    9  N   UNL     1     -11.157   6.507  71.213  1.00  0.00    -0.261 NA 
HETATM   10  H   UNL     1     -11.340   5.624  71.688  1.00  0.00     0.000 HD 
BRANCH   9  11
HETATM   11  C   UNL     1     -12.142   7.495  71.313  1.00  0.00    -0.323 A  
HETATM   12  N   UNL     1     -13.276   7.141  71.928  1.00  0.00    -0.274 NA 
HETATM   13  N   UNL     1     -11.904   8.733  70.844  1.00  0.00    -0.265 NA 
HETATM   14  C   UNL     1     -12.793   9.704  71.105  1.00  0.00    -0.316 A  
HETATM   15  C   UNL     1     -13.969   9.434  71.772  1.00  0.00    -0.277 A  
HETATM   16  C   UNL     1     -14.167   8.122  72.141  1.00  0.00    -0.336 A  
BRANCH  14  17
HETATM   17  C   UNL     1     -12.427  11.054  70.658  1.00  0.00    -0.465 A  
HETATM   18  C   UNL     1     -12.244  14.698  70.670  1.00  0.00    -0.394 A  
HETATM   19  C   UNL     1     -11.619  11.297  69.558  1.00  0.00    -0.328 A  
HETATM   20  C   UNL     1     -13.052  15.109  71.733  1.00  0.00    -0.464 A  
HETATM   21  C   UNL     1     -13.741  14.179  72.500  1.00  0.00    -0.626 A  
HETATM   22  N   UNL     1     -11.465  12.650  69.414  1.00  0.00    -0.279 NA 
HETATM   23  C   UNL     1     -12.143  13.321  70.401  1.00  0.00    -0.327 A  
HETATM   24  C   UNL     1     -10.706  13.286  68.359  1.00  0.00    -0.257 C  
HETATM   25  C   UNL     1     -12.799  12.354  71.178  1.00  0.00    -0.299 A  
HETATM   26  C   UNL     1     -13.614  12.807  72.240  1.00  0.00    -0.563 A  
ENDBRANCH  14  17
ENDBRANCH   9  11
ENDBRANCH   4   9
BRANCH   7  27
HETATM   27  N   UNL     1      -8.771   5.565  67.175  1.00  0.00    -0.109 N  
HETATM   28  O   UNL     1      -9.319   3.410  67.844  1.00  0.00    -0.174 OA 
HETATM   29  H   UNL     1      -8.640   6.151  66.350  1.00  0.00     0.000 HD 
HETATM   30  C   UNL     1      -9.003   4.222  66.982  1.00  0.00    -0.123 C  
BRANCH  30  31
HETATM   31  C   UNL     1      -8.918   3.839  65.548  1.00  0.00    -0.135 C  
HETATM   32  C   UNL     1      -9.923   4.136  64.715  1.00  0.00    -0.196 C  
ENDBRANCH  30  31
ENDBRANCH   7  27
BRANCH   5  33
HETATM   33  N   UNL     1      -6.236   6.249  68.428  1.00  0.00    -0.030 NA 
HETATM   34  C   UNL     1      -5.579   4.948  68.358  1.00  0.00    -0.016 C  
BRANCH  33  35
HETATM   35  C   UNL     1      -5.604   7.334  67.657  1.00  0.00    -0.029 C  
BRANCH  35  36
HETATM   36  C   UNL     1      -5.367   6.908  66.189  1.00  0.00    -0.022 C  
BRANCH  36  37
HETATM   37  N   UNL     1      -6.588   6.734  65.373  1.00  0.00    -0.049 NA 
HETATM   38  C   UNL     1      -6.215   6.123  64.092  1.00  0.00    -0.029 C  
HETATM   39  C   UNL     1      -7.258   8.014  65.124  1.00  0.00    -0.065 C  
ENDBRANCH  36  37
ENDBRANCH  35  36
ENDBRANCH  33  35
ENDBRANCH   5  33
ENDBRANCH   2   3
TORSDOF 10
ENDMDL
MODEL      143
REMARK 921   NORMALIZED FREE ENERGY PREDICTED BY IDOCK:   -5.21 KCAL/MOL
REMARK 922        TOTAL FREE ENERGY PREDICTED BY IDOCK:   -9.98 KCAL/MOL
REMARK 923 INTER-LIGAND FREE ENERGY PREDICTED BY IDOCK:   -8.51 KCAL/MOL
REMARK 924 INTRA-LIGAND FREE ENERGY PREDICTED BY IDOCK:   -1.47 KCAL/MOL
REMARK 927      BINDING AFFINITY PREDICTED BY RF-SCORE:    0.00 PKD
ROOT
HETATM    1  C   UNL     1     -10.159   8.077  66.785  1.00  0.00    -0.287 C  
HETATM    2  O   UNL     1     -10.733   8.985  67.720  1.00  0.00    -0.229 OA 
ENDROOT
BRANCH   2   3
HETATM    3  C   UNL     1     -10.073  10.172  67.929  1.00  0.00    -0.176 A  
HETATM    4  C   UNL     1      -8.938  10.375  68.716  1.00  0.00    -0.157 A  
HETATM    5  C   UNL     1     -10.162  12.593  67.354  1.00  0.00    -0.217 A  
HETATM    6  C   UNL     1      -8.341  11.641  68.671  1.00  0.00    -0.100 A  
HETATM    7  C   UNL     1      -8.959  12.742  68.069  1.00  0.00    -0.196 A  
HETATM    8  C   UNL     1     -10.644  11.267  67.246  1.00  0.00    -0.271 A  
BRANCH   4   9
HETATM    9  N   UNL     1      -8.389   9.381  69.546  1.00  0.00    -0.116 NA 
HETATM   10  H   UNL     1      -7.407   9.150  69.402  1.00  0.00     0.000 HD 
BRANCH   9  11
HETATM   11  C   UNL     1      -9.063   8.679  70.551  1.00  0.00    -0.165 A  
HETATM   12  N   UNL     1      -9.742   9.415  71.437  1.00  0.00    -0.222 NA 
HETATM   13  N   UNL     1      -9.039   7.334  70.564  1.00  0.00    -0.157 NA 
HETATM   14  C   UNL     1      -9.830   6.683  71.431  1.00  0.00    -0.179 A  
HETATM   15  C   UNL     1     -10.596   7.367  72.350  1.00  0.00    -0.285 A  
HETATM   16  C   UNL     1     -10.493   8.740  72.320  1.00  0.00    -0.247 A  
BRANCH  14  17
HETATM   17  C   UNL     1      -9.838   5.218  71.325  1.00  0.00    -0.232 A  
HETATM   18  C   UNL     1     -10.265   1.745  72.358  1.00  0.00    -0.225 A  
HETATM   19  C   UNL     1      -9.548   4.539  70.151  1.00  0.00    -0.194 A  
HETATM   20  C   UNL     1     -10.580   1.795  73.718  1.00  0.00    -0.198 A  
HETATM   21  C   UNL     1     -10.640   3.011  74.387  1.00  0.00    -0.207 A  
HETATM   22  N   UNL     1      -9.649   3.194  70.383  1.00  0.00    -0.159 NA 
HETATM   23  C   UNL     1     -10.013   2.954  71.685  1.00  0.00    -0.080 A  
HETATM   24  C   UNL     1      -9.394   2.165  69.398  1.00  0.00    -0.097 C  
HETATM   25  C   UNL     1     -10.099   4.201  72.323  1.00  0.00    -0.247 A  
HETATM   26  C   UNL     1     -10.413   4.213  73.701  1.00  0.00    -0.263 A  
ENDBRANCH  14  17
ENDBRANCH   9  11
ENDBRANCH   4   9
BRANCH   7  27
HETATM   27  N   UNL     1      -8.448  14.020  68.380  1.00  0.00    -0.165 N  
HETATM   28  O   UNL     1      -6.435  13.901  67.228  1.00  0.00    -0.282 OA 
HETATM   29  H   UNL     1      -9.037  14.651  68.923  1.00  0.00     0.000 HD 
HETATM   30  C   UNL     1      -7.204  14.468  67.995  1.00  0.00    -0.142 C  
BRANCH  30  31
HETATM   31  C   UNL     1      -6.896  15.812  68.551  1.00  0.00    -0.119 C  
HETATM   32  C   UNL     1      -7.885  16.683  68.786  1.00  0.00    -0.238 C  
ENDBRANCH  30  31
ENDBRANCH   7  27
BRANCH   5  33
HETATM   33  N   UNL     1     -10.855  13.662  66.785  1.00  0.00    -0.289 NA 
HETATM   34  C   UNL     1     -11.857  14.433  67.515  1.00  0.00    -0.386 C  
BRANCH  33  35
HETATM   35  C   UNL     1     -10.496  14.172  65.450  1.00  0.00    -0.357 C  
BRANCH  35  36
HETATM   36  C   UNL     1     -11.706  14.115  64.488  1.00  0.00    -0.413 C  
BRANCH  36  37
HETATM   37  N   UNL     1     -11.718  12.974  63.548  1.00  0.00    -0.495 NA 
HETATM   38  C   UNL     1     -12.704  11.991  64.014  1.00  0.00    -0.305 C  
HETATM   39  C   UNL     1     -10.401  12.336  63.458  1.00  0.00    -0.410 C  
ENDBRANCH  36  37
ENDBRANCH  35  36
ENDBRANCH  33  35
ENDBRANCH   5  33
ENDBRANCH   2   3
TORSDOF 10
ENDMDL
MODEL      144
REMARK 921   NORMALIZED FREE ENERGY PREDICTED BY IDOCK:   -5.21 KCAL/MOL
REMARK 922        TOTAL FREE ENERGY PREDICTED BY IDOCK:   -9.98 KCAL/MOL
REMARK 923 INTER-LIGAND FREE ENERGY PREDICTED BY IDOCK:   -8.03 KCAL/MOL
REMARK 924 INTRA-LIGAND FREE ENERGY PREDICTED BY IDOCK:   -1.95 KCAL/MOL
REMARK 927      BINDING AFFINITY PREDICTED BY RF-SCORE:    0.00 PKD
ROOT
HETATM    1  C   UNL     1      -8.838   5.565  65.396  1.00  0.00    -0.127 C  
HETATM    2  O   UNL     1      -7.832   6.364  64.782  1.00  0.00    -0.099 OA 
ENDROOT
BRANCH   2   3
HETATM    3  C   UNL     1      -7.758   7.682  65.162  1.00  0.00    -0.110 A  
HETATM    4  C   UNL     1      -7.092   8.201  66.274  1.00  0.00    -0.073 A  
HETATM    5  C   UNL     1      -8.544   9.956  64.518  1.00  0.00    -0.186 A  
HETATM    6  C   UNL     1      -7.022   9.594  66.391  1.00  0.00    -0.088 A  
HETATM    7  C   UNL     1      -7.775  10.455  65.585  1.00  0.00    -0.150 A  
HETATM    8  C   UNL     1      -8.443   8.562  64.296  1.00  0.00    -0.068 A  
BRANCH   4   9
HETATM    9  N   UNL     1      -6.511   7.393  67.268  1.00  0.00    -0.058 NA 
HETATM   10  H   UNL     1      -5.929   6.618  66.951  1.00  0.00     0.000 HD 
BRANCH   9  11
HETATM   11  C   UNL     1      -6.655   7.552  68.650  1.00  0.00    -0.053 A  
HETATM   12  N   UNL     1      -5.571   7.965  69.316  1.00  0.00    -0.026 NA 
HETATM   13  N   UNL     1      -7.847   7.331  69.233  1.00  0.00    -0.114 NA 
HETATM   14  C   UNL     1      -8.004   7.654  70.525  1.00  0.00    -0.100 A  
HETATM   15  C   UNL     1      -6.949   8.129  71.275  1.00  0.00    -0.056 A  
HETATM   16  C   UNL     1      -5.744   8.243  70.618  1.00  0.00    -0.028 A  
BRANCH  14  17
HETATM   17  C   UNL     1      -9.356   7.489  71.075  1.00  0.00    -0.157 A  
HETATM   18  C   UNL     1     -12.804   8.337  71.912  1.00  0.00    -0.371 A  
HETATM   19  C   UNL     1      -9.792   6.321  71.683  1.00  0.00    -0.165 A  
HETATM   20  C   UNL     1     -12.973   9.662  71.503  1.00  0.00    -0.486 A  
HETATM   21  C   UNL     1     -11.918  10.371  70.943  1.00  0.00    -0.478 A  
HETATM   22  N   UNL     1     -11.091   6.488  72.078  1.00  0.00    -0.246 NA 
HETATM   23  C   UNL     1     -11.543   7.739  71.739  1.00  0.00    -0.272 A  
HETATM   24  C   UNL     1     -11.877   5.491  72.772  1.00  0.00    -0.102 C  
HETATM   25  C   UNL     1     -10.466   8.416  71.145  1.00  0.00    -0.263 A  
HETATM   26  C   UNL     1     -10.671   9.758  70.751  1.00  0.00    -0.393 A  
ENDBRANCH  14  17
ENDBRANCH   9  11
ENDBRANCH   4   9
BRANCH   7  27
HETATM   27  N   UNL     1      -7.898  11.795  66.009  1.00  0.00    -0.289 N  
HETATM   28  O   UNL     1      -9.551  11.521  67.617  1.00  0.00    -0.167 OA 
HETATM   29  H   UNL     1      -7.265  12.485  65.605  1.00  0.00     0.000 HD 
HETATM   30  C   UNL     1      -8.820  12.230  66.935  1.00  0.00    -0.207 C  
BRANCH  30  31
HETATM   31  C   UNL     1      -8.786  13.706  67.109  1.00  0.00    -0.224 C  
HETATM   32  C   UNL     1      -9.860  14.350  67.581  1.00  0.00    -0.224 C  
ENDBRANCH  30  31
ENDBRANCH   7  27
BRANCH   5  33
HETATM   33  N   UNL     1      -9.362  10.756  63.720  1.00  0.00    -0.244 NA 
HETATM   34  C   UNL     1      -8.986  11.178  62.375  1.00  0.00    -0.265 C  
BRANCH  33  35
HETATM   35  C   UNL     1     -10.734  11.094  64.142  1.00  0.00    -0.345 C  
BRANCH  35  36
HETATM   36  C   UNL     1     -11.166  12.469  63.582  1.00  0.00    -0.483 C  
BRANCH  36  37
HETATM   37  N   UNL     1     -12.291  13.117  64.289  1.00  0.00    -0.565 NA 
HETATM   38  C   UNL     1     -12.116  14.573  64.217  1.00  0.00    -0.425 C  
HETATM   39  C   UNL     1     -12.356  12.704  65.694  1.00  0.00    -0.323 C  
ENDBRANCH  36  37
ENDBRANCH  35  36
ENDBRANCH  33  35
ENDBRANCH   5  33
ENDBRANCH   2   3
TORSDOF 10
ENDMDL
MODEL      145
REMARK 921   NORMALIZED FREE ENERGY PREDICTED BY IDOCK:   -5.21 KCAL/MOL
REMARK 922        TOTAL FREE ENERGY PREDICTED BY IDOCK:   -9.96 KCAL/MOL
REMARK 923 INTER-LIGAND FREE ENERGY PREDICTED BY IDOCK:   -8.13 KCAL/MOL
REMARK 924 INTRA-LIGAND FREE ENERGY PREDICTED BY IDOCK:   -1.84 KCAL/MOL
REMARK 927      BINDING AFFINITY PREDICTED BY RF-SCORE:    0.00 PKD
ROOT
HETATM    1  C   UNL     1     -11.660  14.118  69.265  1.00  0.00    -0.304 C  
HETATM    2  O   UNL     1     -11.673  12.940  68.465  1.00  0.00    -0.300 OA 
ENDROOT
BRANCH   2   3
HETATM    3  C   UNL     1     -10.801  11.936  68.812  1.00  0.00    -0.231 A  
HETATM    4  C   UNL     1      -9.495  11.761  68.349  1.00  0.00    -0.188 A  
HETATM    5  C   UNL     1     -10.633   9.877  70.202  1.00  0.00    -0.297 A  
HETATM    6  C   UNL     1      -8.731  10.752  68.947  1.00  0.00    -0.154 A  
HETATM    7  C   UNL     1      -9.288   9.790  69.798  1.00  0.00    -0.226 A  
HETATM    8  C   UNL     1     -11.333  11.017  69.741  1.00  0.00    -0.366 A  
BRANCH   4   9
HETATM    9  N   UNL     1      -8.933  12.535  67.318  1.00  0.00    -0.185 NA 
HETATM   10  H   UNL     1      -9.286  12.373  66.376  1.00  0.00     0.000 HD 
BRANCH   9  11
HETATM   11  C   UNL     1      -7.937  13.505  67.462  1.00  0.00    -0.181 A  
HETATM   12  N   UNL     1      -6.739  13.070  67.869  1.00  0.00    -0.111 NA 
HETATM   13  N   UNL     1      -8.197  14.789  67.157  1.00  0.00    -0.212 NA 
HETATM   14  C   UNL     1      -7.183  15.667  67.139  1.00  0.00    -0.195 A  
HETATM   15  C   UNL     1      -5.907  15.291  67.501  1.00  0.00    -0.019 A  
HETATM   16  C   UNL     1      -5.750  13.976  67.881  1.00  0.00    -0.110 A  
BRANCH  14  17
HETATM   17  C   UNL     1      -7.512  17.028  66.695  1.00  0.00    -0.300 A  
HETATM   18  C   UNL     1      -9.440  20.103  66.331  1.00  0.00    -0.479 A  
HETATM   19  C   UNL     1      -6.649  17.812  65.944  1.00  0.00    -0.236 A  
HETATM   20  C   UNL     1     -10.659  19.858  66.968  1.00  0.00    -0.533 A  
HETATM   21  C   UNL     1     -10.924  18.620  67.538  1.00  0.00    -0.238 A  
HETATM   22  N   UNL     1      -7.247  19.019  65.703  1.00  0.00    -0.464 NA 
HETATM   23  C   UNL     1      -8.489  19.068  66.286  1.00  0.00    -0.280 A  
HETATM   24  C   UNL     1      -6.659  20.091  64.929  1.00  0.00    -0.252 C  
HETATM   25  C   UNL     1      -8.711  17.817  66.883  1.00  0.00    -0.262 A  
HETATM   26  C   UNL     1      -9.959  17.602  67.511  1.00  0.00    -0.322 A  
ENDBRANCH  14  17
ENDBRANCH   9  11
ENDBRANCH   4   9
BRANCH   7  27
HETATM   27  N   UNL     1      -8.520   8.636  70.059  1.00  0.00    -0.125 N  
HETATM   28  O   UNL     1      -7.125   9.489  71.708  1.00  0.00    -0.297 OA 
HETATM   29  H   UNL     1      -8.766   7.777  69.567  1.00  0.00     0.000 HD 
HETATM   30  C   UNL     1      -7.460   8.596  70.937  1.00  0.00    -0.083 C  
BRANCH  30  31
HETATM   31  C   UNL     1      -6.777   7.276  70.932  1.00  0.00    -0.048 C  
HETATM   32  C   UNL     1      -6.240   6.803  69.801  1.00  0.00    -0.037 C  
ENDBRANCH  30  31
ENDBRANCH   7  27
BRANCH   5  33
HETATM   33  N   UNL     1     -11.260   8.917  70.997  1.00  0.00    -0.264 NA 
HETATM   34  C   UNL     1     -11.108   8.870  72.447  1.00  0.00    -0.052 C  
BRANCH  33  35
HETATM   35  C   UNL     1     -12.243   7.983  70.420  1.00  0.00     0.360 C  
BRANCH  35  36
HETATM   36  C   UNL     1     -11.706   6.532  70.431  1.00  0.00    -0.375 C  
BRANCH  36  37
HETATM   37  N   UNL     1     -10.506   6.294  69.600  1.00  0.00    -0.215 NA 
HETATM   38  C   UNL     1     -10.898   6.333  68.186  1.00  0.00    -0.320 C  
HETATM   39  C   UNL     1      -9.893   4.996  69.898  1.00  0.00    -0.226 C  
ENDBRANCH  36  37
ENDBRANCH  35  36
ENDBRANCH  33  35
ENDBRANCH   5  33
ENDBRANCH   2   3
TORSDOF 10
ENDMDL
MODEL      146
REMARK 921   NORMALIZED FREE ENERGY PREDICTED BY IDOCK:   -5.15 KCAL/MOL
REMARK 922        TOTAL FREE ENERGY PREDICTED BY IDOCK:   -9.88 KCAL/MOL
REMARK 923 INTER-LIGAND FREE ENERGY PREDICTED BY IDOCK:  -10.28 KCAL/MOL
REMARK 924 INTRA-LIGAND FREE ENERGY PREDICTED BY IDOCK:    0.40 KCAL/MOL
REMARK 927      BINDING AFFINITY PREDICTED BY RF-SCORE:    0.00 PKD
ROOT
HETATM    1  C   UNL     1     -12.802  10.661  70.729  1.00  0.00    -0.352 C  
HETATM    2  O   UNL     1     -12.134  10.396  69.500  1.00  0.00    -0.182 OA 
ENDROOT
BRANCH   2   3
HETATM    3  C   UNL     1     -11.391  11.416  68.957  1.00  0.00    -0.280 A  
HETATM    4  C   UNL     1     -10.276  11.292  68.125  1.00  0.00    -0.180 A  
HETATM    5  C   UNL     1     -11.211  13.899  68.903  1.00  0.00    -0.271 A  
HETATM    6  C   UNL     1      -9.757  12.466  67.565  1.00  0.00    -0.191 A  
HETATM    7  C   UNL     1     -10.158  13.740  67.983  1.00  0.00    -0.245 A  
HETATM    8  C   UNL     1     -11.852  12.703  69.306  1.00  0.00    -0.358 A  
BRANCH   4   9
HETATM    9  N   UNL     1      -9.658  10.061  67.844  1.00  0.00    -0.144 NA 
HETATM   10  H   UNL     1      -8.744  10.096  67.393  1.00  0.00     0.000 HD 
BRANCH   9  11
HETATM   11  C   UNL     1     -10.177   8.793  68.125  1.00  0.00    -0.205 A  
HETATM   12  N   UNL     1     -10.659   8.106  67.083  1.00  0.00    -0.324 NA 
HETATM   13  N   UNL     1     -10.135   8.310  69.380  1.00  0.00    -0.193 NA 
HETATM   14  C   UNL     1     -10.480   7.031  69.591  1.00  0.00    -0.223 A  
HETATM   15  C   UNL     1     -10.946   6.239  68.564  1.00  0.00    -0.421 A  
HETATM   16  C   UNL     1     -11.035   6.841  67.329  1.00  0.00    -0.363 A  
BRANCH  14  17
HETATM   17  C   UNL     1     -10.313   6.534  70.963  1.00  0.00    -0.240 A  
HETATM   18  C   UNL     1      -9.078   6.392  74.393  1.00  0.00    -0.189 A  
HETATM   19  C   UNL     1     -11.002   5.439  71.464  1.00  0.00    -0.094 A  
HETATM   20  C   UNL     1      -8.138   7.420  74.495  1.00  0.00    -0.224 A  
HETATM   21  C   UNL     1      -7.835   8.214  73.396  1.00  0.00    -0.229 A  
HETATM   22  N   UNL     1     -10.628   5.240  72.765  1.00  0.00    -0.215 NA 
HETATM   23  C   UNL     1      -9.711   6.184  73.154  1.00  0.00    -0.158 A  
HETATM   24  C   UNL     1     -11.119   4.174  73.610  1.00  0.00    -0.251 C  
HETATM   25  C   UNL     1      -9.452   6.990  72.034  1.00  0.00    -0.149 A  
HETATM   26  C   UNL     1      -8.490   8.016  72.172  1.00  0.00    -0.194 A  
ENDBRANCH  14  17
ENDBRANCH   9  11
ENDBRANCH   4   9
BRANCH   7  27
HETATM   27  N   UNL     1      -9.340  14.829  67.615  1.00  0.00    -0.193 N  
HETATM   28  O   UNL     1      -9.854  14.926  65.353  1.00  0.00    -0.342 OA 
HETATM   29  H   UNL     1      -8.819  15.306  68.351  1.00  0.00     0.000 HD 
HETATM   30  C   UNL     1      -9.200  15.287  66.324  1.00  0.00    -0.315 C  
BRANCH  30  31
HETATM   31  C   UNL     1      -8.196  16.379  66.223  1.00  0.00    -0.343 C  
HETATM   32  C   UNL     1      -8.558  17.646  66.454  1.00  0.00    -0.269 C  
ENDBRANCH  30  31
ENDBRANCH   7  27
BRANCH   5  33
HETATM   33  N   UNL     1     -11.614  15.138  69.403  1.00  0.00    -0.303 NA 
HETATM   34  C   UNL     1     -11.014  16.397  68.973  1.00  0.00    -0.325 C  
BRANCH  33  35
HETATM   35  C   UNL     1     -12.786  15.251  70.289  1.00  0.00    -0.260 C  
BRANCH  35  36
HETATM   36  C   UNL     1     -12.372  15.721  71.703  1.00  0.00    -0.457 C  
BRANCH  36  37
HETATM   37  N   UNL     1     -13.170  15.164  72.816  1.00  0.00    -0.433 NA 
HETATM   38  C   UNL     1     -12.361  15.206  74.041  1.00  0.00    -0.591 C  
HETATM   39  C   UNL     1     -13.576  13.781  72.550  1.00  0.00    -0.575 C  
ENDBRANCH  36  37
ENDBRANCH  35  36
ENDBRANCH  33  35
ENDBRANCH   5  33
ENDBRANCH   2   3
TORSDOF 10
ENDMDL
MODEL      147
REMARK 921   NORMALIZED FREE ENERGY PREDICTED BY IDOCK:   -5.15 KCAL/MOL
REMARK 922        TOTAL FREE ENERGY PREDICTED BY IDOCK:   -9.87 KCAL/MOL
REMARK 923 INTER-LIGAND FREE ENERGY PREDICTED BY IDOCK:   -8.14 KCAL/MOL
REMARK 924 INTRA-LIGAND FREE ENERGY PREDICTED BY IDOCK:   -1.73 KCAL/MOL
REMARK 927      BINDING AFFINITY PREDICTED BY RF-SCORE:    0.00 PKD
ROOT
HETATM    1  C   UNL     1     -11.426  12.463  65.409  1.00  0.00    -0.358 C  
HETATM    2  O   UNL     1     -10.897  12.585  66.725  1.00  0.00    -0.240 OA 
ENDROOT
BRANCH   2   3
HETATM    3  C   UNL     1      -9.969  13.575  66.939  1.00  0.00    -0.256 A  
HETATM    4  C   UNL     1      -8.579  13.451  66.887  1.00  0.00    -0.100 A  
HETATM    5  C   UNL     1      -9.775  15.985  67.538  1.00  0.00    -0.228 A  
HETATM    6  C   UNL     1      -7.823  14.625  66.993  1.00  0.00    -0.056 A  
HETATM    7  C   UNL     1      -8.384  15.849  67.373  1.00  0.00    -0.171 A  
HETATM    8  C   UNL     1     -10.538  14.833  67.233  1.00  0.00    -0.273 A  
BRANCH   4   9
HETATM    9  N   UNL     1      -7.922  12.215  66.749  1.00  0.00    -0.360 NA 
HETATM   10  H   UNL     1      -7.564  11.985  65.822  1.00  0.00     0.000 HD 
BRANCH   9  11
HETATM   11  C   UNL     1      -7.714  11.272  67.760  1.00  0.00    -0.113 A  
HETATM   12  N   UNL     1      -6.445  10.913  67.984  1.00  0.00    -0.058 NA 
HETATM   13  N   UNL     1      -8.755  10.808  68.474  1.00  0.00    -0.142 NA 
HETATM   14  C   UNL     1      -8.512  10.039  69.546  1.00  0.00    -0.176 A  
HETATM   15  C   UNL     1      -7.228   9.658  69.874  1.00  0.00    -0.106 A  
HETATM   16  C   UNL     1      -6.232  10.111  69.038  1.00  0.00    -0.043 A  
BRANCH  14  17
HETATM   17  C   UNL     1      -9.682   9.652  70.344  1.00  0.00    -0.304 A  
HETATM   18  C   UNL     1     -11.736   7.659  72.607  1.00  0.00    -0.323 A  
HETATM   19  C   UNL     1     -10.827  10.429  70.442  1.00  0.00    -0.189 A  
HETATM   20  C   UNL     1     -10.989   6.510  72.876  1.00  0.00    -0.282 A  
HETATM   21  C   UNL     1      -9.748   6.317  72.283  1.00  0.00    -0.165 A  
HETATM   22  N   UNL     1     -11.722   9.796  71.260  1.00  0.00    -0.368 NA 
HETATM   23  C   UNL     1     -11.200   8.615  71.726  1.00  0.00    -0.326 A  
HETATM   24  C   UNL     1     -13.043  10.293  71.580  1.00  0.00    -0.433 C  
HETATM   25  C   UNL     1      -9.934   8.466  71.137  1.00  0.00    -0.245 A  
HETATM   26  C   UNL     1      -9.210   7.287  71.425  1.00  0.00    -0.145 A  
ENDBRANCH  14  17
ENDBRANCH   9  11
ENDBRANCH   4   9
BRANCH   7  27
HETATM   27  N   UNL     1      -7.497  16.866  67.783  1.00  0.00    -0.161 N  
HETATM   28  O   UNL     1      -6.836  15.977  69.824  1.00  0.00    -0.181 OA 
HETATM   29  H   UNL     1      -7.323  17.637  67.139  1.00  0.00     0.000 HD 
HETATM   30  C   UNL     1      -6.852  16.884  68.999  1.00  0.00    -0.224 C  
BRANCH  30  31
HETATM   31  C   UNL     1      -6.062  18.127  69.197  1.00  0.00    -0.235 C  
HETATM   32  C   UNL     1      -6.675  19.260  69.562  1.00  0.00    -0.302 C  
ENDBRANCH  30  31
ENDBRANCH   7  27
BRANCH   5  33
HETATM   33  N   UNL     1     -10.385  17.161  67.975  1.00  0.00    -0.336 NA 
HETATM   34  C   UNL     1     -10.338  17.607  69.363  1.00  0.00    -0.006 C  
BRANCH  33  35
HETATM   35  C   UNL     1     -10.985  18.104  67.014  1.00  0.00     0.028 C  
BRANCH  35  36
HETATM   36  C   UNL     1      -9.910  18.707  66.080  1.00  0.00    -0.287 C  
BRANCH  36  37
HETATM   37  N   UNL     1      -8.838  19.469  66.756  1.00  0.00    -0.315 NA 
HETATM   38  C   UNL     1      -9.410  20.710  67.292  1.00  0.00    -0.340 C  
HETATM   39  C   UNL     1      -7.745  19.795  65.835  1.00  0.00    -0.320 C  
ENDBRANCH  36  37
ENDBRANCH  35  36
ENDBRANCH  33  35
ENDBRANCH   5  33
ENDBRANCH   2   3
TORSDOF 10
ENDMDL
MODEL      148
REMARK 921   NORMALIZED FREE ENERGY PREDICTED BY IDOCK:   -5.08 KCAL/MOL
REMARK 922        TOTAL FREE ENERGY PREDICTED BY IDOCK:   -9.77 KCAL/MOL
REMARK 923 INTER-LIGAND FREE ENERGY PREDICTED BY IDOCK:   -9.01 KCAL/MOL
REMARK 924 INTRA-LIGAND FREE ENERGY PREDICTED BY IDOCK:   -0.75 KCAL/MOL
REMARK 927      BINDING AFFINITY PREDICTED BY RF-SCORE:    0.00 PKD
ROOT
HETATM    1  C   UNL     1      -7.695  10.189  64.906  1.00  0.00    -0.143 C  
HETATM    2  O   UNL     1      -8.917   9.948  65.597  1.00  0.00    -0.154 OA 
ENDROOT
BRANCH   2   3
HETATM    3  C   UNL     1      -9.388  10.953  66.407  1.00  0.00    -0.176 A  
HETATM    4  C   UNL     1      -9.333  11.004  67.802  1.00  0.00    -0.158 A  
HETATM    5  C   UNL     1     -10.570  13.143  66.330  1.00  0.00    -0.284 A  
HETATM    6  C   UNL     1      -9.741  12.192  68.419  1.00  0.00    -0.193 A  
HETATM    7  C   UNL     1     -10.403  13.211  67.726  1.00  0.00    -0.230 A  
HETATM    8  C   UNL     1      -9.974  12.025  65.700  1.00  0.00    -0.270 A  
BRANCH   4   9
HETATM    9  N   UNL     1      -8.904   9.924  68.594  1.00  0.00    -0.124 NA 
HETATM   10  H   UNL     1      -8.076   9.421  68.279  1.00  0.00     0.000 HD 
BRANCH   9  11
HETATM   11  C   UNL     1      -9.506   9.475  69.774  1.00  0.00    -0.210 A  
HETATM   12  N   UNL     1     -10.605  10.129  70.166  1.00  0.00    -0.285 NA 
HETATM   13  N   UNL     1      -9.000   8.413  70.427  1.00  0.00    -0.144 NA 
HETATM   14  C   UNL     1      -9.691   7.898  71.455  1.00  0.00    -0.161 A  
HETATM   15  C   UNL     1     -10.857   8.485  71.896  1.00  0.00    -0.392 A  
HETATM   16  C   UNL     1     -11.255   9.618  71.222  1.00  0.00    -0.376 A  
BRANCH  14  17
HETATM   17  C   UNL     1      -9.141   6.677  72.058  1.00  0.00    -0.139 A  
HETATM   18  C   UNL     1      -9.114   3.369  73.596  1.00  0.00    -0.096 A  
HETATM   19  C   UNL     1      -7.780   6.442  72.193  1.00  0.00    -0.099 A  
HETATM   20  C   UNL     1     -10.456   3.032  73.781  1.00  0.00    -0.246 A  
HETATM   21  C   UNL     1     -11.465   3.918  73.426  1.00  0.00    -0.185 A  
HETATM   22  N   UNL     1      -7.600   5.221  72.783  1.00  0.00    -0.096 NA 
HETATM   23  C   UNL     1      -8.810   4.624  73.038  1.00  0.00    -0.112 A  
HETATM   24  C   UNL     1      -6.314   4.644  73.109  1.00  0.00    -0.041 C  
HETATM   25  C   UNL     1      -9.805   5.528  72.636  1.00  0.00    -0.185 A  
HETATM   26  C   UNL     1     -11.153   5.157  72.847  1.00  0.00    -0.359 A  
ENDBRANCH  14  17
ENDBRANCH   9  11
ENDBRANCH   4   9
BRANCH   7  27
HETATM   27  N   UNL     1     -11.070  14.189  68.494  1.00  0.00    -0.245 N  
HETATM   28  O   UNL     1      -9.225  15.353  69.288  1.00  0.00    -0.230 OA 
HETATM   29  H   UNL     1     -12.090  14.196  68.477  1.00  0.00     0.000 HD 
HETATM   30  C   UNL     1     -10.430  15.132  69.265  1.00  0.00    -0.260 C  
BRANCH  30  31
HETATM   31  C   UNL     1     -11.387  15.963  70.043  1.00  0.00    -0.358 C  
HETATM   32  C   UNL     1     -12.541  15.435  70.469  1.00  0.00    -0.471 C  
ENDBRANCH  30  31
ENDBRANCH   7  27
BRANCH   5  33
HETATM   33  N   UNL     1     -11.274  14.097  65.593  1.00  0.00    -0.303 NA 
HETATM   34  C   UNL     1     -12.728  14.086  65.472  1.00  0.00    -0.486 C  
BRANCH  33  35
HETATM   35  C   UNL     1     -10.587  15.267  65.019  1.00  0.00    -0.418 C  
BRANCH  35  36
HETATM   36  C   UNL     1     -10.772  16.516  65.914  1.00  0.00    -0.190 C  
BRANCH  36  37
HETATM   37  N   UNL     1      -9.811  17.614  65.678  1.00  0.00    -0.503 NA 
HETATM   38  C   UNL     1      -8.622  17.383  66.507  1.00  0.00    -0.261 C  
HETATM   39  C   UNL     1     -10.390  18.919  66.012  1.00  0.00    -0.429 C  
ENDBRANCH  36  37
ENDBRANCH  35  36
ENDBRANCH  33  35
ENDBRANCH   5  33
ENDBRANCH   2   3
TORSDOF 10
ENDMDL
MODEL      149
REMARK 921   NORMALIZED FREE ENERGY PREDICTED BY IDOCK:   -5.08 KCAL/MOL
REMARK 922        TOTAL FREE ENERGY PREDICTED BY IDOCK:   -9.76 KCAL/MOL
REMARK 923 INTER-LIGAND FREE ENERGY PREDICTED BY IDOCK:   -8.09 KCAL/MOL
REMARK 924 INTRA-LIGAND FREE ENERGY PREDICTED BY IDOCK:   -1.67 KCAL/MOL
REMARK 927      BINDING AFFINITY PREDICTED BY RF-SCORE:    0.00 PKD
ROOT
HETATM    1  C   UNL     1     -12.646  12.576  64.285  1.00  0.00    -0.396 C  
HETATM    2  O   UNL     1     -12.463  12.013  65.579  1.00  0.00    -0.409 OA 
ENDROOT
BRANCH   2   3
HETATM    3  C   UNL     1     -11.418  12.494  66.331  1.00  0.00    -0.365 A  
HETATM    4  C   UNL     1     -10.095  12.047  66.313  1.00  0.00    -0.222 A  
HETATM    5  C   UNL     1     -10.875  14.172  68.089  1.00  0.00    -0.248 A  
HETATM    6  C   UNL     1      -9.158  12.779  67.054  1.00  0.00    -0.220 A  
HETATM    7  C   UNL     1      -9.532  13.769  67.970  1.00  0.00    -0.207 A  
HETATM    8  C   UNL     1     -11.776  13.556  67.189  1.00  0.00    -0.419 A  
BRANCH   4   9
HETATM    9  N   UNL     1      -9.677  10.906  65.605  1.00  0.00    -0.219 NA 
HETATM   10  H   UNL     1     -10.082  10.763  64.681  1.00  0.00     0.000 HD 
BRANCH   9  11
HETATM   11  C   UNL     1      -8.760   9.948  66.049  1.00  0.00    -0.137 A  
HETATM   12  N   UNL     1      -7.468  10.216  65.828  1.00  0.00    -0.125 NA 
HETATM   13  N   UNL     1      -9.192   8.851  66.696  1.00  0.00    -0.159 NA 
HETATM   14  C   UNL     1      -8.288   8.036  67.260  1.00  0.00    -0.122 A  
HETATM   15  C   UNL     1      -6.936   8.264  67.119  1.00  0.00    -0.075 A  
HETATM   16  C   UNL     1      -6.584   9.364  66.369  1.00  0.00    -0.071 A  
BRANCH  14  17
HETATM   17  C   UNL     1      -8.825   6.915  68.042  1.00  0.00    -0.123 A  
HETATM   18  C   UNL     1     -10.526   5.186  70.768  1.00  0.00    -0.263 A  
HETATM   19  C   UNL     1      -8.755   5.594  67.623  1.00  0.00    -0.107 A  
HETATM   20  C   UNL     1     -10.855   6.180  71.693  1.00  0.00    -0.308 A  
HETATM   21  C   UNL     1     -10.494   7.503  71.470  1.00  0.00    -0.226 A  
HETATM   22  N   UNL     1      -9.348   4.800  68.567  1.00  0.00    -0.125 NA 
HETATM   23  C   UNL     1      -9.825   5.559  69.607  1.00  0.00    -0.193 A  
HETATM   24  C   UNL     1      -9.445   3.359  68.490  1.00  0.00    -0.142 C  
HETATM   25  C   UNL     1      -9.476   6.891  69.335  1.00  0.00    -0.148 A  
HETATM   26  C   UNL     1      -9.818   7.869  70.297  1.00  0.00    -0.184 A  
ENDBRANCH  14  17
ENDBRANCH   9  11
ENDBRANCH   4   9
BRANCH   7  27
HETATM   27  N   UNL     1      -8.558  14.189  68.900  1.00  0.00    -0.354 N  
HETATM   28  O   UNL     1      -7.008  15.092  67.426  1.00  0.00    -0.193 OA 
HETATM   29  H   UNL     1      -8.762  14.071  69.892  1.00  0.00     0.000 HD 
HETATM   30  C   UNL     1      -7.350  14.750  68.552  1.00  0.00    -0.118 C  
BRANCH  30  31
HETATM   31  C   UNL     1      -6.486  14.999  69.736  1.00  0.00    -0.163 C  
HETATM   32  C   UNL     1      -5.955  13.970  70.407  1.00  0.00    -0.165 C  
ENDBRANCH  30  31
ENDBRANCH   7  27
BRANCH   5  33
HETATM   33  N   UNL     1     -11.316  15.107  69.026  1.00  0.00    -0.276 NA 
HETATM   34  C   UNL     1     -11.440  14.805  70.448  1.00  0.00    -0.252 C  
BRANCH  33  35
HETATM   35  C   UNL     1     -11.536  16.514  68.643  1.00  0.00    -0.146 C  
BRANCH  35  36
HETATM   36  C   UNL     1     -10.338  17.398  69.063  1.00  0.00    -0.319 C  
BRANCH  36  37
HETATM   37  N   UNL     1      -9.227  17.466  68.090  1.00  0.00    -0.263 NA 
HETATM   38  C   UNL     1      -8.430  18.667  68.370  1.00  0.00    -0.338 C  
HETATM   39  C   UNL     1      -9.719  17.520  66.711  1.00  0.00    -0.295 C  
ENDBRANCH  36  37
ENDBRANCH  35  36
ENDBRANCH  33  35
ENDBRANCH   5  33
ENDBRANCH   2   3
TORSDOF 10
ENDMDL
MODEL      150
REMARK 921   NORMALIZED FREE ENERGY PREDICTED BY IDOCK:   -5.07 KCAL/MOL
REMARK 922        TOTAL FREE ENERGY PREDICTED BY IDOCK:   -9.75 KCAL/MOL
REMARK 923 INTER-LIGAND FREE ENERGY PREDICTED BY IDOCK:   -8.24 KCAL/MOL
REMARK 924 INTRA-LIGAND FREE ENERGY PREDICTED BY IDOCK:   -1.51 KCAL/MOL
REMARK 927      BINDING AFFINITY PREDICTED BY RF-SCORE:    0.00 PKD
ROOT
HETATM    1  C   UNL     1      -7.802   7.919  71.319  1.00  0.00    -0.088 C  
HETATM    2  O   UNL     1      -8.662   8.617  70.425  1.00  0.00    -0.137 OA 
ENDROOT
BRANCH   2   3
HETATM    3  C   UNL     1      -9.104   7.934  69.318  1.00  0.00    -0.148 A  
HETATM    4  C   UNL     1     -10.367   7.368  69.128  1.00  0.00    -0.208 A  
HETATM    5  C   UNL     1      -8.357   7.123  67.085  1.00  0.00    -0.118 A  
HETATM    6  C   UNL     1     -10.654   6.843  67.862  1.00  0.00    -0.286 A  
HETATM    7  C   UNL     1      -9.670   6.659  66.884  1.00  0.00    -0.164 A  
HETATM    8  C   UNL     1      -8.139   7.827  68.293  1.00  0.00    -0.124 A  
BRANCH   4   9
HETATM    9  N   UNL     1     -11.338   7.295  70.143  1.00  0.00    -0.417 NA 
HETATM   10  H   UNL     1     -11.560   6.368  70.502  1.00  0.00     0.000 HD 
BRANCH   9  11
HETATM   11  C   UNL     1     -12.027   8.374  70.706  1.00  0.00    -0.110 A  
HETATM   12  N   UNL     1     -12.691   8.126  71.841  1.00  0.00    -0.323 NA 
HETATM   13  N   UNL     1     -11.964   9.588  70.131  1.00  0.00    -0.004 NA 
HETATM   14  C   UNL     1     -12.489  10.638  70.780  1.00  0.00    -0.385 A  
HETATM   15  C   UNL     1     -13.154  10.478  71.977  1.00  0.00    -0.511 A  
HETATM   16  C   UNL     1     -13.242   9.187  72.450  1.00  0.00    -0.444 A  
BRANCH  14  17
HETATM   17  C   UNL     1     -12.296  11.951  70.151  1.00  0.00    -0.247 A  
HETATM   18  C   UNL     1     -11.748  14.393  67.496  1.00  0.00    -0.416 A  
HETATM   19  C   UNL     1     -12.342  13.145  70.855  1.00  0.00    -0.307 A  
HETATM   20  C   UNL     1     -11.556  13.644  66.333  1.00  0.00    -0.375 A  
HETATM   21  C   UNL     1     -11.568  12.255  66.375  1.00  0.00    -0.445 A  
HETATM   22  N   UNL     1     -12.132  14.180  69.984  1.00  0.00    -0.327 NA 
HETATM   23  C   UNL     1     -11.957  13.708  68.706  1.00  0.00    -0.359 A  
HETATM   24  C   UNL     1     -12.084  15.576  70.358  1.00  0.00    -0.392 C  
HETATM   25  C   UNL     1     -12.009  12.307  68.777  1.00  0.00    -0.281 A  
HETATM   26  C   UNL     1     -11.803  11.581  67.582  1.00  0.00    -0.194 A  
ENDBRANCH  14  17
ENDBRANCH   9  11
ENDBRANCH   4   9
BRANCH   7  27
HETATM   27  N   UNL     1      -9.988   5.816  65.798  1.00  0.00    -0.375 N  
HETATM   28  O   UNL     1      -9.605   3.759  66.805  1.00  0.00    -0.205 OA 
HETATM   29  H   UNL     1     -10.333   6.250  64.942  1.00  0.00     0.000 HD 
HETATM   30  C   UNL     1      -9.863   4.445  65.823  1.00  0.00    -0.225 C  
BRANCH  30  31
HETATM   31  C   UNL     1     -10.174   3.831  64.505  1.00  0.00    -0.209 C  
HETATM   32  C   UNL     1      -9.552   2.707  64.127  1.00  0.00    -0.144 C  
ENDBRANCH  30  31
ENDBRANCH   7  27
BRANCH   5  33
HETATM   33  N   UNL     1      -7.320   6.914  66.174  1.00  0.00    -0.074 NA 
HETATM   34  C   UNL     1      -6.839   7.955  65.272  1.00  0.00    -0.055 C  
BRANCH  33  35
HETATM   35  C   UNL     1      -6.546   5.660  66.185  1.00  0.00    -0.051 C  
BRANCH  35  36
HETATM   36  C   UNL     1      -5.473   5.678  67.299  1.00  0.00    -0.012 C  
BRANCH  36  37
HETATM   37  N   UNL     1      -5.492   4.520  68.217  1.00  0.00    -0.015 NA 
HETATM   38  C   UNL     1      -5.612   3.292  67.422  1.00  0.00    -0.021 C  
HETATM   39  C   UNL     1      -6.610   4.598  69.162  1.00  0.00    -0.044 C  
ENDBRANCH  36  37
ENDBRANCH  35  36
ENDBRANCH  33  35
ENDBRANCH   5  33
ENDBRANCH   2   3
TORSDOF 10
ENDMDL
MODEL      151
REMARK 921   NORMALIZED FREE ENERGY PREDICTED BY IDOCK:   -5.07 KCAL/MOL
REMARK 922        TOTAL FREE ENERGY PREDICTED BY IDOCK:   -9.75 KCAL/MOL
REMARK 923 INTER-LIGAND FREE ENERGY PREDICTED BY IDOCK:   -9.13 KCAL/MOL
REMARK 924 INTRA-LIGAND FREE ENERGY PREDICTED BY IDOCK:   -0.62 KCAL/MOL
REMARK 927      BINDING AFFINITY PREDICTED BY RF-SCORE:    0.00 PKD
ROOT
HETATM    1  C   UNL     1     -11.931  15.646  72.946  1.00  0.00    -0.479 C  
HETATM    2  O   UNL     1     -12.349  14.461  72.276  1.00  0.00    -0.285 OA 
ENDROOT
BRANCH   2   3
HETATM    3  C   UNL     1     -12.005  14.333  70.952  1.00  0.00    -0.320 A  
HETATM    4  C   UNL     1     -12.090  13.181  70.169  1.00  0.00    -0.321 A  
HETATM    5  C   UNL     1     -11.068  15.620  69.037  1.00  0.00    -0.279 A  
HETATM    6  C   UNL     1     -11.825  13.311  68.800  1.00  0.00    -0.371 A  
HETATM    7  C   UNL     1     -11.266  14.470  68.250  1.00  0.00    -0.277 A  
HETATM    8  C   UNL     1     -11.527  15.528  70.373  1.00  0.00    -0.364 A  
BRANCH   4   9
HETATM    9  N   UNL     1     -12.413  11.916  70.693  1.00  0.00    -0.296 NA 
HETATM   10  H   UNL     1     -13.099  11.891  71.447  1.00  0.00     0.000 HD 
BRANCH   9  11
HETATM   11  C   UNL     1     -11.882  10.690  70.280  1.00  0.00    -0.342 A  
HETATM   12  N   UNL     1     -12.005  10.399  68.980  1.00  0.00    -0.156 NA 
HETATM   13  N   UNL     1     -11.251   9.896  71.164  1.00  0.00    -0.362 NA 
HETATM   14  C   UNL     1     -10.604   8.812  70.711  1.00  0.00    -0.220 A  
HETATM   15  C   UNL     1     -10.643   8.463  69.378  1.00  0.00    -0.204 A  
HETATM   16  C   UNL     1     -11.382   9.287  68.559  1.00  0.00     0.414 A  
BRANCH  14  17
HETATM   17  C   UNL     1      -9.848   8.045  71.709  1.00  0.00    -0.240 A  
HETATM   18  C   UNL     1      -8.566   5.129  73.488  1.00  0.00    -0.112 A  
HETATM   19  C   UNL     1      -9.011   8.634  72.646  1.00  0.00    -0.045 A  
HETATM   20  C   UNL     1      -9.203   4.029  72.910  1.00  0.00    -0.130 A  
HETATM   21  C   UNL     1     -10.137   4.202  71.897  1.00  0.00    -0.224 A  
HETATM   22  N   UNL     1      -8.454   7.651  73.419  1.00  0.00    -0.152 NA 
HETATM   23  C   UNL     1      -8.890   6.414  73.016  1.00  0.00    -0.126 A  
HETATM   24  C   UNL     1      -7.545   7.884  74.520  1.00  0.00    -0.198 C  
HETATM   25  C   UNL     1      -9.803   6.621  71.970  1.00  0.00    -0.166 A  
HETATM   26  C   UNL     1     -10.435   5.485  71.415  1.00  0.00    -0.305 A  
ENDBRANCH  14  17
ENDBRANCH   9  11
ENDBRANCH   4   9
BRANCH   7  27
HETATM   27  N   UNL     1     -10.724  14.372  66.951  1.00  0.00    -0.289 N  
HETATM   28  O   UNL     1     -12.690  14.067  65.754  1.00  0.00    -0.516 OA 
HETATM   29  H   UNL     1      -9.718  14.504  66.842  1.00  0.00     0.000 HD 
HETATM   30  C   UNL     1     -11.467  14.109  65.822  1.00  0.00    -0.327 C  
BRANCH  30  31
HETATM   31  C   UNL     1     -10.616  13.963  64.612  1.00  0.00    -0.432 C  
HETATM   32  C   UNL     1     -10.608  12.808  63.935  1.00  0.00    -0.427 C  
ENDBRANCH  30  31
ENDBRANCH   7  27
BRANCH   5  33
HETATM   33  N   UNL     1     -10.459  16.781  68.560  1.00  0.00    -0.314 NA 
HETATM   34  C   UNL     1      -9.185  17.274  69.074  1.00  0.00    -0.109 C  
BRANCH  33  35
HETATM   35  C   UNL     1     -11.004  17.496  67.392  1.00  0.00    -0.050 C  
BRANCH  35  36
HETATM   36  C   UNL     1      -9.874  17.933  66.430  1.00  0.00    -0.337 C  
BRANCH  36  37
HETATM   37  N   UNL     1      -9.574  19.380  66.420  1.00  0.00    -0.359 NA 
HETATM   38  C   UNL     1     -10.534  20.053  65.536  1.00  0.00    -0.211 C  
HETATM   39  C   UNL     1      -8.212  19.646  65.948  1.00  0.00    -0.202 C  
ENDBRANCH  36  37
ENDBRANCH  35  36
ENDBRANCH  33  35
ENDBRANCH   5  33
ENDBRANCH   2   3
TORSDOF 10
ENDMDL
MODEL      152
REMARK 921   NORMALIZED FREE ENERGY PREDICTED BY IDOCK:   -5.07 KCAL/MOL
REMARK 922        TOTAL FREE ENERGY PREDICTED BY IDOCK:   -9.74 KCAL/MOL
REMARK 923 INTER-LIGAND FREE ENERGY PREDICTED BY IDOCK:   -8.30 KCAL/MOL
REMARK 924 INTRA-LIGAND FREE ENERGY PREDICTED BY IDOCK:   -1.44 KCAL/MOL
REMARK 927      BINDING AFFINITY PREDICTED BY RF-SCORE:    0.00 PKD
ROOT
HETATM    1  C   UNL     1      -5.167  19.859  70.072  1.00  0.00    -0.207 C  
HETATM    2  O   UNL     1      -5.211  18.437  70.021  1.00  0.00    -0.197 OA 
ENDROOT
BRANCH   2   3
HETATM    3  C   UNL     1      -6.343  17.862  69.495  1.00  0.00    -0.212 A  
HETATM    4  C   UNL     1      -6.707  16.516  69.554  1.00  0.00    -0.198 A  
HETATM    5  C   UNL     1      -8.390  18.404  68.185  1.00  0.00    -0.284 A  
HETATM    6  C   UNL     1      -7.978  16.171  69.079  1.00  0.00    -0.236 A  
HETATM    7  C   UNL     1      -8.777  17.062  68.354  1.00  0.00    -0.247 A  
HETATM    8  C   UNL     1      -7.194  18.780  68.843  1.00  0.00    -0.333 A  
BRANCH   4   9
HETATM    9  N   UNL     1      -5.858  15.510  70.050  1.00  0.00    -0.140 NA 
HETATM   10  H   UNL     1      -5.046  15.815  70.586  1.00  0.00     0.000 HD 
BRANCH   9  11
HETATM   11  C   UNL     1      -6.021  14.132  69.877  1.00  0.00    -0.133 A  
HETATM   12  N   UNL     1      -5.442  13.347  70.793  1.00  0.00    -0.151 NA 
HETATM   13  N   UNL     1      -6.763  13.663  68.858  1.00  0.00    -0.104 NA 
HETATM   14  C   UNL     1      -7.045  12.353  68.814  1.00  0.00    -0.098 A  
HETATM   15  C   UNL     1      -6.524  11.479  69.744  1.00  0.00    -0.125 A  
HETATM   16  C   UNL     1      -5.706  12.035  70.703  1.00  0.00    -0.127 A  
BRANCH  14  17
HETATM   17  C   UNL     1      -7.946  11.920  67.738  1.00  0.00    -0.144 A  
HETATM   18  C   UNL     1     -11.028  11.624  65.807  1.00  0.00    -0.329 A  
HETATM   19  C   UNL     1      -7.534  11.135  66.671  1.00  0.00    -0.146 A  
HETATM   20  C   UNL     1     -11.998  12.307  66.545  1.00  0.00    -0.274 A  
HETATM   21  C   UNL     1     -11.681  12.889  67.765  1.00  0.00    -0.412 A  
HETATM   22  N   UNL     1      -8.604  10.915  65.846  1.00  0.00    -0.176 NA 
HETATM   23  C   UNL     1      -9.724  11.544  66.329  1.00  0.00    -0.215 A  
HETATM   24  C   UNL     1      -8.565  10.116  64.640  1.00  0.00    -0.183 C  
HETATM   25  C   UNL     1      -9.362  12.151  67.542  1.00  0.00    -0.181 A  
HETATM   26  C   UNL     1     -10.372  12.827  68.265  1.00  0.00    -0.248 A  
ENDBRANCH  14  17
ENDBRANCH   9  11
ENDBRANCH   4   9
BRANCH   7  27
HETATM   27  N   UNL     1      -9.862  16.519  67.634  1.00  0.00    -0.244 N  
HETATM   28  O   UNL     1      -8.860  16.332  65.547  1.00  0.00    -0.277 OA 
HETATM   29  H   UNL     1     -10.716  16.301  68.148  1.00  0.00     0.000 HD 
HETATM   30  C   UNL     1      -9.840  16.264  66.281  1.00  0.00    -0.313 C  
BRANCH  30  31
HETATM   31  C   UNL     1     -11.156  15.790  65.779  1.00  0.00    -0.124 C  
HETATM   32  C   UNL     1     -11.277  15.363  64.516  1.00  0.00    -0.310 C  
ENDBRANCH  30  31
ENDBRANCH   7  27
BRANCH   5  33
HETATM   33  N   UNL     1      -9.113  19.322  67.422  1.00  0.00    -0.291 NA 
HETATM   34  C   UNL     1     -10.382  19.891  67.864  1.00  0.00    -0.406 C  
BRANCH  33  35
HETATM   35  C   UNL     1      -8.548  19.888  66.184  1.00  0.00    -0.312 C  
BRANCH  35  36
HETATM   36  C   UNL     1      -7.211  20.614  66.463  1.00  0.00    -0.187 C  
BRANCH  36  37
HETATM   37  N   UNL     1      -6.108  20.294  65.532  1.00  0.00    -0.201 NA 
HETATM   38  C   UNL     1      -6.365  20.963  64.251  1.00  0.00    -0.287 C  
HETATM   39  C   UNL     1      -5.991  18.849  65.311  1.00  0.00    -0.253 C  
ENDBRANCH  36  37
ENDBRANCH  35  36
ENDBRANCH  33  35
ENDBRANCH   5  33
ENDBRANCH   2   3
TORSDOF 10
ENDMDL
MODEL      153
REMARK 921   NORMALIZED FREE ENERGY PREDICTED BY IDOCK:   -5.06 KCAL/MOL
REMARK 922        TOTAL FREE ENERGY PREDICTED BY IDOCK:   -9.73 KCAL/MOL
REMARK 923 INTER-LIGAND FREE ENERGY PREDICTED BY IDOCK:   -7.96 KCAL/MOL
REMARK 924 INTRA-LIGAND FREE ENERGY PREDICTED BY IDOCK:   -1.77 KCAL/MOL
REMARK 927      BINDING AFFINITY PREDICTED BY RF-SCORE:    0.00 PKD
ROOT
HETATM    1  C   UNL     1     -13.788   9.195  72.256  1.00  0.00    -0.463 C  
HETATM    2  O   UNL     1     -13.408   9.809  71.029  1.00  0.00    -0.355 OA 
ENDROOT
BRANCH   2   3
HETATM    3  C   UNL     1     -12.104   9.652  70.625  1.00  0.00    -0.194 A  
HETATM    4  C   UNL     1     -11.376  10.498  69.786  1.00  0.00    -0.300 A  
HETATM    5  C   UNL     1     -10.160   8.108  70.830  1.00  0.00    -0.189 A  
HETATM    6  C   UNL     1     -10.012  10.225  69.623  1.00  0.00    -0.240 A  
HETATM    7  C   UNL     1      -9.425   9.036  70.069  1.00  0.00    -0.187 A  
HETATM    8  C   UNL     1     -11.483   8.498  71.150  1.00  0.00    -0.322 A  
BRANCH   4   9
HETATM    9  N   UNL     1     -11.951  11.583  69.102  1.00  0.00    -0.330 NA 
HETATM   10  H   UNL     1     -12.356  11.389  68.186  1.00  0.00     0.000 HD 
BRANCH   9  11
HETATM   11  C   UNL     1     -12.020  12.904  69.556  1.00  0.00    -0.285 A  
HETATM   12  N   UNL     1     -12.763  13.118  70.648  1.00  0.00    -0.188 NA 
HETATM   13  N   UNL     1     -11.326  13.870  68.927  1.00  0.00    -0.265 NA 
HETATM   14  C   UNL     1     -11.272  15.090  69.482  1.00  0.00    -0.276 A  
HETATM   15  C   UNL     1     -11.973  15.384  70.631  1.00  0.00    -0.396 A  
HETATM   16  C   UNL     1     -12.723  14.357  71.160  1.00  0.00    -0.352 A  
BRANCH  14  17
HETATM   17  C   UNL     1     -10.414  16.071  68.805  1.00  0.00    -0.248 A  
HETATM   18  C   UNL     1      -7.342  17.686  67.677  1.00  0.00    -0.202 A  
HETATM   19  C   UNL     1     -10.911  17.109  68.030  1.00  0.00    -0.317 A  
HETATM   20  C   UNL     1      -6.303  16.976  68.283  1.00  0.00    -0.143 A  
HETATM   21  C   UNL     1      -6.573  15.918  69.141  1.00  0.00    -0.158 A  
HETATM   22  N   UNL     1      -9.860  17.835  67.538  1.00  0.00    -0.295 NA 
HETATM   23  C   UNL     1      -8.666  17.301  67.955  1.00  0.00    -0.231 A  
HETATM   24  C   UNL     1      -9.988  19.012  66.706  1.00  0.00    -0.360 C  
HETATM   25  C   UNL     1      -8.973  16.216  68.791  1.00  0.00    -0.236 A  
HETATM   26  C   UNL     1      -7.896  15.526  69.393  1.00  0.00    -0.231 A  
ENDBRANCH  14  17
ENDBRANCH   9  11
ENDBRANCH   4   9
BRANCH   7  27
HETATM   27  N   UNL     1      -8.152   8.711  69.554  1.00  0.00    -0.108 N  
HETATM   28  O   UNL     1      -8.805   7.688  67.575  1.00  0.00    -0.124 OA 
HETATM   29  H   UNL     1      -7.332   9.019  70.078  1.00  0.00     0.000 HD 
HETATM   30  C   UNL     1      -7.947   8.006  68.390  1.00  0.00    -0.120 C  
BRANCH  30  31
HETATM   31  C   UNL     1      -6.507   7.725  68.151  1.00  0.00    -0.054 C  
HETATM   32  C   UNL     1      -6.125   7.075  67.045  1.00  0.00    -0.036 C  
ENDBRANCH  30  31
ENDBRANCH   7  27
BRANCH   5  33
HETATM   33  N   UNL     1      -9.648   6.880  71.249  1.00  0.00    -0.165 NA 
HETATM   34  C   UNL     1      -8.947   6.707  72.517  1.00  0.00    -0.131 C  
BRANCH  33  35
HETATM   35  C   UNL     1      -9.927   5.646  70.492  1.00  0.00    -0.205 C  
BRANCH  35  36
HETATM   36  C   UNL     1      -8.816   4.594  70.713  1.00  0.00    -0.119 C  
BRANCH  36  37
HETATM   37  N   UNL     1      -7.673   4.670  69.778  1.00  0.00    -0.058 NA 
HETATM   38  C   UNL     1      -7.620   3.427  68.999  1.00  0.00    -0.052 C  
HETATM   39  C   UNL     1      -6.405   4.853  70.489  1.00  0.00    -0.026 C  
ENDBRANCH  36  37
ENDBRANCH  35  36
ENDBRANCH  33  35
ENDBRANCH   5  33
ENDBRANCH   2   3
TORSDOF 10
ENDMDL
MODEL      154
REMARK 921   NORMALIZED FREE ENERGY PREDICTED BY IDOCK:   -5.06 KCAL/MOL
REMARK 922        TOTAL FREE ENERGY PREDICTED BY IDOCK:   -9.73 KCAL/MOL
REMARK 923 INTER-LIGAND FREE ENERGY PREDICTED BY IDOCK:   -7.66 KCAL/MOL
REMARK 924 INTRA-LIGAND FREE ENERGY PREDICTED BY IDOCK:   -2.07 KCAL/MOL
REMARK 927      BINDING AFFINITY PREDICTED BY RF-SCORE:    0.00 PKD
ROOT
HETATM    1  C   UNL     1      -9.293   4.800  65.430  1.00  0.00    -0.156 C  
HETATM    2  O   UNL     1      -7.978   5.346  65.471  1.00  0.00    -0.101 OA 
ENDROOT
BRANCH   2   3
HETATM    3  C   UNL     1      -7.847   6.632  65.935  1.00  0.00    -0.102 A  
HETATM    4  C   UNL     1      -7.502   7.028  67.229  1.00  0.00    -0.099 A  
HETATM    5  C   UNL     1      -8.067   9.007  65.218  1.00  0.00    -0.126 A  
HETATM    6  C   UNL     1      -7.281   8.394  67.446  1.00  0.00    -0.088 A  
HETATM    7  C   UNL     1      -7.614   9.370  66.501  1.00  0.00    -0.093 A  
HETATM    8  C   UNL     1      -8.094   7.617  64.954  1.00  0.00    -0.128 A  
BRANCH   4   9
HETATM    9  N   UNL     1      -7.383   6.129  68.303  1.00  0.00    -0.084 NA 
HETATM   10  H   UNL     1      -6.529   5.574  68.347  1.00  0.00     0.000 HD 
BRANCH   9  11
HETATM   11  C   UNL     1      -8.324   5.922  69.316  1.00  0.00    -0.113 A  
HETATM   12  N   UNL     1      -8.185   4.803  70.036  1.00  0.00    -0.068 NA 
HETATM   13  N   UNL     1      -9.276   6.843  69.549  1.00  0.00    -0.148 NA 
HETATM   14  C   UNL     1     -10.057   6.705  70.632  1.00  0.00    -0.184 A  
HETATM   15  C   UNL     1      -9.950   5.603  71.453  1.00  0.00    -0.237 A  
HETATM   16  C   UNL     1      -9.005   4.669  71.089  1.00  0.00    -0.123 A  
BRANCH  14  17
HETATM   17  C   UNL     1     -11.005   7.796  70.890  1.00  0.00    -0.260 A  
HETATM   18  C   UNL     1     -12.631  11.040  70.505  1.00  0.00    -0.390 A  
HETATM   19  C   UNL     1     -12.019   7.715  71.833  1.00  0.00    -0.295 A  
HETATM   20  C   UNL     1     -11.886  11.718  69.537  1.00  0.00    -0.402 A  
HETATM   21  C   UNL     1     -10.762  11.134  68.970  1.00  0.00    -0.265 A  
HETATM   22  N   UNL     1     -12.725   8.887  71.824  1.00  0.00    -0.342 NA 
HETATM   23  C   UNL     1     -12.215   9.751  70.887  1.00  0.00    -0.302 A  
HETATM   24  C   UNL     1     -13.844   9.183  72.692  1.00  0.00    -0.344 C  
HETATM   25  C   UNL     1     -11.103   9.119  70.308  1.00  0.00    -0.272 A  
HETATM   26  C   UNL     1     -10.370   9.838  69.338  1.00  0.00    -0.232 A  
ENDBRANCH  14  17
ENDBRANCH   9  11
ENDBRANCH   4   9
BRANCH   7  27
HETATM   27  N   UNL     1      -7.678  10.707  66.946  1.00  0.00    -0.117 N  
HETATM   28  O   UNL     1      -5.630  11.458  66.150  1.00  0.00    -0.176 OA 
HETATM   29  H   UNL     1      -8.534  11.017  67.407  1.00  0.00     0.000 HD 
HETATM   30  C   UNL     1      -6.658  11.619  66.798  1.00  0.00    -0.094 C  
BRANCH  30  31
HETATM   31  C   UNL     1      -6.967  12.917  67.454  1.00  0.00    -0.129 C  
HETATM   32  C   UNL     1      -7.496  12.938  68.683  1.00  0.00    -0.092 C  
ENDBRANCH  30  31
ENDBRANCH   7  27
BRANCH   5  33
HETATM   33  N   UNL     1      -8.472   9.933  64.256  1.00  0.00    -0.159 NA 
HETATM   34  C   UNL     1      -7.586  10.415  63.201  1.00  0.00    -0.092 C  
BRANCH  33  35
HETATM   35  C   UNL     1      -9.879  10.361  64.164  1.00  0.00    -0.313 C  
BRANCH  35  36
HETATM   36  C   UNL     1     -10.090  11.730  64.852  1.00  0.00    -0.259 C  
BRANCH  36  37
HETATM   37  N   UNL     1     -10.770  12.755  64.031  1.00  0.00    -0.413 NA 
HETATM   38  C   UNL     1     -10.489  14.078  64.604  1.00  0.00    -0.373 C  
HETATM   39  C   UNL     1     -12.219  12.541  63.992  1.00  0.00    -0.480 C  
ENDBRANCH  36  37
ENDBRANCH  35  36
ENDBRANCH  33  35
ENDBRANCH   5  33
ENDBRANCH   2   3
TORSDOF 10
ENDMDL
MODEL      155
REMARK 921   NORMALIZED FREE ENERGY PREDICTED BY IDOCK:   -5.03 KCAL/MOL
REMARK 922        TOTAL FREE ENERGY PREDICTED BY IDOCK:   -9.69 KCAL/MOL
REMARK 923 INTER-LIGAND FREE ENERGY PREDICTED BY IDOCK:   -8.15 KCAL/MOL
REMARK 924 INTRA-LIGAND FREE ENERGY PREDICTED BY IDOCK:   -1.54 KCAL/MOL
REMARK 927      BINDING AFFINITY PREDICTED BY RF-SCORE:    0.00 PKD
ROOT
HETATM    1  C   UNL     1      -6.662  10.406  66.682  1.00  0.00    -0.090 C  
HETATM    2  O   UNL     1      -7.652  11.221  66.064  1.00  0.00    -0.045 OA 
ENDROOT
BRANCH   2   3
HETATM    3  C   UNL     1      -8.425  12.003  66.889  1.00  0.00    -0.172 A  
HETATM    4  C   UNL     1      -9.732  11.747  67.308  1.00  0.00    -0.178 A  
HETATM    5  C   UNL     1      -8.395  14.151  68.149  1.00  0.00    -0.161 A  
HETATM    6  C   UNL     1     -10.280  12.605  68.269  1.00  0.00    -0.240 A  
HETATM    7  C   UNL     1      -9.670  13.810  68.637  1.00  0.00    -0.140 A  
HETATM    8  C   UNL     1      -7.775  13.174  67.333  1.00  0.00    -0.151 A  
BRANCH   4   9
HETATM    9  N   UNL     1     -10.508  10.688  66.803  1.00  0.00    -0.245 NA 
HETATM   10  H   UNL     1     -11.248  10.932  66.146  1.00  0.00     0.000 HD 
BRANCH   9  11
HETATM   11  C   UNL     1     -10.363   9.334  67.118  1.00  0.00    -0.260 A  
HETATM   12  N   UNL     1      -9.898   8.545  66.143  1.00  0.00    -0.215 NA 
HETATM   13  N   UNL     1     -10.645   8.896  68.358  1.00  0.00    -0.182 NA 
HETATM   14  C   UNL     1     -10.336   7.631  68.682  1.00  0.00    -0.200 A  
HETATM   15  C   UNL     1      -9.812   6.763  67.749  1.00  0.00    -0.148 A  
HETATM   16  C   UNL     1      -9.635   7.274  66.482  1.00  0.00    -0.149 A  
BRANCH  14  17
HETATM   17  C   UNL     1     -10.571   7.245  70.079  1.00  0.00    -0.247 A  
HETATM   18  C   UNL     1     -10.056   7.089  73.688  1.00  0.00    -0.376 A  
HETATM   19  C   UNL     1     -11.638   6.456  70.481  1.00  0.00    -0.358 A  
HETATM   20  C   UNL     1      -8.879   7.802  73.929  1.00  0.00    -0.329 A  
HETATM   21  C   UNL     1      -8.161   8.359  72.879  1.00  0.00    -0.166 A  
HETATM   22  N   UNL     1     -11.576   6.286  71.838  1.00  0.00    -0.310 NA 
HETATM   23  C   UNL     1     -10.496   6.953  72.359  1.00  0.00    -0.208 A  
HETATM   24  C   UNL     1     -12.509   5.499  72.614  1.00  0.00     0.388 C  
HETATM   25  C   UNL     1      -9.812   7.533  71.279  1.00  0.00    -0.188 A  
HETATM   26  C   UNL     1      -8.621   8.241  71.560  1.00  0.00    -0.197 A  
ENDBRANCH  14  17
ENDBRANCH   9  11
ENDBRANCH   4   9
BRANCH   7  27
HETATM   27  N   UNL     1     -10.460  14.748  69.334  1.00  0.00    -0.331 N  
HETATM   28  O   UNL     1     -11.952  13.287  70.350  1.00  0.00    -0.332 OA 
HETATM   29  H   UNL     1     -10.189  15.730  69.287  1.00  0.00     0.000 HD 
HETATM   30  C   UNL     1     -11.574  14.420  70.074  1.00  0.00    -0.275 C  
BRANCH  30  31
HETATM   31  C   UNL     1     -12.263  15.622  70.611  1.00  0.00    -0.446 C  
HETATM   32  C   UNL     1     -13.344  15.484  71.388  1.00  0.00    -0.592 C  
ENDBRANCH  30  31
ENDBRANCH   7  27
BRANCH   5  33
HETATM   33  N   UNL     1      -7.764  15.363  68.431  1.00  0.00    -0.117 NA 
HETATM   34  C   UNL     1      -7.105  15.634  69.704  1.00  0.00    -0.160 C  
BRANCH  33  35
HETATM   35  C   UNL     1      -7.595  16.388  67.385  1.00  0.00    -0.158 C  
BRANCH  35  36
HETATM   36  C   UNL     1      -8.254  17.723  67.803  1.00  0.00    -0.227 C  
BRANCH  36  37
HETATM   37  N   UNL     1      -9.716  17.668  68.021  1.00  0.00    -0.289 NA 
HETATM   38  C   UNL     1     -10.364  17.283  66.762  1.00  0.00    -0.308 C  
HETATM   39  C   UNL     1     -10.245  18.962  68.463  1.00  0.00    -0.347 C  
ENDBRANCH  36  37
ENDBRANCH  35  36
ENDBRANCH  33  35
ENDBRANCH   5  33
ENDBRANCH   2   3
TORSDOF 10
ENDMDL
MODEL      156
REMARK 921   NORMALIZED FREE ENERGY PREDICTED BY IDOCK:   -5.03 KCAL/MOL
REMARK 922        TOTAL FREE ENERGY PREDICTED BY IDOCK:   -9.68 KCAL/MOL
REMARK 923 INTER-LIGAND FREE ENERGY PREDICTED BY IDOCK:   -8.56 KCAL/MOL
REMARK 924 INTRA-LIGAND FREE ENERGY PREDICTED BY IDOCK:   -1.12 KCAL/MOL
REMARK 927      BINDING AFFINITY PREDICTED BY RF-SCORE:    0.00 PKD
ROOT
HETATM    1  C   UNL     1      -7.197  12.367  68.426  1.00  0.00    -0.110 C  
HETATM    2  O   UNL     1      -8.535  11.880  68.418  1.00  0.00    -0.162 OA 
ENDROOT
BRANCH   2   3
HETATM    3  C   UNL     1      -8.770  10.700  67.754  1.00  0.00    -0.129 A  
HETATM    4  C   UNL     1      -9.254  10.550  66.453  1.00  0.00    -0.166 A  
HETATM    5  C   UNL     1      -8.677   8.230  68.052  1.00  0.00    -0.135 A  
HETATM    6  C   UNL     1      -9.279   9.255  65.920  1.00  0.00    -0.277 A  
HETATM    7  C   UNL     1      -9.065   8.116  66.704  1.00  0.00    -0.165 A  
HETATM    8  C   UNL     1      -8.467   9.551  68.514  1.00  0.00    -0.119 A  
BRANCH   4   9
HETATM    9  N   UNL     1      -9.721  11.626  65.677  1.00  0.00    -0.233 NA 
HETATM   10  H   UNL     1      -9.622  11.542  64.665  1.00  0.00     0.000 HD 
BRANCH   9  11
HETATM   11  C   UNL     1     -10.306  12.800  66.159  1.00  0.00    -0.269 A  
HETATM   12  N   UNL     1     -11.481  12.665  66.783  1.00  0.00    -0.330 NA 
HETATM   13  N   UNL     1      -9.669  13.977  66.021  1.00  0.00    -0.285 NA 
HETATM   14  C   UNL     1     -10.167  15.058  66.640  1.00  0.00    -0.268 A  
HETATM   15  C   UNL     1     -11.352  14.995  67.342  1.00  0.00    -0.338 A  
HETATM   16  C   UNL     1     -11.979  13.769  67.360  1.00  0.00    -0.388 A  
BRANCH  14  17
HETATM   17  C   UNL     1      -9.370  16.287  66.539  1.00  0.00    -0.298 A  
HETATM   18  C   UNL     1      -8.553  19.832  66.816  1.00  0.00    -0.375 A  
HETATM   19  C   UNL     1      -8.055  16.307  66.098  1.00  0.00    -0.095 A  
HETATM   20  C   UNL     1      -9.724  20.453  67.255  1.00  0.00    -0.602 A  
HETATM   21  C   UNL     1     -10.884  19.716  67.458  1.00  0.00    -0.463 A  
HETATM   22  N   UNL     1      -7.599  17.597  66.127  1.00  0.00    -0.415 NA 
HETATM   23  C   UNL     1      -8.576  18.445  66.588  1.00  0.00    -0.278 A  
HETATM   24  C   UNL     1      -6.277  18.014  65.713  1.00  0.00    -0.242 C  
HETATM   25  C   UNL     1      -9.720  17.665  66.817  1.00  0.00    -0.300 A  
HETATM   26  C   UNL     1     -10.890  18.328  67.253  1.00  0.00    -0.269 A  
ENDBRANCH  14  17
ENDBRANCH   9  11
ENDBRANCH   4   9
BRANCH   7  27
HETATM   27  N   UNL     1      -9.451   6.874  66.158  1.00  0.00    -0.380 N  
HETATM   28  O   UNL     1     -11.525   6.654  67.179  1.00  0.00    -0.230 OA 
HETATM   29  H   UNL     1      -8.833   6.439  65.474  1.00  0.00     0.000 HD 
HETATM   30  C   UNL     1     -10.612   6.213  66.492  1.00  0.00    -0.144 C  
BRANCH  30  31
HETATM   31  C   UNL     1     -10.706   4.881  65.837  1.00  0.00    -0.233 C  
HETATM   32  C   UNL     1      -9.615   4.317  65.306  1.00  0.00    -0.186 C  
ENDBRANCH  30  31
ENDBRANCH   7  27
BRANCH   5  33
HETATM   33  N   UNL     1      -8.509   7.133  68.899  1.00  0.00    -0.126 NA 
HETATM   34  C   UNL     1      -9.457   6.800  69.958  1.00  0.00    -0.157 C  
BRANCH  33  35
HETATM   35  C   UNL     1      -7.433   6.154  68.664  1.00  0.00    -0.087 C  
BRANCH  35  36
HETATM   36  C   UNL     1      -7.547   4.958  69.638  1.00  0.00    -0.056 C  
BRANCH  36  37
HETATM   37  N   UNL     1      -7.664   3.629  69.001  1.00  0.00    -0.052 NA 
HETATM   38  C   UNL     1      -6.935   3.652  67.727  1.00  0.00    -0.051 C  
HETATM   39  C   UNL     1      -9.064   3.271  68.752  1.00  0.00    -0.148 C  
ENDBRANCH  36  37
ENDBRANCH  35  36
ENDBRANCH  33  35
ENDBRANCH   5  33
ENDBRANCH   2   3
TORSDOF 10
ENDMDL
MODEL      157
REMARK 921   NORMALIZED FREE ENERGY PREDICTED BY IDOCK:   -5.00 KCAL/MOL
REMARK 922        TOTAL FREE ENERGY PREDICTED BY IDOCK:   -9.64 KCAL/MOL
REMARK 923 INTER-LIGAND FREE ENERGY PREDICTED BY IDOCK:   -8.58 KCAL/MOL
REMARK 924 INTRA-LIGAND FREE ENERGY PREDICTED BY IDOCK:   -1.06 KCAL/MOL
REMARK 927      BINDING AFFINITY PREDICTED BY RF-SCORE:    0.00 PKD
ROOT
HETATM    1  C   UNL     1     -10.749  19.838  65.347  1.00  0.00    -0.082 C  
HETATM    2  O   UNL     1     -10.971  18.432  65.304  1.00  0.00    -0.563 OA 
ENDROOT
BRANCH   2   3
HETATM    3  C   UNL     1     -10.095  17.637  66.003  1.00  0.00    -0.254 A  
HETATM    4  C   UNL     1     -10.236  16.276  66.283  1.00  0.00    -0.327 A  
HETATM    5  C   UNL     1      -7.935  17.714  67.240  1.00  0.00    -0.207 A  
HETATM    6  C   UNL     1      -9.151  15.627  66.885  1.00  0.00    -0.260 A  
HETATM    7  C   UNL     1      -8.057  16.322  67.413  1.00  0.00    -0.155 A  
HETATM    8  C   UNL     1      -8.946  18.320  66.457  1.00  0.00    -0.285 A  
BRANCH   4   9
HETATM    9  N   UNL     1     -11.407  15.550  66.003  1.00  0.00    -0.111 NA 
HETATM   10  H   UNL     1     -12.276  15.904  66.401  1.00  0.00     0.000 HD 
BRANCH   9  11
HETATM   11  C   UNL     1     -11.493  14.388  65.229  1.00  0.00    -0.350 A  
HETATM   12  N   UNL     1     -12.208  14.477  64.102  1.00  0.00    -0.625 NA 
HETATM   13  N   UNL     1     -10.842  13.274  65.611  1.00  0.00    -0.276 NA 
HETATM   14  C   UNL     1     -10.799  12.230  64.770  1.00  0.00    -0.304 A  
HETATM   15  C   UNL     1     -11.473  12.255  63.567  1.00  0.00    -0.558 A  
HETATM   16  C   UNL     1     -12.182  13.404  63.297  1.00  0.00    -0.243 A  
BRANCH  14  17
HETATM   17  C   UNL     1      -9.986  11.085  65.199  1.00  0.00    -0.333 A  
HETATM   18  C   UNL     1      -8.242   8.824  67.470  1.00  0.00    -0.110 A  
HETATM   19  C   UNL     1      -9.495  10.130  64.321  1.00  0.00    -0.305 A  
HETATM   20  C   UNL     1      -8.374   9.393  68.739  1.00  0.00    -0.117 A  
HETATM   21  C   UNL     1      -9.038  10.601  68.908  1.00  0.00    -0.181 A  
HETATM   22  N   UNL     1      -8.787   9.199  65.032  1.00  0.00    -0.197 NA 
HETATM   23  C   UNL     1      -8.800   9.502  66.371  1.00  0.00    -0.144 A  
HETATM   24  C   UNL     1      -8.105   8.062  64.453  1.00  0.00    -0.123 C  
HETATM   25  C   UNL     1      -9.507  10.707  66.512  1.00  0.00    -0.199 A  
HETATM   26  C   UNL     1      -9.614  11.257  67.810  1.00  0.00    -0.181 A  
ENDBRANCH  14  17
ENDBRANCH   9  11
ENDBRANCH   4   9
BRANCH   7  27
HETATM   27  N   UNL     1      -7.206  15.619  68.291  1.00  0.00    -0.113 N  
HETATM   28  O   UNL     1      -7.229  13.547  67.242  1.00  0.00    -0.137 OA 
HETATM   29  H   UNL     1      -6.778  16.136  69.059  1.00  0.00     0.000 HD 
HETATM   30  C   UNL     1      -6.918  14.277  68.176  1.00  0.00    -0.129 C  
BRANCH  30  31
HETATM   31  C   UNL     1      -6.076  13.787  69.299  1.00  0.00    -0.100 C  
HETATM   32  C   UNL     1      -5.871  14.562  70.371  1.00  0.00    -0.156 C  
ENDBRANCH  30  31
ENDBRANCH   7  27
BRANCH   5  33
HETATM   33  N   UNL     1      -6.901  18.469  67.795  1.00  0.00    -0.211 NA 
HETATM   34  C   UNL     1      -6.960  19.017  69.146  1.00  0.00    -0.310 C  
BRANCH  33  35
HETATM   35  C   UNL     1      -5.616  18.625  67.090  1.00  0.00    -0.137 C  
BRANCH  35  36
HETATM   36  C   UNL     1      -5.502  20.025  66.443  1.00  0.00    -0.170 C  
BRANCH  36  37
HETATM   37  N   UNL     1      -5.192  20.032  64.997  1.00  0.00    -0.156 NA 
HETATM   38  C   UNL     1      -6.152  20.910  64.316  1.00  0.00    -0.317 C  
HETATM   39  C   UNL     1      -5.271  18.687  64.421  1.00  0.00    -0.157 C  
ENDBRANCH  36  37
ENDBRANCH  35  36
ENDBRANCH  33  35
ENDBRANCH   5  33
ENDBRANCH   2   3
TORSDOF 10
ENDMDL
MODEL      158
REMARK 921   NORMALIZED FREE ENERGY PREDICTED BY IDOCK:   -4.99 KCAL/MOL
REMARK 922        TOTAL FREE ENERGY PREDICTED BY IDOCK:   -9.62 KCAL/MOL
REMARK 923 INTER-LIGAND FREE ENERGY PREDICTED BY IDOCK:   -8.05 KCAL/MOL
REMARK 924 INTRA-LIGAND FREE ENERGY PREDICTED BY IDOCK:   -1.57 KCAL/MOL
REMARK 927      BINDING AFFINITY PREDICTED BY RF-SCORE:    0.00 PKD
ROOT
HETATM    1  C   UNL     1     -12.004  10.010  70.696  1.00  0.00    -0.313 C  
HETATM    2  O   UNL     1     -10.601  10.243  70.633  1.00  0.00    -0.214 OA 
ENDROOT
BRANCH   2   3
HETATM    3  C   UNL     1      -9.973   9.979  69.440  1.00  0.00    -0.223 A  
HETATM    4  C   UNL     1      -9.403  10.908  68.567  1.00  0.00    -0.181 A  
HETATM    5  C   UNL     1      -9.372   8.107  67.912  1.00  0.00    -0.134 A  
HETATM    6  C   UNL     1      -8.683  10.407  67.475  1.00  0.00    -0.125 A  
HETATM    7  C   UNL     1      -8.715   9.057  67.109  1.00  0.00    -0.116 A  
HETATM    8  C   UNL     1      -9.925   8.607  69.115  1.00  0.00    -0.193 A  
BRANCH   4   9
HETATM    9  N   UNL     1      -9.532  12.298  68.731  1.00  0.00    -0.403 NA 
HETATM   10  H   UNL     1      -9.092  12.708  69.555  1.00  0.00     0.000 HD 
BRANCH   9  11
HETATM   11  C   UNL     1     -10.206  13.173  67.873  1.00  0.00    -0.233 A  
HETATM   12  N   UNL     1     -11.405  12.771  67.438  1.00  0.00    -0.294 NA 
HETATM   13  N   UNL     1      -9.662  14.363  67.561  1.00  0.00    -0.213 NA 
HETATM   14  C   UNL     1     -10.400  15.251  66.878  1.00  0.00    -0.278 A  
HETATM   15  C   UNL     1     -11.665  14.934  66.430  1.00  0.00    -0.193 A  
HETATM   16  C   UNL     1     -12.107  13.663  66.723  1.00  0.00    -0.399 A  
BRANCH  14  17
HETATM   17  C   UNL     1      -9.790  16.569  66.660  1.00  0.00    -0.279 A  
HETATM   18  C   UNL     1      -7.159  19.060  66.227  1.00  0.00    -0.263 A  
HETATM   19  C   UNL     1     -10.529  17.720  66.430  1.00  0.00    -0.297 A  
HETATM   20  C   UNL     1      -5.959  18.374  66.427  1.00  0.00    -0.195 A  
HETATM   21  C   UNL     1      -5.960  17.024  66.753  1.00  0.00    -0.227 A  
HETATM   22  N   UNL     1      -9.668  18.771  66.261  1.00  0.00    -0.414 NA 
HETATM   23  C   UNL     1      -8.366  18.349  66.361  1.00  0.00    -0.251 A  
HETATM   24  C   UNL     1     -10.074  20.140  66.025  1.00  0.00    -0.383 C  
HETATM   25  C   UNL     1      -8.401  16.978  66.657  1.00  0.00    -0.285 A  
HETATM   26  C   UNL     1      -7.167  16.318  66.860  1.00  0.00    -0.257 A  
ENDBRANCH  14  17
ENDBRANCH   9  11
ENDBRANCH   4   9
BRANCH   7  27
HETATM   27  N   UNL     1      -8.252   8.726  65.818  1.00  0.00    -0.115 N  
HETATM   28  O   UNL     1      -9.728  10.003  64.560  1.00  0.00    -0.310 OA 
HETATM   29  H   UNL     1      -7.433   8.123  65.744  1.00  0.00     0.000 HD 
HETATM   30  C   UNL     1      -8.836   9.167  64.652  1.00  0.00    -0.142 C  
BRANCH  30  31
HETATM   31  C   UNL     1      -8.197   8.577  63.447  1.00  0.00    -0.136 C  
HETATM   32  C   UNL     1      -6.932   8.888  63.138  1.00  0.00    -0.089 C  
ENDBRANCH  30  31
ENDBRANCH   7  27
BRANCH   5  33
HETATM   33  N   UNL     1      -9.489   6.759  67.568  1.00  0.00    -0.126 NA 
HETATM   34  C   UNL     1     -10.708   6.192  67.000  1.00  0.00    -0.350 C  
BRANCH  33  35
HETATM   35  C   UNL     1      -8.322   5.861  67.619  1.00  0.00    -0.104 C  
BRANCH  35  36
HETATM   36  C   UNL     1      -8.231   4.994  66.342  1.00  0.00    -0.108 C  
BRANCH  36  37
HETATM   37  N   UNL     1      -7.568   5.634  65.186  1.00  0.00    -0.075 NA 
HETATM   38  C   UNL     1      -7.964   4.922  63.964  1.00  0.00    -0.101 C  
HETATM   39  C   UNL     1      -6.109   5.603  65.314  1.00  0.00    -0.026 C  
ENDBRANCH  36  37
ENDBRANCH  35  36
ENDBRANCH  33  35
ENDBRANCH   5  33
ENDBRANCH   2   3
TORSDOF 10
ENDMDL
MODEL      159
REMARK 921   NORMALIZED FREE ENERGY PREDICTED BY IDOCK:   -4.95 KCAL/MOL
REMARK 922        TOTAL FREE ENERGY PREDICTED BY IDOCK:   -9.55 KCAL/MOL
REMARK 923 INTER-LIGAND FREE ENERGY PREDICTED BY IDOCK:   -8.58 KCAL/MOL
REMARK 924 INTRA-LIGAND FREE ENERGY PREDICTED BY IDOCK:   -0.97 KCAL/MOL
REMARK 927      BINDING AFFINITY PREDICTED BY RF-SCORE:    0.00 PKD
ROOT
HETATM    1  C   UNL     1     -12.221  10.661  69.843  1.00  0.00    -0.275 C  
HETATM    2  O   UNL     1     -11.786  10.525  68.494  1.00  0.00    -0.349 OA 
ENDROOT
BRANCH   2   3
HETATM    3  C   UNL     1     -10.810  11.388  68.059  1.00  0.00    -0.217 A  
HETATM    4  C   UNL     1      -9.576  11.048  67.500  1.00  0.00    -0.164 A  
HETATM    5  C   UNL     1     -10.274  13.813  67.879  1.00  0.00    -0.245 A  
HETATM    6  C   UNL     1      -8.792  12.090  66.989  1.00  0.00    -0.197 A  
HETATM    7  C   UNL     1      -9.086  13.437  67.224  1.00  0.00    -0.222 A  
HETATM    8  C   UNL     1     -11.146  12.750  68.212  1.00  0.00    -0.288 A  
BRANCH   4   9
HETATM    9  N   UNL     1      -9.094   9.728  67.444  1.00  0.00    -0.134 NA 
HETATM   10  H   UNL     1      -8.134   9.601  67.126  1.00  0.00     0.000 HD 
BRANCH   9  11
HETATM   11  C   UNL     1      -9.807   8.573  67.781  1.00  0.00    -0.175 A  
HETATM   12  N   UNL     1     -10.535   8.019  66.805  1.00  0.00    -0.313 NA 
HETATM   13  N   UNL     1      -9.704   8.055  69.018  1.00  0.00    -0.157 NA 
HETATM   14  C   UNL     1     -10.258   6.858  69.265  1.00  0.00    -0.186 A  
HETATM   15  C   UNL     1     -10.989   6.198  68.301  1.00  0.00    -0.397 A  
HETATM   16  C   UNL     1     -11.112   6.842  67.090  1.00  0.00    -0.333 A  
BRANCH  14  17
HETATM   17  C   UNL     1     -10.021   6.299  70.602  1.00  0.00    -0.221 A  
HETATM   18  C   UNL     1      -8.182   5.361  73.610  1.00  0.00    -0.113 A  
HETATM   19  C   UNL     1     -11.027   5.754  71.387  1.00  0.00    -0.237 A  
HETATM   20  C   UNL     1      -6.849   5.689  73.351  1.00  0.00    -0.084 A  
HETATM   21  C   UNL     1      -6.476   6.222  72.124  1.00  0.00    -0.054 A  
HETATM   22  N   UNL     1     -10.483   5.330  72.569  1.00  0.00    -0.208 NA 
HETATM   23  C   UNL     1      -9.135   5.588  72.601  1.00  0.00    -0.138 A  
HETATM   24  C   UNL     1     -11.222   4.684  73.632  1.00  0.00    -0.267 C  
HETATM   25  C   UNL     1      -8.797   6.157  71.364  1.00  0.00    -0.139 A  
HETATM   26  C   UNL     1      -7.438   6.469  71.133  1.00  0.00    -0.085 A  
ENDBRANCH  14  17
ENDBRANCH   9  11
ENDBRANCH   4   9
BRANCH   7  27
HETATM   27  N   UNL     1      -8.064  14.376  66.971  1.00  0.00    -0.368 N  
HETATM   28  O   UNL     1      -6.995  14.319  69.032  1.00  0.00    -0.102 OA 
HETATM   29  H   UNL     1      -7.999  14.771  66.033  1.00  0.00     0.000 HD 
HETATM   30  C   UNL     1      -7.148  14.791  67.912  1.00  0.00    -0.158 C  
BRANCH  30  31
HETATM   31  C   UNL     1      -6.256  15.860  67.391  1.00  0.00    -0.171 C  
HETATM   32  C   UNL     1      -6.773  16.903  66.730  1.00  0.00    -0.262 C  
ENDBRANCH  30  31
ENDBRANCH   7  27
BRANCH   5  33
HETATM   33  N   UNL     1     -10.591  15.134  68.196  1.00  0.00    -0.241 NA 
HETATM   34  C   UNL     1     -10.372  15.704  69.522  1.00  0.00    -0.277 C  
BRANCH  33  35
HETATM   35  C   UNL     1     -11.027  16.078  67.152  1.00  0.00    -0.183 C  
BRANCH  35  36
HETATM   36  C   UNL     1     -10.082  17.301  67.077  1.00  0.00    -0.303 C  
BRANCH  36  37
HETATM   37  N   UNL     1     -10.726  18.615  67.294  1.00  0.00    -0.424 NA 
HETATM   38  C   UNL     1     -10.480  19.458  66.118  1.00  0.00    -0.508 C  
HETATM   39  C   UNL     1     -10.200  19.282  68.489  1.00  0.00    -0.383 C  
ENDBRANCH  36  37
ENDBRANCH  35  36
ENDBRANCH  33  35
ENDBRANCH   5  33
ENDBRANCH   2   3
TORSDOF 10
ENDMDL
MODEL      160
REMARK 921   NORMALIZED FREE ENERGY PREDICTED BY IDOCK:   -4.94 KCAL/MOL
REMARK 922        TOTAL FREE ENERGY PREDICTED BY IDOCK:   -9.55 KCAL/MOL
REMARK 923 INTER-LIGAND FREE ENERGY PREDICTED BY IDOCK:   -7.84 KCAL/MOL
REMARK 924 INTRA-LIGAND FREE ENERGY PREDICTED BY IDOCK:   -1.71 KCAL/MOL
REMARK 927      BINDING AFFINITY PREDICTED BY RF-SCORE:    0.00 PKD
ROOT
HETATM    1  C   UNL     1     -11.486  12.744  68.451  1.00  0.00    -0.311 C  
HETATM    2  O   UNL     1     -10.814  12.242  67.301  1.00  0.00    -0.231 OA 
ENDROOT
BRANCH   2   3
HETATM    3  C   UNL     1      -9.981  11.164  67.482  1.00  0.00    -0.181 A  
HETATM    4  C   UNL     1      -8.588  11.155  67.395  1.00  0.00    -0.137 A  
HETATM    5  C   UNL     1     -10.011   8.722  67.970  1.00  0.00    -0.182 A  
HETATM    6  C   UNL     1      -7.927   9.976  67.762  1.00  0.00    -0.105 A  
HETATM    7  C   UNL     1      -8.605   8.771  67.979  1.00  0.00    -0.134 A  
HETATM    8  C   UNL     1     -10.661   9.967  67.792  1.00  0.00    -0.332 A  
BRANCH   4   9
HETATM    9  N   UNL     1      -7.837  12.257  66.949  1.00  0.00    -0.359 NA 
HETATM   10  H   UNL     1      -7.514  12.235  65.983  1.00  0.00     0.000 HD 
BRANCH   9  11
HETATM   11  C   UNL     1      -7.491  13.381  67.706  1.00  0.00    -0.160 A  
HETATM   12  N   UNL     1      -6.900  13.146  68.882  1.00  0.00    -0.102 NA 
HETATM   13  N   UNL     1      -7.718  14.616  67.222  1.00  0.00    -0.198 NA 
HETATM   14  C   UNL     1      -7.223  15.671  67.886  1.00  0.00    -0.137 A  
HETATM   15  C   UNL     1      -6.562  15.513  69.085  1.00  0.00    -0.136 A  
HETATM   16  C   UNL     1      -6.450  14.221  69.547  1.00  0.00    -0.132 A  
BRANCH  14  17
HETATM   17  C   UNL     1      -7.413  16.982  67.252  1.00  0.00    -0.190 A  
HETATM   18  C   UNL     1      -8.839  20.287  66.656  1.00  0.00    -0.334 A  
HETATM   19  C   UNL     1      -6.621  17.445  66.212  1.00  0.00    -0.244 A  
HETATM   20  C   UNL     1      -9.909  20.399  67.547  1.00  0.00    -0.564 A  
HETATM   21  C   UNL     1     -10.241  19.347  68.391  1.00  0.00    -0.516 A  
HETATM   22  N   UNL     1      -7.050  18.695  65.854  1.00  0.00    -0.349 NA 
HETATM   23  C   UNL     1      -8.106  19.087  66.639  1.00  0.00    -0.274 A  
HETATM   24  C   UNL     1      -6.481  19.487  64.785  1.00  0.00    -0.146 C  
HETATM   25  C   UNL     1      -8.393  18.019  67.502  1.00  0.00    -0.233 A  
HETATM   26  C   UNL     1      -9.488  18.164  68.385  1.00  0.00    -0.327 A  
ENDBRANCH  14  17
ENDBRANCH   9  11
ENDBRANCH   4   9
BRANCH   7  27
HETATM   27  N   UNL     1      -7.834   7.590  67.998  1.00  0.00    -0.119 N  
HETATM   28  O   UNL     1      -7.502   7.333  65.714  1.00  0.00    -0.079 OA 
HETATM   29  H   UNL     1      -7.577   7.200  68.904  1.00  0.00     0.000 HD 
HETATM   30  C   UNL     1      -7.406   6.930  66.867  1.00  0.00    -0.082 C  
BRANCH  30  31
HETATM   31  C   UNL     1      -6.701   5.662  67.191  1.00  0.00    -0.062 C  
HETATM   32  C   UNL     1      -7.130   4.505  66.671  1.00  0.00    -0.071 C  
ENDBRANCH  30  31
ENDBRANCH   7  27
BRANCH   5  33
HETATM   33  N   UNL     1     -10.740   7.541  68.119  1.00  0.00    -0.136 NA 
HETATM   34  C   UNL     1     -11.034   6.648  67.002  1.00  0.00    -0.393 C  
BRANCH  33  35
HETATM   35  C   UNL     1     -11.123   7.052  69.455  1.00  0.00    -0.187 C  
BRANCH  35  36
HETATM   36  C   UNL     1     -10.353   5.760  69.816  1.00  0.00    -0.263 C  
BRANCH  36  37
HETATM   37  N   UNL     1      -9.538   5.830  71.048  1.00  0.00    -0.165 NA 
HETATM   38  C   UNL     1      -9.543   7.214  71.537  1.00  0.00    -0.157 C  
HETATM   39  C   UNL     1      -8.156   5.406  70.806  1.00  0.00    -0.111 C  
ENDBRANCH  36  37
ENDBRANCH  35  36
ENDBRANCH  33  35
ENDBRANCH   5  33
ENDBRANCH   2   3
TORSDOF 10
ENDMDL
MODEL      161
REMARK 921   NORMALIZED FREE ENERGY PREDICTED BY IDOCK:   -4.90 KCAL/MOL
REMARK 922        TOTAL FREE ENERGY PREDICTED BY IDOCK:   -9.47 KCAL/MOL
REMARK 923 INTER-LIGAND FREE ENERGY PREDICTED BY IDOCK:   -7.81 KCAL/MOL
REMARK 924 INTRA-LIGAND FREE ENERGY PREDICTED BY IDOCK:   -1.66 KCAL/MOL
REMARK 927      BINDING AFFINITY PREDICTED BY RF-SCORE:    0.00 PKD
ROOT
HETATM    1  C   UNL     1      -7.672   4.857  70.994  1.00  0.00    -0.082 C  
HETATM    2  O   UNL     1      -8.066   6.046  70.317  1.00  0.00    -0.107 OA 
ENDROOT
BRANCH   2   3
HETATM    3  C   UNL     1      -8.452   5.922  69.004  1.00  0.00    -0.105 A  
HETATM    4  C   UNL     1      -9.756   5.806  68.518  1.00  0.00    -0.131 A  
HETATM    5  C   UNL     1      -7.530   5.758  66.696  1.00  0.00    -0.084 A  
HETATM    6  C   UNL     1      -9.931   5.839  67.129  1.00  0.00    -0.186 A  
HETATM    7  C   UNL     1      -8.859   5.750  66.234  1.00  0.00    -0.140 A  
HETATM    8  C   UNL     1      -7.374   5.924  68.093  1.00  0.00    -0.081 A  
BRANCH   4   9
HETATM    9  N   UNL     1     -10.876   5.647  69.353  1.00  0.00    -0.313 NA 
HETATM   10  H   UNL     1     -11.514   4.884  69.128  1.00  0.00     0.000 HD 
BRANCH   9  11
HETATM   11  C   UNL     1     -11.200   6.436  70.461  1.00  0.00    -0.352 A  
HETATM   12  N   UNL     1     -11.116   5.843  71.657  1.00  0.00    -0.270 NA 
HETATM   13  N   UNL     1     -11.532   7.729  70.293  1.00  0.00    -0.171 NA 
HETATM   14  C   UNL     1     -11.670   8.506  71.378  1.00  0.00    -0.294 A  
HETATM   15  C   UNL     1     -11.556   7.984  72.649  1.00  0.00    -0.448 A  
HETATM   16  C   UNL     1     -11.298   6.633  72.726  1.00  0.00    -0.186 A  
BRANCH  14  17
HETATM   17  C   UNL     1     -11.928   9.930  71.127  1.00  0.00    -0.473 A  
HETATM   18  C   UNL     1     -11.775  13.157  69.433  1.00  0.00    -0.386 A  
HETATM   19  C   UNL     1     -12.755  10.705  71.926  1.00  0.00    -0.305 A  
HETATM   20  C   UNL     1     -10.890  12.979  68.367  1.00  0.00    -0.280 A  
HETATM   21  C   UNL     1     -10.259  11.758  68.167  1.00  0.00    -0.210 A  
HETATM   22  N   UNL     1     -12.790  11.977  71.422  1.00  0.00    -0.350 NA 
HETATM   23  C   UNL     1     -12.013  12.071  70.294  1.00  0.00    -0.314 A  
HETATM   24  C   UNL     1     -13.529  13.076  72.006  1.00  0.00    -0.492 C  
HETATM   25  C   UNL     1     -11.418  10.815  70.100  1.00  0.00    -0.415 A  
HETATM   26  C   UNL     1     -10.523  10.673  69.016  1.00  0.00    -0.237 A  
ENDBRANCH  14  17
ENDBRANCH   9  11
ENDBRANCH   4   9
BRANCH   7  27
HETATM   27  N   UNL     1      -9.163   5.443  64.891  1.00  0.00    -0.361 N  
HETATM   28  O   UNL     1      -9.228   3.127  65.049  1.00  0.00    -0.140 OA 
HETATM   29  H   UNL     1      -9.326   6.218  64.249  1.00  0.00     0.000 HD 
HETATM   30  C   UNL     1      -9.253   4.162  64.393  1.00  0.00    -0.150 C  
BRANCH  30  31
HETATM   31  C   UNL     1      -9.485   4.147  62.925  1.00  0.00    -0.136 C  
HETATM   32  C   UNL     1     -10.681   3.795  62.439  1.00  0.00    -0.185 C  
ENDBRANCH  30  31
ENDBRANCH   7  27
BRANCH   5  33
HETATM   33  N   UNL     1      -6.424   5.610  65.858  1.00  0.00    -0.039 NA 
HETATM   34  C   UNL     1      -5.665   4.367  65.764  1.00  0.00    -0.022 C  
BRANCH  33  35
HETATM   35  C   UNL     1      -6.055   6.666  64.899  1.00  0.00    -0.035 C  
BRANCH  35  36
HETATM   36  C   UNL     1      -5.820   8.014  65.619  1.00  0.00    -0.037 C  
BRANCH  36  37
HETATM   37  N   UNL     1      -6.438   9.194  64.976  1.00  0.00    -0.065 NA 
HETATM   38  C   UNL     1      -6.345  10.334  65.897  1.00  0.00    -0.107 C  
HETATM   39  C   UNL     1      -7.845   8.952  64.642  1.00  0.00    -0.124 C  
ENDBRANCH  36  37
ENDBRANCH  35  36
ENDBRANCH  33  35
ENDBRANCH   5  33
ENDBRANCH   2   3
TORSDOF 10
ENDMDL
MODEL      162
REMARK 921   NORMALIZED FREE ENERGY PREDICTED BY IDOCK:   -4.89 KCAL/MOL
REMARK 922        TOTAL FREE ENERGY PREDICTED BY IDOCK:   -9.47 KCAL/MOL
REMARK 923 INTER-LIGAND FREE ENERGY PREDICTED BY IDOCK:   -8.00 KCAL/MOL
REMARK 924 INTRA-LIGAND FREE ENERGY PREDICTED BY IDOCK:   -1.47 KCAL/MOL
REMARK 927      BINDING AFFINITY PREDICTED BY RF-SCORE:    0.00 PKD
ROOT
HETATM    1  C   UNL     1     -10.422   4.811  66.301  1.00  0.00    -0.269 C  
HETATM    2  O   UNL     1     -10.441   6.197  66.627  1.00  0.00    -0.220 OA 
ENDROOT
BRANCH   2   3
HETATM    3  C   UNL     1     -10.329   6.531  67.955  1.00  0.00    -0.189 A  
HETATM    4  C   UNL     1     -10.719   7.730  68.555  1.00  0.00    -0.036 A  
HETATM    5  C   UNL     1      -9.499   5.658  70.134  1.00  0.00    -0.159 A  
HETATM    6  C   UNL     1     -10.649   7.803  69.952  1.00  0.00    -0.239 A  
HETATM    7  C   UNL     1     -10.000   6.833  70.724  1.00  0.00    -0.187 A  
HETATM    8  C   UNL     1      -9.757   5.515  68.750  1.00  0.00    -0.190 A  
BRANCH   4   9
HETATM    9  N   UNL     1     -11.159   8.849  67.826  1.00  0.00    -0.445 NA 
HETATM   10  H   UNL     1     -12.116   8.824  67.476  1.00  0.00     0.000 HD 
BRANCH   9  11
HETATM   11  C   UNL     1     -10.408   9.992  67.533  1.00  0.00    -0.232 A  
HETATM   12  N   UNL     1      -9.435   9.847  66.627  1.00  0.00    -0.166 NA 
HETATM   13  N   UNL     1     -10.708  11.164  68.121  1.00  0.00    -0.190 NA 
HETATM   14  C   UNL     1     -10.088  12.276  67.698  1.00  0.00    -0.200 A  
HETATM   15  C   UNL     1      -9.103  12.221  66.735  1.00  0.00    -0.211 A  
HETATM   16  C   UNL     1      -8.802  10.968  66.250  1.00  0.00    -0.180 A  
BRANCH  14  17
HETATM   17  C   UNL     1     -10.535  13.537  68.304  1.00  0.00    -0.258 A  
HETATM   18  C   UNL     1     -12.192  15.762  70.673  1.00  0.00    -0.422 A  
HETATM   19  C   UNL     1     -10.178  14.784  67.813  1.00  0.00    -0.232 A  
HETATM   20  C   UNL     1     -12.881  14.925  71.553  1.00  0.00    -0.411 A  
HETATM   21  C   UNL     1     -12.857  13.546  71.385  1.00  0.00    -0.440 A  
HETATM   22  N   UNL     1     -10.748  15.748  68.600  1.00  0.00    -0.250 NA 
HETATM   23  C   UNL     1     -11.472  15.175  69.617  1.00  0.00    -0.293 A  
HETATM   24  C   UNL     1     -10.621  17.172  68.383  1.00  0.00    -0.371 C  
HETATM   25  C   UNL     1     -11.399  13.785  69.439  1.00  0.00    -0.306 A  
HETATM   26  C   UNL     1     -12.115  12.969  70.344  1.00  0.00    -0.391 A  
ENDBRANCH  14  17
ENDBRANCH   9  11
ENDBRANCH   4   9
BRANCH   7  27
HETATM   27  N   UNL     1      -9.686   7.172  72.057  1.00  0.00    -0.158 N  
HETATM   28  O   UNL     1      -8.025   8.744  71.654  1.00  0.00    -0.207 OA 
HETATM   29  H   UNL     1     -10.238   6.746  72.801  1.00  0.00     0.000 HD 
HETATM   30  C   UNL     1      -8.681   8.043  72.415  1.00  0.00    -0.167 C  
BRANCH  30  31
HETATM   31  C   UNL     1      -8.514   8.129  73.890  1.00  0.00    -0.306 C  
HETATM   32  C   UNL     1      -7.288   8.189  74.423  1.00  0.00    -0.237 C  
ENDBRANCH  30  31
ENDBRANCH   7  27
BRANCH   5  33
HETATM   33  N   UNL     1      -8.790   4.686  70.841  1.00  0.00    -0.112 NA 
HETATM   34  C   UNL     1      -9.443   3.589  71.548  1.00  0.00    -0.152 C  
BRANCH  33  35
HETATM   35  C   UNL     1      -7.319   4.629  70.780  1.00  0.00    -0.052 C  
BRANCH  35  36
HETATM   36  C   UNL     1      -6.832   3.215  70.387  1.00  0.00    -0.033 C  
BRANCH  36  37
HETATM   37  N   UNL     1      -6.468   3.041  68.964  1.00  0.00    -0.029 NA 
HETATM   38  C   UNL     1      -7.527   2.270  68.300  1.00  0.00    -0.047 C  
HETATM   39  C   UNL     1      -5.190   2.339  68.816  1.00  0.00    -0.012 C  
ENDBRANCH  36  37
ENDBRANCH  35  36
ENDBRANCH  33  35
ENDBRANCH   5  33
ENDBRANCH   2   3
TORSDOF 10
ENDMDL
MODEL      163
REMARK 921   NORMALIZED FREE ENERGY PREDICTED BY IDOCK:   -4.89 KCAL/MOL
REMARK 922        TOTAL FREE ENERGY PREDICTED BY IDOCK:   -9.46 KCAL/MOL
REMARK 923 INTER-LIGAND FREE ENERGY PREDICTED BY IDOCK:   -8.39 KCAL/MOL
REMARK 924 INTRA-LIGAND FREE ENERGY PREDICTED BY IDOCK:   -1.07 KCAL/MOL
REMARK 927      BINDING AFFINITY PREDICTED BY RF-SCORE:    0.00 PKD
ROOT
HETATM    1  C   UNL     1     -12.108  12.626  68.919  1.00  0.00    -0.123 C  
HETATM    2  O   UNL     1     -10.770  12.627  68.431  1.00  0.00    -0.227 OA 
ENDROOT
BRANCH   2   3
HETATM    3  C   UNL     1     -10.297  11.455  67.892  1.00  0.00    -0.182 A  
HETATM    4  C   UNL     1     -10.454  11.010  66.578  1.00  0.00    -0.257 A  
HETATM    5  C   UNL     1      -9.043   9.388  68.490  1.00  0.00    -0.131 A  
HETATM    6  C   UNL     1      -9.762   9.852  66.204  1.00  0.00    -0.297 A  
HETATM    7  C   UNL     1      -9.129   9.020  67.134  1.00  0.00    -0.137 A  
HETATM    8  C   UNL     1      -9.578  10.659  68.809  1.00  0.00    -0.190 A  
BRANCH   4   9
HETATM    9  N   UNL     1     -11.274  11.660  65.639  1.00  0.00    -0.261 NA 
HETATM   10  H   UNL     1     -11.954  11.084  65.144  1.00  0.00     0.000 HD 
BRANCH   9  11
HETATM   11  C   UNL     1     -11.246  13.021  65.318  1.00  0.00    -0.289 A  
HETATM   12  N   UNL     1     -12.301  13.494  64.647  1.00  0.00    -0.534 NA 
HETATM   13  N   UNL     1     -10.214  13.786  65.719  1.00  0.00    -0.303 NA 
HETATM   14  C   UNL     1     -10.292  15.115  65.549  1.00  0.00    -0.375 A  
HETATM   15  C   UNL     1     -11.367  15.690  64.906  1.00  0.00    -0.319 A  
HETATM   16  C   UNL     1     -12.336  14.822  64.454  1.00  0.00    -0.368 A  
BRANCH  14  17
HETATM   17  C   UNL     1      -9.184  15.904  66.102  1.00  0.00    -0.384 A  
HETATM   18  C   UNL     1      -5.994  16.595  67.732  1.00  0.00    -0.154 A  
HETATM   19  C   UNL     1      -9.128  17.288  66.032  1.00  0.00    -0.079 A  
HETATM   20  C   UNL     1      -5.504  15.351  68.137  1.00  0.00    -0.130 A  
HETATM   21  C   UNL     1      -6.237  14.194  67.911  1.00  0.00    -0.164 A  
HETATM   22  N   UNL     1      -7.972  17.714  66.630  1.00  0.00    -0.235 NA 
HETATM   23  C   UNL     1      -7.244  16.645  67.090  1.00  0.00    -0.184 A  
HETATM   24  C   UNL     1      -7.579  19.099  66.772  1.00  0.00    -0.239 C  
HETATM   25  C   UNL     1      -7.995  15.490  66.817  1.00  0.00    -0.214 A  
HETATM   26  C   UNL     1      -7.471  14.250  67.247  1.00  0.00    -0.082 A  
ENDBRANCH  14  17
ENDBRANCH   9  11
ENDBRANCH   4   9
BRANCH   7  27
HETATM   27  N   UNL     1      -8.772   7.724  66.705  1.00  0.00    -0.130 N  
HETATM   28  O   UNL     1     -10.851   6.702  66.860  1.00  0.00    -0.341 OA 
HETATM   29  H   UNL     1      -7.811   7.568  66.403  1.00  0.00     0.000 HD 
HETATM   30  C   UNL     1      -9.641   6.657  66.670  1.00  0.00    -0.163 C  
BRANCH  30  31
HETATM   31  C   UNL     1      -8.963   5.395  66.273  1.00  0.00    -0.137 C  
HETATM   32  C   UNL     1      -9.588   4.221  66.429  1.00  0.00    -0.209 C  
ENDBRANCH  30  31
ENDBRANCH   7  27
BRANCH   5  33
HETATM   33  N   UNL     1      -8.479   8.574  69.473  1.00  0.00    -0.125 NA 
HETATM   34  C   UNL     1      -7.139   8.792  70.008  1.00  0.00    -0.047 C  
BRANCH  33  35
HETATM   35  C   UNL     1      -9.278   7.530  70.139  1.00  0.00    -0.154 C  
BRANCH  35  36
HETATM   36  C   UNL     1     -10.106   8.122  71.304  1.00  0.00    -0.195 C  
BRANCH  36  37
HETATM   37  N   UNL     1     -11.561   8.229  71.059  1.00  0.00    -0.276 NA 
HETATM   38  C   UNL     1     -12.045   9.483  71.648  1.00  0.00    -0.398 C  
HETATM   39  C   UNL     1     -12.291   7.102  71.646  1.00  0.00    -0.362 C  
ENDBRANCH  36  37
ENDBRANCH  35  36
ENDBRANCH  33  35
ENDBRANCH   5  33
ENDBRANCH   2   3
TORSDOF 10
ENDMDL
MODEL      164
REMARK 921   NORMALIZED FREE ENERGY PREDICTED BY IDOCK:   -4.88 KCAL/MOL
REMARK 922        TOTAL FREE ENERGY PREDICTED BY IDOCK:   -9.45 KCAL/MOL
REMARK 923 INTER-LIGAND FREE ENERGY PREDICTED BY IDOCK:   -9.16 KCAL/MOL
REMARK 924 INTRA-LIGAND FREE ENERGY PREDICTED BY IDOCK:   -0.29 KCAL/MOL
REMARK 927      BINDING AFFINITY PREDICTED BY RF-SCORE:    0.00 PKD
ROOT
HETATM    1  C   UNL     1     -12.244   9.164  70.806  1.00  0.00    -0.100 C  
HETATM    2  O   UNL     1     -11.517  10.388  70.771  1.00  0.00    -0.328 OA 
ENDROOT
BRANCH   2   3
HETATM    3  C   UNL     1     -11.578  11.121  69.610  1.00  0.00    -0.326 A  
HETATM    4  C   UNL     1     -11.530  10.631  68.303  1.00  0.00    -0.245 A  
HETATM    5  C   UNL     1     -11.740  13.461  68.774  1.00  0.00    -0.340 A  
HETATM    6  C   UNL     1     -11.757  11.543  67.265  1.00  0.00    -0.193 A  
HETATM    7  C   UNL     1     -11.795  12.926  67.474  1.00  0.00    -0.351 A  
HETATM    8  C   UNL     1     -11.709  12.510  69.822  1.00  0.00    -0.355 A  
BRANCH   4   9
HETATM    9  N   UNL     1     -11.254   9.287  67.995  1.00  0.00    -0.459 NA 
HETATM   10  H   UNL     1     -12.017   8.739  67.597  1.00  0.00     0.000 HD 
BRANCH   9  11
HETATM   11  C   UNL     1     -10.035   8.629  68.183  1.00  0.00    -0.178 A  
HETATM   12  N   UNL     1      -8.951   9.406  68.285  1.00  0.00    -0.128 NA 
HETATM   13  N   UNL     1     -10.002   7.289  68.294  1.00  0.00    -0.155 NA 
HETATM   14  C   UNL     1      -8.850   6.698  68.644  1.00  0.00    -0.122 A  
HETATM   15  C   UNL     1      -7.694   7.430  68.812  1.00  0.00    -0.119 A  
HETATM   16  C   UNL     1      -7.802   8.786  68.596  1.00  0.00    -0.103 A  
BRANCH  14  17
HETATM   17  C   UNL     1      -8.904   5.245  68.852  1.00  0.00    -0.102 A  
HETATM   18  C   UNL     1      -8.550   1.694  68.091  1.00  0.00    -0.097 A  
HETATM   19  C   UNL     1      -9.291   4.662  70.049  1.00  0.00    -0.145 A  
HETATM   20  C   UNL     1      -8.150   1.636  66.754  1.00  0.00    -0.074 A  
HETATM   21  C   UNL     1      -8.003   2.798  66.007  1.00  0.00    -0.082 A  
HETATM   22  N   UNL     1      -9.228   3.301  69.918  1.00  0.00    -0.137 NA 
HETATM   23  C   UNL     1      -8.795   2.956  68.662  1.00  0.00    -0.116 A  
HETATM   24  C   UNL     1      -9.583   2.355  70.954  1.00  0.00    -0.118 C  
HETATM   25  C   UNL     1      -8.623   4.151  67.945  1.00  0.00    -0.107 A  
HETATM   26  C   UNL     1      -8.225   4.053  66.592  1.00  0.00    -0.101 A  
ENDBRANCH  14  17
ENDBRANCH   9  11
ENDBRANCH   4   9
BRANCH   7  27
HETATM   27  N   UNL     1     -11.680  13.754  66.338  1.00  0.00    -0.359 N  
HETATM   28  O   UNL     1     -13.327  12.793  65.014  1.00  0.00    -0.678 OA 
HETATM   29  H   UNL     1     -11.021  14.532  66.378  1.00  0.00     0.000 HD 
HETATM   30  C   UNL     1     -12.401  13.579  65.179  1.00  0.00    -0.449 C  
BRANCH  30  31
HETATM   31  C   UNL     1     -11.998  14.538  64.117  1.00  0.00    -0.346 C  
HETATM   32  C   UNL     1     -11.593  15.770  64.446  1.00  0.00    -0.240 C  
ENDBRANCH  30  31
ENDBRANCH   7  27
BRANCH   5  33
HETATM   33  N   UNL     1     -11.712  14.830  69.041  1.00  0.00    -0.299 NA 
HETATM   34  C   UNL     1     -10.780  15.744  68.387  1.00  0.00    -0.281 C  
BRANCH  33  35
HETATM   35  C   UNL     1     -12.737  15.456  69.894  1.00  0.00    -0.077 C  
BRANCH  35  36
HETATM   36  C   UNL     1     -12.157  15.831  71.278  1.00  0.00    -0.437 C  
BRANCH  36  37
HETATM   37  N   UNL     1     -12.746  15.112  72.429  1.00  0.00    -0.326 NA 
HETATM   38  C   UNL     1     -14.005  14.491  72.001  1.00  0.00    -0.495 C  
HETATM   39  C   UNL     1     -13.007  16.016  73.553  1.00  0.00    -0.586 C  
ENDBRANCH  36  37
ENDBRANCH  35  36
ENDBRANCH  33  35
ENDBRANCH   5  33
ENDBRANCH   2   3
TORSDOF 10
ENDMDL
MODEL      165
REMARK 921   NORMALIZED FREE ENERGY PREDICTED BY IDOCK:   -4.86 KCAL/MOL
REMARK 922        TOTAL FREE ENERGY PREDICTED BY IDOCK:   -9.41 KCAL/MOL
REMARK 923 INTER-LIGAND FREE ENERGY PREDICTED BY IDOCK:   -8.84 KCAL/MOL
REMARK 924 INTRA-LIGAND FREE ENERGY PREDICTED BY IDOCK:   -0.57 KCAL/MOL
REMARK 927      BINDING AFFINITY PREDICTED BY RF-SCORE:    0.00 PKD
ROOT
HETATM    1  C   UNL     1     -12.581  12.302  63.673  1.00  0.00    -0.490 C  
HETATM    2  O   UNL     1     -12.532  12.193  65.092  1.00  0.00    -0.508 OA 
ENDROOT
BRANCH   2   3
HETATM    3  C   UNL     1     -11.359  12.554  65.709  1.00  0.00    -0.336 A  
HETATM    4  C   UNL     1     -10.305  11.711  66.069  1.00  0.00    -0.243 A  
HETATM    5  C   UNL     1     -10.165  14.525  66.652  1.00  0.00    -0.275 A  
HETATM    6  C   UNL     1      -9.138  12.313  66.555  1.00  0.00    -0.188 A  
HETATM    7  C   UNL     1      -9.079  13.667  66.904  1.00  0.00    -0.240 A  
HETATM    8  C   UNL     1     -11.261  13.936  65.978  1.00  0.00    -0.300 A  
BRANCH   4   9
HETATM    9  N   UNL     1     -10.374  10.310  65.975  1.00  0.00    -0.214 NA 
HETATM   10  H   UNL     1     -10.545   9.917  65.050  1.00  0.00     0.000 HD 
BRANCH   9  11
HETATM   11  C   UNL     1     -10.230   9.404  67.030  1.00  0.00    -0.255 A  
HETATM   12  N   UNL     1     -10.491   9.873  68.256  1.00  0.00    -0.198 NA 
HETATM   13  N   UNL     1      -9.888   8.127  66.780  1.00  0.00    -0.236 NA 
HETATM   14  C   UNL     1      -9.924   7.240  67.786  1.00  0.00    -0.166 A  
HETATM   15  C   UNL     1     -10.226   7.631  69.073  1.00  0.00    -0.211 A  
HETATM   16  C   UNL     1     -10.480   8.973  69.251  1.00  0.00    -0.228 A  
BRANCH  14  17
HETATM   17  C   UNL     1      -9.643   5.844  67.428  1.00  0.00    -0.117 A  
HETATM   18  C   UNL     1      -9.183   2.252  67.881  1.00  0.00    -0.240 A  
HETATM   19  C   UNL     1      -9.390   5.427  66.129  1.00  0.00    -0.157 A  
HETATM   20  C   UNL     1      -9.303   2.030  69.254  1.00  0.00    -0.176 A  
HETATM   21  C   UNL     1      -9.517   3.089  70.127  1.00  0.00    -0.206 A  
HETATM   22  N   UNL     1      -9.174   4.076  66.133  1.00  0.00    -0.145 NA 
HETATM   23  C   UNL     1      -9.288   3.572  67.405  1.00  0.00    -0.206 A  
HETATM   24  C   UNL     1      -8.855   3.289  64.962  1.00  0.00    -0.128 C  
HETATM   25  C   UNL     1      -9.539   4.659  68.256  1.00  0.00    -0.207 A  
HETATM   26  C   UNL     1      -9.646   4.398  69.641  1.00  0.00    -0.275 A  
ENDBRANCH  14  17
ENDBRANCH   9  11
ENDBRANCH   4   9
BRANCH   7  27
HETATM   27  N   UNL     1      -7.989  14.083  67.697  1.00  0.00    -0.163 N  
HETATM   28  O   UNL     1      -7.632  12.121  68.889  1.00  0.00    -0.090 OA 
HETATM   29  H   UNL     1      -7.612  15.017  67.540  1.00  0.00     0.000 HD 
HETATM   30  C   UNL     1      -7.401  13.305  68.670  1.00  0.00    -0.101 C  
BRANCH  30  31
HETATM   31  C   UNL     1      -6.343  14.040  69.412  1.00  0.00    -0.115 C  
HETATM   32  C   UNL     1      -6.444  15.363  69.588  1.00  0.00    -0.171 C  
ENDBRANCH  30  31
ENDBRANCH   7  27
BRANCH   5  33
HETATM   33  N   UNL     1     -10.188  15.867  67.033  1.00  0.00    -0.276 NA 
HETATM   34  C   UNL     1     -10.292  16.292  68.425  1.00  0.00    -0.271 C  
BRANCH  33  35
HETATM   35  C   UNL     1      -9.951  16.937  66.047  1.00  0.00    -0.293 C  
BRANCH  35  36
HETATM   36  C   UNL     1      -8.714  17.783  66.430  1.00  0.00    -0.228 C  
BRANCH  36  37
HETATM   37  N   UNL     1      -8.857  19.241  66.236  1.00  0.00    -0.374 NA 
HETATM   38  C   UNL     1      -8.313  19.928  67.414  1.00  0.00    -0.322 C  
HETATM   39  C   UNL     1     -10.259  19.627  66.052  1.00  0.00    -0.493 C  
ENDBRANCH  36  37
ENDBRANCH  35  36
ENDBRANCH  33  35
ENDBRANCH   5  33
ENDBRANCH   2   3
TORSDOF 10
ENDMDL
MODEL      166
REMARK 921   NORMALIZED FREE ENERGY PREDICTED BY IDOCK:   -4.86 KCAL/MOL
REMARK 922        TOTAL FREE ENERGY PREDICTED BY IDOCK:   -9.41 KCAL/MOL
REMARK 923 INTER-LIGAND FREE ENERGY PREDICTED BY IDOCK:   -7.61 KCAL/MOL
REMARK 924 INTRA-LIGAND FREE ENERGY PREDICTED BY IDOCK:   -1.80 KCAL/MOL
REMARK 927      BINDING AFFINITY PREDICTED BY RF-SCORE:    0.00 PKD
ROOT
HETATM    1  C   UNL     1      -7.761   8.194  73.500  1.00  0.00    -0.165 C  
HETATM    2  O   UNL     1      -8.571   8.856  72.534  1.00  0.00    -0.396 OA 
ENDROOT
BRANCH   2   3
HETATM    3  C   UNL     1      -8.656   8.284  71.288  1.00  0.00    -0.147 A  
HETATM    4  C   UNL     1      -8.861   8.942  70.073  1.00  0.00    -0.160 A  
HETATM    5  C   UNL     1      -8.610   6.076  70.136  1.00  0.00    -0.135 A  
HETATM    6  C   UNL     1      -8.767   8.178  68.903  1.00  0.00    -0.137 A  
HETATM    7  C   UNL     1      -8.711   6.779  68.921  1.00  0.00    -0.129 A  
HETATM    8  C   UNL     1      -8.508   6.880  71.296  1.00  0.00    -0.120 A  
BRANCH   4   9
HETATM    9  N   UNL     1      -9.165  10.311  69.982  1.00  0.00    -0.384 NA 
HETATM   10  H   UNL     1      -9.908  10.660  70.587  1.00  0.00     0.000 HD 
BRANCH   9  11
HETATM   11  C   UNL     1      -8.547  11.241  69.139  1.00  0.00     0.120 A  
HETATM   12  N   UNL     1      -7.211  11.276  69.174  1.00  0.00    -0.120 NA 
HETATM   13  N   UNL     1      -9.291  12.009  68.322  1.00  0.00    -0.198 NA 
HETATM   14  C   UNL     1      -8.670  12.766  67.405  1.00  0.00    -0.196 A  
HETATM   15  C   UNL     1      -7.294  12.826  67.343  1.00  0.00    -0.135 A  
HETATM   16  C   UNL     1      -6.614  12.072  68.273  1.00  0.00    -0.055 A  
BRANCH  14  17
HETATM   17  C   UNL     1      -9.538  13.499  66.475  1.00  0.00    -0.284 A  
HETATM   18  C   UNL     1     -12.001  14.029  63.836  1.00  0.00    -0.322 A  
HETATM   19  C   UNL     1      -9.635  14.882  66.456  1.00  0.00    -0.276 A  
HETATM   20  C   UNL     1     -12.308  12.756  63.350  1.00  0.00    -0.531 A  
HETATM   21  C   UNL     1     -11.677  11.630  63.864  1.00  0.00    -0.370 A  
HETATM   22  N   UNL     1     -10.527  15.249  65.485  1.00  0.00    -0.343 NA 
HETATM   23  C   UNL     1     -11.041  14.141  64.858  1.00  0.00    -0.385 A  
HETATM   24  C   UNL     1     -10.870  16.615  65.153  1.00  0.00    -0.186 C  
HETATM   25  C   UNL     1     -10.411  13.021  65.423  1.00  0.00    -0.313 A  
HETATM   26  C   UNL     1     -10.740  11.750  64.901  1.00  0.00    -0.347 A  
ENDBRANCH  14  17
ENDBRANCH   9  11
ENDBRANCH   4   9
BRANCH   7  27
HETATM   27  N   UNL     1      -8.969   6.107  67.708  1.00  0.00    -0.116 N  
HETATM   28  O   UNL     1     -11.283   6.299  67.666  1.00  0.00    -0.327 OA 
HETATM   29  H   UNL     1      -8.171   5.784  67.161  1.00  0.00     0.000 HD 
HETATM   30  C   UNL     1     -10.231   5.860  67.215  1.00  0.00    -0.200 C  
BRANCH  30  31
HETATM   31  C   UNL     1     -10.198   5.046  65.972  1.00  0.00    -0.253 C  
HETATM   32  C   UNL     1      -9.043   4.865  65.320  1.00  0.00    -0.154 C  
ENDBRANCH  30  31
ENDBRANCH   7  27
BRANCH   5  33
HETATM   33  N   UNL     1      -8.612   4.684  70.220  1.00  0.00    -0.081 NA 
HETATM   34  C   UNL     1      -7.408   3.879  70.041  1.00  0.00    -0.042 C  
BRANCH  33  35
HETATM   35  C   UNL     1      -9.818   3.954  70.651  1.00  0.00    -0.122 C  
BRANCH  35  36
HETATM   36  C   UNL     1      -9.516   3.049  71.869  1.00  0.00    -0.137 C  
BRANCH  36  37
HETATM   37  N   UNL     1      -9.822   3.639  73.190  1.00  0.00    -0.123 NA 
HETATM   38  C   UNL     1     -10.912   4.609  73.030  1.00  0.00    -0.251 C  
HETATM   39  C   UNL     1      -8.653   4.311  73.765  1.00  0.00    -0.091 C  
ENDBRANCH  36  37
ENDBRANCH  35  36
ENDBRANCH  33  35
ENDBRANCH   5  33
ENDBRANCH   2   3
TORSDOF 10
ENDMDL
MODEL      167
REMARK 921   NORMALIZED FREE ENERGY PREDICTED BY IDOCK:   -4.85 KCAL/MOL
REMARK 922        TOTAL FREE ENERGY PREDICTED BY IDOCK:   -9.41 KCAL/MOL
REMARK 923 INTER-LIGAND FREE ENERGY PREDICTED BY IDOCK:   -7.54 KCAL/MOL
REMARK 924 INTRA-LIGAND FREE ENERGY PREDICTED BY IDOCK:   -1.87 KCAL/MOL
REMARK 927      BINDING AFFINITY PREDICTED BY RF-SCORE:    0.00 PKD
ROOT
HETATM    1  C   UNL     1     -11.704  13.255  69.261  1.00  0.00    -0.326 C  
HETATM    2  O   UNL     1     -11.735  11.959  68.672  1.00  0.00    -0.283 OA 
ENDROOT
BRANCH   2   3
HETATM    3  C   UNL     1     -10.781  11.060  69.083  1.00  0.00    -0.234 A  
HETATM    4  C   UNL     1      -9.447  11.002  68.673  1.00  0.00    -0.195 A  
HETATM    5  C   UNL     1     -10.461   9.072  70.549  1.00  0.00    -0.223 A  
HETATM    6  C   UNL     1      -8.609  10.094  69.332  1.00  0.00    -0.183 A  
HETATM    7  C   UNL     1      -9.100   9.108  70.195  1.00  0.00    -0.206 A  
HETATM    8  C   UNL     1     -11.254  10.121  70.025  1.00  0.00    -0.361 A  
BRANCH   4   9
HETATM    9  N   UNL     1      -8.927  11.796  67.635  1.00  0.00    -0.164 NA 
HETATM   10  H   UNL     1      -9.341  11.676  66.711  1.00  0.00     0.000 HD 
BRANCH   9  11
HETATM   11  C   UNL     1      -7.895  12.733  67.749  1.00  0.00    -0.156 A  
HETATM   12  N   UNL     1      -6.650  12.263  67.621  1.00  0.00    -0.106 NA 
HETATM   13  N   UNL     1      -8.184  14.034  67.936  1.00  0.00    -0.144 NA 
HETATM   14  C   UNL     1      -7.189  14.931  67.870  1.00  0.00    -0.153 A  
HETATM   15  C   UNL     1      -5.881  14.535  67.696  1.00  0.00    -0.017 A  
HETATM   16  C   UNL     1      -5.669  13.178  67.599  1.00  0.00    -0.102 A  
BRANCH  14  17
HETATM   17  C   UNL     1      -7.583  16.342  67.976  1.00  0.00    -0.158 A  
HETATM   18  C   UNL     1      -7.432  19.838  69.012  1.00  0.00    -0.286 A  
HETATM   19  C   UNL     1      -8.668  16.882  67.302  1.00  0.00    -0.194 A  
HETATM   20  C   UNL     1      -6.359  19.917  69.903  1.00  0.00    -0.395 A  
HETATM   21  C   UNL     1      -5.632  18.783  70.239  1.00  0.00    -0.233 A  
HETATM   22  N   UNL     1      -8.760  18.213  67.606  1.00  0.00    -0.246 NA 
HETATM   23  C   UNL     1      -7.753  18.584  68.462  1.00  0.00    -0.308 A  
HETATM   24  C   UNL     1      -9.786  19.104  67.109  1.00  0.00    -0.327 C  
HETATM   25  C   UNL     1      -7.016  17.425  68.754  1.00  0.00    -0.236 A  
HETATM   26  C   UNL     1      -5.943  17.542  69.666  1.00  0.00    -0.252 A  
ENDBRANCH  14  17
ENDBRANCH   9  11
ENDBRANCH   4   9
BRANCH   7  27
HETATM   27  N   UNL     1      -8.232   8.046  70.523  1.00  0.00    -0.115 N  
HETATM   28  O   UNL     1      -7.099   9.031  72.294  1.00  0.00    -0.323 OA 
HETATM   29  H   UNL     1      -8.332   7.171  70.009  1.00  0.00     0.000 HD 
HETATM   30  C   UNL     1      -7.258   8.117  71.495  1.00  0.00    -0.077 C  
BRANCH  30  31
HETATM   31  C   UNL     1      -6.431   6.883  71.549  1.00  0.00    -0.042 C  
HETATM   32  C   UNL     1      -5.445   6.698  70.663  1.00  0.00    -0.023 C  
ENDBRANCH  30  31
ENDBRANCH   7  27
BRANCH   5  33
HETATM   33  N   UNL     1     -11.019   8.079  71.356  1.00  0.00    -0.230 NA 
HETATM   34  C   UNL     1     -11.086   8.186  72.809  1.00  0.00    -0.337 C  
BRANCH  33  35
HETATM   35  C   UNL     1     -11.717   6.925  70.760  1.00  0.00    -0.369 C  
BRANCH  35  36
HETATM   36  C   UNL     1     -11.249   5.599  71.405  1.00  0.00    -0.097 C  
BRANCH  36  37
HETATM   37  N   UNL     1      -9.785   5.400  71.457  1.00  0.00    -0.155 NA 
HETATM   38  C   UNL     1      -9.343   4.825  70.180  1.00  0.00    -0.155 C  
HETATM   39  C   UNL     1      -9.401   4.505  72.552  1.00  0.00    -0.131 C  
ENDBRANCH  36  37
ENDBRANCH  35  36
ENDBRANCH  33  35
ENDBRANCH   5  33
ENDBRANCH   2   3
TORSDOF 10
ENDMDL
MODEL      168
REMARK 921   NORMALIZED FREE ENERGY PREDICTED BY IDOCK:   -4.84 KCAL/MOL
REMARK 922        TOTAL FREE ENERGY PREDICTED BY IDOCK:   -9.39 KCAL/MOL
REMARK 923 INTER-LIGAND FREE ENERGY PREDICTED BY IDOCK:   -9.31 KCAL/MOL
REMARK 924 INTRA-LIGAND FREE ENERGY PREDICTED BY IDOCK:   -0.07 KCAL/MOL
REMARK 927      BINDING AFFINITY PREDICTED BY RF-SCORE:    0.00 PKD
ROOT
HETATM    1  C   UNL     1     -12.390  14.424  69.149  1.00  0.00    -0.121 C  
HETATM    2  O   UNL     1     -11.737  14.961  68.003  1.00  0.00    -0.333 OA 
ENDROOT
BRANCH   2   3
HETATM    3  C   UNL     1     -10.578  15.668  68.215  1.00  0.00    -0.262 A  
HETATM    4  C   UNL     1      -9.320  15.146  68.521  1.00  0.00    -0.192 A  
HETATM    5  C   UNL     1      -9.688  17.991  68.316  1.00  0.00    -0.330 A  
HETATM    6  C   UNL     1      -8.242  16.039  68.551  1.00  0.00    -0.181 A  
HETATM    7  C   UNL     1      -8.415  17.428  68.518  1.00  0.00    -0.274 A  
HETATM    8  C   UNL     1     -10.734  17.065  68.091  1.00  0.00    -0.374 A  
BRANCH   4   9
HETATM    9  N   UNL     1      -9.099  13.787  68.809  1.00  0.00    -0.386 NA 
HETATM   10  H   UNL     1      -8.606  13.573  69.675  1.00  0.00     0.000 HD 
BRANCH   9  11
HETATM   11  C   UNL     1      -9.491  12.701  68.019  1.00  0.00    -0.209 A  
HETATM   12  N   UNL     1      -9.425  12.876  66.695  1.00  0.00    -0.251 NA 
HETATM   13  N   UNL     1      -9.866  11.547  68.599  1.00  0.00    -0.197 NA 
HETATM   14  C   UNL     1     -10.071  10.472  67.824  1.00  0.00    -0.175 A  
HETATM   15  C   UNL     1      -9.981  10.554  66.451  1.00  0.00    -0.271 A  
HETATM   16  C   UNL     1      -9.674  11.795  65.940  1.00  0.00    -0.237 A  
BRANCH  14  17
HETATM   17  C   UNL     1     -10.375   9.217  68.524  1.00  0.00    -0.236 A  
HETATM   18  C   UNL     1     -10.706   5.622  69.054  1.00  0.00    -0.307 A  
HETATM   19  C   UNL     1     -10.799   9.166  69.844  1.00  0.00    -0.228 A  
HETATM   20  C   UNL     1     -10.393   5.033  67.827  1.00  0.00    -0.116 A  
HETATM   21  C   UNL     1     -10.078   5.817  66.724  1.00  0.00    -0.235 A  
HETATM   22  N   UNL     1     -10.988   7.857  70.196  1.00  0.00    -0.251 NA 
HETATM   23  C   UNL     1     -10.690   7.025  69.145  1.00  0.00    -0.218 A  
HETATM   24  C   UNL     1     -11.453   7.411  71.491  1.00  0.00    -0.263 C  
HETATM   25  C   UNL     1     -10.343   7.845  68.060  1.00  0.00    -0.264 A  
HETATM   26  C   UNL     1     -10.040   7.215  66.832  1.00  0.00    -0.308 A  
ENDBRANCH  14  17
ENDBRANCH   9  11
ENDBRANCH   4   9
BRANCH   7  27
HETATM   27  N   UNL     1      -7.316  18.225  68.900  1.00  0.00    -0.279 N  
HETATM   28  O   UNL     1      -6.036  16.602  69.959  1.00  0.00    -0.221 OA 
HETATM   29  H   UNL     1      -7.308  19.201  68.605  1.00  0.00     0.000 HD 
HETATM   30  C   UNL     1      -6.253  17.767  69.647  1.00  0.00    -0.214 C  
BRANCH  30  31
HETATM   31  C   UNL     1      -5.296  18.854  69.983  1.00  0.00    -0.224 C  
HETATM   32  C   UNL     1      -5.178  19.275  71.248  1.00  0.00    -0.312 C  
ENDBRANCH  30  31
ENDBRANCH   7  27
BRANCH   5  33
HETATM   33  N   UNL     1      -9.932  19.365  68.335  1.00  0.00    -0.411 NA 
HETATM   34  C   UNL     1     -10.260  20.093  69.557  1.00  0.00     0.130 C  
BRANCH  33  35
HETATM   35  C   UNL     1      -9.717  20.188  67.131  1.00  0.00    -0.439 C  
BRANCH  35  36
HETATM   36  C   UNL     1      -8.864  19.433  66.085  1.00  0.00    -0.283 C  
BRANCH  36  37
HETATM   37  N   UNL     1      -7.573  20.067  65.741  1.00  0.00    -0.319 NA 
HETATM   38  C   UNL     1      -6.594  19.012  65.452  1.00  0.00    -0.257 C  
HETATM   39  C   UNL     1      -7.075  20.905  66.836  1.00  0.00    -0.267 C  
ENDBRANCH  36  37
ENDBRANCH  35  36
ENDBRANCH  33  35
ENDBRANCH   5  33
ENDBRANCH   2   3
TORSDOF 10
ENDMDL
MODEL      169
REMARK 921   NORMALIZED FREE ENERGY PREDICTED BY IDOCK:   -4.83 KCAL/MOL
REMARK 922        TOTAL FREE ENERGY PREDICTED BY IDOCK:   -9.37 KCAL/MOL
REMARK 923 INTER-LIGAND FREE ENERGY PREDICTED BY IDOCK:   -7.59 KCAL/MOL
REMARK 924 INTRA-LIGAND FREE ENERGY PREDICTED BY IDOCK:   -1.78 KCAL/MOL
REMARK 927      BINDING AFFINITY PREDICTED BY RF-SCORE:    0.00 PKD
ROOT
HETATM    1  C   UNL     1      -5.399  18.793  70.093  1.00  0.00    -0.220 C  
HETATM    2  O   UNL     1      -5.360  17.373  70.191  1.00  0.00    -0.196 OA 
ENDROOT
BRANCH   2   3
HETATM    3  C   UNL     1      -6.422  16.678  69.664  1.00  0.00    -0.195 A  
HETATM    4  C   UNL     1      -6.678  15.311  69.791  1.00  0.00    -0.176 A  
HETATM    5  C   UNL     1      -8.456  16.974  68.258  1.00  0.00    -0.233 A  
HETATM    6  C   UNL     1      -7.899  14.836  69.297  1.00  0.00    -0.122 A  
HETATM    7  C   UNL     1      -8.740  15.616  68.495  1.00  0.00    -0.182 A  
HETATM    8  C   UNL     1      -7.320  17.483  68.931  1.00  0.00    -0.245 A  
BRANCH   4   9
HETATM    9  N   UNL     1      -5.770  14.409  70.373  1.00  0.00    -0.132 NA 
HETATM   10  H   UNL     1      -5.020  14.809  70.937  1.00  0.00     0.000 HD 
BRANCH   9  11
HETATM   11  C   UNL     1      -5.796  13.016  70.252  1.00  0.00    -0.157 A  
HETATM   12  N   UNL     1      -5.312  12.321  71.288  1.00  0.00    -0.332 NA 
HETATM   13  N   UNL     1      -6.328  12.445  69.156  1.00  0.00    -0.089 NA 
HETATM   14  C   UNL     1      -6.497  11.114  69.140  1.00  0.00    -0.074 A  
HETATM   15  C   UNL     1      -6.066  10.327  70.185  1.00  0.00    -0.088 A  
HETATM   16  C   UNL     1      -5.457  10.989  71.228  1.00  0.00     0.018 A  
BRANCH  14  17
HETATM   17  C   UNL     1      -7.178  10.563  67.961  1.00  0.00    -0.087 A  
HETATM   18  C   UNL     1      -9.747   8.843  66.023  1.00  0.00    -0.308 A  
HETATM   19  C   UNL     1      -6.701  10.713  66.667  1.00  0.00    -0.106 A  
HETATM   20  C   UNL     1     -10.653   8.345  66.962  1.00  0.00    -0.316 A  
HETATM   21  C   UNL     1     -10.439   8.532  68.321  1.00  0.00    -0.222 A  
HETATM   22  N   UNL     1      -7.563  10.093  65.804  1.00  0.00    -0.128 NA 
HETATM   23  C   UNL     1      -8.617   9.540  66.488  1.00  0.00    -0.134 A  
HETATM   24  C   UNL     1      -7.382  10.017  64.370  1.00  0.00    -0.138 C  
HETATM   25  C   UNL     1      -8.389   9.775  67.852  1.00  0.00    -0.114 A  
HETATM   26  C   UNL     1      -9.323   9.250  68.774  1.00  0.00    -0.139 A  
ENDBRANCH  14  17
ENDBRANCH   9  11
ENDBRANCH   4   9
BRANCH   7  27
HETATM   27  N   UNL     1      -9.750  14.945  67.774  1.00  0.00    -0.211 N  
HETATM   28  O   UNL     1     -11.478  15.119  69.315  1.00  0.00    -0.273 OA 
HETATM   29  H   UNL     1      -9.534  14.629  66.829  1.00  0.00     0.000 HD 
HETATM   30  C   UNL     1     -11.010  14.690  68.267  1.00  0.00    -0.252 C  
BRANCH  30  31
HETATM   31  C   UNL     1     -11.827  13.879  67.326  1.00  0.00    -0.442 C  
HETATM   32  C   UNL     1     -11.665  12.551  67.272  1.00  0.00    -0.431 C  
ENDBRANCH  30  31
ENDBRANCH   7  27
BRANCH   5  33
HETATM   33  N   UNL     1      -9.222  17.784  67.419  1.00  0.00    -0.246 NA 
HETATM   34  C   UNL     1     -10.499  18.360  67.827  1.00  0.00    -0.409 C  
BRANCH  33  35
HETATM   35  C   UNL     1      -8.700  18.230  66.115  1.00  0.00    -0.094 C  
BRANCH  35  36
HETATM   36  C   UNL     1      -8.599  19.772  66.054  1.00  0.00    -0.266 C  
BRANCH  36  37
HETATM   37  N   UNL     1      -7.227  20.321  66.114  1.00  0.00    -0.273 NA 
HETATM   38  C   UNL     1      -6.278  19.250  65.787  1.00  0.00    -0.209 C  
HETATM   39  C   UNL     1      -6.917  20.855  67.444  1.00  0.00    -0.368 C  
ENDBRANCH  36  37
ENDBRANCH  35  36
ENDBRANCH  33  35
ENDBRANCH   5  33
ENDBRANCH   2   3
TORSDOF 10
ENDMDL
MODEL      170
REMARK 921   NORMALIZED FREE ENERGY PREDICTED BY IDOCK:   -4.82 KCAL/MOL
REMARK 922        TOTAL FREE ENERGY PREDICTED BY IDOCK:   -9.35 KCAL/MOL
REMARK 923 INTER-LIGAND FREE ENERGY PREDICTED BY IDOCK:   -8.51 KCAL/MOL
REMARK 924 INTRA-LIGAND FREE ENERGY PREDICTED BY IDOCK:   -0.84 KCAL/MOL
REMARK 927      BINDING AFFINITY PREDICTED BY RF-SCORE:    0.00 PKD
ROOT
HETATM    1  C   UNL     1     -10.082   9.088  66.136  1.00  0.00    -0.172 C  
HETATM    2  O   UNL     1     -10.672   9.658  67.300  1.00  0.00    -0.263 OA 
ENDROOT
BRANCH   2   3
HETATM    3  C   UNL     1     -10.227  10.899  67.686  1.00  0.00    -0.183 A  
HETATM    4  C   UNL     1      -9.476  11.206  68.823  1.00  0.00    -0.165 A  
HETATM    5  C   UNL     1     -10.285  13.298  67.021  1.00  0.00    -0.244 A  
HETATM    6  C   UNL     1      -9.003  12.518  68.946  1.00  0.00     0.312 A  
HETATM    7  C   UNL     1      -9.441  13.557  68.117  1.00  0.00    -0.214 A  
HETATM    8  C   UNL     1     -10.592  11.934  66.799  1.00  0.00    -0.264 A  
BRANCH   4   9
HETATM    9  N   UNL     1      -9.193  10.270  69.834  1.00  0.00    -0.404 NA 
HETATM   10  H   UNL     1      -8.212  10.046  69.993  1.00  0.00     0.000 HD 
BRANCH   9  11
HETATM   11  C   UNL     1     -10.130   9.619  70.642  1.00  0.00    -0.256 A  
HETATM   12  N   UNL     1     -11.240  10.305  70.936  1.00  0.00    -0.310 NA 
HETATM   13  N   UNL     1      -9.909   8.355  71.045  1.00  0.00    -0.179 NA 
HETATM   14  C   UNL     1     -10.894   7.695  71.673  1.00  0.00    -0.227 A  
HETATM   15  C   UNL     1     -12.088   8.315  71.976  1.00  0.00    -0.402 A  
HETATM   16  C   UNL     1     -12.194   9.635  71.600  1.00  0.00    -0.402 A  
BRANCH  14  17
HETATM   17  C   UNL     1     -10.629   6.287  71.993  1.00  0.00    -0.253 A  
HETATM   18  C   UNL     1      -9.648   2.813  71.461  1.00  0.00    -0.221 A  
HETATM   19  C   UNL     1     -10.756   5.761  73.270  1.00  0.00    -0.267 A  
HETATM   20  C   UNL     1      -9.394   2.702  70.092  1.00  0.00    -0.193 A  
HETATM   21  C   UNL     1      -9.569   3.791  69.248  1.00  0.00    -0.209 A  
HETATM   22  N   UNL     1     -10.433   4.431  73.234  1.00  0.00    -0.171 NA 
HETATM   23  C   UNL     1     -10.080   4.054  71.962  1.00  0.00    -0.157 A  
HETATM   24  C   UNL     1     -10.472   3.542  74.375  1.00  0.00    -0.203 C  
HETATM   25  C   UNL     1     -10.233   5.183  71.143  1.00  0.00    -0.291 A  
HETATM   26  C   UNL     1      -9.975   5.032  69.761  1.00  0.00    -0.319 A  
ENDBRANCH  14  17
ENDBRANCH   9  11
ENDBRANCH   4   9
BRANCH   7  27
HETATM   27  N   UNL     1      -9.178  14.876  68.541  1.00  0.00    -0.186 N  
HETATM   28  O   UNL     1      -7.041  15.123  67.666  1.00  0.00    -0.152 OA 
HETATM   29  H   UNL     1      -9.922  15.381  69.022  1.00  0.00     0.000 HD 
HETATM   30  C   UNL     1      -7.980  15.525  68.344  1.00  0.00    -0.127 C  
BRANCH  30  31
HETATM   31  C   UNL     1      -7.957  16.866  68.985  1.00  0.00    -0.169 C  
HETATM   32  C   UNL     1      -8.734  17.849  68.513  1.00  0.00    -0.297 C  
ENDBRANCH  30  31
ENDBRANCH   7  27
BRANCH   5  33
HETATM   33  N   UNL     1     -10.803  14.298  66.198  1.00  0.00    -0.305 NA 
HETATM   34  C   UNL     1      -9.969  15.323  65.578  1.00  0.00    -0.348 C  
BRANCH  33  35
HETATM   35  C   UNL     1     -12.217  14.279  65.782  1.00  0.00    -0.403 C  
BRANCH  35  36
HETATM   36  C   UNL     1     -12.355  13.866  64.298  1.00  0.00    -0.348 C  
BRANCH  36  37
HETATM   37  N   UNL     1     -12.110  12.436  64.011  1.00  0.00    -0.436 NA 
HETATM   38  C   UNL     1     -10.778  12.300  63.408  1.00  0.00    -0.391 C  
HETATM   39  C   UNL     1     -13.116  11.888  63.097  1.00  0.00     0.310 C  
ENDBRANCH  36  37
ENDBRANCH  35  36
ENDBRANCH  33  35
ENDBRANCH   5  33
ENDBRANCH   2   3
TORSDOF 10
ENDMDL
MODEL      171
REMARK 921   NORMALIZED FREE ENERGY PREDICTED BY IDOCK:   -4.81 KCAL/MOL
REMARK 922        TOTAL FREE ENERGY PREDICTED BY IDOCK:   -9.34 KCAL/MOL
REMARK 923 INTER-LIGAND FREE ENERGY PREDICTED BY IDOCK:   -7.93 KCAL/MOL
REMARK 924 INTRA-LIGAND FREE ENERGY PREDICTED BY IDOCK:   -1.41 KCAL/MOL
REMARK 927      BINDING AFFINITY PREDICTED BY RF-SCORE:    0.00 PKD
ROOT
HETATM    1  C   UNL     1      -5.999  12.085  70.051  1.00  0.00    -0.159 C  
HETATM    2  O   UNL     1      -5.825  12.206  68.643  1.00  0.00    -0.052 OA 
ENDROOT
BRANCH   2   3
HETATM    3  C   UNL     1      -6.961  12.251  67.872  1.00  0.00    -0.104 A  
HETATM    4  C   UNL     1      -7.375  11.307  66.930  1.00  0.00    -0.145 A  
HETATM    5  C   UNL     1      -8.949  13.671  67.388  1.00  0.00    -0.218 A  
HETATM    6  C   UNL     1      -8.644  11.477  66.362  1.00  0.00    -0.159 A  
HETATM    7  C   UNL     1      -9.389  12.650  66.524  1.00  0.00    -0.228 A  
HETATM    8  C   UNL     1      -7.760  13.391  68.103  1.00  0.00    -0.143 A  
BRANCH   4   9
HETATM    9  N   UNL     1      -6.577  10.221  66.527  1.00  0.00    -0.080 NA 
HETATM   10  H   UNL     1      -5.683  10.105  67.002  1.00  0.00     0.000 HD 
BRANCH   9  11
HETATM   11  C   UNL     1      -6.894   9.285  65.537  1.00  0.00    -0.074 A  
HETATM   12  N   UNL     1      -6.543   9.604  64.286  1.00  0.00    -0.105 NA 
HETATM   13  N   UNL     1      -7.480   8.122  65.872  1.00  0.00    -0.079 NA 
HETATM   14  C   UNL     1      -7.616   7.174  64.933  1.00  0.00    -0.103 A  
HETATM   15  C   UNL     1      -7.240   7.404  63.626  1.00  0.00    -0.072 A  
HETATM   16  C   UNL     1      -6.728   8.653  63.357  1.00  0.00    -0.089 A  
BRANCH  14  17
HETATM   17  C   UNL     1      -8.166   5.889  65.384  1.00  0.00    -0.139 A  
HETATM   18  C   UNL     1      -9.522   3.399  67.680  1.00  0.00    -0.231 A  
HETATM   19  C   UNL     1      -8.429   4.831  64.526  1.00  0.00    -0.140 A  
HETATM   20  C   UNL     1      -9.458   3.984  68.947  1.00  0.00    -0.237 A  
HETATM   21  C   UNL     1      -8.920   5.253  69.114  1.00  0.00    -0.124 A  
HETATM   22  N   UNL     1      -8.938   3.789  65.254  1.00  0.00    -0.127 NA 
HETATM   23  C   UNL     1      -9.034   4.127  66.581  1.00  0.00    -0.125 A  
HETATM   24  C   UNL     1      -9.309   2.503  64.704  1.00  0.00    -0.136 C  
HETATM   25  C   UNL     1      -8.516   5.426  66.711  1.00  0.00    -0.107 A  
HETATM   26  C   UNL     1      -8.459   5.983  68.009  1.00  0.00    -0.115 A  
ENDBRANCH  14  17
ENDBRANCH   9  11
ENDBRANCH   4   9
BRANCH   7  27
HETATM   27  N   UNL     1     -10.471  12.856  65.643  1.00  0.00    -0.273 N  
HETATM   28  O   UNL     1     -12.159  11.872  66.899  1.00  0.00    -0.599 OA 
HETATM   29  H   UNL     1     -10.297  13.381  64.787  1.00  0.00     0.000 HD 
HETATM   30  C   UNL     1     -11.748  12.391  65.868  1.00  0.00    -0.419 C  
BRANCH  30  31
HETATM   31  C   UNL     1     -12.655  12.669  64.723  1.00  0.00    -0.530 C  
HETATM   32  C   UNL     1     -12.390  12.151  63.517  1.00  0.00    -0.682 C  
ENDBRANCH  30  31
ENDBRANCH   7  27
BRANCH   5  33
HETATM   33  N   UNL     1      -9.616  14.886  67.543  1.00  0.00    -0.203 NA 
HETATM   34  C   UNL     1     -10.813  15.032  68.367  1.00  0.00    -0.256 C  
BRANCH  33  35
HETATM   35  C   UNL     1      -9.051  16.134  67.000  1.00  0.00    -0.209 C  
BRANCH  35  36
HETATM   36  C   UNL     1     -10.167  17.074  66.487  1.00  0.00    -0.320 C  
BRANCH  36  37
HETATM   37  N   UNL     1     -10.179  18.428  67.081  1.00  0.00    -0.355 NA 
HETATM   38  C   UNL     1     -10.416  19.407  66.013  1.00  0.00    -0.505 C  
HETATM   39  C   UNL     1      -8.912  18.736  67.750  1.00  0.00    -0.286 C  
ENDBRANCH  36  37
ENDBRANCH  35  36
ENDBRANCH  33  35
ENDBRANCH   5  33
ENDBRANCH   2   3
TORSDOF 10
ENDMDL
MODEL      172
REMARK 921   NORMALIZED FREE ENERGY PREDICTED BY IDOCK:   -4.79 KCAL/MOL
REMARK 922        TOTAL FREE ENERGY PREDICTED BY IDOCK:   -9.30 KCAL/MOL
REMARK 923 INTER-LIGAND FREE ENERGY PREDICTED BY IDOCK:   -7.88 KCAL/MOL
REMARK 924 INTRA-LIGAND FREE ENERGY PREDICTED BY IDOCK:   -1.41 KCAL/MOL
REMARK 927      BINDING AFFINITY PREDICTED BY RF-SCORE:    0.00 PKD
ROOT
HETATM    1  C   UNL     1     -12.526  10.940  69.943  1.00  0.00    -0.224 C  
HETATM    2  O   UNL     1     -12.187  10.983  68.561  1.00  0.00    -0.582 OA 
ENDROOT
BRANCH   2   3
HETATM    3  C   UNL     1     -11.085  11.724  68.208  1.00  0.00    -0.240 A  
HETATM    4  C   UNL     1      -9.755  11.464  68.544  1.00  0.00    -0.197 A  
HETATM    5  C   UNL     1     -10.419  13.787  66.982  1.00  0.00    -0.274 A  
HETATM    6  C   UNL     1      -8.773  12.269  67.953  1.00  0.00    -0.177 A  
HETATM    7  C   UNL     1      -9.082  13.437  67.248  1.00  0.00    -0.222 A  
HETATM    8  C   UNL     1     -11.389  12.853  67.418  1.00  0.00    -0.355 A  
BRANCH   4   9
HETATM    9  N   UNL     1      -9.372  10.453  69.443  1.00  0.00    -0.321 NA 
HETATM   10  H   UNL     1      -9.772  10.494  70.380  1.00  0.00     0.000 HD 
BRANCH   9  11
HETATM   11  C   UNL     1      -8.494   9.398  69.176  1.00  0.00    -0.134 A  
HETATM   12  N   UNL     1      -7.655   9.060  70.161  1.00  0.00    -0.072 NA 
HETATM   13  N   UNL     1      -8.553   8.756  67.995  1.00  0.00    -0.133 NA 
HETATM   14  C   UNL     1      -7.822   7.643  67.829  1.00  0.00    -0.120 A  
HETATM   15  C   UNL     1      -6.963   7.199  68.812  1.00  0.00    -0.082 A  
HETATM   16  C   UNL     1      -6.906   7.966  69.954  1.00  0.00    -0.045 A  
BRANCH  14  17
HETATM   17  C   UNL     1      -8.009   6.929  66.559  1.00  0.00    -0.109 A  
HETATM   18  C   UNL     1      -8.934   4.225  64.292  1.00  0.00    -0.148 A  
HETATM   19  C   UNL     1      -7.733   7.494  65.322  1.00  0.00    -0.112 A  
HETATM   20  C   UNL     1      -9.327   3.166  65.114  1.00  0.00    -0.143 A  
HETATM   21  C   UNL     1      -9.274   3.285  66.496  1.00  0.00    -0.169 A  
HETATM   22  N   UNL     1      -8.018   6.578  64.346  1.00  0.00    -0.117 NA 
HETATM   23  C   UNL     1      -8.490   5.413  64.898  1.00  0.00    -0.148 A  
HETATM   24  C   UNL     1      -7.832   6.799  62.928  1.00  0.00    -0.108 C  
HETATM   25  C   UNL     1      -8.458   5.578  66.292  1.00  0.00    -0.122 A  
HETATM   26  C   UNL     1      -8.855   4.483  67.092  1.00  0.00    -0.112 A  
ENDBRANCH  14  17
ENDBRANCH   9  11
ENDBRANCH   4   9
BRANCH   7  27
HETATM   27  N   UNL     1      -8.028  14.342  67.003  1.00  0.00    -0.368 N  
HETATM   28  O   UNL     1      -7.906  15.338  69.097  1.00  0.00    -0.170 OA 
HETATM   29  H   UNL     1      -7.574  14.312  66.090  1.00  0.00     0.000 HD 
HETATM   30  C   UNL     1      -7.574  15.264  67.919  1.00  0.00    -0.139 C  
BRANCH  30  31
HETATM   31  C   UNL     1      -6.525  16.150  67.350  1.00  0.00    -0.215 C  
HETATM   32  C   UNL     1      -6.861  17.119  66.490  1.00  0.00    -0.295 C  
ENDBRANCH  30  31
ENDBRANCH   7  27
BRANCH   5  33
HETATM   33  N   UNL     1     -10.790  14.968  66.338  1.00  0.00    -0.322 NA 
HETATM   34  C   UNL     1     -11.145  15.019  64.923  1.00  0.00    -0.415 C  
BRANCH  33  35
HETATM   35  C   UNL     1     -10.995  16.212  67.101  1.00  0.00    -0.144 C  
BRANCH  35  36
HETATM   36  C   UNL     1     -10.441  17.434  66.331  1.00  0.00    -0.267 C  
BRANCH  36  37
HETATM   37  N   UNL     1     -10.234  18.654  67.141  1.00  0.00    -0.358 NA 
HETATM   38  C   UNL     1      -9.370  19.574  66.392  1.00  0.00    -0.379 C  
HETATM   39  C   UNL     1      -9.613  18.346  68.432  1.00  0.00    -0.345 C  
ENDBRANCH  36  37
ENDBRANCH  35  36
ENDBRANCH  33  35
ENDBRANCH   5  33
ENDBRANCH   2   3
TORSDOF 10
ENDMDL
MODEL      173
REMARK 921   NORMALIZED FREE ENERGY PREDICTED BY IDOCK:   -4.78 KCAL/MOL
REMARK 922        TOTAL FREE ENERGY PREDICTED BY IDOCK:   -9.29 KCAL/MOL
REMARK 923 INTER-LIGAND FREE ENERGY PREDICTED BY IDOCK:   -7.62 KCAL/MOL
REMARK 924 INTRA-LIGAND FREE ENERGY PREDICTED BY IDOCK:   -1.66 KCAL/MOL
REMARK 927      BINDING AFFINITY PREDICTED BY RF-SCORE:    0.00 PKD
ROOT
HETATM    1  C   UNL     1      -9.337  10.162  62.767  1.00  0.00    -0.295 C  
HETATM    2  O   UNL     1      -9.998  10.003  64.018  1.00  0.00    -0.152 OA 
ENDROOT
BRANCH   2   3
HETATM    3  C   UNL     1      -9.209   9.917  65.139  1.00  0.00    -0.234 A  
HETATM    4  C   UNL     1      -8.670   8.758  65.701  1.00  0.00    -0.184 A  
HETATM    5  C   UNL     1      -8.195  11.312  66.936  1.00  0.00    -0.153 A  
HETATM    6  C   UNL     1      -7.770   8.915  66.762  1.00  0.00    -0.097 A  
HETATM    7  C   UNL     1      -7.581  10.139  67.413  1.00  0.00    -0.094 A  
HETATM    8  C   UNL     1      -8.943  11.164  65.743  1.00  0.00    -0.207 A  
BRANCH   4   9
HETATM    9  N   UNL     1      -8.998   7.464  65.259  1.00  0.00    -0.360 NA 
HETATM   10  H   UNL     1      -9.060   7.322  64.251  1.00  0.00     0.000 HD 
BRANCH   9  11
HETATM   11  C   UNL     1      -9.250   6.353  66.070  1.00  0.00    -0.059 A  
HETATM   12  N   UNL     1      -8.795   5.177  65.623  1.00  0.00    -0.142 NA 
HETATM   13  N   UNL     1      -9.881   6.507  67.248  1.00  0.00    -0.132 NA 
HETATM   14  C   UNL     1      -9.957   5.459  68.082  1.00  0.00    -0.158 A  
HETATM   15  C   UNL     1      -9.473   4.220  67.717  1.00  0.00    -0.215 A  
HETATM   16  C   UNL     1      -8.919   4.135  66.459  1.00  0.00    -0.125 A  
BRANCH  14  17
HETATM   17  C   UNL     1     -10.563   5.718  69.394  1.00  0.00    -0.383 A  
HETATM   18  C   UNL     1     -11.112   5.444  72.991  1.00  0.00    -0.368 A  
HETATM   19  C   UNL     1     -11.573   6.647  69.595  1.00  0.00    -0.243 A  
HETATM   20  C   UNL     1     -10.244   4.440  73.426  1.00  0.00    -0.221 A  
HETATM   21  C   UNL     1      -9.433   3.764  72.523  1.00  0.00    -0.176 A  
HETATM   22  N   UNL     1     -11.911   6.652  70.921  1.00  0.00    -0.377 NA 
HETATM   23  C   UNL     1     -11.141   5.755  71.619  1.00  0.00    -0.226 A  
HETATM   24  C   UNL     1     -12.945   7.477  71.506  1.00  0.00    -0.359 C  
HETATM   25  C   UNL     1     -10.311   5.114  70.686  1.00  0.00    -0.305 A  
HETATM   26  C   UNL     1      -9.451   4.098  71.161  1.00  0.00    -0.234 A  
ENDBRANCH  14  17
ENDBRANCH   9  11
ENDBRANCH   4   9
BRANCH   7  27
HETATM   27  N   UNL     1      -6.934  10.112  68.666  1.00  0.00    -0.061 N  
HETATM   28  O   UNL     1      -8.751   9.568  70.006  1.00  0.00    -0.184 OA 
HETATM   29  H   UNL     1      -5.925  10.259  68.686  1.00  0.00     0.000 HD 
HETATM   30  C   UNL     1      -7.579   9.900  69.864  1.00  0.00    -0.163 C  
BRANCH  30  31
HETATM   31  C   UNL     1      -6.661  10.027  71.025  1.00  0.00     0.104 C  
HETATM   32  C   UNL     1      -5.835   9.022  71.340  1.00  0.00    -0.059 C  
ENDBRANCH  30  31
ENDBRANCH   7  27
BRANCH   5  33
HETATM   33  N   UNL     1      -8.094  12.548  67.577  1.00  0.00    -0.164 NA 
HETATM   34  C   UNL     1      -6.908  13.392  67.482  1.00  0.00    -0.144 C  
BRANCH  33  35
HETATM   35  C   UNL     1      -9.255  13.140  68.265  1.00  0.00    -0.194 C  
BRANCH  35  36
HETATM   36  C   UNL     1      -9.686  14.463  67.591  1.00  0.00    -0.219 C  
BRANCH  36  37
HETATM   37  N   UNL     1     -11.128  14.781  67.680  1.00  0.00    -0.295 NA 
HETATM   38  C   UNL     1     -11.300  15.936  68.569  1.00  0.00    -0.374 C  
HETATM   39  C   UNL     1     -11.899  13.648  68.199  1.00  0.00    -0.372 C  
ENDBRANCH  36  37
ENDBRANCH  35  36
ENDBRANCH  33  35
ENDBRANCH   5  33
ENDBRANCH   2   3
TORSDOF 10
ENDMDL
MODEL      174
REMARK 921   NORMALIZED FREE ENERGY PREDICTED BY IDOCK:   -4.75 KCAL/MOL
REMARK 922        TOTAL FREE ENERGY PREDICTED BY IDOCK:   -9.24 KCAL/MOL
REMARK 923 INTER-LIGAND FREE ENERGY PREDICTED BY IDOCK:   -7.44 KCAL/MOL
REMARK 924 INTRA-LIGAND FREE ENERGY PREDICTED BY IDOCK:   -1.79 KCAL/MOL
REMARK 927      BINDING AFFINITY PREDICTED BY RF-SCORE:    0.00 PKD
ROOT
HETATM    1  C   UNL     1     -10.262   6.970  66.411  1.00  0.00     0.065 C  
HETATM    2  O   UNL     1     -10.763   7.835  67.426  1.00  0.00    -0.278 OA 
ENDROOT
BRANCH   2   3
HETATM    3  C   UNL     1     -10.191   9.080  67.527  1.00  0.00    -0.241 A  
HETATM    4  C   UNL     1      -9.237   9.494  68.459  1.00  0.00    -0.131 A  
HETATM    5  C   UNL     1     -10.237  11.349  66.501  1.00  0.00    -0.221 A  
HETATM    6  C   UNL     1      -8.680  10.768  68.289  1.00  0.00    -0.136 A  
HETATM    7  C   UNL     1      -9.201  11.701  67.386  1.00  0.00    -0.168 A  
HETATM    8  C   UNL     1     -10.650   9.996  66.556  1.00  0.00    -0.165 A  
BRANCH   4   9
HETATM    9  N   UNL     1      -8.832   8.702  69.549  1.00  0.00    -0.142 NA 
HETATM   10  H   UNL     1      -7.885   8.326  69.518  1.00  0.00     0.000 HD 
BRANCH   9  11
HETATM   11  C   UNL     1      -9.605   8.381  70.669  1.00  0.00    -0.171 A  
HETATM   12  N   UNL     1     -10.483   9.307  71.070  1.00  0.00    -0.289 NA 
HETATM   13  N   UNL     1      -9.472   7.178  71.257  1.00  0.00    -0.163 NA 
HETATM   14  C   UNL     1     -10.340   6.830  72.218  1.00  0.00    -0.196 A  
HETATM   15  C   UNL     1     -11.305   7.709  72.661  1.00  0.00    -0.423 A  
HETATM   16  C   UNL     1     -11.313   8.948  72.061  1.00  0.00    -0.357 A  
BRANCH  14  17
HETATM   17  C   UNL     1     -10.209   5.466  72.746  1.00  0.00    -0.222 A  
HETATM   18  C   UNL     1      -8.612   2.547  74.244  1.00  0.00    -0.067 A  
HETATM   19  C   UNL     1     -11.271   4.578  72.832  1.00  0.00    -0.115 A  
HETATM   20  C   UNL     1      -7.265   2.887  74.381  1.00  0.00    -0.042 A  
HETATM   21  C   UNL     1      -6.797   4.121  73.946  1.00  0.00    -0.059 A  
HETATM   22  N   UNL     1     -10.822   3.403  73.370  1.00  0.00    -0.204 NA 
HETATM   23  C   UNL     1      -9.482   3.484  73.659  1.00  0.00    -0.099 A  
HETATM   24  C   UNL     1     -11.641   2.230  73.589  1.00  0.00    -0.146 C  
HETATM   25  C   UNL     1      -9.049   4.752  73.240  1.00  0.00    -0.117 A  
HETATM   26  C   UNL     1      -7.678   5.059  73.387  1.00  0.00    -0.096 A  
ENDBRANCH  14  17
ENDBRANCH   9  11
ENDBRANCH   4   9
BRANCH   7  27
HETATM   27  N   UNL     1      -8.798  13.044  67.540  1.00  0.00    -0.184 N  
HETATM   28  O   UNL     1      -6.529  12.798  67.113  1.00  0.00    -0.185 OA 
HETATM   29  H   UNL     1      -9.519  13.742  67.721  1.00  0.00     0.000 HD 
HETATM   30  C   UNL     1      -7.491  13.472  67.462  1.00  0.00    -0.167 C  
BRANCH  30  31
HETATM   31  C   UNL     1      -7.357  14.920  67.767  1.00  0.00    -0.183 C  
HETATM   32  C   UNL     1      -6.171  15.527  67.628  1.00  0.00    -0.174 C  
ENDBRANCH  30  31
ENDBRANCH   7  27
BRANCH   5  33
HETATM   33  N   UNL     1     -10.837  12.252  65.622  1.00  0.00    -0.276 NA 
HETATM   34  C   UNL     1     -10.355  12.470  64.262  1.00  0.00    -0.370 C  
BRANCH  33  35
HETATM   35  C   UNL     1     -12.097  12.927  65.976  1.00  0.00    -0.422 C  
BRANCH  35  36
HETATM   36  C   UNL     1     -11.897  14.457  66.089  1.00  0.00    -0.382 C  
BRANCH  36  37
HETATM   37  N   UNL     1     -11.058  14.906  67.221  1.00  0.00    -0.327 NA 
HETATM   38  C   UNL     1     -11.827  14.761  68.463  1.00  0.00    -0.306 C  
HETATM   39  C   UNL     1     -10.644  16.303  67.065  1.00  0.00    -0.284 C  
ENDBRANCH  36  37
ENDBRANCH  35  36
ENDBRANCH  33  35
ENDBRANCH   5  33
ENDBRANCH   2   3
TORSDOF 10
ENDMDL
MODEL      175
REMARK 921   NORMALIZED FREE ENERGY PREDICTED BY IDOCK:   -4.74 KCAL/MOL
REMARK 922        TOTAL FREE ENERGY PREDICTED BY IDOCK:   -9.23 KCAL/MOL
REMARK 923 INTER-LIGAND FREE ENERGY PREDICTED BY IDOCK:   -7.70 KCAL/MOL
REMARK 924 INTRA-LIGAND FREE ENERGY PREDICTED BY IDOCK:   -1.53 KCAL/MOL
REMARK 927      BINDING AFFINITY PREDICTED BY RF-SCORE:    0.00 PKD
ROOT
HETATM    1  C   UNL     1      -7.986   5.940  64.822  1.00  0.00    -0.126 C  
HETATM    2  O   UNL     1      -7.910   7.176  65.525  1.00  0.00    -0.101 OA 
ENDROOT
BRANCH   2   3
HETATM    3  C   UNL     1      -8.524   7.239  66.752  1.00  0.00    -0.121 A  
HETATM    4  C   UNL     1      -9.762   7.816  67.043  1.00  0.00    -0.197 A  
HETATM    5  C   UNL     1      -8.197   6.627  69.144  1.00  0.00    -0.120 A  
HETATM    6  C   UNL     1     -10.267   7.638  68.337  1.00  0.00    -0.226 A  
HETATM    7  C   UNL     1      -9.493   7.122  69.382  1.00  0.00    -0.153 A  
HETATM    8  C   UNL     1      -7.783   6.637  67.790  1.00  0.00    -0.107 A  
BRANCH   4   9
HETATM    9  N   UNL     1     -10.501   8.565  66.109  1.00  0.00    -0.117 NA 
HETATM   10  H   UNL     1     -11.271   8.088  65.642  1.00  0.00     0.000 HD 
BRANCH   9  11
HETATM   11  C   UNL     1     -10.279   9.901  65.761  1.00  0.00    -0.181 A  
HETATM   12  N   UNL     1      -9.867  10.127  64.509  1.00  0.00    -0.313 NA 
HETATM   13  N   UNL     1     -10.522  10.879  66.652  1.00  0.00    -0.246 NA 
HETATM   14  C   UNL     1     -10.467  12.155  66.241  1.00  0.00    -0.239 A  
HETATM   15  C   UNL     1     -10.092  12.474  64.954  1.00  0.00    -0.249 A  
HETATM   16  C   UNL     1      -9.781  11.412  64.135  1.00  0.00    -0.235 A  
BRANCH  14  17
HETATM   17  C   UNL     1     -10.844  13.171  67.232  1.00  0.00    -0.270 A  
HETATM   18  C   UNL     1     -11.157  16.471  68.756  1.00  0.00    -0.309 A  
HETATM   19  C   UNL     1     -11.570  12.883  68.378  1.00  0.00    -0.333 A  
HETATM   20  C   UNL     1     -10.451  17.338  67.919  1.00  0.00    -0.382 A  
HETATM   21  C   UNL     1      -9.793  16.857  66.794  1.00  0.00    -0.284 A  
HETATM   22  N   UNL     1     -11.760  14.040  69.083  1.00  0.00    -0.309 NA 
HETATM   23  C   UNL     1     -11.187  15.103  68.430  1.00  0.00    -0.299 A  
HETATM   24  C   UNL     1     -12.455  14.130  70.349  1.00  0.00    -0.357 C  
HETATM   25  C   UNL     1     -10.561  14.591  67.283  1.00  0.00    -0.280 A  
HETATM   26  C   UNL     1      -9.850  15.496  66.463  1.00  0.00    -0.281 A  
ENDBRANCH  14  17
ENDBRANCH   9  11
ENDBRANCH   4   9
BRANCH   7  27
HETATM   27  N   UNL     1      -9.973   7.309  70.695  1.00  0.00    -0.186 N  
HETATM   28  O   UNL     1      -9.246   9.487  71.045  1.00  0.00    -0.209 OA 
HETATM   29  H   UNL     1     -10.518   6.557  71.117  1.00  0.00     0.000 HD 
HETATM   30  C   UNL     1      -9.751   8.444  71.443  1.00  0.00    -0.199 C  
BRANCH  30  31
HETATM   31  C   UNL     1     -10.287   8.318  72.824  1.00  0.00    -0.330 C  
HETATM   32  C   UNL     1     -11.051   7.269  73.154  1.00  0.00    -0.336 C  
ENDBRANCH  30  31
ENDBRANCH   7  27
BRANCH   5  33
HETATM   33  N   UNL     1      -7.356   6.159  70.154  1.00  0.00    -0.079 NA 
HETATM   34  C   UNL     1      -6.502   7.040  70.943  1.00  0.00    -0.044 C  
BRANCH  33  35
HETATM   35  C   UNL     1      -7.403   4.750  70.583  1.00  0.00    -0.056 C  
BRANCH  35  36
HETATM   36  C   UNL     1      -8.117   4.607  71.948  1.00  0.00    -0.101 C  
BRANCH  36  37
HETATM   37  N   UNL     1      -9.205   3.607  71.993  1.00  0.00    -0.108 NA 
HETATM   38  C   UNL     1     -10.099   3.936  73.110  1.00  0.00    -0.145 C  
HETATM   39  C   UNL     1      -8.683   2.249  72.172  1.00  0.00    -0.069 C  
ENDBRANCH  36  37
ENDBRANCH  35  36
ENDBRANCH  33  35
ENDBRANCH   5  33
ENDBRANCH   2   3
TORSDOF 10
ENDMDL
MODEL      176
REMARK 921   NORMALIZED FREE ENERGY PREDICTED BY IDOCK:   -4.74 KCAL/MOL
REMARK 922        TOTAL FREE ENERGY PREDICTED BY IDOCK:   -9.22 KCAL/MOL
REMARK 923 INTER-LIGAND FREE ENERGY PREDICTED BY IDOCK:   -7.62 KCAL/MOL
REMARK 924 INTRA-LIGAND FREE ENERGY PREDICTED BY IDOCK:   -1.60 KCAL/MOL
REMARK 927      BINDING AFFINITY PREDICTED BY RF-SCORE:    0.00 PKD
ROOT
HETATM    1  C   UNL     1     -12.778  12.479  63.830  1.00  0.00    -0.311 C  
HETATM    2  O   UNL     1     -12.660  12.287  65.236  1.00  0.00    -0.583 OA 
ENDROOT
BRANCH   2   3
HETATM    3  C   UNL     1     -11.591  12.880  65.863  1.00  0.00    -0.377 A  
HETATM    4  C   UNL     1     -10.237  12.676  65.589  1.00  0.00    -0.273 A  
HETATM    5  C   UNL     1     -11.027  14.474  67.691  1.00  0.00    -0.288 A  
HETATM    6  C   UNL     1      -9.315  13.496  66.252  1.00  0.00    -0.143 A  
HETATM    7  C   UNL     1      -9.678  14.326  67.319  1.00  0.00    -0.234 A  
HETATM    8  C   UNL     1     -11.961  13.787  66.879  1.00  0.00    -0.460 A  
BRANCH   4   9
HETATM    9  N   UNL     1      -9.771  11.689  64.702  1.00  0.00    -0.354 NA 
HETATM   10  H   UNL     1      -9.873  11.880  63.706  1.00  0.00     0.000 HD 
BRANCH   9  11
HETATM   11  C   UNL     1      -9.184  10.470  65.056  1.00  0.00    -0.206 A  
HETATM   12  N   UNL     1      -9.271   9.485  64.156  1.00  0.00    -0.173 NA 
HETATM   13  N   UNL     1      -8.538  10.350  66.230  1.00  0.00    -0.138 NA 
HETATM   14  C   UNL     1      -7.839   9.230  66.470  1.00  0.00    -0.100 A  
HETATM   15  C   UNL     1      -7.839   8.182  65.574  1.00  0.00    -0.104 A  
HETATM   16  C   UNL     1      -8.596   8.361  64.438  1.00  0.00     0.043 A  
BRANCH  14  17
HETATM   17  C   UNL     1      -7.070   9.202  67.721  1.00  0.00    -0.079 A  
HETATM   18  C   UNL     1      -5.461  10.464  70.743  1.00  0.00    -0.085 A  
HETATM   19  C   UNL     1      -6.578   8.035  68.285  1.00  0.00    -0.056 A  
HETATM   20  C   UNL     1      -5.619  11.852  70.699  1.00  0.00    -0.149 A  
HETATM   21  C   UNL     1      -6.255  12.458  69.624  1.00  0.00    -0.130 A  
HETATM   22  N   UNL     1      -5.917   8.348  69.443  1.00  0.00    -0.036 NA 
HETATM   23  C   UNL     1      -5.965   9.700  69.676  1.00  0.00    -0.036 A  
HETATM   24  C   UNL     1      -5.248   7.390  70.295  1.00  0.00    -0.023 C  
HETATM   25  C   UNL     1      -6.644  10.278  68.592  1.00  0.00    -0.052 A  
HETATM   26  C   UNL     1      -6.778  11.685  68.577  1.00  0.00    -0.069 A  
ENDBRANCH  14  17
ENDBRANCH   9  11
ENDBRANCH   4   9
BRANCH   7  27
HETATM   27  N   UNL     1      -8.638  14.832  68.126  1.00  0.00    -0.153 N  
HETATM   28  O   UNL     1      -8.002  16.640  66.816  1.00  0.00    -0.194 OA 
HETATM   29  H   UNL     1      -8.466  14.378  69.024  1.00  0.00     0.000 HD 
HETATM   30  C   UNL     1      -7.842  15.900  67.779  1.00  0.00    -0.139 C  
BRANCH  30  31
HETATM   31  C   UNL     1      -6.766  16.144  68.775  1.00  0.00    -0.136 C  
HETATM   32  C   UNL     1      -6.576  17.373  69.270  1.00  0.00    -0.240 C  
ENDBRANCH  30  31
ENDBRANCH   7  27
BRANCH   5  33
HETATM   33  N   UNL     1     -11.443  15.237  68.783  1.00  0.00    -0.312 NA 
HETATM   34  C   UNL     1     -11.595  16.687  68.722  1.00  0.00     0.086 C  
BRANCH  33  35
HETATM   35  C   UNL     1     -11.904  14.591  70.024  1.00  0.00    -0.313 C  
BRANCH  35  36
HETATM   36  C   UNL     1     -12.956  15.464  70.749  1.00  0.00    -0.453 C  
BRANCH  36  37
HETATM   37  N   UNL     1     -13.481  14.907  72.014  1.00  0.00    -0.353 NA 
HETATM   38  C   UNL     1     -12.783  15.548  73.135  1.00  0.00    -0.478 C  
HETATM   39  C   UNL     1     -13.287  13.456  72.086  1.00  0.00    -0.520 C  
ENDBRANCH  36  37
ENDBRANCH  35  36
ENDBRANCH  33  35
ENDBRANCH   5  33
ENDBRANCH   2   3
TORSDOF 10
ENDMDL
MODEL      177
REMARK 921   NORMALIZED FREE ENERGY PREDICTED BY IDOCK:   -4.74 KCAL/MOL
REMARK 922        TOTAL FREE ENERGY PREDICTED BY IDOCK:   -9.22 KCAL/MOL
REMARK 923 INTER-LIGAND FREE ENERGY PREDICTED BY IDOCK:   -7.89 KCAL/MOL
REMARK 924 INTRA-LIGAND FREE ENERGY PREDICTED BY IDOCK:   -1.32 KCAL/MOL
REMARK 927      BINDING AFFINITY PREDICTED BY RF-SCORE:    0.00 PKD
ROOT
HETATM    1  C   UNL     1     -10.897  11.225  65.327  1.00  0.00    -0.194 C  
HETATM    2  O   UNL     1     -10.912  11.756  66.648  1.00  0.00    -0.267 OA 
ENDROOT
BRANCH   2   3
HETATM    3  C   UNL     1     -10.066  12.806  66.911  1.00  0.00    -0.232 A  
HETATM    4  C   UNL     1      -8.674  12.811  66.805  1.00  0.00    -0.121 A  
HETATM    5  C   UNL     1     -10.059  15.169  67.697  1.00  0.00    -0.231 A  
HETATM    6  C   UNL     1      -8.019  14.036  66.981  1.00  0.00     0.028 A  
HETATM    7  C   UNL     1      -8.669  15.172  67.477  1.00  0.00    -0.177 A  
HETATM    8  C   UNL     1     -10.731  13.981  67.325  1.00  0.00    -0.278 A  
BRANCH   4   9
HETATM    9  N   UNL     1      -7.918  11.654  66.546  1.00  0.00    -0.332 NA 
HETATM   10  H   UNL     1      -7.689  11.462  65.571  1.00  0.00     0.000 HD 
BRANCH   9  11
HETATM   11  C   UNL     1      -7.451  10.742  67.497  1.00  0.00    -0.093 A  
HETATM   12  N   UNL     1      -6.140  10.776  67.758  1.00  0.00    -0.047 NA 
HETATM   13  N   UNL     1      -8.313   9.922  68.125  1.00  0.00    -0.109 NA 
HETATM   14  C   UNL     1      -7.869   9.180  69.150  1.00  0.00    -0.092 A  
HETATM   15  C   UNL     1      -6.539   9.189  69.514  1.00  0.00    -0.043 A  
HETATM   16  C   UNL     1      -5.713   9.994  68.762  1.00  0.00    -0.034 A  
BRANCH  14  17
HETATM   17  C   UNL     1      -8.880   8.386  69.861  1.00  0.00    -0.137 A  
HETATM   18  C   UNL     1     -10.524   5.432  71.232  1.00  0.00    -0.296 A  
HETATM   19  C   UNL     1      -9.968   8.948  70.512  1.00  0.00    -0.201 A  
HETATM   20  C   UNL     1      -9.767   4.344  70.791  1.00  0.00    -0.271 A  
HETATM   21  C   UNL     1      -8.662   4.536  69.971  1.00  0.00    -0.115 A  
HETATM   22  N   UNL     1     -10.711   7.946  71.076  1.00  0.00    -0.218 NA 
HETATM   23  C   UNL     1     -10.138   6.723  70.829  1.00  0.00    -0.191 A  
HETATM   24  C   UNL     1     -11.937   8.145  71.817  1.00  0.00    -0.305 C  
HETATM   25  C   UNL     1      -9.008   6.954  70.029  1.00  0.00    -0.142 A  
HETATM   26  C   UNL     1      -8.270   5.829  69.595  1.00  0.00    -0.108 A  
ENDBRANCH  14  17
ENDBRANCH   9  11
ENDBRANCH   4   9
BRANCH   7  27
HETATM   27  N   UNL     1      -7.859  16.230  67.940  1.00  0.00    -0.143 N  
HETATM   28  O   UNL     1      -7.064  15.257  69.892  1.00  0.00    -0.177 OA 
HETATM   29  H   UNL     1      -7.770  17.057  67.350  1.00  0.00     0.000 HD 
HETATM   30  C   UNL     1      -7.181  16.215  69.138  1.00  0.00    -0.212 C  
BRANCH  30  31
HETATM   31  C   UNL     1      -6.493  17.505  69.408  1.00  0.00    -0.230 C  
HETATM   32  C   UNL     1      -6.902  18.624  68.797  1.00  0.00    -0.298 C  
ENDBRANCH  30  31
ENDBRANCH   7  27
BRANCH   5  33
HETATM   33  N   UNL     1     -10.752  16.248  68.247  1.00  0.00    -0.307 NA 
HETATM   34  C   UNL     1     -10.641  17.607  67.727  1.00  0.00    -0.378 C  
BRANCH  33  35
HETATM   35  C   UNL     1     -11.764  16.041  69.298  1.00  0.00    -0.298 C  
BRANCH  35  36
HETATM   36  C   UNL     1     -11.126  15.441  70.574  1.00  0.00    -0.335 C  
BRANCH  36  37
HETATM   37  N   UNL     1     -12.058  15.201  71.697  1.00  0.00    -0.330 NA 
HETATM   38  C   UNL     1     -13.402  14.972  71.152  1.00  0.00    -0.445 C  
HETATM   39  C   UNL     1     -12.095  16.340  72.619  1.00  0.00    -0.534 C  
ENDBRANCH  36  37
ENDBRANCH  35  36
ENDBRANCH  33  35
ENDBRANCH   5  33
ENDBRANCH   2   3
TORSDOF 10
ENDMDL
MODEL      178
REMARK 921   NORMALIZED FREE ENERGY PREDICTED BY IDOCK:   -4.73 KCAL/MOL
REMARK 922        TOTAL FREE ENERGY PREDICTED BY IDOCK:   -9.22 KCAL/MOL
REMARK 923 INTER-LIGAND FREE ENERGY PREDICTED BY IDOCK:   -8.99 KCAL/MOL
REMARK 924 INTRA-LIGAND FREE ENERGY PREDICTED BY IDOCK:   -0.23 KCAL/MOL
REMARK 927      BINDING AFFINITY PREDICTED BY RF-SCORE:    0.00 PKD
ROOT
HETATM    1  C   UNL     1     -13.364  15.048  72.522  1.00  0.00    -0.424 C  
HETATM    2  O   UNL     1     -12.011  14.810  72.145  1.00  0.00    -0.338 OA 
ENDROOT
BRANCH   2   3
HETATM    3  C   UNL     1     -11.794  14.229  70.919  1.00  0.00    -0.255 A  
HETATM    4  C   UNL     1     -12.414  13.087  70.409  1.00  0.00    -0.194 A  
HETATM    5  C   UNL     1     -10.416  14.457  68.858  1.00  0.00    -0.245 A  
HETATM    6  C   UNL     1     -12.149  12.753  69.075  1.00  0.00    -0.188 A  
HETATM    7  C   UNL     1     -11.135  13.368  68.332  1.00  0.00    -0.273 A  
HETATM    8  C   UNL     1     -10.835  14.904  70.133  1.00  0.00    -0.163 A  
BRANCH   4   9
HETATM    9  N   UNL     1     -13.266  12.269  71.170  1.00  0.00    -0.013 NA 
HETATM   10  H   UNL     1     -14.153  12.676  71.467  1.00  0.00     0.000 HD 
BRANCH   9  11
HETATM   11  C   UNL     1     -13.015  10.949  71.560  1.00  0.00    -0.451 A  
HETATM   12  N   UNL     1     -14.083  10.211  71.882  1.00  0.00     0.179 NA 
HETATM   13  N   UNL     1     -11.756  10.474  71.557  1.00  0.00    -0.071 NA 
HETATM   14  C   UNL     1     -11.560   9.164  71.767  1.00  0.00    -0.387 A  
HETATM   15  C   UNL     1     -12.612   8.323  72.062  1.00  0.00    -0.387 A  
HETATM   16  C   UNL     1     -13.855   8.912  72.128  1.00  0.00    -0.473 A  
BRANCH  14  17
HETATM   17  C   UNL     1     -10.176   8.688  71.646  1.00  0.00    -0.366 A  
HETATM   18  C   UNL     1      -7.128   6.868  72.489  1.00  0.00    -0.070 A  
HETATM   19  C   UNL     1      -9.348   9.020  70.584  1.00  0.00    -0.234 A  
HETATM   20  C   UNL     1      -7.387   6.254  73.717  1.00  0.00    -0.087 A  
HETATM   21  C   UNL     1      -8.604   6.441  74.360  1.00  0.00    -0.145 A  
HETATM   22  N   UNL     1      -8.134   8.416  70.765  1.00  0.00    -0.103 NA 
HETATM   23  C   UNL     1      -8.130   7.675  71.921  1.00  0.00    -0.100 A  
HETATM   24  C   UNL     1      -7.004   8.551  69.871  1.00  0.00    -0.043 C  
HETATM   25  C   UNL     1      -9.383   7.856  72.527  1.00  0.00    -0.258 A  
HETATM   26  C   UNL     1      -9.607   7.226  73.773  1.00  0.00    -0.330 A  
ENDBRANCH  14  17
ENDBRANCH   9  11
ENDBRANCH   4   9
BRANCH   7  27
HETATM   27  N   UNL     1     -10.727  12.729  67.142  1.00  0.00    -0.243 N  
HETATM   28  O   UNL     1     -12.650  13.044  65.879  1.00  0.00    -0.480 OA 
HETATM   29  H   UNL     1      -9.773  12.373  67.094  1.00  0.00     0.000 HD 
HETATM   30  C   UNL     1     -11.537  12.557  66.042  1.00  0.00    -0.406 C  
BRANCH  30  31
HETATM   31  C   UNL     1     -10.873  11.762  64.977  1.00  0.00    -0.350 C  
HETATM   32  C   UNL     1     -10.663  12.301  63.770  1.00  0.00    -0.494 C  
ENDBRANCH  30  31
ENDBRANCH   7  27
BRANCH   5  33
HETATM   33  N   UNL     1      -9.354  15.071  68.191  1.00  0.00    -0.184 NA 
HETATM   34  C   UNL     1      -8.533  16.111  68.801  1.00  0.00    -0.236 C  
BRANCH  33  35
HETATM   35  C   UNL     1      -8.906  14.584  66.874  1.00  0.00    -0.234 C  
BRANCH  35  36
HETATM   36  C   UNL     1      -9.354  15.542  65.745  1.00  0.00    -0.257 C  
BRANCH  36  37
HETATM   37  N   UNL     1     -10.739  16.046  65.852  1.00  0.00    -0.309 NA 
HETATM   38  C   UNL     1     -11.449  15.739  64.603  1.00  0.00    -0.282 C  
HETATM   39  C   UNL     1     -10.771  17.493  66.085  1.00  0.00    -0.098 C  
ENDBRANCH  36  37
ENDBRANCH  35  36
ENDBRANCH  33  35
ENDBRANCH   5  33
ENDBRANCH   2   3
TORSDOF 10
ENDMDL
MODEL      179
REMARK 921   NORMALIZED FREE ENERGY PREDICTED BY IDOCK:   -4.72 KCAL/MOL
REMARK 922        TOTAL FREE ENERGY PREDICTED BY IDOCK:   -9.20 KCAL/MOL
REMARK 923 INTER-LIGAND FREE ENERGY PREDICTED BY IDOCK:   -7.84 KCAL/MOL
REMARK 924 INTRA-LIGAND FREE ENERGY PREDICTED BY IDOCK:   -1.36 KCAL/MOL
REMARK 927      BINDING AFFINITY PREDICTED BY RF-SCORE:    0.00 PKD
ROOT
HETATM    1  C   UNL     1      -5.464  12.967  68.421  1.00  0.00    -0.063 C  
HETATM    2  O   UNL     1      -6.654  12.386  68.944  1.00  0.00    -0.083 OA 
ENDROOT
BRANCH   2   3
HETATM    3  C   UNL     1      -7.745  12.333  68.111  1.00  0.00    -0.138 A  
HETATM    4  C   UNL     1      -8.216  11.220  67.411  1.00  0.00    -0.135 A  
HETATM    5  C   UNL     1      -9.550  13.756  67.150  1.00  0.00    -0.244 A  
HETATM    6  C   UNL     1      -9.434  11.353  66.734  1.00  0.00    -0.197 A  
HETATM    7  C   UNL     1     -10.058  12.592  66.544  1.00  0.00    -0.238 A  
HETATM    8  C   UNL     1      -8.428  13.563  67.992  1.00  0.00    -0.176 A  
BRANCH   4   9
HETATM    9  N   UNL     1      -7.521   9.999  67.351  1.00  0.00    -0.090 NA 
HETATM   10  H   UNL     1      -6.530  10.044  67.119  1.00  0.00     0.000 HD 
BRANCH   9  11
HETATM   11  C   UNL     1      -8.061   8.730  67.579  1.00  0.00    -0.106 A  
HETATM   12  N   UNL     1      -8.009   7.870  66.555  1.00  0.00    -0.100 NA 
HETATM   13  N   UNL     1      -8.556   8.415  68.790  1.00  0.00    -0.134 NA 
HETATM   14  C   UNL     1      -8.909   7.144  69.033  1.00  0.00    -0.131 A  
HETATM   15  C   UNL     1      -8.845   6.184  68.045  1.00  0.00    -0.111 A  
HETATM   16  C   UNL     1      -8.405   6.614  66.813  1.00  0.00    -0.115 A  
BRANCH  14  17
HETATM   17  C   UNL     1      -9.342   6.843  70.403  1.00  0.00    -0.159 A  
HETATM   18  C   UNL     1      -9.497   7.077  74.041  1.00  0.00    -0.288 A  
HETATM   19  C   UNL     1     -10.338   5.924  70.701  1.00  0.00    -0.235 A  
HETATM   20  C   UNL     1      -8.505   7.993  74.399  1.00  0.00    -0.193 A  
HETATM   21  C   UNL     1      -7.693   8.571  73.432  1.00  0.00    -0.053 A  
HETATM   22  N   UNL     1     -10.507   5.881  72.058  1.00  0.00    -0.207 NA 
HETATM   23  C   UNL     1      -9.655   6.760  72.680  1.00  0.00    -0.145 A  
HETATM   24  C   UNL     1     -11.443   5.018  72.746  1.00  0.00    -0.164 C  
HETATM   25  C   UNL     1      -8.873   7.352  71.675  1.00  0.00    -0.125 A  
HETATM   26  C   UNL     1      -7.874   8.268  72.075  1.00  0.00    -0.168 A  
ENDBRANCH  14  17
ENDBRANCH   9  11
ENDBRANCH   4   9
BRANCH   7  27
HETATM   27  N   UNL     1     -11.074  12.661  65.568  1.00  0.00    -0.286 N  
HETATM   28  O   UNL     1      -9.755  12.575  63.659  1.00  0.00    -0.260 OA 
HETATM   29  H   UNL     1     -12.043  12.669  65.886  1.00  0.00     0.000 HD 
HETATM   30  C   UNL     1     -10.839  12.718  64.213  1.00  0.00    -0.390 C  
BRANCH  30  31
HETATM   31  C   UNL     1     -12.093  12.887  63.433  1.00  0.00    -0.610 C  
HETATM   32  C   UNL     1     -12.983  11.889  63.369  1.00  0.00    -0.258 C  
ENDBRANCH  30  31
ENDBRANCH   7  27
BRANCH   5  33
HETATM   33  N   UNL     1     -10.091  15.026  66.948  1.00  0.00    -0.245 NA 
HETATM   34  C   UNL     1      -9.814  15.823  65.757  1.00  0.00    -0.348 C  
BRANCH  33  35
HETATM   35  C   UNL     1     -11.106  15.571  67.868  1.00  0.00    -0.321 C  
BRANCH  35  36
HETATM   36  C   UNL     1     -11.643  14.474  68.817  1.00  0.00    -0.312 C  
BRANCH  36  37
HETATM   37  N   UNL     1     -11.304  14.648  70.245  1.00  0.00    -0.234 NA 
HETATM   38  C   UNL     1     -12.299  13.935  71.055  1.00  0.00    -0.376 C  
HETATM   39  C   UNL     1     -11.290  16.063  70.628  1.00  0.00    -0.399 C  
ENDBRANCH  36  37
ENDBRANCH  35  36
ENDBRANCH  33  35
ENDBRANCH   5  33
ENDBRANCH   2   3
TORSDOF 10
ENDMDL
MODEL      180
REMARK 921   NORMALIZED FREE ENERGY PREDICTED BY IDOCK:   -4.72 KCAL/MOL
REMARK 922        TOTAL FREE ENERGY PREDICTED BY IDOCK:   -9.19 KCAL/MOL
REMARK 923 INTER-LIGAND FREE ENERGY PREDICTED BY IDOCK:   -7.80 KCAL/MOL
REMARK 924 INTRA-LIGAND FREE ENERGY PREDICTED BY IDOCK:   -1.39 KCAL/MOL
REMARK 927      BINDING AFFINITY PREDICTED BY RF-SCORE:    0.00 PKD
ROOT
HETATM    1  C   UNL     1      -6.024   9.642  66.584  1.00  0.00    -0.059 C  
HETATM    2  O   UNL     1      -6.749  10.689  65.947  1.00  0.00    -0.125 OA 
ENDROOT
BRANCH   2   3
HETATM    3  C   UNL     1      -7.651  11.385  66.715  1.00  0.00    -0.143 A  
HETATM    4  C   UNL     1      -8.991  11.062  66.937  1.00  0.00    -0.157 A  
HETATM    5  C   UNL     1      -7.865  13.432  68.117  1.00  0.00    -0.145 A  
HETATM    6  C   UNL     1      -9.691  11.831  67.875  1.00  0.00    -0.185 A  
HETATM    7  C   UNL     1      -9.179  13.021  68.405  1.00  0.00    -0.136 A  
HETATM    8  C   UNL     1      -7.108  12.537  67.324  1.00  0.00    -0.114 A  
BRANCH   4   9
HETATM    9  N   UNL     1      -9.655  10.025  66.260  1.00  0.00    -0.189 NA 
HETATM   10  H   UNL     1     -10.235  10.290  65.464  1.00  0.00     0.000 HD 
BRANCH   9  11
HETATM   11  C   UNL     1      -9.598   8.663  66.574  1.00  0.00    -0.237 A  
HETATM   12  N   UNL     1      -9.074   7.861  65.640  1.00  0.00    -0.037 NA 
HETATM   13  N   UNL     1     -10.017   8.231  67.777  1.00  0.00    -0.175 NA 
HETATM   14  C   UNL     1      -9.793   6.952  68.117  1.00  0.00    -0.136 A  
HETATM   15  C   UNL     1      -9.218   6.068  67.230  1.00  0.00    -0.114 A  
HETATM   16  C   UNL     1      -8.898   6.578  65.991  1.00  0.00    -0.143 A  
BRANCH  14  17
HETATM   17  C   UNL     1     -10.178   6.569  69.481  1.00  0.00    -0.219 A  
HETATM   18  C   UNL     1     -10.493   4.480  72.456  1.00  0.00    -0.251 A  
HETATM   19  C   UNL     1     -10.821   7.428  70.360  1.00  0.00    -0.243 A  
HETATM   20  C   UNL     1      -9.957   3.240  72.101  1.00  0.00    -0.231 A  
HETATM   21  C   UNL     1      -9.479   3.017  70.816  1.00  0.00    -0.228 A  
HETATM   22  N   UNL     1     -11.032   6.773  71.543  1.00  0.00    -0.234 NA 
HETATM   23  C   UNL     1     -10.533   5.495  71.483  1.00  0.00    -0.235 A  
HETATM   24  C   UNL     1     -11.701   7.341  72.693  1.00  0.00    -0.162 C  
HETATM   25  C   UNL     1     -10.027   5.313  70.187  1.00  0.00    -0.313 A  
HETATM   26  C   UNL     1      -9.499   4.043  69.860  1.00  0.00    -0.265 A  
ENDBRANCH  14  17
ENDBRANCH   9  11
ENDBRANCH   4   9
BRANCH   7  27
HETATM   27  N   UNL     1     -10.087  13.882  69.056  1.00  0.00    -0.427 N  
HETATM   28  O   UNL     1     -11.502  14.339  67.273  1.00  0.00    -0.317 OA 
HETATM   29  H   UNL     1      -9.965  14.038  70.057  1.00  0.00     0.000 HD 
HETATM   30  C   UNL     1     -11.129  14.524  68.425  1.00  0.00    -0.256 C  
BRANCH  30  31
HETATM   31  C   UNL     1     -11.855  15.445  69.339  1.00  0.00    -0.372 C  
HETATM   32  C   UNL     1     -12.574  14.952  70.355  1.00  0.00    -0.394 C  
ENDBRANCH  30  31
ENDBRANCH   7  27
BRANCH   5  33
HETATM   33  N   UNL     1      -7.321  14.636  68.566  1.00  0.00    -0.110 NA 
HETATM   34  C   UNL     1      -6.620  14.761  69.840  1.00  0.00    -0.175 C  
BRANCH  33  35
HETATM   35  C   UNL     1      -7.291  15.824  67.693  1.00  0.00    -0.164 C  
BRANCH  35  36
HETATM   36  C   UNL     1      -7.492  17.121  68.512  1.00  0.00    -0.238 C  
BRANCH  36  37
HETATM   37  N   UNL     1      -8.215  18.206  67.815  1.00  0.00    -0.239 NA 
HETATM   38  C   UNL     1      -8.095  19.435  68.608  1.00  0.00    -0.366 C  
HETATM   39  C   UNL     1      -9.632  17.881  67.633  1.00  0.00    -0.270 C  
ENDBRANCH  36  37
ENDBRANCH  35  36
ENDBRANCH  33  35
ENDBRANCH   5  33
ENDBRANCH   2   3
TORSDOF 10
ENDMDL
MODEL      181
REMARK 921   NORMALIZED FREE ENERGY PREDICTED BY IDOCK:   -4.72 KCAL/MOL
REMARK 922        TOTAL FREE ENERGY PREDICTED BY IDOCK:   -9.19 KCAL/MOL
REMARK 923 INTER-LIGAND FREE ENERGY PREDICTED BY IDOCK:   -8.06 KCAL/MOL
REMARK 924 INTRA-LIGAND FREE ENERGY PREDICTED BY IDOCK:   -1.13 KCAL/MOL
REMARK 927      BINDING AFFINITY PREDICTED BY RF-SCORE:    0.00 PKD
ROOT
HETATM    1  C   UNL     1      -7.033  12.875  67.464  1.00  0.00    -0.149 C  
HETATM    2  O   UNL     1      -8.415  12.795  67.129  1.00  0.00    -0.185 OA 
ENDROOT
BRANCH   2   3
HETATM    3  C   UNL     1      -8.963  11.539  67.022  1.00  0.00    -0.174 A  
HETATM    4  C   UNL     1      -9.890  10.951  67.885  1.00  0.00    -0.172 A  
HETATM    5  C   UNL     1      -8.900   9.484  65.618  1.00  0.00    -0.161 A  
HETATM    6  C   UNL     1     -10.429   9.716  67.506  1.00  0.00    -0.321 A  
HETATM    7  C   UNL     1      -9.911   8.963  66.446  1.00  0.00    -0.284 A  
HETATM    8  C   UNL     1      -8.509  10.815  65.900  1.00  0.00    -0.166 A  
BRANCH   4   9
HETATM    9  N   UNL     1     -10.287  11.534  69.102  1.00  0.00    -0.405 NA 
HETATM   10  H   UNL     1      -9.960  12.482  69.287  1.00  0.00     0.000 HD 
BRANCH   9  11
HETATM   11  C   UNL     1     -11.086  10.938  70.082  1.00  0.00    -0.161 A  
HETATM   12  N   UNL     1     -12.317  11.442  70.231  1.00  0.00    -0.311 NA 
HETATM   13  N   UNL     1     -10.622   9.890  70.785  1.00  0.00    -0.291 NA 
HETATM   14  C   UNL     1     -11.464   9.230  71.594  1.00  0.00    -0.398 A  
HETATM   15  C   UNL     1     -12.763   9.656  71.772  1.00  0.00    -0.510 A  
HETATM   16  C   UNL     1     -13.128  10.788  71.077  1.00  0.00    -0.248 A  
BRANCH  14  17
HETATM   17  C   UNL     1     -10.926   8.032  72.252  1.00  0.00    -0.377 A  
HETATM   18  C   UNL     1      -8.571   5.945  74.099  1.00  0.00    -0.119 A  
HETATM   19  C   UNL     1     -11.631   6.842  72.360  1.00  0.00    -0.239 A  
HETATM   20  C   UNL     1      -7.433   6.735  74.279  1.00  0.00    -0.101 A  
HETATM   21  C   UNL     1      -7.374   8.022  73.759  1.00  0.00    -0.188 A  
HETATM   22  N   UNL     1     -10.859   5.931  73.028  1.00  0.00    -0.253 NA 
HETATM   23  C   UNL     1      -9.654   6.486  73.382  1.00  0.00    -0.155 A  
HETATM   24  C   UNL     1     -11.250   4.567  73.308  1.00  0.00    -0.298 C  
HETATM   25  C   UNL     1      -9.639   7.794  72.873  1.00  0.00    -0.302 A  
HETATM   26  C   UNL     1      -8.469   8.561  73.067  1.00  0.00    -0.110 A  
ENDBRANCH  14  17
ENDBRANCH   9  11
ENDBRANCH   4   9
BRANCH   7  27
HETATM   27  N   UNL     1     -10.288   7.606  66.372  1.00  0.00    -0.467 N  
HETATM   28  O   UNL     1     -10.171   7.070  68.629  1.00  0.00    -0.164 OA 
HETATM   29  H   UNL     1     -10.553   7.232  65.461  1.00  0.00     0.000 HD 
HETATM   30  C   UNL     1     -10.319   6.754  67.454  1.00  0.00    -0.223 C  
BRANCH  30  31
HETATM   31  C   UNL     1     -10.655   5.360  67.060  1.00  0.00    -0.298 C  
HETATM   32  C   UNL     1     -10.311   4.905  65.849  1.00  0.00    -0.271 C  
ENDBRANCH  30  31
ENDBRANCH   7  27
BRANCH   5  33
HETATM   33  N   UNL     1      -8.302   8.759  64.586  1.00  0.00    -0.165 NA 
HETATM   34  C   UNL     1      -8.635   8.965  63.180  1.00  0.00    -0.117 C  
BRANCH  33  35
HETATM   35  C   UNL     1      -7.178   7.845  64.856  1.00  0.00    -0.066 C  
BRANCH  35  36
HETATM   36  C   UNL     1      -7.525   6.397  64.436  1.00  0.00    -0.090 C  
BRANCH  36  37
HETATM   37  N   UNL     1      -7.012   5.980  63.113  1.00  0.00    -0.043 NA 
HETATM   38  C   UNL     1      -7.756   4.794  62.673  1.00  0.00    -0.062 C  
HETATM   39  C   UNL     1      -5.581   5.664  63.165  1.00  0.00    -0.014 C  
ENDBRANCH  36  37
ENDBRANCH  35  36
ENDBRANCH  33  35
ENDBRANCH   5  33
ENDBRANCH   2   3
TORSDOF 10
ENDMDL
MODEL      182
REMARK 921   NORMALIZED FREE ENERGY PREDICTED BY IDOCK:   -4.70 KCAL/MOL
REMARK 922        TOTAL FREE ENERGY PREDICTED BY IDOCK:   -9.17 KCAL/MOL
REMARK 923 INTER-LIGAND FREE ENERGY PREDICTED BY IDOCK:   -7.65 KCAL/MOL
REMARK 924 INTRA-LIGAND FREE ENERGY PREDICTED BY IDOCK:   -1.52 KCAL/MOL
REMARK 927      BINDING AFFINITY PREDICTED BY RF-SCORE:    0.00 PKD
ROOT
HETATM    1  C   UNL     1      -5.683  12.766  70.189  1.00  0.00    -0.151 C  
HETATM    2  O   UNL     1      -6.636  12.649  69.137  1.00  0.00    -0.096 OA 
ENDROOT
BRANCH   2   3
HETATM    3  C   UNL     1      -7.460  11.550  69.157  1.00  0.00    -0.025 A  
HETATM    4  C   UNL     1      -8.833  11.524  68.904  1.00  0.00     0.040 A  
HETATM    5  C   UNL     1      -7.449   9.098  69.591  1.00  0.00    -0.078 A  
HETATM    6  C   UNL     1      -9.451  10.270  68.832  1.00  0.00    -0.190 A  
HETATM    7  C   UNL     1      -8.808   9.091  69.227  1.00  0.00    -0.139 A  
HETATM    8  C   UNL     1      -6.793  10.345  69.466  1.00  0.00    -0.093 A  
BRANCH   4   9
HETATM    9  N   UNL     1      -9.606  12.686  68.734  1.00  0.00    -0.413 NA 
HETATM   10  H   UNL     1     -10.123  13.019  69.547  1.00  0.00     0.000 HD 
BRANCH   9  11
HETATM   11  C   UNL     1      -9.733  13.429  67.556  1.00  0.00    -0.224 A  
HETATM   12  N   UNL     1     -10.535  12.917  66.615  1.00  0.00    -0.260 NA 
HETATM   13  N   UNL     1      -9.102  14.611  67.432  1.00  0.00    -0.190 NA 
HETATM   14  C   UNL     1      -9.375  15.381  66.369  1.00  0.00    -0.299 A  
HETATM   15  C   UNL     1     -10.225  14.948  65.373  1.00  0.00    -0.409 A  
HETATM   16  C   UNL     1     -10.761  13.691  65.542  1.00  0.00    -0.296 A  
BRANCH  14  17
HETATM   17  C   UNL     1      -8.735  16.702  66.345  1.00  0.00    -0.345 A  
HETATM   18  C   UNL     1      -8.337  20.289  66.881  1.00  0.00    -0.348 A  
HETATM   19  C   UNL     1      -7.448  16.915  65.873  1.00  0.00     0.248 A  
HETATM   20  C   UNL     1      -9.558  20.728  67.398  1.00  0.00    -0.484 A  
HETATM   21  C   UNL     1     -10.613  19.841  67.572  1.00  0.00    -0.544 A  
HETATM   22  N   UNL     1      -7.149  18.245  65.992  1.00  0.00    -0.305 NA 
HETATM   23  C   UNL     1      -8.202  18.930  66.545  1.00  0.00    -0.297 A  
HETATM   24  C   UNL     1      -5.901  18.850  65.579  1.00  0.00    -0.202 C  
HETATM   25  C   UNL     1      -9.237  18.002  66.740  1.00  0.00    -0.285 A  
HETATM   26  C   UNL     1     -10.461  18.483  67.258  1.00  0.00    -0.455 A  
ENDBRANCH  14  17
ENDBRANCH   9  11
ENDBRANCH   4   9
BRANCH   7  27
HETATM   27  N   UNL     1      -9.617   7.956  69.445  1.00  0.00    -0.160 N  
HETATM   28  O   UNL     1     -10.441   7.674  67.293  1.00  0.00    -0.271 OA 
HETATM   29  H   UNL     1      -9.606   7.532  70.373  1.00  0.00     0.000 HD 
HETATM   30  C   UNL     1     -10.418   7.383  68.483  1.00  0.00    -0.186 C  
BRANCH  30  31
HETATM   31  C   UNL     1     -11.232   6.264  69.026  1.00  0.00    -0.415 C  
HETATM   32  C   UNL     1     -11.613   6.273  70.309  1.00  0.00    -0.379 C  
ENDBRANCH  30  31
ENDBRANCH   7  27
BRANCH   5  33
HETATM   33  N   UNL     1      -6.771   7.968  70.052  1.00  0.00    -0.040 NA 
HETATM   34  C   UNL     1      -6.452   7.758  71.460  1.00  0.00    -0.038 C  
BRANCH  33  35
HETATM   35  C   UNL     1      -6.475   6.843  69.148  1.00  0.00    -0.043 C  
BRANCH  35  36
HETATM   36  C   UNL     1      -6.859   5.492  69.796  1.00  0.00    -0.060 C  
BRANCH  36  37
HETATM   37  N   UNL     1      -7.929   4.739  69.109  1.00  0.00    -0.071 NA 
HETATM   38  C   UNL     1      -7.784   3.314  69.433  1.00  0.00    -0.050 C  
HETATM   39  C   UNL     1      -7.866   4.916  67.655  1.00  0.00    -0.094 C  
ENDBRANCH  36  37
ENDBRANCH  35  36
ENDBRANCH  33  35
ENDBRANCH   5  33
ENDBRANCH   2   3
TORSDOF 10
ENDMDL
MODEL      183
REMARK 921   NORMALIZED FREE ENERGY PREDICTED BY IDOCK:   -4.70 KCAL/MOL
REMARK 922        TOTAL FREE ENERGY PREDICTED BY IDOCK:   -9.15 KCAL/MOL
REMARK 923 INTER-LIGAND FREE ENERGY PREDICTED BY IDOCK:   -7.93 KCAL/MOL
REMARK 924 INTRA-LIGAND FREE ENERGY PREDICTED BY IDOCK:   -1.23 KCAL/MOL
REMARK 927      BINDING AFFINITY PREDICTED BY RF-SCORE:    0.00 PKD
ROOT
HETATM    1  C   UNL     1     -11.643  11.610  69.689  1.00  0.00    -0.330 C  
HETATM    2  O   UNL     1     -10.499  11.172  68.962  1.00  0.00    -0.207 OA 
ENDROOT
BRANCH   2   3
HETATM    3  C   UNL     1      -9.706  12.141  68.397  1.00  0.00    -0.193 A  
HETATM    4  C   UNL     1      -8.315  12.127  68.282  1.00  0.00    -0.172 A  
HETATM    5  C   UNL     1      -9.818  14.379  67.309  1.00  0.00    -0.247 A  
HETATM    6  C   UNL     1      -7.720  13.153  67.537  1.00  0.00    -0.168 A  
HETATM    7  C   UNL     1      -8.427  14.284  67.115  1.00  0.00    -0.200 A  
HETATM    8  C   UNL     1     -10.430  13.242  67.889  1.00  0.00    -0.244 A  
BRANCH   4   9
HETATM    9  N   UNL     1      -7.503  11.151  68.886  1.00  0.00    -0.117 NA 
HETATM   10  H   UNL     1      -6.808  11.478  69.556  1.00  0.00     0.000 HD 
BRANCH   9  11
HETATM   11  C   UNL     1      -7.556   9.773  68.653  1.00  0.00    -0.079 A  
HETATM   12  N   UNL     1      -6.895   9.326  67.580  1.00  0.00    -0.076 NA 
HETATM   13  N   UNL     1      -8.212   8.970  69.511  1.00  0.00    -0.110 NA 
HETATM   14  C   UNL     1      -8.105   7.641  69.362  1.00  0.00    -0.127 A  
HETATM   15  C   UNL     1      -7.405   7.095  68.307  1.00  0.00    -0.100 A  
HETATM   16  C   UNL     1      -6.837   7.993  67.431  1.00  0.00    -0.070 A  
BRANCH  14  17
HETATM   17  C   UNL     1      -8.755   6.819  70.390  1.00  0.00    -0.151 A  
HETATM   18  C   UNL     1     -11.422   5.550  72.533  1.00  0.00    -0.303 A  
HETATM   19  C   UNL     1      -8.102   5.811  71.084  1.00  0.00    -0.117 A  
HETATM   20  C   UNL     1     -12.532   6.354  72.264  1.00  0.00    -0.107 A  
HETATM   21  C   UNL     1     -12.444   7.404  71.359  1.00  0.00    -0.402 A  
HETATM   22  N   UNL     1      -8.982   5.236  71.960  1.00  0.00    -0.134 NA 
HETATM   23  C   UNL     1     -10.217   5.828  71.863  1.00  0.00    -0.200 A  
HETATM   24  C   UNL     1      -8.654   4.163  72.874  1.00  0.00    -0.100 C  
HETATM   25  C   UNL     1     -10.104   6.859  70.917  1.00  0.00    -0.207 A  
HETATM   26  C   UNL     1     -11.245   7.657  70.676  1.00  0.00    -0.280 A  
ENDBRANCH  14  17
ENDBRANCH   9  11
ENDBRANCH   4   9
BRANCH   7  27
HETATM   27  N   UNL     1      -7.672  15.396  66.688  1.00  0.00    -0.248 N  
HETATM   28  O   UNL     1      -7.312  16.409  68.746  1.00  0.00    -0.177 OA 
HETATM   29  H   UNL     1      -7.433  15.460  65.698  1.00  0.00     0.000 HD 
HETATM   30  C   UNL     1      -7.238  16.401  67.523  1.00  0.00    -0.145 C  
BRANCH  30  31
HETATM   31  C   UNL     1      -6.555  17.492  66.779  1.00  0.00    -0.234 C  
HETATM   32  C   UNL     1      -6.509  18.727  67.294  1.00  0.00    -0.195 C  
ENDBRANCH  30  31
ENDBRANCH   7  27
BRANCH   5  33
HETATM   33  N   UNL     1     -10.566  15.505  66.966  1.00  0.00    -0.306 NA 
HETATM   34  C   UNL     1     -10.800  16.610  67.891  1.00  0.00    -0.321 C  
BRANCH  33  35
HETATM   35  C   UNL     1     -11.036  15.710  65.585  1.00  0.00    -0.272 C  
BRANCH  35  36
HETATM   36  C   UNL     1     -10.734  14.474  64.705  1.00  0.00    -0.393 C  
BRANCH  36  37
HETATM   37  N   UNL     1     -11.920  13.769  64.173  1.00  0.00    -0.441 NA 
HETATM   38  C   UNL     1     -12.948  13.722  65.220  1.00  0.00    -0.278 C  
HETATM   39  C   UNL     1     -11.593  12.404  63.752  1.00  0.00    -0.473 C  
ENDBRANCH  36  37
ENDBRANCH  35  36
ENDBRANCH  33  35
ENDBRANCH   5  33
ENDBRANCH   2   3
TORSDOF 10
ENDMDL
MODEL      184
REMARK 921   NORMALIZED FREE ENERGY PREDICTED BY IDOCK:   -4.69 KCAL/MOL
REMARK 922        TOTAL FREE ENERGY PREDICTED BY IDOCK:   -9.15 KCAL/MOL
REMARK 923 INTER-LIGAND FREE ENERGY PREDICTED BY IDOCK:   -7.39 KCAL/MOL
REMARK 924 INTRA-LIGAND FREE ENERGY PREDICTED BY IDOCK:   -1.76 KCAL/MOL
REMARK 927      BINDING AFFINITY PREDICTED BY RF-SCORE:    0.00 PKD
ROOT
HETATM    1  C   UNL     1      -7.250   8.158  62.923  1.00  0.00    -0.097 C  
HETATM    2  O   UNL     1      -8.473   8.589  63.510  1.00  0.00    -0.140 OA 
ENDROOT
BRANCH   2   3
HETATM    3  C   UNL     1      -8.540   8.604  64.882  1.00  0.00    -0.135 A  
HETATM    4  C   UNL     1      -8.747   7.510  65.725  1.00  0.00    -0.118 A  
HETATM    5  C   UNL     1      -8.448  10.147  66.835  1.00  0.00    -0.126 A  
HETATM    6  C   UNL     1      -8.632   7.728  67.103  1.00  0.00    -0.128 A  
HETATM    7  C   UNL     1      -8.553   9.010  67.658  1.00  0.00    -0.120 A  
HETATM    8  C   UNL     1      -8.368   9.886  65.446  1.00  0.00    -0.150 A  
BRANCH   4   9
HETATM    9  N   UNL     1      -9.074   6.226  65.253  1.00  0.00    -0.362 NA 
HETATM   10  H   UNL     1      -9.199   6.123  64.247  1.00  0.00     0.000 HD 
BRANCH   9  11
HETATM   11  C   UNL     1      -9.243   5.077  66.032  1.00  0.00    -0.153 A  
HETATM   12  N   UNL     1      -8.983   3.910  65.433  1.00  0.00    -0.126 NA 
HETATM   13  N   UNL     1      -9.607   5.186  67.323  1.00  0.00    -0.134 NA 
HETATM   14  C   UNL     1      -9.596   4.087  68.092  1.00  0.00    -0.128 A  
HETATM   15  C   UNL     1      -9.297   2.850  67.564  1.00  0.00    -0.218 A  
HETATM   16  C   UNL     1      -9.019   2.820  66.215  1.00  0.00    -0.143 A  
BRANCH  14  17
HETATM   17  C   UNL     1      -9.900   4.289  69.514  1.00  0.00    -0.224 A  
HETATM   18  C   UNL     1     -11.302   5.860  72.494  1.00  0.00    -0.352 A  
HETATM   19  C   UNL     1      -9.501   3.409  70.510  1.00  0.00    -0.177 A  
HETATM   20  C   UNL     1     -11.905   7.038  72.047  1.00  0.00    -0.336 A  
HETATM   21  C   UNL     1     -11.851   7.397  70.706  1.00  0.00    -0.288 A  
HETATM   22  N   UNL     1      -9.945   3.877  71.717  1.00  0.00    -0.182 NA 
HETATM   23  C   UNL     1     -10.644   5.047  71.554  1.00  0.00    -0.105 A  
HETATM   24  C   UNL     1      -9.699   3.236  72.991  1.00  0.00    -0.116 C  
HETATM   25  C   UNL     1     -10.600   5.364  70.187  1.00  0.00    -0.344 A  
HETATM   26  C   UNL     1     -11.214   6.567  69.772  1.00  0.00    -0.456 A  
ENDBRANCH  14  17
ENDBRANCH   9  11
ENDBRANCH   4   9
BRANCH   7  27
HETATM   27  N   UNL     1      -8.791   9.131  69.043  1.00  0.00    -0.137 N  
HETATM   28  O   UNL     1      -6.700   8.497  69.831  1.00  0.00    -0.041 OA 
HETATM   29  H   UNL     1      -9.698   9.487  69.343  1.00  0.00     0.000 HD 
HETATM   30  C   UNL     1      -7.874   8.800  70.015  1.00  0.00    -0.094 C  
BRANCH  30  31
HETATM   31  C   UNL     1      -8.436   8.934  71.385  1.00  0.00    -0.216 C  
HETATM   32  C   UNL     1      -8.242   7.964  72.287  1.00  0.00    -0.167 C  
ENDBRANCH  30  31
ENDBRANCH   7  27
BRANCH   5  33
HETATM   33  N   UNL     1      -8.428  11.452  67.327  1.00  0.00    -0.143 NA 
HETATM   34  C   UNL     1      -7.195  12.214  67.497  1.00  0.00    -0.133 C  
BRANCH  33  35
HETATM   35  C   UNL     1      -9.681  12.193  67.557  1.00  0.00    -0.185 C  
BRANCH  35  36
HETATM   36  C   UNL     1      -9.996  13.137  66.373  1.00  0.00    -0.282 C  
BRANCH  36  37
HETATM   37  N   UNL     1     -11.375  13.670  66.335  1.00  0.00    -0.309 NA 
HETATM   38  C   UNL     1     -11.918  13.664  67.699  1.00  0.00    -0.351 C  
HETATM   39  C   UNL     1     -12.240  12.869  65.464  1.00  0.00    -0.474 C  
ENDBRANCH  36  37
ENDBRANCH  35  36
ENDBRANCH  33  35
ENDBRANCH   5  33
ENDBRANCH   2   3
TORSDOF 10
ENDMDL
MODEL      185
REMARK 921   NORMALIZED FREE ENERGY PREDICTED BY IDOCK:   -4.68 KCAL/MOL
REMARK 922        TOTAL FREE ENERGY PREDICTED BY IDOCK:   -9.14 KCAL/MOL
REMARK 923 INTER-LIGAND FREE ENERGY PREDICTED BY IDOCK:   -7.75 KCAL/MOL
REMARK 924 INTRA-LIGAND FREE ENERGY PREDICTED BY IDOCK:   -1.38 KCAL/MOL
REMARK 927      BINDING AFFINITY PREDICTED BY RF-SCORE:    0.00 PKD
ROOT
HETATM    1  C   UNL     1     -12.629  11.025  70.172  1.00  0.00    -0.211 C  
HETATM    2  O   UNL     1     -12.375  11.162  68.778  1.00  0.00    -0.539 OA 
ENDROOT
BRANCH   2   3
HETATM    3  C   UNL     1     -11.217  11.804  68.411  1.00  0.00    -0.251 A  
HETATM    4  C   UNL     1      -9.909  11.409  68.700  1.00  0.00    -0.193 A  
HETATM    5  C   UNL     1     -10.390  13.826  67.216  1.00  0.00    -0.253 A  
HETATM    6  C   UNL     1      -8.871  12.133  68.101  1.00  0.00    -0.187 A  
HETATM    7  C   UNL     1      -9.086  13.344  67.434  1.00  0.00    -0.216 A  
HETATM    8  C   UNL     1     -11.433  12.978  67.658  1.00  0.00    -0.369 A  
BRANCH   4   9
HETATM    9  N   UNL     1      -9.600  10.343  69.563  1.00  0.00    -0.363 NA 
HETATM   10  H   UNL     1     -10.038  10.353  70.484  1.00  0.00     0.000 HD 
BRANCH   9  11
HETATM   11  C   UNL     1      -8.750   9.270  69.279  1.00  0.00    -0.141 A  
HETATM   12  N   UNL     1      -8.078   8.755  70.314  1.00  0.00    -0.105 NA 
HETATM   13  N   UNL     1      -8.674   8.784  68.027  1.00  0.00    -0.140 NA 
HETATM   14  C   UNL     1      -7.986   7.651  67.815  1.00  0.00    -0.121 A  
HETATM   15  C   UNL     1      -7.299   7.031  68.837  1.00  0.00    -0.093 A  
HETATM   16  C   UNL     1      -7.364   7.646  70.067  1.00  0.00    -0.080 A  
BRANCH  14  17
HETATM   17  C   UNL     1      -8.028   7.115  66.448  1.00  0.00    -0.112 A  
HETATM   18  C   UNL     1      -7.920   7.108  62.801  1.00  0.00    -0.107 A  
HETATM   19  C   UNL     1      -8.169   5.764  66.166  1.00  0.00    -0.111 A  
HETATM   20  C   UNL     1      -7.810   8.450  62.428  1.00  0.00    -0.142 A  
HETATM   21  C   UNL     1      -7.796   9.454  63.388  1.00  0.00    -0.132 A  
HETATM   22  N   UNL     1      -8.165   5.594  64.808  1.00  0.00    -0.131 NA 
HETATM   23  C   UNL     1      -8.012   6.800  64.171  1.00  0.00    -0.085 A  
HETATM   24  C   UNL     1      -8.316   4.322  64.135  1.00  0.00    -0.102 C  
HETATM   25  C   UNL     1      -7.967   7.788  65.167  1.00  0.00    -0.129 A  
HETATM   26  C   UNL     1      -7.863   9.135  64.753  1.00  0.00    -0.119 A  
ENDBRANCH  14  17
ENDBRANCH   9  11
ENDBRANCH   4   9
BRANCH   7  27
HETATM   27  N   UNL     1      -7.958  14.152  67.180  1.00  0.00    -0.348 N  
HETATM   28  O   UNL     1      -7.810  15.231  69.230  1.00  0.00    -0.189 OA 
HETATM   29  H   UNL     1      -7.484  14.043  66.283  1.00  0.00     0.000 HD 
HETATM   30  C   UNL     1      -7.455  15.076  68.067  1.00  0.00    -0.123 C  
BRANCH  30  31
HETATM   31  C   UNL     1      -6.325  15.850  67.490  1.00  0.00    -0.198 C  
HETATM   32  C   UNL     1      -5.767  16.845  68.191  1.00  0.00    -0.120 C  
ENDBRANCH  30  31
ENDBRANCH   7  27
BRANCH   5  33
HETATM   33  N   UNL     1     -10.665  15.054  66.613  1.00  0.00    -0.306 NA 
HETATM   34  C   UNL     1     -10.869  15.201  65.176  1.00  0.00    -0.422 C  
BRANCH  33  35
HETATM   35  C   UNL     1     -10.917  16.257  67.427  1.00  0.00    -0.175 C  
BRANCH  35  36
HETATM   36  C   UNL     1     -10.030  17.437  66.966  1.00  0.00    -0.295 C  
BRANCH  36  37
HETATM   37  N   UNL     1     -10.000  18.602  67.877  1.00  0.00    -0.333 NA 
HETATM   38  C   UNL     1     -10.500  19.777  67.152  1.00  0.00    -0.463 C  
HETATM   39  C   UNL     1      -8.645  18.872  68.364  1.00  0.00    -0.346 C  
ENDBRANCH  36  37
ENDBRANCH  35  36
ENDBRANCH  33  35
ENDBRANCH   5  33
ENDBRANCH   2   3
TORSDOF 10
ENDMDL
MODEL      186
REMARK 921   NORMALIZED FREE ENERGY PREDICTED BY IDOCK:   -4.68 KCAL/MOL
REMARK 922        TOTAL FREE ENERGY PREDICTED BY IDOCK:   -9.13 KCAL/MOL
REMARK 923 INTER-LIGAND FREE ENERGY PREDICTED BY IDOCK:   -8.12 KCAL/MOL
REMARK 924 INTRA-LIGAND FREE ENERGY PREDICTED BY IDOCK:   -1.01 KCAL/MOL
REMARK 927      BINDING AFFINITY PREDICTED BY RF-SCORE:    0.00 PKD
ROOT
HETATM    1  C   UNL     1      -7.547  10.239  64.970  1.00  0.00    -0.124 C  
HETATM    2  O   UNL     1      -8.710   9.889  65.713  1.00  0.00    -0.133 OA 
ENDROOT
BRANCH   2   3
HETATM    3  C   UNL     1      -9.260  10.861  66.512  1.00  0.00    -0.171 A  
HETATM    4  C   UNL     1      -9.267  10.897  67.908  1.00  0.00    -0.152 A  
HETATM    5  C   UNL     1     -10.536  12.997  66.407  1.00  0.00    -0.284 A  
HETATM    6  C   UNL     1      -9.755  12.059  68.520  1.00  0.00    -0.165 A  
HETATM    7  C   UNL     1     -10.432  13.055  67.809  1.00  0.00    -0.228 A  
HETATM    8  C   UNL     1      -9.864  11.914  65.792  1.00  0.00    -0.262 A  
BRANCH   4   9
HETATM    9  N   UNL     1      -8.824   9.828  68.708  1.00  0.00    -0.125 NA 
HETATM   10  H   UNL     1      -7.850   9.545  68.600  1.00  0.00     0.000 HD 
BRANCH   9  11
HETATM   11  C   UNL     1      -9.591   9.117  69.635  1.00  0.00    -0.176 A  
HETATM   12  N   UNL     1     -10.781   9.641  69.947  1.00  0.00    -0.235 NA 
HETATM   13  N   UNL     1      -9.139   7.951  70.131  1.00  0.00    -0.152 NA 
HETATM   14  C   UNL     1      -9.963   7.206  70.883  1.00  0.00    -0.189 A  
HETATM   15  C   UNL     1     -11.224   7.652  71.216  1.00  0.00    -0.277 A  
HETATM   16  C   UNL     1     -11.571   8.895  70.734  1.00  0.00    -0.259 A  
BRANCH  14  17
HETATM   17  C   UNL     1      -9.449   5.897  71.305  1.00  0.00    -0.181 A  
HETATM   18  C   UNL     1      -7.116   3.452  72.681  1.00  0.00    -0.044 A  
HETATM   19  C   UNL     1     -10.192   4.728  71.231  1.00  0.00    -0.158 A  
HETATM   20  C   UNL     1      -5.946   4.164  72.955  1.00  0.00    -0.015 A  
HETATM   21  C   UNL     1      -5.857   5.519  72.662  1.00  0.00    -0.027 A  
HETATM   22  N   UNL     1      -9.433   3.692  71.704  1.00  0.00    -0.134 NA 
HETATM   23  C   UNL     1      -8.200   4.140  72.107  1.00  0.00    -0.101 A  
HETATM   24  C   UNL     1      -9.864   2.312  71.759  1.00  0.00    -0.152 C  
HETATM   25  C   UNL     1      -8.154   5.516  71.830  1.00  0.00    -0.115 A  
HETATM   26  C   UNL     1      -6.951   6.203  72.113  1.00  0.00    -0.078 A  
ENDBRANCH  14  17
ENDBRANCH   9  11
ENDBRANCH   4   9
BRANCH   7  27
HETATM   27  N   UNL     1     -11.175  13.992  68.558  1.00  0.00    -0.251 N  
HETATM   28  O   UNL     1      -9.425  15.293  69.357  1.00  0.00    -0.235 OA 
HETATM   29  H   UNL     1     -12.192  13.928  68.530  1.00  0.00     0.000 HD 
HETATM   30  C   UNL     1     -10.612  14.988  69.325  1.00  0.00    -0.247 C  
BRANCH  30  31
HETATM   31  C   UNL     1     -11.633  15.758  70.081  1.00  0.00    -0.364 C  
HETATM   32  C   UNL     1     -12.689  15.129  70.612  1.00  0.00    -0.451 C  
ENDBRANCH  30  31
ENDBRANCH   7  27
BRANCH   5  33
HETATM   33  N   UNL     1     -11.250  13.927  65.651  1.00  0.00    -0.303 NA 
HETATM   34  C   UNL     1     -12.709  13.963  65.614  1.00  0.00    -0.495 C  
BRANCH  33  35
HETATM   35  C   UNL     1     -10.560  15.032  64.962  1.00  0.00    -0.412 C  
BRANCH  35  36
HETATM   36  C   UNL     1     -10.450  16.275  65.876  1.00  0.00    -0.345 C  
BRANCH  36  37
HETATM   37  N   UNL     1      -9.125  16.932  65.898  1.00  0.00    -0.530 NA 
HETATM   38  C   UNL     1      -8.148  15.998  66.471  1.00  0.00    -0.269 C  
HETATM   39  C   UNL     1      -9.145  18.162  66.694  1.00  0.00    -0.282 C  
ENDBRANCH  36  37
ENDBRANCH  35  36
ENDBRANCH  33  35
ENDBRANCH   5  33
ENDBRANCH   2   3
TORSDOF 10
ENDMDL
MODEL      187
REMARK 921   NORMALIZED FREE ENERGY PREDICTED BY IDOCK:   -4.68 KCAL/MOL
REMARK 922        TOTAL FREE ENERGY PREDICTED BY IDOCK:   -9.12 KCAL/MOL
REMARK 923 INTER-LIGAND FREE ENERGY PREDICTED BY IDOCK:   -8.22 KCAL/MOL
REMARK 924 INTRA-LIGAND FREE ENERGY PREDICTED BY IDOCK:   -0.91 KCAL/MOL
REMARK 927      BINDING AFFINITY PREDICTED BY RF-SCORE:    0.00 PKD
ROOT
HETATM    1  C   UNL     1     -13.106  10.799  71.483  1.00  0.00    -0.414 C  
HETATM    2  O   UNL     1     -11.945  11.450  70.977  1.00  0.00    -0.271 OA 
ENDROOT
BRANCH   2   3
HETATM    3  C   UNL     1     -11.724  11.377  69.623  1.00  0.00    -0.345 A  
HETATM    4  C   UNL     1     -11.393  10.238  68.886  1.00  0.00    -0.173 A  
HETATM    5  C   UNL     1     -11.637  12.784  67.570  1.00  0.00    -0.356 A  
HETATM    6  C   UNL     1     -11.358  10.361  67.491  1.00  0.00    -0.112 A  
HETATM    7  C   UNL     1     -11.409  11.600  66.844  1.00  0.00    -0.295 A  
HETATM    8  C   UNL     1     -11.866  12.613  68.956  1.00  0.00    -0.341 A  
BRANCH   4   9
HETATM    9  N   UNL     1     -11.088   9.000  69.479  1.00  0.00    -0.428 NA 
HETATM   10  H   UNL     1     -11.834   8.306  69.510  1.00  0.00     0.000 HD 
BRANCH   9  11
HETATM   11  C   UNL     1      -9.857   8.629  70.030  1.00  0.00    -0.179 A  
HETATM   12  N   UNL     1      -8.906   9.570  70.046  1.00  0.00    -0.205 NA 
HETATM   13  N   UNL     1      -9.693   7.397  70.545  1.00  0.00    -0.176 NA 
HETATM   14  C   UNL     1      -8.566   7.124  71.219  1.00  0.00    -0.124 A  
HETATM   15  C   UNL     1      -7.552   8.052  71.321  1.00  0.00    -0.081 A  
HETATM   16  C   UNL     1      -7.772   9.257  70.691  1.00  0.00    -0.151 A  
BRANCH  14  17
HETATM   17  C   UNL     1      -8.492   5.798  71.847  1.00  0.00    -0.127 A  
HETATM   18  C   UNL     1      -9.655   2.733  73.448  1.00  0.00    -0.130 A  
HETATM   19  C   UNL     1      -7.308   5.090  71.990  1.00  0.00    -0.089 A  
HETATM   20  C   UNL     1     -11.028   2.909  73.637  1.00  0.00    -0.318 A  
HETATM   21  C   UNL     1     -11.650   4.093  73.262  1.00  0.00    -0.137 A  
HETATM   22  N   UNL     1      -7.579   3.897  72.604  1.00  0.00    -0.070 NA 
HETATM   23  C   UNL     1      -8.921   3.783  72.867  1.00  0.00    -0.097 A  
HETATM   24  C   UNL     1      -6.587   2.900  72.944  1.00  0.00    -0.022 C  
HETATM   25  C   UNL     1      -9.524   4.978  72.446  1.00  0.00    -0.166 A  
HETATM   26  C   UNL     1     -10.914   5.123  72.660  1.00  0.00    -0.303 A  
ENDBRANCH  14  17
ENDBRANCH   9  11
ENDBRANCH   4   9
BRANCH   7  27
HETATM   27  N   UNL     1     -11.019  11.639  65.489  1.00  0.00    -0.291 N  
HETATM   28  O   UNL     1      -8.736  11.306  65.754  1.00  0.00    -0.181 OA 
HETATM   29  H   UNL     1     -11.750  11.730  64.784  1.00  0.00     0.000 HD 
HETATM   30  C   UNL     1      -9.714  11.560  65.059  1.00  0.00    -0.238 C  
BRANCH  30  31
HETATM   31  C   UNL     1      -9.597  11.729  63.587  1.00  0.00    -0.210 C  
HETATM   32  C   UNL     1      -9.604  10.656  62.786  1.00  0.00    -0.333 C  
ENDBRANCH  30  31
ENDBRANCH   7  27
BRANCH   5  33
HETATM   33  N   UNL     1     -11.636  14.053  66.990  1.00  0.00    -0.350 NA 
HETATM   34  C   UNL     1     -12.419  14.379  65.802  1.00  0.00    -0.319 C  
BRANCH  33  35
HETATM   35  C   UNL     1     -10.957  15.185  67.646  1.00  0.00    -0.308 C  
BRANCH  35  36
HETATM   36  C   UNL     1      -9.434  14.935  67.749  1.00  0.00    -0.203 C  
BRANCH  36  37
HETATM   37  N   UNL     1      -8.614  16.128  68.050  1.00  0.00    -0.169 NA 
HETATM   38  C   UNL     1      -7.680  15.795  69.132  1.00  0.00    -0.220 C  
HETATM   39  C   UNL     1      -9.445  17.265  68.459  1.00  0.00    -0.285 C  
ENDBRANCH  36  37
ENDBRANCH  35  36
ENDBRANCH  33  35
ENDBRANCH   5  33
ENDBRANCH   2   3
TORSDOF 10
ENDMDL
MODEL      188
REMARK 921   NORMALIZED FREE ENERGY PREDICTED BY IDOCK:   -4.67 KCAL/MOL
REMARK 922        TOTAL FREE ENERGY PREDICTED BY IDOCK:   -9.12 KCAL/MOL
REMARK 923 INTER-LIGAND FREE ENERGY PREDICTED BY IDOCK:   -7.51 KCAL/MOL
REMARK 924 INTRA-LIGAND FREE ENERGY PREDICTED BY IDOCK:   -1.60 KCAL/MOL
REMARK 927      BINDING AFFINITY PREDICTED BY RF-SCORE:    0.00 PKD
ROOT
HETATM    1  C   UNL     1     -10.693   5.355  66.090  1.00  0.00    -0.095 C  
HETATM    2  O   UNL     1     -11.049   6.369  67.024  1.00  0.00    -0.384 OA 
ENDROOT
BRANCH   2   3
HETATM    3  C   UNL     1     -10.750   6.138  68.345  1.00  0.00    -0.293 A  
HETATM    4  C   UNL     1     -10.904   7.030  69.409  1.00  0.00    -0.227 A  
HETATM    5  C   UNL     1      -9.821   4.405  69.873  1.00  0.00    -0.220 A  
HETATM    6  C   UNL     1     -10.674   6.537  70.700  1.00  0.00    -0.297 A  
HETATM    7  C   UNL     1     -10.087   5.288  70.935  1.00  0.00    -0.226 A  
HETATM    8  C   UNL     1     -10.243   4.845  68.596  1.00  0.00    -0.112 A  
BRANCH   4   9
HETATM    9  N   UNL     1     -11.259   8.379  69.238  1.00  0.00    -0.410 NA 
HETATM   10  H   UNL     1     -12.254   8.600  69.257  1.00  0.00     0.000 HD 
BRANCH   9  11
HETATM   11  C   UNL     1     -10.379   9.447  69.042  1.00  0.00    -0.210 A  
HETATM   12  N   UNL     1      -9.136   9.285  69.509  1.00  0.00    -0.152 NA 
HETATM   13  N   UNL     1     -10.786  10.544  68.378  1.00  0.00    -0.222 NA 
HETATM   14  C   UNL     1      -9.879  11.478  68.055  1.00  0.00    -0.188 A  
HETATM   15  C   UNL     1      -8.566  11.367  68.459  1.00  0.00    -0.150 A  
HETATM   16  C   UNL     1      -8.256  10.252  69.207  1.00  0.00    -0.162 A  
BRANCH  14  17
HETATM   17  C   UNL     1     -10.365  12.598  67.239  1.00  0.00    -0.230 A  
HETATM   18  C   UNL     1     -11.886  14.323  64.407  1.00  0.00    -0.444 A  
HETATM   19  C   UNL     1     -10.323  13.919  67.661  1.00  0.00    -0.242 A  
HETATM   20  C   UNL     1     -12.154  13.328  63.464  1.00  0.00    -0.550 A  
HETATM   21  C   UNL     1     -11.808  12.006  63.711  1.00  0.00    -0.581 A  
HETATM   22  N   UNL     1     -10.854  14.712  66.679  1.00  0.00    -0.306 NA 
HETATM   23  C   UNL     1     -11.262  13.952  65.612  1.00  0.00    -0.306 A  
HETATM   24  C   UNL     1     -10.957  16.153  66.749  1.00  0.00    -0.080 C  
HETATM   25  C   UNL     1     -10.931  12.620  65.906  1.00  0.00    -0.310 A  
HETATM   26  C   UNL     1     -11.209  11.641  64.925  1.00  0.00    -0.287 A  
ENDBRANCH  14  17
ENDBRANCH   9  11
ENDBRANCH   4   9
BRANCH   7  27
HETATM   27  N   UNL     1      -9.587   5.043  72.231  1.00  0.00    -0.145 N  
HETATM   28  O   UNL     1      -7.528   6.099  72.037  1.00  0.00    -0.092 OA 
HETATM   29  H   UNL     1     -10.197   4.569  72.897  1.00  0.00     0.000 HD 
HETATM   30  C   UNL     1      -8.328   5.404  72.654  1.00  0.00    -0.114 C  
BRANCH  30  31
HETATM   31  C   UNL     1      -8.041   4.927  74.032  1.00  0.00    -0.101 C  
HETATM   32  C   UNL     1      -7.637   3.667  74.235  1.00  0.00    -0.062 C  
ENDBRANCH  30  31
ENDBRANCH   7  27
BRANCH   5  33
HETATM   33  N   UNL     1      -9.181   3.175  70.038  1.00  0.00    -0.136 NA 
HETATM   34  C   UNL     1      -9.780   2.066  70.772  1.00  0.00    -0.038 C  
BRANCH  33  35
HETATM   35  C   UNL     1      -7.919   2.880  69.338  1.00  0.00    -0.045 C  
BRANCH  35  36
HETATM   36  C   UNL     1      -6.709   3.474  70.097  1.00  0.00    -0.033 C  
BRANCH  36  37
HETATM   37  N   UNL     1      -5.759   4.249  69.271  1.00  0.00    -0.016 NA 
HETATM   38  C   UNL     1      -6.466   5.400  68.697  1.00  0.00    -0.039 C  
HETATM   39  C   UNL     1      -5.196   3.435  68.189  1.00  0.00    -0.012 C  
ENDBRANCH  36  37
ENDBRANCH  35  36
ENDBRANCH  33  35
ENDBRANCH   5  33
ENDBRANCH   2   3
TORSDOF 10
ENDMDL
MODEL      189
REMARK 921   NORMALIZED FREE ENERGY PREDICTED BY IDOCK:   -4.67 KCAL/MOL
REMARK 922        TOTAL FREE ENERGY PREDICTED BY IDOCK:   -9.11 KCAL/MOL
REMARK 923 INTER-LIGAND FREE ENERGY PREDICTED BY IDOCK:   -8.39 KCAL/MOL
REMARK 924 INTRA-LIGAND FREE ENERGY PREDICTED BY IDOCK:   -0.72 KCAL/MOL
REMARK 927      BINDING AFFINITY PREDICTED BY RF-SCORE:    0.00 PKD
ROOT
HETATM    1  C   UNL     1      -6.429  19.166  65.551  1.00  0.00    -0.268 C  
HETATM    2  O   UNL     1      -7.327  18.100  65.261  1.00  0.00    -0.408 OA 
ENDROOT
BRANCH   2   3
HETATM    3  C   UNL     1      -7.872  17.430  66.329  1.00  0.00    -0.295 A  
HETATM    4  C   UNL     1      -9.114  16.795  66.378  1.00  0.00    -0.289 A  
HETATM    5  C   UNL     1      -7.417  16.818  68.700  1.00  0.00    -0.219 A  
HETATM    6  C   UNL     1      -9.409  16.043  67.522  1.00  0.00    -0.217 A  
HETATM    7  C   UNL     1      -8.626  16.099  68.681  1.00  0.00    -0.210 A  
HETATM    8  C   UNL     1      -7.040  17.408  67.470  1.00  0.00    -0.180 A  
BRANCH   4   9
HETATM    9  N   UNL     1     -10.068  16.889  65.348  1.00  0.00    -0.590 NA 
HETATM   10  H   UNL     1     -10.201  17.807  64.926  1.00  0.00     0.000 HD 
BRANCH   9  11
HETATM   11  C   UNL     1     -10.851  15.843  64.849  1.00  0.00    -0.400 A  
HETATM   12  N   UNL     1     -11.954  16.196  64.179  1.00  0.00    -0.781 NA 
HETATM   13  N   UNL     1     -10.459  14.568  65.018  1.00  0.00    -0.418 NA 
HETATM   14  C   UNL     1     -11.134  13.596  64.385  1.00  0.00    -0.364 A  
HETATM   15  C   UNL     1     -12.257  13.877  63.637  1.00  0.00    -0.232 A  
HETATM   16  C   UNL     1     -12.633  15.201  63.589  1.00  0.00     0.913 A  
BRANCH  14  17
HETATM   17  C   UNL     1     -10.594  12.237  64.524  1.00  0.00    -0.346 A  
HETATM   18  C   UNL     1      -9.865   9.020  66.083  1.00  0.00    -0.349 A  
HETATM   19  C   UNL     1      -9.918  11.580  63.507  1.00  0.00    -0.399 A  
HETATM   20  C   UNL     1     -10.361   9.114  67.385  1.00  0.00    -0.330 A  
HETATM   21  C   UNL     1     -10.950  10.288  67.835  1.00  0.00    -0.350 A  
HETATM   22  N   UNL     1      -9.554  10.337  63.950  1.00  0.00    -0.300 NA 
HETATM   23  C   UNL     1      -9.980  10.140  65.240  1.00  0.00    -0.311 A  
HETATM   24  C   UNL     1      -8.808   9.370  63.174  1.00  0.00    -0.190 C  
HETATM   25  C   UNL     1     -10.601  11.329  65.653  1.00  0.00    -0.303 A  
HETATM   26  C   UNL     1     -11.084  11.392  66.980  1.00  0.00    -0.364 A  
ENDBRANCH  14  17
ENDBRANCH   9  11
ENDBRANCH   4   9
BRANCH   7  27
HETATM   27  N   UNL     1      -9.192  15.590  69.869  1.00  0.00    -0.295 N  
HETATM   28  O   UNL     1     -11.419  16.108  69.465  1.00  0.00    -0.326 OA 
HETATM   29  H   UNL     1      -8.575  15.113  70.526  1.00  0.00     0.000 HD 
HETATM   30  C   UNL     1     -10.525  15.697  70.195  1.00  0.00    -0.303 C  
BRANCH  30  31
HETATM   31  C   UNL     1     -10.814  15.161  71.551  1.00  0.00     0.084 C  
HETATM   32  C   UNL     1     -11.776  15.714  72.300  1.00  0.00    -0.579 C  
ENDBRANCH  30  31
ENDBRANCH   7  27
BRANCH   5  33
HETATM   33  N   UNL     1      -6.626  16.961  69.841  1.00  0.00    -0.033 NA 
HETATM   34  C   UNL     1      -6.383  18.251  70.478  1.00  0.00     0.591 C  
BRANCH  33  35
HETATM   35  C   UNL     1      -6.114  15.780  70.559  1.00  0.00     0.105 C  
BRANCH  35  36
HETATM   36  C   UNL     1      -5.578  14.717  69.572  1.00  0.00    -0.092 C  
BRANCH  36  37
HETATM   37  N   UNL     1      -5.245  13.406  70.169  1.00  0.00    -0.092 NA 
HETATM   38  C   UNL     1      -6.111  12.383  69.570  1.00  0.00    -0.117 C  
HETATM   39  C   UNL     1      -5.434  13.412  71.623  1.00  0.00    -0.133 C  
ENDBRANCH  36  37
ENDBRANCH  35  36
ENDBRANCH  33  35
ENDBRANCH   5  33
ENDBRANCH   2   3
TORSDOF 10
ENDMDL
MODEL      190
REMARK 921   NORMALIZED FREE ENERGY PREDICTED BY IDOCK:   -4.67 KCAL/MOL
REMARK 922        TOTAL FREE ENERGY PREDICTED BY IDOCK:   -9.11 KCAL/MOL
REMARK 923 INTER-LIGAND FREE ENERGY PREDICTED BY IDOCK:   -7.36 KCAL/MOL
REMARK 924 INTRA-LIGAND FREE ENERGY PREDICTED BY IDOCK:   -1.75 KCAL/MOL
REMARK 927      BINDING AFFINITY PREDICTED BY RF-SCORE:    0.00 PKD
ROOT
HETATM    1  C   UNL     1      -8.054   9.697  70.630  1.00  0.00    -0.024 C  
HETATM    2  O   UNL     1      -8.783   8.530  70.998  1.00  0.00    -0.143 OA 
ENDROOT
BRANCH   2   3
HETATM    3  C   UNL     1      -9.144   7.671  69.989  1.00  0.00    -0.151 A  
HETATM    4  C   UNL     1     -10.376   7.613  69.334  1.00  0.00    -0.214 A  
HETATM    5  C   UNL     1      -8.280   5.772  68.628  1.00  0.00    -0.105 A  
HETATM    6  C   UNL     1     -10.479   6.756  68.231  1.00  0.00    -0.243 A  
HETATM    7  C   UNL     1      -9.495   5.811  67.918  1.00  0.00    -0.110 A  
HETATM    8  C   UNL     1      -8.118   6.778  69.611  1.00  0.00    -0.126 A  
BRANCH   4   9
HETATM    9  N   UNL     1     -11.498   8.357  69.739  1.00  0.00    -0.431 NA 
HETATM   10  H   UNL     1     -12.247   7.845  70.205  1.00  0.00     0.000 HD 
BRANCH   9  11
HETATM   11  C   UNL     1     -11.686   9.731  69.563  1.00  0.00     0.163 A  
HETATM   12  N   UNL     1     -11.864  10.453  70.674  1.00  0.00    -0.322 NA 
HETATM   13  N   UNL     1     -11.640  10.265  68.328  1.00  0.00    -0.249 NA 
HETATM   14  C   UNL     1     -11.651  11.600  68.202  1.00  0.00    -0.319 A  
HETATM   15  C   UNL     1     -11.787  12.420  69.301  1.00  0.00    -0.361 A  
HETATM   16  C   UNL     1     -11.912  11.785  70.517  1.00  0.00    -0.289 A  
BRANCH  14  17
HETATM   17  C   UNL     1     -11.492  12.123  66.839  1.00  0.00    -0.414 A  
HETATM   18  C   UNL     1     -10.482  12.206  63.334  1.00  0.00    -0.450 A  
HETATM   19  C   UNL     1     -12.015  13.339  66.425  1.00  0.00    -0.410 A  
HETATM   20  C   UNL     1      -9.742  11.039  63.130  1.00  0.00    -0.398 A  
HETATM   21  C   UNL     1      -9.507  10.157  64.178  1.00  0.00    -0.353 A  
HETATM   22  N   UNL     1     -11.700  13.530  65.107  1.00  0.00    -0.311 NA 
HETATM   23  C   UNL     1     -10.986  12.463  64.621  1.00  0.00    -0.305 A  
HETATM   24  C   UNL     1     -12.055  14.701  64.335  1.00  0.00    -0.462 C  
HETATM   25  C   UNL     1     -10.796  11.576  65.693  1.00  0.00    -0.310 A  
HETATM   26  C   UNL     1     -10.035  10.409  65.452  1.00  0.00    -0.362 A  
ENDBRANCH  14  17
ENDBRANCH   9  11
ENDBRANCH   4   9
BRANCH   7  27
HETATM   27  N   UNL     1      -9.849   4.783  67.020  1.00  0.00    -0.185 N  
HETATM   28  O   UNL     1      -9.264   5.820  65.026  1.00  0.00     0.096 OA 
HETATM   29  H   UNL     1     -10.182   3.901  67.410  1.00  0.00     0.000 HD 
HETATM   30  C   UNL     1      -9.771   4.895  65.650  1.00  0.00    -0.145 C  
BRANCH  30  31
HETATM   31  C   UNL     1     -10.305   3.692  64.958  1.00  0.00     0.043 C  
HETATM   32  C   UNL     1      -9.680   3.206  63.879  1.00  0.00    -0.145 C  
ENDBRANCH  30  31
ENDBRANCH   7  27
BRANCH   5  33
HETATM   33  N   UNL     1      -7.289   4.816  68.403  1.00  0.00    -0.065 NA 
HETATM   34  C   UNL     1      -7.430   3.421  68.810  1.00  0.00    -0.049 C  
BRANCH  33  35
HETATM   35  C   UNL     1      -6.099   5.136  67.595  1.00  0.00    -0.030 C  
BRANCH  35  36
HETATM   36  C   UNL     1      -6.460   6.077  66.422  1.00  0.00    -0.046 C  
BRANCH  36  37
HETATM   37  N   UNL     1      -5.915   7.449  66.519  1.00  0.00    -0.035 NA 
HETATM   38  C   UNL     1      -5.224   7.590  67.806  1.00  0.00    -0.029 C  
HETATM   39  C   UNL     1      -6.974   8.458  66.422  1.00  0.00    -0.074 C  
ENDBRANCH  36  37
ENDBRANCH  35  36
ENDBRANCH  33  35
ENDBRANCH   5  33
ENDBRANCH   2   3
TORSDOF 10
ENDMDL
MODEL      191
REMARK 921   NORMALIZED FREE ENERGY PREDICTED BY IDOCK:   -4.66 KCAL/MOL
REMARK 922        TOTAL FREE ENERGY PREDICTED BY IDOCK:   -9.09 KCAL/MOL
REMARK 923 INTER-LIGAND FREE ENERGY PREDICTED BY IDOCK:   -7.49 KCAL/MOL
REMARK 924 INTRA-LIGAND FREE ENERGY PREDICTED BY IDOCK:   -1.60 KCAL/MOL
REMARK 927      BINDING AFFINITY PREDICTED BY RF-SCORE:    0.00 PKD
ROOT
HETATM    1  C   UNL     1      -8.382   9.194  62.779  1.00  0.00    -0.197 C  
HETATM    2  O   UNL     1      -7.796   8.902  64.044  1.00  0.00    -0.122 OA 
ENDROOT
BRANCH   2   3
HETATM    3  C   UNL     1      -8.647   8.550  65.063  1.00  0.00    -0.135 A  
HETATM    4  C   UNL     1      -9.478   9.400  65.796  1.00  0.00    -0.259 A  
HETATM    5  C   UNL     1      -9.404   6.588  66.397  1.00  0.00    -0.143 A  
HETATM    6  C   UNL     1     -10.375   8.807  66.693  1.00  0.00    -0.298 A  
HETATM    7  C   UNL     1     -10.306   7.454  67.043  1.00  0.00    -0.314 A  
HETATM    8  C   UNL     1      -8.644   7.169  65.354  1.00  0.00    -0.046 A  
BRANCH   4   9
HETATM    9  N   UNL     1      -9.441  10.801  65.680  1.00  0.00    -0.197 NA 
HETATM   10  H   UNL     1     -10.022  11.219  64.954  1.00  0.00     0.000 HD 
BRANCH   9  11
HETATM   11  C   UNL     1      -8.683  11.675  66.464  1.00  0.00    -0.182 A  
HETATM   12  N   UNL     1      -7.370  11.426  66.531  1.00  0.00    -0.106 NA 
HETATM   13  N   UNL     1      -9.272  12.724  67.067  1.00  0.00    -0.215 NA 
HETATM   14  C   UNL     1      -8.500  13.640  67.669  1.00  0.00    -0.183 A  
HETATM   15  C   UNL     1      -7.133  13.483  67.746  1.00  0.00    -0.163 A  
HETATM   16  C   UNL     1      -6.625  12.337  67.175  1.00  0.00    -0.109 A  
BRANCH  14  17
HETATM   17  C   UNL     1      -9.194  14.814  68.216  1.00  0.00    -0.187 A  
HETATM   18  C   UNL     1     -10.137  18.315  68.617  1.00  0.00    -0.407 A  
HETATM   19  C   UNL     1     -10.165  14.731  69.203  1.00  0.00    -0.220 A  
HETATM   20  C   UNL     1      -9.309  19.027  67.746  1.00  0.00    -0.347 A  
HETATM   21  C   UNL     1      -8.351  18.372  66.984  1.00  0.00    -0.257 A  
HETATM   22  N   UNL     1     -10.616  15.992  69.485  1.00  0.00    -0.266 NA 
HETATM   23  C   UNL     1      -9.978  16.920  68.700  1.00  0.00    -0.279 A  
HETATM   24  C   UNL     1     -11.615  16.307  70.483  1.00  0.00    -0.202 C  
HETATM   25  C   UNL     1      -9.043  16.223  67.919  1.00  0.00    -0.196 A  
HETATM   26  C   UNL     1      -8.218  16.977  67.054  1.00  0.00    -0.232 A  
ENDBRANCH  14  17
ENDBRANCH   9  11
ENDBRANCH   4   9
BRANCH   7  27
HETATM   27  N   UNL     1     -11.013   7.046  68.193  1.00  0.00    -0.470 N  
HETATM   28  O   UNL     1      -9.484   7.700  69.814  1.00  0.00    -0.157 OA 
HETATM   29  H   UNL     1     -11.948   6.660  68.068  1.00  0.00     0.000 HD 
HETATM   30  C   UNL     1     -10.519   7.137  69.475  1.00  0.00    -0.225 C  
BRANCH  30  31
HETATM   31  C   UNL     1     -11.441   6.538  70.475  1.00  0.00    -0.448 C  
HETATM   32  C   UNL     1     -11.072   6.449  71.759  1.00  0.00    -0.311 C  
ENDBRANCH  30  31
ENDBRANCH   7  27
BRANCH   5  33
HETATM   33  N   UNL     1      -9.246   5.245  66.744  1.00  0.00    -0.123 NA 
HETATM   34  C   UNL     1      -9.998   4.170  66.105  1.00  0.00    -0.173 C  
BRANCH  33  35
HETATM   35  C   UNL     1      -8.187   4.826  67.678  1.00  0.00    -0.104 C  
BRANCH  35  36
HETATM   36  C   UNL     1      -7.166   3.896  66.981  1.00  0.00    -0.064 C  
BRANCH  36  37
HETATM   37  N   UNL     1      -7.009   2.557  67.587  1.00  0.00    -0.047 NA 
HETATM   38  C   UNL     1      -7.183   1.543  66.539  1.00  0.00    -0.051 C  
HETATM   39  C   UNL     1      -7.991   2.328  68.652  1.00  0.00    -0.052 C  
ENDBRANCH  36  37
ENDBRANCH  35  36
ENDBRANCH  33  35
ENDBRANCH   5  33
ENDBRANCH   2   3
TORSDOF 10
ENDMDL
MODEL      192
REMARK 921   NORMALIZED FREE ENERGY PREDICTED BY IDOCK:   -4.65 KCAL/MOL
REMARK 922        TOTAL FREE ENERGY PREDICTED BY IDOCK:   -9.09 KCAL/MOL
REMARK 923 INTER-LIGAND FREE ENERGY PREDICTED BY IDOCK:   -7.74 KCAL/MOL
REMARK 924 INTRA-LIGAND FREE ENERGY PREDICTED BY IDOCK:   -1.34 KCAL/MOL
REMARK 927      BINDING AFFINITY PREDICTED BY RF-SCORE:    0.00 PKD
ROOT
HETATM    1  C   UNL     1      -7.006   8.936  72.051  1.00  0.00     0.053 C  
HETATM    2  O   UNL     1      -8.160   8.933  71.218  1.00  0.00    -0.149 OA 
ENDROOT
BRANCH   2   3
HETATM    3  C   UNL     1      -8.367   7.823  70.435  1.00  0.00    -0.123 A  
HETATM    4  C   UNL     1      -9.462   6.959  70.475  1.00  0.00    -0.169 A  
HETATM    5  C   UNL     1      -7.308   6.469  68.633  1.00  0.00    -0.087 A  
HETATM    6  C   UNL     1      -9.540   5.972  69.485  1.00  0.00    -0.171 A  
HETATM    7  C   UNL     1      -8.473   5.681  68.627  1.00  0.00    -0.105 A  
HETATM    8  C   UNL     1      -7.331   7.583  69.506  1.00  0.00    -0.084 A  
BRANCH   4   9
HETATM    9  N   UNL     1     -10.464   7.031  71.459  1.00  0.00    -0.204 NA 
HETATM   10  H   UNL     1     -10.296   6.523  72.327  1.00  0.00     0.000 HD 
BRANCH   9  11
HETATM   11  C   UNL     1     -11.670   7.733  71.361  1.00  0.00    -0.282 A  
HETATM   12  N   UNL     1     -12.788   7.014  71.508  1.00  0.00    -0.385 NA 
HETATM   13  N   UNL     1     -11.661   9.065  71.172  1.00  0.00    -0.288 NA 
HETATM   14  C   UNL     1     -12.820   9.736  71.253  1.00  0.00    -0.377 A  
HETATM   15  C   UNL     1     -14.015   9.076  71.446  1.00  0.00    -0.275 A  
HETATM   16  C   UNL     1     -13.938   7.705  71.545  1.00  0.00    -0.397 A  
BRANCH  14  17
HETATM   17  C   UNL     1     -12.731  11.197  71.143  1.00  0.00    -0.510 A  
HETATM   18  C   UNL     1     -11.858  14.446  69.730  1.00  0.00    -0.375 A  
HETATM   19  C   UNL     1     -13.309  12.066  72.058  1.00  0.00    -0.341 A  
HETATM   20  C   UNL     1     -11.087  14.167  68.599  1.00  0.00    -0.283 A  
HETATM   21  C   UNL     1     -10.784  12.856  68.255  1.00  0.00    -0.261 A  
HETATM   22  N   UNL     1     -13.050  13.352  71.670  1.00  0.00    -0.385 NA 
HETATM   23  C   UNL     1     -12.320  13.369  70.507  1.00  0.00    -0.329 A  
HETATM   24  C   UNL     1     -13.474  14.532  72.391  1.00  0.00    -0.448 C  
HETATM   25  C   UNL     1     -12.060  12.032  70.167  1.00  0.00    -0.377 A  
HETATM   26  C   UNL     1     -11.271  11.787  69.021  1.00  0.00    -0.324 A  
ENDBRANCH  14  17
ENDBRANCH   9  11
ENDBRANCH   4   9
BRANCH   7  27
HETATM   27  N   UNL     1      -8.527   4.462  67.920  1.00  0.00    -0.098 N  
HETATM   28  O   UNL     1      -9.047   5.284  65.811  1.00  0.00    -0.153 OA 
HETATM   29  H   UNL     1      -8.292   3.606  68.423  1.00  0.00     0.000 HD 
HETATM   30  C   UNL     1      -8.876   4.355  66.592  1.00  0.00    -0.114 C  
BRANCH  30  31
HETATM   31  C   UNL     1      -8.945   2.940  66.143  1.00  0.00    -0.149 C  
HETATM   32  C   UNL     1      -8.927   1.949  67.043  1.00  0.00    -0.140 C  
ENDBRANCH  30  31
ENDBRANCH   7  27
BRANCH   5  33
HETATM   33  N   UNL     1      -6.189   6.192  67.847  1.00  0.00    -0.030 NA 
HETATM   34  C   UNL     1      -5.352   5.013  68.050  1.00  0.00    -0.011 C  
BRANCH  33  35
HETATM   35  C   UNL     1      -5.880   7.005  66.657  1.00  0.00    -0.030 C  
BRANCH  35  36
HETATM   36  C   UNL     1      -7.033   7.986  66.339  1.00  0.00    -0.070 C  
BRANCH  36  37
HETATM   37  N   UNL     1      -6.714   9.044  65.356  1.00  0.00    -0.071 NA 
HETATM   38  C   UNL     1      -7.902   9.885  65.170  1.00  0.00    -0.133 C  
HETATM   39  C   UNL     1      -6.312   8.478  64.066  1.00  0.00    -0.072 C  
ENDBRANCH  36  37
ENDBRANCH  35  36
ENDBRANCH  33  35
ENDBRANCH   5  33
ENDBRANCH   2   3
TORSDOF 10
ENDMDL
MODEL      193
REMARK 921   NORMALIZED FREE ENERGY PREDICTED BY IDOCK:   -4.64 KCAL/MOL
REMARK 922        TOTAL FREE ENERGY PREDICTED BY IDOCK:   -9.06 KCAL/MOL
REMARK 923 INTER-LIGAND FREE ENERGY PREDICTED BY IDOCK:   -7.68 KCAL/MOL
REMARK 924 INTRA-LIGAND FREE ENERGY PREDICTED BY IDOCK:   -1.38 KCAL/MOL
REMARK 927      BINDING AFFINITY PREDICTED BY RF-SCORE:    0.00 PKD
ROOT
HETATM    1  C   UNL     1      -5.842  12.647  69.065  1.00  0.00    -0.075 C  
HETATM    2  O   UNL     1      -6.846  12.402  68.086  1.00  0.00    -0.067 OA 
ENDROOT
BRANCH   2   3
HETATM    3  C   UNL     1      -7.905  11.609  68.459  1.00  0.00    -0.140 A  
HETATM    4  C   UNL     1      -9.217  12.019  68.703  1.00  0.00    -0.037 A  
HETATM    5  C   UNL     1      -8.492   9.252  69.009  1.00  0.00    -0.132 A  
HETATM    6  C   UNL     1     -10.172  11.020  68.928  1.00  0.00    -0.218 A  
HETATM    7  C   UNL     1      -9.825   9.682  69.144  1.00  0.00    -0.186 A  
HETATM    8  C   UNL     1      -7.573  10.243  68.587  1.00  0.00    -0.089 A  
BRANCH   4   9
HETATM    9  N   UNL     1      -9.606  13.370  68.745  1.00  0.00    -0.412 NA 
HETATM   10  H   UNL     1     -10.147  13.669  69.555  1.00  0.00     0.000 HD 
BRANCH   9  11
HETATM   11  C   UNL     1      -9.322  14.341  67.780  1.00  0.00    -0.198 A  
HETATM   12  N   UNL     1      -9.905  14.180  66.586  1.00  0.00    -0.273 NA 
HETATM   13  N   UNL     1      -8.536  15.388  68.089  1.00  0.00    -0.150 NA 
HETATM   14  C   UNL     1      -8.419  16.391  67.205  1.00  0.00    -0.183 A  
HETATM   15  C   UNL     1      -9.022  16.325  65.967  1.00  0.00    -0.325 A  
HETATM   16  C   UNL     1      -9.738  15.178  65.705  1.00  0.00    -0.344 A  
BRANCH  14  17
HETATM   17  C   UNL     1      -7.633  17.552  67.643  1.00  0.00    -0.203 A  
HETATM   18  C   UNL     1      -5.753  20.668  67.384  1.00  0.00    -0.244 A  
HETATM   19  C   UNL     1      -7.332  17.808  68.972  1.00  0.00    -0.182 A  
HETATM   20  C   UNL     1      -5.674  20.944  66.017  1.00  0.00    -0.267 A  
HETATM   21  C   UNL     1      -6.226  20.075  65.086  1.00  0.00    -0.294 A  
HETATM   22  N   UNL     1      -6.598  18.961  69.044  1.00  0.00    -0.272 NA 
HETATM   23  C   UNL     1      -6.408  19.492  67.792  1.00  0.00    -0.212 A  
HETATM   24  C   UNL     1      -6.078  19.533  70.267  1.00  0.00    -0.229 C  
HETATM   25  C   UNL     1      -7.007  18.611  66.878  1.00  0.00    -0.212 A  
HETATM   26  C   UNL     1      -6.900  18.918  65.503  1.00  0.00    -0.262 A  
ENDBRANCH  14  17
ENDBRANCH   9  11
ENDBRANCH   4   9
BRANCH   7  27
HETATM   27  N   UNL     1     -10.811   8.839  69.699  1.00  0.00    -0.347 N  
HETATM   28  O   UNL     1     -10.413   9.244  71.951  1.00  0.00    -0.305 OA 
HETATM   29  H   UNL     1     -11.438   8.352  69.060  1.00  0.00     0.000 HD 
HETATM   30  C   UNL     1     -10.979   8.635  71.050  1.00  0.00    -0.260 C  
BRANCH  30  31
HETATM   31  C   UNL     1     -12.026   7.620  71.337  1.00  0.00    -0.336 C  
HETATM   32  C   UNL     1     -13.261   8.008  71.677  1.00  0.00    -0.358 C  
ENDBRANCH  30  31
ENDBRANCH   7  27
BRANCH   5  33
HETATM   33  N   UNL     1      -8.075   7.946  69.271  1.00  0.00    -0.124 NA 
HETATM   34  C   UNL     1      -7.397   7.566  70.506  1.00  0.00    -0.075 C  
BRANCH  33  35
HETATM   35  C   UNL     1      -8.441   6.840  68.368  1.00  0.00    -0.122 C  
BRANCH  35  36
HETATM   36  C   UNL     1      -7.686   6.947  67.023  1.00  0.00    -0.103 C  
BRANCH  36  37
HETATM   37  N   UNL     1      -8.538   7.137  65.829  1.00  0.00    -0.149 NA 
HETATM   38  C   UNL     1      -7.930   6.423  64.700  1.00  0.00    -0.118 C  
HETATM   39  C   UNL     1      -8.679   8.555  65.488  1.00  0.00    -0.174 C  
ENDBRANCH  36  37
ENDBRANCH  35  36
ENDBRANCH  33  35
ENDBRANCH   5  33
ENDBRANCH   2   3
TORSDOF 10
ENDMDL
MODEL      194
REMARK 921   NORMALIZED FREE ENERGY PREDICTED BY IDOCK:   -4.63 KCAL/MOL
REMARK 922        TOTAL FREE ENERGY PREDICTED BY IDOCK:   -9.05 KCAL/MOL
REMARK 923 INTER-LIGAND FREE ENERGY PREDICTED BY IDOCK:   -8.55 KCAL/MOL
REMARK 924 INTRA-LIGAND FREE ENERGY PREDICTED BY IDOCK:   -0.50 KCAL/MOL
REMARK 927      BINDING AFFINITY PREDICTED BY RF-SCORE:    0.00 PKD
ROOT
HETATM    1  C   UNL     1     -11.868  13.415  68.731  1.00  0.00    -0.351 C  
HETATM    2  O   UNL     1     -10.460  13.222  68.816  1.00  0.00    -0.232 OA 
ENDROOT
BRANCH   2   3
HETATM    3  C   UNL     1      -9.662  14.110  68.137  1.00  0.00    -0.225 A  
HETATM    4  C   UNL     1      -8.270  14.203  68.193  1.00  0.00    -0.149 A  
HETATM    5  C   UNL     1      -9.770  16.028  66.551  1.00  0.00    -0.264 A  
HETATM    6  C   UNL     1      -7.647  15.087  67.303  1.00  0.00    -0.227 A  
HETATM    7  C   UNL     1      -8.363  16.024  66.549  1.00  0.00    -0.313 A  
HETATM    8  C   UNL     1     -10.380  14.996  67.305  1.00  0.00    -0.249 A  
BRANCH   4   9
HETATM    9  N   UNL     1      -7.486  13.467  69.099  1.00  0.00    -0.311 NA 
HETATM   10  H   UNL     1      -7.148  13.961  69.924  1.00  0.00     0.000 HD 
BRANCH   9  11
HETATM   11  C   UNL     1      -7.124  12.122  68.976  1.00  0.00    -0.062 A  
HETATM   12  N   UNL     1      -5.813  11.858  68.960  1.00  0.00    -0.056 NA 
HETATM   13  N   UNL     1      -8.075  11.171  68.923  1.00  0.00    -0.139 NA 
HETATM   14  C   UNL     1      -7.703   9.883  68.978  1.00  0.00    -0.089 A  
HETATM   15  C   UNL     1      -6.372   9.525  69.008  1.00  0.00    -0.042 A  
HETATM   16  C   UNL     1      -5.467  10.562  68.975  1.00  0.00    -0.041 A  
BRANCH  14  17
HETATM   17  C   UNL     1      -8.790   8.897  69.022  1.00  0.00    -0.136 A  
HETATM   18  C   UNL     1     -11.518   6.915  70.417  1.00  0.00    -0.387 A  
HETATM   19  C   UNL     1      -9.204   8.171  67.915  1.00  0.00    -0.131 A  
HETATM   20  C   UNL     1     -11.563   7.244  71.774  1.00  0.00    -0.309 A  
HETATM   21  C   UNL     1     -10.650   8.139  72.317  1.00  0.00    -0.378 A  
HETATM   22  N   UNL     1     -10.234   7.349  68.286  1.00  0.00    -0.178 NA 
HETATM   23  C   UNL     1     -10.529   7.514  69.616  1.00  0.00    -0.234 A  
HETATM   24  C   UNL     1     -10.908   6.421  67.403  1.00  0.00    -0.375 C  
HETATM   25  C   UNL     1      -9.614   8.448  70.126  1.00  0.00    -0.166 A  
HETATM   26  C   UNL     1      -9.684   8.751  71.505  1.00  0.00    -0.361 A  
ENDBRANCH  14  17
ENDBRANCH   9  11
ENDBRANCH   4   9
BRANCH   7  27
HETATM   27  N   UNL     1      -7.631  17.079  65.965  1.00  0.00    -0.235 N  
HETATM   28  O   UNL     1      -7.257  18.362  67.864  1.00  0.00    -0.222 OA 
HETATM   29  H   UNL     1      -7.406  17.013  64.973  1.00  0.00     0.000 HD 
HETATM   30  C   UNL     1      -7.200  18.192  66.652  1.00  0.00    -0.214 C  
BRANCH  30  31
HETATM   31  C   UNL     1      -6.543  19.182  65.758  1.00  0.00    -0.280 C  
HETATM   32  C   UNL     1      -5.736  18.766  64.775  1.00  0.00    -0.286 C  
ENDBRANCH  30  31
ENDBRANCH   7  27
BRANCH   5  33
HETATM   33  N   UNL     1     -10.536  16.974  65.869  1.00  0.00    -0.326 NA 
HETATM   34  C   UNL     1     -10.515  18.395  66.200  1.00  0.00    -0.395 C  
BRANCH  33  35
HETATM   35  C   UNL     1     -11.300  16.603  64.665  1.00  0.00     0.042 C  
BRANCH  35  36
HETATM   36  C   UNL     1     -11.026  15.134  64.262  1.00  0.00     0.195 C  
BRANCH  36  37
HETATM   37  N   UNL     1     -12.221  14.270  64.164  1.00  0.00    -0.606 NA 
HETATM   38  C   UNL     1     -12.891  14.243  65.470  1.00  0.00    -0.312 C  
HETATM   39  C   UNL     1     -11.868  12.902  63.771  1.00  0.00    -0.504 C  
ENDBRANCH  36  37
ENDBRANCH  35  36
ENDBRANCH  33  35
ENDBRANCH   5  33
ENDBRANCH   2   3
TORSDOF 10
ENDMDL
MODEL      195
REMARK 921   NORMALIZED FREE ENERGY PREDICTED BY IDOCK:   -4.63 KCAL/MOL
REMARK 922        TOTAL FREE ENERGY PREDICTED BY IDOCK:   -9.05 KCAL/MOL
REMARK 923 INTER-LIGAND FREE ENERGY PREDICTED BY IDOCK:   -7.63 KCAL/MOL
REMARK 924 INTRA-LIGAND FREE ENERGY PREDICTED BY IDOCK:   -1.42 KCAL/MOL
REMARK 927      BINDING AFFINITY PREDICTED BY RF-SCORE:    0.00 PKD
ROOT
HETATM    1  C   UNL     1     -12.596  12.054  63.920  1.00  0.00    -0.406 C  
HETATM    2  O   UNL     1     -11.292  12.562  63.659  1.00  0.00    -0.420 OA 
ENDROOT
BRANCH   2   3
HETATM    3  C   UNL     1     -10.464  12.750  64.740  1.00  0.00    -0.335 A  
HETATM    4  C   UNL     1      -9.866  11.760  65.523  1.00  0.00    -0.234 A  
HETATM    5  C   UNL     1      -9.442  14.538  66.140  1.00  0.00    -0.259 A  
HETATM    6  C   UNL     1      -8.938  12.174  66.487  1.00  0.00    -0.179 A  
HETATM    7  C   UNL     1      -8.772  13.518  66.841  1.00  0.00    -0.145 A  
HETATM    8  C   UNL     1     -10.222  14.107  65.041  1.00  0.00    -0.399 A  
BRANCH   4   9
HETATM    9  N   UNL     1     -10.163  10.392  65.392  1.00  0.00    -0.285 NA 
HETATM   10  H   UNL     1     -10.896  10.140  64.730  1.00  0.00     0.000 HD 
BRANCH   9  11
HETATM   11  C   UNL     1      -9.550   9.343  66.085  1.00  0.00    -0.247 A  
HETATM   12  N   UNL     1      -8.449   8.828  65.527  1.00  0.00    -0.155 NA 
HETATM   13  N   UNL     1     -10.047   8.934  67.266  1.00  0.00    -0.217 NA 
HETATM   14  C   UNL     1      -9.345   8.048  67.990  1.00  0.00    -0.138 A  
HETATM   15  C   UNL     1      -8.176   7.500  67.508  1.00  0.00    -0.113 A  
HETATM   16  C   UNL     1      -7.787   7.914  66.253  1.00  0.00    -0.094 A  
BRANCH  14  17
HETATM   17  C   UNL     1      -9.887   7.721  69.315  1.00  0.00    -0.173 A  
HETATM   18  C   UNL     1      -9.891   6.930  72.877  1.00  0.00    -0.195 A  
HETATM   19  C   UNL     1     -11.245   7.639  69.582  1.00  0.00     0.025 A  
HETATM   20  C   UNL     1      -8.546   6.822  73.237  1.00  0.00    -0.136 A  
HETATM   21  C   UNL     1      -7.543   6.979  72.289  1.00  0.00    -0.090 A  
HETATM   22  N   UNL     1     -11.417   7.325  70.903  1.00  0.00    -0.283 NA 
HETATM   23  C   UNL     1     -10.203   7.206  71.533  1.00  0.00    -0.197 A  
HETATM   24  C   UNL     1     -12.699   7.130  71.545  1.00  0.00    -0.393 C  
HETATM   25  C   UNL     1      -9.214   7.404  70.558  1.00  0.00    -0.157 A  
HETATM   26  C   UNL     1      -7.864   7.279  70.957  1.00  0.00    -0.097 A  
ENDBRANCH  14  17
ENDBRANCH   9  11
ENDBRANCH   4   9
BRANCH   7  27
HETATM   27  N   UNL     1      -8.084  13.788  68.043  1.00  0.00    -0.149 N  
HETATM   28  O   UNL     1      -5.938  13.204  67.375  1.00  0.00    -0.293 OA 
HETATM   29  H   UNL     1      -8.612  14.190  68.817  1.00  0.00     0.000 HD 
HETATM   30  C   UNL     1      -6.742  13.545  68.235  1.00  0.00    -0.107 C  
BRANCH  30  31
HETATM   31  C   UNL     1      -6.314  13.833  69.629  1.00  0.00    -0.116 C  
HETATM   32  C   UNL     1      -6.681  14.976  70.220  1.00  0.00    -0.030 C  
ENDBRANCH  30  31
ENDBRANCH   7  27
BRANCH   5  33
HETATM   33  N   UNL     1      -9.363  15.887  66.486  1.00  0.00    -0.253 NA 
HETATM   34  C   UNL     1      -8.231  16.732  66.121  1.00  0.00    -0.264 C  
BRANCH  33  35
HETATM   35  C   UNL     1     -10.506  16.574  67.114  1.00  0.00    -0.300 C  
BRANCH  35  36
HETATM   36  C   UNL     1     -10.545  16.311  68.638  1.00  0.00    -0.297 C  
BRANCH  36  37
HETATM   37  N   UNL     1     -11.622  15.409  69.099  1.00  0.00    -0.318 NA 
HETATM   38  C   UNL     1     -11.061  14.469  70.076  1.00  0.00    -0.126 C  
HETATM   39  C   UNL     1     -12.211  14.659  67.986  1.00  0.00    -0.054 C  
ENDBRANCH  36  37
ENDBRANCH  35  36
ENDBRANCH  33  35
ENDBRANCH   5  33
ENDBRANCH   2   3
TORSDOF 10
ENDMDL
MODEL      196
REMARK 921   NORMALIZED FREE ENERGY PREDICTED BY IDOCK:   -4.62 KCAL/MOL
REMARK 922        TOTAL FREE ENERGY PREDICTED BY IDOCK:   -9.04 KCAL/MOL
REMARK 923 INTER-LIGAND FREE ENERGY PREDICTED BY IDOCK:   -7.38 KCAL/MOL
REMARK 924 INTRA-LIGAND FREE ENERGY PREDICTED BY IDOCK:   -1.65 KCAL/MOL
REMARK 927      BINDING AFFINITY PREDICTED BY RF-SCORE:    0.00 PKD
ROOT
HETATM    1  C   UNL     1      -6.044  15.386  70.202  1.00  0.00    -0.132 C  
HETATM    2  O   UNL     1      -6.580  14.085  69.986  1.00  0.00    -0.112 OA 
ENDROOT
BRANCH   2   3
HETATM    3  C   UNL     1      -7.437  13.928  68.923  1.00  0.00    -0.080 A  
HETATM    4  C   UNL     1      -7.754  12.736  68.268  1.00  0.00    -0.136 A  
HETATM    5  C   UNL     1      -8.911  15.217  67.385  1.00  0.00    -0.183 A  
HETATM    6  C   UNL     1      -8.766  12.782  67.301  1.00  0.00    -0.200 A  
HETATM    7  C   UNL     1      -9.289  13.986  66.817  1.00  0.00    -0.277 A  
HETATM    8  C   UNL     1      -8.035  15.132  68.493  1.00  0.00    -0.142 A  
BRANCH   4   9
HETATM    9  N   UNL     1      -7.100  11.518  68.527  1.00  0.00    -0.081 NA 
HETATM   10  H   UNL     1      -6.089  11.556  68.656  1.00  0.00     0.000 HD 
BRANCH   9  11
HETATM   11  C   UNL     1      -7.703  10.261  68.624  1.00  0.00    -0.094 A  
HETATM   12  N   UNL     1      -8.503  10.066  69.679  1.00  0.00    -0.178 NA 
HETATM   13  N   UNL     1      -7.499   9.340  67.665  1.00  0.00    -0.087 NA 
HETATM   14  C   UNL     1      -8.221   8.209  67.692  1.00  0.00    -0.127 A  
HETATM   15  C   UNL     1      -9.101   7.948  68.721  1.00  0.00    -0.140 A  
HETATM   16  C   UNL     1      -9.183   8.910  69.703  1.00  0.00    -0.152 A  
BRANCH  14  17
HETATM   17  C   UNL     1      -8.030   7.292  66.562  1.00  0.00    -0.115 A  
HETATM   18  C   UNL     1      -8.764   4.586  64.227  1.00  0.00    -0.146 A  
HETATM   19  C   UNL     1      -6.942   7.359  65.703  1.00  0.00    -0.060 A  
HETATM   20  C   UNL     1      -9.947   4.004  64.689  1.00  0.00    -0.205 A  
HETATM   21  C   UNL     1     -10.561   4.469  65.844  1.00  0.00    -0.194 A  
HETATM   22  N   UNL     1      -7.063   6.376  64.759  1.00  0.00    -0.054 NA 
HETATM   23  C   UNL     1      -8.215   5.655  64.957  1.00  0.00    -0.137 A  
HETATM   24  C   UNL     1      -6.104   6.120  63.707  1.00  0.00    -0.022 C  
HETATM   25  C   UNL     1      -8.829   6.172  66.109  1.00  0.00    -0.158 A  
HETATM   26  C   UNL     1     -10.020   5.553  66.551  1.00  0.00    -0.214 A  
ENDBRANCH  14  17
ENDBRANCH   9  11
ENDBRANCH   4   9
BRANCH   7  27
HETATM   27  N   UNL     1     -10.034  13.932  65.621  1.00  0.00    -0.439 N  
HETATM   28  O   UNL     1     -12.156  13.657  66.522  1.00  0.00    -0.404 OA 
HETATM   29  H   UNL     1      -9.537  14.072  64.741  1.00  0.00     0.000 HD 
HETATM   30  C   UNL     1     -11.391  13.703  65.566  1.00  0.00    -0.298 C  
BRANCH  30  31
HETATM   31  C   UNL     1     -11.886  13.599  64.168  1.00  0.00    -0.463 C  
HETATM   32  C   UNL     1     -12.000  12.399  63.585  1.00  0.00    -0.626 C  
ENDBRANCH  30  31
ENDBRANCH   7  27
BRANCH   5  33
HETATM   33  N   UNL     1      -9.351  16.452  66.905  1.00  0.00    -0.220 NA 
HETATM   34  C   UNL     1     -10.655  17.012  67.245  1.00  0.00    -0.267 C  
BRANCH  33  35
HETATM   35  C   UNL     1      -8.447  17.333  66.146  1.00  0.00    -0.181 C  
BRANCH  35  36
HETATM   36  C   UNL     1      -8.556  18.797  66.635  1.00  0.00    -0.302 C  
BRANCH  36  37
HETATM   37  N   UNL     1      -7.392  19.299  67.396  1.00  0.00    -0.227 NA 
HETATM   38  C   UNL     1      -6.269  18.375  67.202  1.00  0.00    -0.169 C  
HETATM   39  C   UNL     1      -7.690  19.408  68.827  1.00  0.00    -0.362 C  
ENDBRANCH  36  37
ENDBRANCH  35  36
ENDBRANCH  33  35
ENDBRANCH   5  33
ENDBRANCH   2   3
TORSDOF 10
ENDMDL
MODEL      197
REMARK 921   NORMALIZED FREE ENERGY PREDICTED BY IDOCK:   -4.61 KCAL/MOL
REMARK 922        TOTAL FREE ENERGY PREDICTED BY IDOCK:   -9.03 KCAL/MOL
REMARK 923 INTER-LIGAND FREE ENERGY PREDICTED BY IDOCK:   -7.67 KCAL/MOL
REMARK 924 INTRA-LIGAND FREE ENERGY PREDICTED BY IDOCK:   -1.36 KCAL/MOL
REMARK 927      BINDING AFFINITY PREDICTED BY RF-SCORE:    0.00 PKD
ROOT
HETATM    1  C   UNL     1     -12.509  15.480  63.912  1.00  0.00     0.449 C  
HETATM    2  O   UNL     1     -12.131  14.264  64.551  1.00  0.00    -0.441 OA 
ENDROOT
BRANCH   2   3
HETATM    3  C   UNL     1     -11.050  14.310  65.397  1.00  0.00    -0.327 A  
HETATM    4  C   UNL     1     -10.647  13.324  66.301  1.00  0.00    -0.289 A  
HETATM    5  C   UNL     1      -9.172  15.786  66.104  1.00  0.00    -0.350 A  
HETATM    6  C   UNL     1      -9.427  13.515  66.961  1.00  0.00    -0.251 A  
HETATM    7  C   UNL     1      -8.735  14.730  66.925  1.00  0.00    -0.236 A  
HETATM    8  C   UNL     1     -10.298  15.500  65.295  1.00  0.00    -0.416 A  
BRANCH   4   9
HETATM    9  N   UNL     1     -11.411  12.176  66.577  1.00  0.00    -0.380 NA 
HETATM   10  H   UNL     1     -12.205  11.991  65.965  1.00  0.00     0.000 HD 
BRANCH   9  11
HETATM   11  C   UNL     1     -11.187  11.264  67.613  1.00  0.00    -0.292 A  
HETATM   12  N   UNL     1     -11.616  11.627  68.827  1.00  0.00    -0.285 NA 
HETATM   13  N   UNL     1     -10.606  10.079  67.354  1.00  0.00    -0.261 NA 
HETATM   14  C   UNL     1     -10.557   9.157  68.327  1.00  0.00    -0.174 A  
HETATM   15  C   UNL     1     -11.019   9.433  69.596  1.00  0.00    -0.216 A  
HETATM   16  C   UNL     1     -11.520  10.701  69.793  1.00  0.00    -0.302 A  
BRANCH  14  17
HETATM   17  C   UNL     1     -10.007   7.848  67.952  1.00  0.00    -0.220 A  
HETATM   18  C   UNL     1      -7.557   5.164  67.631  1.00  0.00    -0.087 A  
HETATM   19  C   UNL     1     -10.757   6.855  67.338  1.00  0.00    -0.326 A  
HETATM   20  C   UNL     1      -6.364   5.684  68.137  1.00  0.00    -0.041 A  
HETATM   21  C   UNL     1      -6.300   6.994  68.594  1.00  0.00    -0.035 A  
HETATM   22  N   UNL     1      -9.958   5.764  67.129  1.00  0.00    -0.143 NA 
HETATM   23  C   UNL     1      -8.690   5.996  67.600  1.00  0.00    -0.104 A  
HETATM   24  C   UNL     1     -10.385   4.540  66.486  1.00  0.00    -0.118 C  
HETATM   25  C   UNL     1      -8.668   7.313  68.085  1.00  0.00    -0.128 A  
HETATM   26  C   UNL     1      -7.441   7.809  68.583  1.00  0.00    -0.100 A  
ENDBRANCH  14  17
ENDBRANCH   9  11
ENDBRANCH   4   9
BRANCH   7  27
HETATM   27  N   UNL     1      -7.722  14.926  67.887  1.00  0.00    -0.129 N  
HETATM   28  O   UNL     1      -8.993  15.908  69.564  1.00  0.00    -0.249 OA 
HETATM   29  H   UNL     1      -6.788  14.576  67.676  1.00  0.00     0.000 HD 
HETATM   30  C   UNL     1      -7.916  15.559  69.094  1.00  0.00    -0.222 C  
BRANCH  30  31
HETATM   31  C   UNL     1      -6.650  15.710  69.858  1.00  0.00    -0.117 C  
HETATM   32  C   UNL     1      -6.025  16.893  69.892  1.00  0.00    -0.219 C  
ENDBRANCH  30  31
ENDBRANCH   7  27
BRANCH   5  33
HETATM   33  N   UNL     1      -8.561  17.039  66.073  1.00  0.00    -0.518 NA 
HETATM   34  C   UNL     1      -7.150  17.223  65.745  1.00  0.00     0.188 C  
BRANCH  33  35
HETATM   35  C   UNL     1      -9.355  18.272  66.220  1.00  0.00    -0.213 C  
BRANCH  35  36
HETATM   36  C   UNL     1     -10.056  18.321  67.598  1.00  0.00    -0.356 C  
BRANCH  36  37
HETATM   37  N   UNL     1      -9.789  19.531  68.404  1.00  0.00    -0.402 NA 
HETATM   38  C   UNL     1      -9.611  20.671  67.496  1.00  0.00    -0.366 C  
HETATM   39  C   UNL     1      -8.588  19.375  69.230  1.00  0.00     0.007 C  
ENDBRANCH  36  37
ENDBRANCH  35  36
ENDBRANCH  33  35
ENDBRANCH   5  33
ENDBRANCH   2   3
TORSDOF 10
ENDMDL
MODEL      198
REMARK 921   NORMALIZED FREE ENERGY PREDICTED BY IDOCK:   -4.59 KCAL/MOL
REMARK 922        TOTAL FREE ENERGY PREDICTED BY IDOCK:   -8.99 KCAL/MOL
REMARK 923 INTER-LIGAND FREE ENERGY PREDICTED BY IDOCK:   -8.42 KCAL/MOL
REMARK 924 INTRA-LIGAND FREE ENERGY PREDICTED BY IDOCK:   -0.56 KCAL/MOL
REMARK 927      BINDING AFFINITY PREDICTED BY RF-SCORE:    0.00 PKD
ROOT
HETATM    1  C   UNL     1      -8.290  16.188  66.236  1.00  0.00    -0.287 C  
HETATM    2  O   UNL     1      -9.297  15.255  65.859  1.00  0.00    -0.326 OA 
ENDROOT
BRANCH   2   3
HETATM    3  C   UNL     1      -9.725  14.370  66.819  1.00  0.00    -0.270 A  
HETATM    4  C   UNL     1      -9.671  12.976  66.761  1.00  0.00    -0.248 A  
HETATM    5  C   UNL     1     -10.808  14.281  69.060  1.00  0.00    -0.255 A  
HETATM    6  C   UNL     1     -10.028  12.270  67.917  1.00  0.00    -0.202 A  
HETATM    7  C   UNL     1     -10.642  12.884  69.014  1.00  0.00    -0.043 A  
HETATM    8  C   UNL     1     -10.261  14.994  67.966  1.00  0.00    -0.228 A  
BRANCH   4   9
HETATM    9  N   UNL     1      -9.293  12.268  65.607  1.00  0.00    -0.436 NA 
HETATM   10  H   UNL     1      -9.412  12.745  64.714  1.00  0.00     0.000 HD 
BRANCH   9  11
HETATM   11  C   UNL     1      -8.771  10.972  65.567  1.00  0.00    -0.138 A  
HETATM   12  N   UNL     1      -7.727  10.777  64.753  1.00  0.00     0.111 NA 
HETATM   13  N   UNL     1      -9.291  10.011  66.352  1.00  0.00    -0.162 NA 
HETATM   14  C   UNL     1      -8.665   8.826  66.423  1.00  0.00    -0.139 A  
HETATM   15  C   UNL     1      -7.556   8.557  65.650  1.00  0.00    -0.090 A  
HETATM   16  C   UNL     1      -7.144   9.570  64.813  1.00  0.00    -0.108 A  
BRANCH  14  17
HETATM   17  C   UNL     1      -9.220   7.857  67.376  1.00  0.00    -0.160 A  
HETATM   18  C   UNL     1      -9.367   4.902  69.512  1.00  0.00    -0.190 A  
HETATM   19  C   UNL     1     -10.466   8.002  67.970  1.00  0.00    -0.184 A  
HETATM   20  C   UNL     1      -8.181   4.206  69.268  1.00  0.00    -0.074 A  
HETATM   21  C   UNL     1      -7.263   4.674  68.338  1.00  0.00    -0.064 A  
HETATM   22  N   UNL     1     -10.682   6.940  68.806  1.00  0.00    -0.224 NA 
HETATM   23  C   UNL     1      -9.605   6.089  68.796  1.00  0.00    -0.129 A  
HETATM   24  C   UNL     1     -11.886   6.733  69.581  1.00  0.00     0.013 C  
HETATM   25  C   UNL     1      -8.682   6.608  67.874  1.00  0.00    -0.116 A  
HETATM   26  C   UNL     1      -7.496   5.872  67.648  1.00  0.00    -0.078 A  
ENDBRANCH  14  17
ENDBRANCH   9  11
ENDBRANCH   4   9
BRANCH   7  27
HETATM   27  N   UNL     1     -11.267  12.043  69.959  1.00  0.00    -0.475 N  
HETATM   28  O   UNL     1     -12.467  10.686  68.506  1.00  0.00    -0.169 OA 
HETATM   29  H   UNL     1     -11.029  12.169  70.942  1.00  0.00     0.000 HD 
HETATM   30  C   UNL     1     -12.179  11.063  69.636  1.00  0.00    -0.300 C  
BRANCH  30  31
HETATM   31  C   UNL     1     -12.746  10.406  70.842  1.00  0.00    -0.477 C  
HETATM   32  C   UNL     1     -11.952   9.706  71.661  1.00  0.00    -0.470 C  
ENDBRANCH  30  31
ENDBRANCH   7  27
BRANCH   5  33
HETATM   33  N   UNL     1     -11.467  14.942  70.096  1.00  0.00    -0.266 NA 
HETATM   34  C   UNL     1     -10.848  16.014  70.870  1.00  0.00     0.009 C  
BRANCH  33  35
HETATM   35  C   UNL     1     -12.895  14.694  70.365  1.00  0.00    -0.270 C  
BRANCH  35  36
HETATM   36  C   UNL     1     -13.398  15.561  71.544  1.00  0.00    -0.509 C  
BRANCH  36  37
HETATM   37  N   UNL     1     -13.600  14.841  72.820  1.00  0.00    -0.469 NA 
HETATM   38  C   UNL     1     -12.654  15.368  73.811  1.00  0.00    -0.611 C  
HETATM   39  C   UNL     1     -13.389  13.399  72.666  1.00  0.00    -0.392 C  
ENDBRANCH  36  37
ENDBRANCH  35  36
ENDBRANCH  33  35
ENDBRANCH   5  33
ENDBRANCH   2   3
TORSDOF 10
ENDMDL
MODEL      199
REMARK 921   NORMALIZED FREE ENERGY PREDICTED BY IDOCK:   -4.59 KCAL/MOL
REMARK 922        TOTAL FREE ENERGY PREDICTED BY IDOCK:   -8.98 KCAL/MOL
REMARK 923 INTER-LIGAND FREE ENERGY PREDICTED BY IDOCK:   -8.46 KCAL/MOL
REMARK 924 INTRA-LIGAND FREE ENERGY PREDICTED BY IDOCK:   -0.52 KCAL/MOL
REMARK 927      BINDING AFFINITY PREDICTED BY RF-SCORE:    0.00 PKD
ROOT
HETATM    1  C   UNL     1      -6.853  12.288  67.959  1.00  0.00    -0.082 C  
HETATM    2  O   UNL     1      -8.190  11.806  68.033  1.00  0.00    -0.135 OA 
ENDROOT
BRANCH   2   3
HETATM    3  C   UNL     1      -8.449  10.583  67.463  1.00  0.00    -0.118 A  
HETATM    4  C   UNL     1      -9.011  10.343  66.208  1.00  0.00    -0.155 A  
HETATM    5  C   UNL     1      -8.300   8.138  67.913  1.00  0.00    -0.129 A  
HETATM    6  C   UNL     1      -9.050   9.016  65.763  1.00  0.00    -0.272 A  
HETATM    7  C   UNL     1      -8.770   7.932  66.603  1.00  0.00    -0.142 A  
HETATM    8  C   UNL     1      -8.081   9.489  68.275  1.00  0.00    -0.102 A  
BRANCH   4   9
HETATM    9  N   UNL     1      -9.542  11.361  65.395  1.00  0.00    -0.225 NA 
HETATM   10  H   UNL     1      -9.310  11.326  64.403  1.00  0.00     0.000 HD 
BRANCH   9  11
HETATM   11  C   UNL     1     -10.356  12.416  65.818  1.00  0.00    -0.263 A  
HETATM   12  N   UNL     1     -11.548  12.079  66.324  1.00  0.00    -0.486 NA 
HETATM   13  N   UNL     1      -9.911  13.683  65.743  1.00  0.00    -0.283 NA 
HETATM   14  C   UNL     1     -10.638  14.657  66.310  1.00  0.00    -0.306 A  
HETATM   15  C   UNL     1     -11.858  14.391  66.893  1.00  0.00    -0.433 A  
HETATM   16  C   UNL     1     -12.274  13.078  66.849  1.00  0.00    -0.168 A  
BRANCH  14  17
HETATM   17  C   UNL     1     -10.048  16.002  66.287  1.00  0.00    -0.329 A  
HETATM   18  C   UNL     1      -7.469  18.578  66.447  1.00  0.00    -0.279 A  
HETATM   19  C   UNL     1     -10.783  17.151  66.035  1.00  0.00    -0.113 A  
HETATM   20  C   UNL     1      -6.289  17.906  66.774  1.00  0.00    -0.210 A  
HETATM   21  C   UNL     1      -6.292  16.535  66.994  1.00  0.00    -0.207 A  
HETATM   22  N   UNL     1      -9.944  18.231  66.078  1.00  0.00    -0.547 NA 
HETATM   23  C   UNL     1      -8.657  17.832  66.343  1.00  0.00    -0.231 A  
HETATM   24  C   UNL     1     -10.356  19.604  65.888  1.00  0.00    -0.488 C  
HETATM   25  C   UNL     1      -8.688  16.441  66.525  1.00  0.00    -0.324 A  
HETATM   26  C   UNL     1      -7.477  15.796  66.862  1.00  0.00    -0.204 A  
ENDBRANCH  14  17
ENDBRANCH   9  11
ENDBRANCH   4   9
BRANCH   7  27
HETATM   27  N   UNL     1      -9.172   6.653  66.164  1.00  0.00    -0.291 N  
HETATM   28  O   UNL     1     -11.321   6.622  67.044  1.00  0.00    -0.348 OA 
HETATM   29  H   UNL     1      -8.527   6.124  65.578  1.00  0.00     0.000 HD 
HETATM   30  C   UNL     1     -10.382   6.075  66.478  1.00  0.00    -0.149 C  
BRANCH  30  31
HETATM   31  C   UNL     1     -10.488   4.685  65.963  1.00  0.00    -0.303 C  
HETATM   32  C   UNL     1      -9.675   3.732  66.434  1.00  0.00    -0.142 C  
ENDBRANCH  30  31
ENDBRANCH   7  27
BRANCH   5  33
HETATM   33  N   UNL     1      -8.064   7.101  68.816  1.00  0.00    -0.120 NA 
HETATM   34  C   UNL     1      -6.778   6.908  69.478  1.00  0.00    -0.050 C  
BRANCH  33  35
HETATM   35  C   UNL     1      -9.161   6.228  69.270  1.00  0.00    -0.134 C  
BRANCH  35  36
HETATM   36  C   UNL     1      -8.739   5.401  70.507  1.00  0.00    -0.123 C  
BRANCH  36  37
HETATM   37  N   UNL     1      -9.662   5.468  71.661  1.00  0.00    -0.158 NA 
HETATM   38  C   UNL     1      -9.727   4.142  72.288  1.00  0.00    -0.154 C  
HETATM   39  C   UNL     1     -11.008   5.879  71.252  1.00  0.00    -0.259 C  
ENDBRANCH  36  37
ENDBRANCH  35  36
ENDBRANCH  33  35
ENDBRANCH   5  33
ENDBRANCH   2   3
TORSDOF 10
ENDMDL
MODEL      200
REMARK 921   NORMALIZED FREE ENERGY PREDICTED BY IDOCK:   -4.58 KCAL/MOL
REMARK 922        TOTAL FREE ENERGY PREDICTED BY IDOCK:   -8.97 KCAL/MOL
REMARK 923 INTER-LIGAND FREE ENERGY PREDICTED BY IDOCK:   -8.75 KCAL/MOL
REMARK 924 INTRA-LIGAND FREE ENERGY PREDICTED BY IDOCK:   -0.22 KCAL/MOL
REMARK 927      BINDING AFFINITY PREDICTED BY RF-SCORE:    0.00 PKD
ROOT
HETATM    1  C   UNL     1     -10.726  19.378  66.294  1.00  0.00    -0.411 C  
HETATM    2  O   UNL     1     -10.905  18.684  67.524  1.00  0.00    -0.435 OA 
ENDROOT
BRANCH   2   3
HETATM    3  C   UNL     1      -9.908  17.819  67.908  1.00  0.00    -0.306 A  
HETATM    4  C   UNL     1      -9.976  16.425  67.952  1.00  0.00    -0.243 A  
HETATM    5  C   UNL     1      -7.568  17.777  68.757  1.00  0.00    -0.260 A  
HETATM    6  C   UNL     1      -8.793  15.731  68.233  1.00  0.00    -0.180 A  
HETATM    7  C   UNL     1      -7.635  16.373  68.689  1.00  0.00    -0.197 A  
HETATM    8  C   UNL     1      -8.710  18.464  68.280  1.00  0.00    -0.321 A  
BRANCH   4   9
HETATM    9  N   UNL     1     -11.166  15.706  67.743  1.00  0.00    -0.322 NA 
HETATM   10  H   UNL     1     -11.996  16.032  68.238  1.00  0.00     0.000 HD 
BRANCH   9  11
HETATM   11  C   UNL     1     -11.321  14.585  66.921  1.00  0.00    -0.348 A  
HETATM   12  N   UNL     1     -11.667  14.823  65.651  1.00  0.00    -0.304 NA 
HETATM   13  N   UNL     1     -11.082  13.354  67.409  1.00  0.00    -0.271 NA 
HETATM   14  C   UNL     1     -11.070  12.314  66.561  1.00  0.00    -0.299 A  
HETATM   15  C   UNL     1     -11.373  12.479  65.226  1.00  0.00    -0.363 A  
HETATM   16  C   UNL     1     -11.687  13.761  64.832  1.00  0.00    -0.363 A  
BRANCH  14  17
HETATM   17  C   UNL     1     -10.699  11.014  67.135  1.00  0.00    -0.313 A  
HETATM   18  C   UNL     1      -9.019   7.789  67.424  1.00  0.00    -0.128 A  
HETATM   19  C   UNL     1     -11.177  10.558  68.355  1.00  0.00    -0.279 A  
HETATM   20  C   UNL     1      -8.285   7.643  66.245  1.00  0.00    -0.120 A  
HETATM   21  C   UNL     1      -8.334   8.615  65.255  1.00  0.00    -0.177 A  
HETATM   22  N   UNL     1     -10.641   9.324  68.605  1.00  0.00    -0.209 NA 
HETATM   23  C   UNL     1      -9.804   8.945  67.584  1.00  0.00    -0.182 A  
HETATM   24  C   UNL     1     -10.927   8.522  69.774  1.00  0.00    -0.127 C  
HETATM   25  C   UNL     1      -9.848   9.962  66.618  1.00  0.00    -0.265 A  
HETATM   26  C   UNL     1      -9.099   9.777  65.434  1.00  0.00    -0.251 A  
ENDBRANCH  14  17
ENDBRANCH   9  11
ENDBRANCH   4   9
BRANCH   7  27
HETATM   27  N   UNL     1      -6.634  15.565  69.267  1.00  0.00    -0.136 N  
HETATM   28  O   UNL     1      -7.451  13.477  68.659  1.00  0.00    -0.114 OA 
HETATM   29  H   UNL     1      -5.843  16.029  69.712  1.00  0.00     0.000 HD 
HETATM   30  C   UNL     1      -6.658  14.188  69.267  1.00  0.00    -0.120 C  
BRANCH  30  31
HETATM   31  C   UNL     1      -5.526  13.608  70.036  1.00  0.00    -0.106 C  
HETATM   32  C   UNL     1      -5.446  12.284  70.215  1.00  0.00    -0.139 C  
ENDBRANCH  30  31
ENDBRANCH   7  27
BRANCH   5  33
HETATM   33  N   UNL     1      -6.466  18.469  69.260  1.00  0.00    -0.261 NA 
HETATM   34  C   UNL     1      -5.617  17.940  70.323  1.00  0.00    -0.236 C  
BRANCH  33  35
HETATM   35  C   UNL     1      -6.006  19.719  68.629  1.00  0.00    -0.237 C  
BRANCH  35  36
HETATM   36  C   UNL     1      -5.142  19.427  67.380  1.00  0.00    -0.157 C  
BRANCH  36  37
HETATM   37  N   UNL     1      -5.739  19.828  66.088  1.00  0.00    -0.170 NA 
HETATM   38  C   UNL     1      -5.346  18.850  65.065  1.00  0.00    -0.190 C  
HETATM   39  C   UNL     1      -5.294  21.163  65.679  1.00  0.00    -0.212 C  
ENDBRANCH  36  37
ENDBRANCH  35  36
ENDBRANCH  33  35
ENDBRANCH   5  33
ENDBRANCH   2   3
TORSDOF 10
ENDMDL
MODEL      201
REMARK 921   NORMALIZED FREE ENERGY PREDICTED BY IDOCK:   -4.57 KCAL/MOL
REMARK 922        TOTAL FREE ENERGY PREDICTED BY IDOCK:   -8.96 KCAL/MOL
REMARK 923 INTER-LIGAND FREE ENERGY PREDICTED BY IDOCK:   -7.65 KCAL/MOL
REMARK 924 INTRA-LIGAND FREE ENERGY PREDICTED BY IDOCK:   -1.31 KCAL/MOL
REMARK 927      BINDING AFFINITY PREDICTED BY RF-SCORE:    0.00 PKD
ROOT
HETATM    1  C   UNL     1      -7.713   9.547  64.316  1.00  0.00    -0.124 C  
HETATM    2  O   UNL     1      -8.709   9.803  65.301  1.00  0.00    -0.141 OA 
ENDROOT
BRANCH   2   3
HETATM    3  C   UNL     1      -8.627  10.994  65.981  1.00  0.00    -0.172 A  
HETATM    4  C   UNL     1      -7.685  11.345  66.951  1.00  0.00    -0.155 A  
HETATM    5  C   UNL     1      -9.761  13.198  66.221  1.00  0.00    -0.265 A  
HETATM    6  C   UNL     1      -7.697  12.667  67.411  1.00  0.00    -0.161 A  
HETATM    7  C   UNL     1      -8.735  13.557  67.115  1.00  0.00    -0.215 A  
HETATM    8  C   UNL     1      -9.621  11.926  65.616  1.00  0.00    -0.221 A  
BRANCH   4   9
HETATM    9  N   UNL     1      -6.754  10.436  67.483  1.00  0.00    -0.070 NA 
HETATM   10  H   UNL     1      -5.782  10.742  67.522  1.00  0.00     0.000 HD 
BRANCH   9  11
HETATM   11  C   UNL     1      -7.032   9.152  67.963  1.00  0.00    -0.077 A  
HETATM   12  N   UNL     1      -6.122   8.209  67.697  1.00  0.00    -0.050 NA 
HETATM   13  N   UNL     1      -8.145   8.930  68.685  1.00  0.00    -0.110 NA 
HETATM   14  C   UNL     1      -8.303   7.736  69.277  1.00  0.00    -0.136 A  
HETATM   15  C   UNL     1      -7.390   6.721  69.091  1.00  0.00    -0.093 A  
HETATM   16  C   UNL     1      -6.324   7.011  68.268  1.00  0.00    -0.035 A  
BRANCH  14  17
HETATM   17  C   UNL     1      -9.485   7.591  70.136  1.00  0.00    -0.161 A  
HETATM   18  C   UNL     1     -11.768   6.057  72.534  1.00  0.00    -0.280 A  
HETATM   19  C   UNL     1     -10.454   8.575  70.270  1.00  0.00    -0.220 A  
HETATM   20  C   UNL     1     -11.242   4.789  72.792  1.00  0.00    -0.216 A  
HETATM   21  C   UNL     1     -10.092   4.354  72.146  1.00  0.00    -0.262 A  
HETATM   22  N   UNL     1     -11.412   8.135  71.142  1.00  0.00    -0.272 NA 
HETATM   23  C   UNL     1     -11.103   6.881  71.608  1.00  0.00    -0.240 A  
HETATM   24  C   UNL     1     -12.596   8.881  71.512  1.00  0.00    -0.331 C  
HETATM   25  C   UNL     1      -9.920   6.485  70.964  1.00  0.00    -0.203 A  
HETATM   26  C   UNL     1      -9.421   5.193  71.244  1.00  0.00    -0.203 A  
ENDBRANCH  14  17
ENDBRANCH   9  11
ENDBRANCH   4   9
BRANCH   7  27
HETATM   27  N   UNL     1      -8.826  14.727  67.898  1.00  0.00    -0.163 N  
HETATM   28  O   UNL     1      -7.819  16.225  66.438  1.00  0.00    -0.278 OA 
HETATM   29  H   UNL     1      -9.311  14.667  68.793  1.00  0.00     0.000 HD 
HETATM   30  C   UNL     1      -8.302  15.945  67.529  1.00  0.00    -0.163 C  
BRANCH  30  31
HETATM   31  C   UNL     1      -8.460  16.970  68.595  1.00  0.00    -0.262 C  
HETATM   32  C   UNL     1      -9.631  17.598  68.752  1.00  0.00    -0.280 C  
ENDBRANCH  30  31
ENDBRANCH   7  27
BRANCH   5  33
HETATM   33  N   UNL     1     -10.853  14.018  65.935  1.00  0.00    -0.285 NA 
HETATM   34  C   UNL     1     -10.963  14.787  64.700  1.00  0.00    -0.316 C  
BRANCH  33  35
HETATM   35  C   UNL     1     -12.039  14.029  66.811  1.00  0.00    -0.447 C  
BRANCH  35  36
HETATM   36  C   UNL     1     -11.939  12.934  67.898  1.00  0.00    -0.282 C  
BRANCH  36  37
HETATM   37  N   UNL     1     -12.354  13.347  69.256  1.00  0.00    -0.157 NA 
HETATM   38  C   UNL     1     -11.665  14.598  69.597  1.00  0.00    -0.313 C  
HETATM   39  C   UNL     1     -12.029  12.325  70.255  1.00  0.00    -0.290 C  
ENDBRANCH  36  37
ENDBRANCH  35  36
ENDBRANCH  33  35
ENDBRANCH   5  33
ENDBRANCH   2   3
TORSDOF 10
ENDMDL
MODEL      202
REMARK 921   NORMALIZED FREE ENERGY PREDICTED BY IDOCK:   -4.57 KCAL/MOL
REMARK 922        TOTAL FREE ENERGY PREDICTED BY IDOCK:   -8.96 KCAL/MOL
REMARK 923 INTER-LIGAND FREE ENERGY PREDICTED BY IDOCK:   -8.44 KCAL/MOL
REMARK 924 INTRA-LIGAND FREE ENERGY PREDICTED BY IDOCK:   -0.51 KCAL/MOL
REMARK 927      BINDING AFFINITY PREDICTED BY RF-SCORE:    0.00 PKD
ROOT
HETATM    1  C   UNL     1      -5.417  16.947  66.391  1.00  0.00     0.111 C  
HETATM    2  O   UNL     1      -5.858  15.678  66.863  1.00  0.00    -0.216 OA 
ENDROOT
BRANCH   2   3
HETATM    3  C   UNL     1      -7.129  15.608  67.379  1.00  0.00    -0.207 A  
HETATM    4  C   UNL     1      -7.827  14.453  67.740  1.00  0.00    -0.160 A  
HETATM    5  C   UNL     1      -9.070  17.033  68.014  1.00  0.00    -0.237 A  
HETATM    6  C   UNL     1      -9.058  14.621  68.385  1.00  0.00    -0.192 A  
HETATM    7  C   UNL     1      -9.703  15.860  68.466  1.00  0.00    -0.211 A  
HETATM    8  C   UNL     1      -7.745  16.867  67.546  1.00  0.00    -0.187 A  
BRANCH   4   9
HETATM    9  N   UNL     1      -7.356  13.155  67.475  1.00  0.00    -0.178 NA 
HETATM   10  H   UNL     1      -7.098  12.946  66.511  1.00  0.00     0.000 HD 
BRANCH   9  11
HETATM   11  C   UNL     1      -7.209  12.123  68.407  1.00  0.00    -0.097 A  
HETATM   12  N   UNL     1      -6.260  12.292  69.334  1.00  0.00    -0.101 NA 
HETATM   13  N   UNL     1      -8.026  11.055  68.364  1.00  0.00    -0.123 NA 
HETATM   14  C   UNL     1      -7.978  10.165  69.367  1.00  0.00    -0.154 A  
HETATM   15  C   UNL     1      -7.059  10.288  70.387  1.00  0.00    -0.040 A  
HETATM   16  C   UNL     1      -6.206  11.366  70.304  1.00  0.00    -0.106 A  
BRANCH  14  17
HETATM   17  C   UNL     1      -8.966   9.080  69.317  1.00  0.00    -0.144 A  
HETATM   18  C   UNL     1     -11.710   6.938  70.410  1.00  0.00    -0.377 A  
HETATM   19  C   UNL     1      -9.117   8.239  68.224  1.00  0.00    -0.135 A  
HETATM   20  C   UNL     1     -12.018   7.356  71.706  1.00  0.00    -0.338 A  
HETATM   21  C   UNL     1     -11.294   8.375  72.313  1.00  0.00    -0.448 A  
HETATM   22  N   UNL     1     -10.120   7.346  68.490  1.00  0.00    -0.170 NA 
HETATM   23  C   UNL     1     -10.654   7.575  69.734  1.00  0.00    -0.241 A  
HETATM   24  C   UNL     1     -10.547   6.295  67.593  1.00  0.00    -0.271 C  
HETATM   25  C   UNL     1      -9.925   8.630  70.305  1.00  0.00    -0.204 A  
HETATM   26  C   UNL     1     -10.259   9.022  71.621  1.00  0.00    -0.418 A  
ENDBRANCH  14  17
ENDBRANCH   9  11
ENDBRANCH   4   9
BRANCH   7  27
HETATM   27  N   UNL     1     -11.069  15.856  68.816  1.00  0.00    -0.306 N  
HETATM   28  O   UNL     1     -10.860  15.536  71.107  1.00  0.00    -0.304 OA 
HETATM   29  H   UNL     1     -11.752  16.036  68.080  1.00  0.00     0.000 HD 
HETATM   30  C   UNL     1     -11.538  15.626  70.090  1.00  0.00    -0.354 C  
BRANCH  30  31
HETATM   31  C   UNL     1     -13.023  15.581  70.141  1.00  0.00    -0.035 C  
HETATM   32  C   UNL     1     -13.643  15.094  71.223  1.00  0.00    -0.559 C  
ENDBRANCH  30  31
ENDBRANCH   7  27
BRANCH   5  33
HETATM   33  N   UNL     1      -9.685  18.286  68.011  1.00  0.00    -0.299 NA 
HETATM   34  C   UNL     1     -10.876  18.580  67.220  1.00  0.00    -0.282 C  
BRANCH  33  35
HETATM   35  C   UNL     1      -9.248  19.345  68.938  1.00  0.00    -0.339 C  
BRANCH  35  36
HETATM   36  C   UNL     1      -7.724  19.267  69.193  1.00  0.00    -0.237 C  
BRANCH  36  37
HETATM   37  N   UNL     1      -6.877  19.936  68.182  1.00  0.00    -0.283 NA 
HETATM   38  C   UNL     1      -5.931  20.820  68.874  1.00  0.00    -0.321 C  
HETATM   39  C   UNL     1      -7.678  20.723  67.241  1.00  0.00    -0.278 C  
ENDBRANCH  36  37
ENDBRANCH  35  36
ENDBRANCH  33  35
ENDBRANCH   5  33
ENDBRANCH   2   3
TORSDOF 10
ENDMDL
MODEL      203
REMARK 921   NORMALIZED FREE ENERGY PREDICTED BY IDOCK:   -4.56 KCAL/MOL
REMARK 922        TOTAL FREE ENERGY PREDICTED BY IDOCK:   -8.94 KCAL/MOL
REMARK 923 INTER-LIGAND FREE ENERGY PREDICTED BY IDOCK:   -7.34 KCAL/MOL
REMARK 924 INTRA-LIGAND FREE ENERGY PREDICTED BY IDOCK:   -1.60 KCAL/MOL
REMARK 927      BINDING AFFINITY PREDICTED BY RF-SCORE:    0.00 PKD
ROOT
HETATM    1  C   UNL     1      -7.465   8.340  74.319  1.00  0.00    -0.201 C  
HETATM    2  O   UNL     1      -7.381   9.140  73.145  1.00  0.00    -0.152 OA 
ENDROOT
BRANCH   2   3
HETATM    3  C   UNL     1      -7.519   8.499  71.937  1.00  0.00    -0.095 A  
HETATM    4  C   UNL     1      -6.827   8.774  70.756  1.00  0.00    -0.056 A  
HETATM    5  C   UNL     1      -8.814   6.693  70.812  1.00  0.00    -0.147 A  
HETATM    6  C   UNL     1      -7.018   7.898  69.679  1.00  0.00    -0.053 A  
HETATM    7  C   UNL     1      -8.025   6.926  69.670  1.00  0.00    -0.125 A  
HETATM    8  C   UNL     1      -8.470   7.456  71.954  1.00  0.00    -0.117 A  
BRANCH   4   9
HETATM    9  N   UNL     1      -5.974   9.881  70.603  1.00  0.00    -0.078 NA 
HETATM   10  H   UNL     1      -5.002   9.755  70.882  1.00  0.00     0.000 HD 
BRANCH   9  11
HETATM   11  C   UNL     1      -6.332  11.138  70.107  1.00  0.00    -0.137 A  
HETATM   12  N   UNL     1      -5.665  12.185  70.605  1.00  0.00    -0.249 NA 
HETATM   13  N   UNL     1      -7.271  11.242  69.149  1.00  0.00    -0.120 NA 
HETATM   14  C   UNL     1      -7.474  12.435  68.570  1.00  0.00    -0.112 A  
HETATM   15  C   UNL     1      -6.796  13.558  68.993  1.00  0.00    -0.107 A  
HETATM   16  C   UNL     1      -5.915  13.374  70.036  1.00  0.00    -0.137 A  
BRANCH  14  17
HETATM   17  C   UNL     1      -8.435  12.461  67.460  1.00  0.00    -0.175 A  
HETATM   18  C   UNL     1     -10.790  13.850  65.044  1.00  0.00    -0.389 A  
HETATM   19  C   UNL     1      -8.775  11.337  66.721  1.00  0.00    -0.166 A  
HETATM   20  C   UNL     1     -10.911  15.202  65.375  1.00  0.00    -0.381 A  
HETATM   21  C   UNL     1     -10.226  15.730  66.462  1.00  0.00    -0.294 A  
HETATM   22  N   UNL     1      -9.684  11.697  65.764  1.00  0.00    -0.231 NA 
HETATM   23  C   UNL     1      -9.955  13.040  65.835  1.00  0.00    -0.267 A  
HETATM   24  C   UNL     1     -10.289  10.785  64.817  1.00  0.00    -0.310 C  
HETATM   25  C   UNL     1      -9.222  13.550  66.918  1.00  0.00    -0.254 A  
HETATM   26  C   UNL     1      -9.376  14.920  67.229  1.00  0.00    -0.210 A  
ENDBRANCH  14  17
ENDBRANCH   9  11
ENDBRANCH   4   9
BRANCH   7  27
HETATM   27  N   UNL     1      -8.353   6.347  68.426  1.00  0.00    -0.116 N  
HETATM   28  O   UNL     1      -9.618   8.078  67.537  1.00  0.00    -0.144 OA 
HETATM   29  H   UNL     1      -7.955   5.434  68.204  1.00  0.00     0.000 HD 
HETATM   30  C   UNL     1      -9.176   6.936  67.494  1.00  0.00    -0.123 C  
BRANCH  30  31
HETATM   31  C   UNL     1      -9.423   6.051  66.325  1.00  0.00    -0.153 C  
HETATM   32  C   UNL     1     -10.524   5.292  66.280  1.00  0.00    -0.311 C  
ENDBRANCH  30  31
ENDBRANCH   7  27
BRANCH   5  33
HETATM   33  N   UNL     1      -9.871   5.783  70.843  1.00  0.00    -0.173 NA 
HETATM   34  C   UNL     1      -9.709   4.399  71.277  1.00  0.00    -0.182 C  
BRANCH  33  35
HETATM   35  C   UNL     1     -11.254   6.221  70.583  1.00  0.00    -0.337 C  
BRANCH  35  36
HETATM   36  C   UNL     1     -11.350   7.764  70.538  1.00  0.00    -0.241 C  
BRANCH  36  37
HETATM   37  N   UNL     1     -12.234   8.375  71.554  1.00  0.00    -0.293 NA 
HETATM   38  C   UNL     1     -13.522   7.670  71.540  1.00  0.00    -0.336 C  
HETATM   39  C   UNL     1     -12.456   9.799  71.289  1.00  0.00    -0.367 C  
ENDBRANCH  36  37
ENDBRANCH  35  36
ENDBRANCH  33  35
ENDBRANCH   5  33
ENDBRANCH   2   3
TORSDOF 10
ENDMDL
MODEL      204
REMARK 921   NORMALIZED FREE ENERGY PREDICTED BY IDOCK:   -4.56 KCAL/MOL
REMARK 922        TOTAL FREE ENERGY PREDICTED BY IDOCK:   -8.94 KCAL/MOL
REMARK 923 INTER-LIGAND FREE ENERGY PREDICTED BY IDOCK:   -7.88 KCAL/MOL
REMARK 924 INTRA-LIGAND FREE ENERGY PREDICTED BY IDOCK:   -1.06 KCAL/MOL
REMARK 927      BINDING AFFINITY PREDICTED BY RF-SCORE:    0.00 PKD
ROOT
HETATM    1  C   UNL     1      -5.898  12.652  69.053  1.00  0.00    -0.075 C  
HETATM    2  O   UNL     1      -6.899  12.488  68.053  1.00  0.00    -0.075 OA 
ENDROOT
BRANCH   2   3
HETATM    3  C   UNL     1      -7.980  11.703  68.371  1.00  0.00    -0.140 A  
HETATM    4  C   UNL     1      -9.281  12.133  68.639  1.00  0.00    -0.015 A  
HETATM    5  C   UNL     1      -8.635   9.332  68.764  1.00  0.00    -0.131 A  
HETATM    6  C   UNL     1     -10.265  11.149  68.796  1.00  0.00    -0.219 A  
HETATM    7  C   UNL     1      -9.956   9.790  68.924  1.00  0.00    -0.176 A  
HETATM    8  C   UNL     1      -7.688  10.322  68.410  1.00  0.00    -0.093 A  
BRANCH   4   9
HETATM    9  N   UNL     1      -9.632  13.488  68.768  1.00  0.00    -0.413 NA 
HETATM   10  H   UNL     1     -10.105  13.762  69.629  1.00  0.00     0.000 HD 
BRANCH   9  11
HETATM   11  C   UNL     1      -9.396  14.496  67.828  1.00  0.00    -0.198 A  
HETATM   12  N   UNL     1     -10.053  14.390  66.667  1.00  0.00    -0.267 NA 
HETATM   13  N   UNL     1      -8.580  15.522  68.130  1.00  0.00    -0.151 NA 
HETATM   14  C   UNL     1      -8.505  16.558  67.282  1.00  0.00    -0.180 A  
HETATM   15  C   UNL     1      -9.184  16.550  66.082  1.00  0.00    -0.338 A  
HETATM   16  C   UNL     1      -9.929  15.422  65.818  1.00  0.00    -0.362 A  
BRANCH  14  17
HETATM   17  C   UNL     1      -7.680  17.693  67.717  1.00  0.00    -0.210 A  
HETATM   18  C   UNL     1      -5.808  20.815  67.478  1.00  0.00    -0.296 A  
HETATM   19  C   UNL     1      -7.270  17.875  69.030  1.00  0.00    -0.209 A  
HETATM   20  C   UNL     1      -5.838  21.166  66.126  1.00  0.00    -0.310 A  
HETATM   21  C   UNL     1      -6.469  20.350  65.196  1.00  0.00    -0.323 A  
HETATM   22  N   UNL     1      -6.526  19.021  69.104  1.00  0.00    -0.276 NA 
HETATM   23  C   UNL     1      -6.435  19.620  67.872  1.00  0.00    -0.226 A  
HETATM   24  C   UNL     1      -5.906  19.525  70.311  1.00  0.00    -0.259 C  
HETATM   25  C   UNL     1      -7.111  18.791  66.963  1.00  0.00    -0.213 A  
HETATM   26  C   UNL     1      -7.114  19.173  65.603  1.00  0.00    -0.265 A  
ENDBRANCH  14  17
ENDBRANCH   9  11
ENDBRANCH   4   9
BRANCH   7  27
HETATM   27  N   UNL     1     -10.968   8.941  69.420  1.00  0.00    -0.418 N  
HETATM   28  O   UNL     1     -10.659   9.294  71.695  1.00  0.00    -0.349 OA 
HETATM   29  H   UNL     1     -11.571   8.471  68.746  1.00  0.00     0.000 HD 
HETATM   30  C   UNL     1     -11.191   8.708  70.759  1.00  0.00    -0.261 C  
BRANCH  30  31
HETATM   31  C   UNL     1     -12.254   7.693  70.981  1.00  0.00    -0.261 C  
HETATM   32  C   UNL     1     -11.984   6.580  71.675  1.00  0.00    -0.387 C  
ENDBRANCH  30  31
ENDBRANCH   7  27
BRANCH   5  33
HETATM   33  N   UNL     1      -8.257   8.001  68.941  1.00  0.00    -0.124 NA 
HETATM   34  C   UNL     1      -7.903   7.125  67.828  1.00  0.00    -0.114 C  
BRANCH  33  35
HETATM   35  C   UNL     1      -8.043   7.448  70.290  1.00  0.00    -0.116 C  
BRANCH  35  36
HETATM   36  C   UNL     1      -7.778   5.925  70.232  1.00  0.00    -0.096 C  
BRANCH  36  37
HETATM   37  N   UNL     1      -8.006   5.193  71.496  1.00  0.00    -0.110 NA 
HETATM   38  C   UNL     1      -8.807   3.997  71.208  1.00  0.00    -0.099 C  
HETATM   39  C   UNL     1      -8.707   6.021  72.482  1.00  0.00    -0.122 C  
ENDBRANCH  36  37
ENDBRANCH  35  36
ENDBRANCH  33  35
ENDBRANCH   5  33
ENDBRANCH   2   3
TORSDOF 10
ENDMDL
MODEL      205
REMARK 921   NORMALIZED FREE ENERGY PREDICTED BY IDOCK:   -4.55 KCAL/MOL
REMARK 922        TOTAL FREE ENERGY PREDICTED BY IDOCK:   -8.93 KCAL/MOL
REMARK 923 INTER-LIGAND FREE ENERGY PREDICTED BY IDOCK:   -7.58 KCAL/MOL
REMARK 924 INTRA-LIGAND FREE ENERGY PREDICTED BY IDOCK:   -1.34 KCAL/MOL
REMARK 927      BINDING AFFINITY PREDICTED BY RF-SCORE:    0.00 PKD
ROOT
HETATM    1  C   UNL     1     -10.216   9.428  66.005  1.00  0.00    -0.134 C  
HETATM    2  O   UNL     1     -10.774  10.337  66.947  1.00  0.00    -0.239 OA 
ENDROOT
BRANCH   2   3
HETATM    3  C   UNL     1      -9.968  11.359  67.387  1.00  0.00    -0.186 A  
HETATM    4  C   UNL     1      -8.838  11.248  68.200  1.00  0.00    -0.159 A  
HETATM    5  C   UNL     1      -9.718  13.836  67.300  1.00  0.00    -0.242 A  
HETATM    6  C   UNL     1      -8.077  12.406  68.406  1.00  0.00    -0.143 A  
HETATM    7  C   UNL     1      -8.526  13.677  68.032  1.00  0.00    -0.174 A  
HETATM    8  C   UNL     1     -10.369  12.634  66.933  1.00  0.00    -0.244 A  
BRANCH   4   9
HETATM    9  N   UNL     1      -8.450  10.047  68.818  1.00  0.00    -0.120 NA 
HETATM   10  H   UNL     1      -7.515   9.700  68.606  1.00  0.00     0.000 HD 
BRANCH   9  11
HETATM   11  C   UNL     1      -9.224   9.281  69.695  1.00  0.00    -0.175 A  
HETATM   12  N   UNL     1     -10.106   9.950  70.447  1.00  0.00    -0.250 NA 
HETATM   13  N   UNL     1      -9.090   7.943  69.720  1.00  0.00    -0.146 NA 
HETATM   14  C   UNL     1      -9.960   7.220  70.442  1.00  0.00    -0.191 A  
HETATM   15  C   UNL     1     -10.928   7.828  71.212  1.00  0.00    -0.259 A  
HETATM   16  C   UNL     1     -10.937   9.205  71.191  1.00  0.00    -0.320 A  
BRANCH  14  17
HETATM   17  C   UNL     1      -9.826   5.760  70.344  1.00  0.00    -0.241 A  
HETATM   18  C   UNL     1      -9.577   2.295  71.457  1.00  0.00    -0.214 A  
HETATM   19  C   UNL     1      -9.765   5.082  69.136  1.00  0.00    -0.173 A  
HETATM   20  C   UNL     1      -9.544   2.352  72.853  1.00  0.00    -0.143 A  
HETATM   21  C   UNL     1      -9.573   3.573  73.513  1.00  0.00    -0.137 A  
HETATM   22  N   UNL     1      -9.649   3.741  69.388  1.00  0.00    -0.184 NA 
HETATM   23  C   UNL     1      -9.643   3.503  70.740  1.00  0.00    -0.176 A  
HETATM   24  C   UNL     1      -9.533   2.718  68.372  1.00  0.00    -0.145 C  
HETATM   25  C   UNL     1      -9.708   4.752  71.377  1.00  0.00    -0.240 A  
HETATM   26  C   UNL     1      -9.665   4.772  72.789  1.00  0.00    -0.171 A  
ENDBRANCH  14  17
ENDBRANCH   9  11
ENDBRANCH   4   9
BRANCH   7  27
HETATM   27  N   UNL     1      -7.859  14.788  68.589  1.00  0.00    -0.133 N  
HETATM   28  O   UNL     1      -6.781  15.563  66.683  1.00  0.00    -0.022 OA 
HETATM   29  H   UNL     1      -8.031  15.007  69.570  1.00  0.00     0.000 HD 
HETATM   30  C   UNL     1      -6.989  15.596  67.890  1.00  0.00    -0.138 C  
BRANCH  30  31
HETATM   31  C   UNL     1      -6.358  16.624  68.760  1.00  0.00    -0.152 C  
HETATM   32  C   UNL     1      -5.540  16.252  69.752  1.00  0.00    -0.156 C  
ENDBRANCH  30  31
ENDBRANCH   7  27
BRANCH   5  33
HETATM   33  N   UNL     1     -10.247  15.079  66.953  1.00  0.00    -0.255 NA 
HETATM   34  C   UNL     1     -10.391  15.518  65.569  1.00  0.00    -0.394 C  
BRANCH  33  35
HETATM   35  C   UNL     1     -10.836  15.962  67.975  1.00  0.00    -0.317 C  
BRANCH  35  36
HETATM   36  C   UNL     1     -10.857  17.433  67.495  1.00  0.00    -0.203 C  
BRANCH  36  37
HETATM   37  N   UNL     1      -9.663  18.232  67.846  1.00  0.00    -0.293 NA 
HETATM   38  C   UNL     1     -10.069  19.309  68.757  1.00  0.00    -0.401 C  
HETATM   39  C   UNL     1      -9.033  18.812  66.657  1.00  0.00    -0.315 C  
ENDBRANCH  36  37
ENDBRANCH  35  36
ENDBRANCH  33  35
ENDBRANCH   5  33
ENDBRANCH   2   3
TORSDOF 10
ENDMDL
MODEL      206
REMARK 921   NORMALIZED FREE ENERGY PREDICTED BY IDOCK:   -4.54 KCAL/MOL
REMARK 922        TOTAL FREE ENERGY PREDICTED BY IDOCK:   -8.91 KCAL/MOL
REMARK 923 INTER-LIGAND FREE ENERGY PREDICTED BY IDOCK:   -7.31 KCAL/MOL
REMARK 924 INTRA-LIGAND FREE ENERGY PREDICTED BY IDOCK:   -1.60 KCAL/MOL
REMARK 927      BINDING AFFINITY PREDICTED BY RF-SCORE:    0.00 PKD
ROOT
HETATM    1  C   UNL     1      -9.271   9.663  64.266  1.00  0.00    -0.178 C  
HETATM    2  O   UNL     1      -8.712   9.545  65.570  1.00  0.00    -0.137 OA 
ENDROOT
BRANCH   2   3
HETATM    3  C   UNL     1      -9.189  10.397  66.536  1.00  0.00    -0.160 A  
HETATM    4  C   UNL     1     -10.215  10.144  67.448  1.00  0.00    -0.218 A  
HETATM    5  C   UNL     1      -8.887  12.696  67.446  1.00  0.00    -0.189 A  
HETATM    6  C   UNL     1     -10.441  11.100  68.446  1.00  0.00    -0.211 A  
HETATM    7  C   UNL     1      -9.851  12.369  68.418  1.00  0.00    -0.198 A  
HETATM    8  C   UNL     1      -8.530  11.645  66.568  1.00  0.00    -0.141 A  
BRANCH   4   9
HETATM    9  N   UNL     1     -11.023   8.994  67.397  1.00  0.00    -0.415 NA 
HETATM   10  H   UNL     1     -11.974   9.114  67.050  1.00  0.00     0.000 HD 
BRANCH   9  11
HETATM   11  C   UNL     1     -10.647   7.702  67.778  1.00  0.00    -0.196 A  
HETATM   12  N   UNL     1     -10.651   7.445  69.091  1.00  0.00    -0.218 NA 
HETATM   13  N   UNL     1     -10.347   6.784  66.842  1.00  0.00    -0.245 NA 
HETATM   14  C   UNL     1     -10.157   5.512  67.222  1.00  0.00    -0.183 A  
HETATM   15  C   UNL     1     -10.188   5.153  68.553  1.00  0.00    -0.182 A  
HETATM   16  C   UNL     1     -10.418   6.173  69.448  1.00  0.00    -0.256 A  
BRANCH  14  17
HETATM   17  C   UNL     1      -9.938   4.539  66.144  1.00  0.00    -0.267 A  
HETATM   18  C   UNL     1      -8.262   1.938  64.211  1.00  0.00    -0.074 A  
HETATM   19  C   UNL     1     -10.860   4.301  65.135  1.00  0.00    -0.043 A  
HETATM   20  C   UNL     1      -7.028   1.743  64.837  1.00  0.00    -0.043 A  
HETATM   21  C   UNL     1      -6.666   2.504  65.941  1.00  0.00    -0.039 A  
HETATM   22  N   UNL     1     -10.360   3.341  64.298  1.00  0.00    -0.147 NA 
HETATM   23  C   UNL     1      -9.127   2.918  64.728  1.00  0.00    -0.136 A  
HETATM   24  C   UNL     1     -11.031   2.849  63.114  1.00  0.00    -0.171 C  
HETATM   25  C   UNL     1      -8.806   3.681  65.863  1.00  0.00    -0.125 A  
HETATM   26  C   UNL     1      -7.546   3.462  66.465  1.00  0.00    -0.077 A  
ENDBRANCH  14  17
ENDBRANCH   9  11
ENDBRANCH   4   9
BRANCH   7  27
HETATM   27  N   UNL     1     -10.406  13.358  69.257  1.00  0.00    -0.419 N  
HETATM   28  O   UNL     1     -11.998  14.221  67.804  1.00  0.00    -0.371 OA 
HETATM   29  H   UNL     1     -10.064  13.419  70.216  1.00  0.00     0.000 HD 
HETATM   30  C   UNL     1     -11.381  14.246  68.862  1.00  0.00    -0.274 C  
BRANCH  30  31
HETATM   31  C   UNL     1     -11.699  15.238  69.924  1.00  0.00    -0.349 C  
HETATM   32  C   UNL     1     -11.155  16.460  69.883  1.00  0.00    -0.313 C  
ENDBRANCH  30  31
ENDBRANCH   7  27
BRANCH   5  33
HETATM   33  N   UNL     1      -8.311  13.961  67.331  1.00  0.00    -0.189 NA 
HETATM   34  C   UNL     1      -8.793  14.966  66.389  1.00  0.00    -0.161 C  
BRANCH  33  35
HETATM   35  C   UNL     1      -7.270  14.407  68.274  1.00  0.00    -0.122 C  
BRANCH  35  36
HETATM   36  C   UNL     1      -7.676  15.730  68.966  1.00  0.00    -0.202 C  
BRANCH  36  37
HETATM   37  N   UNL     1      -6.879  16.916  68.586  1.00  0.00    -0.173 NA 
HETATM   38  C   UNL     1      -5.720  17.009  69.482  1.00  0.00    -0.193 C  
HETATM   39  C   UNL     1      -7.666  18.148  68.680  1.00  0.00    -0.297 C  
ENDBRANCH  36  37
ENDBRANCH  35  36
ENDBRANCH  33  35
ENDBRANCH   5  33
ENDBRANCH   2   3
TORSDOF 10
ENDMDL
MODEL      207
REMARK 921   NORMALIZED FREE ENERGY PREDICTED BY IDOCK:   -4.54 KCAL/MOL
REMARK 922        TOTAL FREE ENERGY PREDICTED BY IDOCK:   -8.90 KCAL/MOL
REMARK 923 INTER-LIGAND FREE ENERGY PREDICTED BY IDOCK:   -7.40 KCAL/MOL
REMARK 924 INTRA-LIGAND FREE ENERGY PREDICTED BY IDOCK:   -1.51 KCAL/MOL
REMARK 927      BINDING AFFINITY PREDICTED BY RF-SCORE:    0.00 PKD
ROOT
HETATM    1  C   UNL     1      -7.894   9.134  71.161  1.00  0.00    -0.076 C  
HETATM    2  O   UNL     1      -8.835   8.104  71.447  1.00  0.00    -0.131 OA 
ENDROOT
BRANCH   2   3
HETATM    3  C   UNL     1      -9.322   7.386  70.382  1.00  0.00    -0.161 A  
HETATM    4  C   UNL     1     -10.641   7.353  69.923  1.00  0.00    -0.236 A  
HETATM    5  C   UNL     1      -8.622   5.770  68.622  1.00  0.00    -0.109 A  
HETATM    6  C   UNL     1     -10.889   6.667  68.728  1.00  0.00    -0.321 A  
HETATM    7  C   UNL     1      -9.935   5.841  68.122  1.00  0.00    -0.148 A  
HETATM    8  C   UNL     1      -8.340   6.624  69.714  1.00  0.00    -0.132 A  
BRANCH   4   9
HETATM    9  N   UNL     1     -11.709   7.958  70.608  1.00  0.00    -0.439 NA 
HETATM   10  H   UNL     1     -12.303   7.347  71.168  1.00  0.00     0.000 HD 
BRANCH   9  11
HETATM   11  C   UNL     1     -12.036   9.317  70.594  1.00  0.00    -0.152 A  
HETATM   12  N   UNL     1     -12.630   9.796  71.693  1.00  0.00    -0.385 NA 
HETATM   13  N   UNL     1     -11.713  10.077  69.532  1.00  0.00    -0.069 NA 
HETATM   14  C   UNL     1     -11.881  11.406  69.614  1.00  0.00    -0.362 A  
HETATM   15  C   UNL     1     -12.446  11.987  70.729  1.00  0.00    -0.372 A  
HETATM   16  C   UNL     1     -12.823  11.123  71.733  1.00  0.00    -0.374 A  
BRANCH  14  17
HETATM   17  C   UNL     1     -11.413  12.189  68.463  1.00  0.00    -0.349 A  
HETATM   18  C   UNL     1     -10.194  12.870  65.093  1.00  0.00    -0.288 A  
HETATM   19  C   UNL     1     -11.344  13.575  68.464  1.00  0.00    -0.292 A  
HETATM   20  C   UNL     1      -9.997  11.618  64.506  1.00  0.00    -0.290 A  
HETATM   21  C   UNL     1     -10.236  10.453  65.225  1.00  0.00    -0.332 A  
HETATM   22  N   UNL     1     -10.877  13.995  67.248  1.00  0.00    -0.281 NA 
HETATM   23  C   UNL     1     -10.641  12.922  66.425  1.00  0.00    -0.271 A  
HETATM   24  C   UNL     1     -10.648  15.376  66.885  1.00  0.00    -0.309 C  
HETATM   25  C   UNL     1     -10.924  11.765  67.168  1.00  0.00    -0.326 A  
HETATM   26  C   UNL     1     -10.706  10.515  66.545  1.00  0.00    -0.191 A  
ENDBRANCH  14  17
ENDBRANCH   9  11
ENDBRANCH   4   9
BRANCH   7  27
HETATM   27  N   UNL     1     -10.392   4.940  67.137  1.00  0.00    -0.165 N  
HETATM   28  O   UNL     1      -9.273   5.809  65.297  1.00  0.00    -0.009 OA 
HETATM   29  H   UNL     1     -10.989   4.169  67.435  1.00  0.00     0.000 HD 
HETATM   30  C   UNL     1     -10.082   5.037  65.799  1.00  0.00    -0.123 C  
BRANCH  30  31
HETATM   31  C   UNL     1     -10.786   4.011  64.986  1.00  0.00    -0.062 C  
HETATM   32  C   UNL     1     -10.093   3.226  64.152  1.00  0.00    -0.175 C  
ENDBRANCH  30  31
ENDBRANCH   7  27
BRANCH   5  33
HETATM   33  N   UNL     1      -7.646   4.920  68.099  1.00  0.00    -0.081 NA 
HETATM   34  C   UNL     1      -6.531   5.401  67.290  1.00  0.00    -0.051 C  
BRANCH  33  35
HETATM   35  C   UNL     1      -7.607   3.494  68.470  1.00  0.00    -0.053 C  
BRANCH  35  36
HETATM   36  C   UNL     1      -7.143   3.313  69.935  1.00  0.00    -0.041 C  
BRANCH  36  37
HETATM   37  N   UNL     1      -7.996   2.438  70.767  1.00  0.00    -0.045 NA 
HETATM   38  C   UNL     1      -9.386   2.899  70.662  1.00  0.00    -0.150 C  
HETATM   39  C   UNL     1      -7.583   2.460  72.173  1.00  0.00    -0.044 C  
ENDBRANCH  36  37
ENDBRANCH  35  36
ENDBRANCH  33  35
ENDBRANCH   5  33
ENDBRANCH   2   3
TORSDOF 10
ENDMDL
MODEL      208
REMARK 921   NORMALIZED FREE ENERGY PREDICTED BY IDOCK:   -4.50 KCAL/MOL
REMARK 922        TOTAL FREE ENERGY PREDICTED BY IDOCK:   -8.84 KCAL/MOL
REMARK 923 INTER-LIGAND FREE ENERGY PREDICTED BY IDOCK:   -7.24 KCAL/MOL
REMARK 924 INTRA-LIGAND FREE ENERGY PREDICTED BY IDOCK:   -1.60 KCAL/MOL
REMARK 927      BINDING AFFINITY PREDICTED BY RF-SCORE:    0.00 PKD
ROOT
HETATM    1  C   UNL     1      -7.685   8.787  71.826  1.00  0.00    -0.041 C  
HETATM    2  O   UNL     1      -8.921   8.098  71.667  1.00  0.00    -0.138 OA 
ENDROOT
BRANCH   2   3
HETATM    3  C   UNL     1      -9.121   7.432  70.482  1.00  0.00    -0.157 A  
HETATM    4  C   UNL     1     -10.251   7.491  69.665  1.00  0.00    -0.205 A  
HETATM    5  C   UNL     1      -8.035   5.806  68.940  1.00  0.00    -0.098 A  
HETATM    6  C   UNL     1     -10.183   6.844  68.425  1.00  0.00    -0.191 A  
HETATM    7  C   UNL     1      -9.143   5.970  68.088  1.00  0.00    -0.118 A  
HETATM    8  C   UNL     1      -8.032   6.621  70.097  1.00  0.00    -0.112 A  
BRANCH   4   9
HETATM    9  N   UNL     1     -11.436   8.151  70.036  1.00  0.00    -0.465 NA 
HETATM   10  H   UNL     1     -12.170   7.580  70.454  1.00  0.00     0.000 HD 
BRANCH   9  11
HETATM   11  C   UNL     1     -11.704   9.516  69.887  1.00  0.00     0.098 A  
HETATM   12  N   UNL     1     -12.099  10.167  70.986  1.00  0.00    -0.345 NA 
HETATM   13  N   UNL     1     -11.520  10.112  68.695  1.00  0.00    -0.112 NA 
HETATM   14  C   UNL     1     -11.617  11.448  68.620  1.00  0.00    -0.320 A  
HETATM   15  C   UNL     1     -11.977  12.200  69.717  1.00  0.00    -0.372 A  
HETATM   16  C   UNL     1     -12.229  11.497  70.874  1.00  0.00    -0.322 A  
BRANCH  14  17
HETATM   17  C   UNL     1     -11.302  12.047  67.317  1.00  0.00    -0.394 A  
HETATM   18  C   UNL     1     -10.400  14.626  64.898  1.00  0.00    -0.382 A  
HETATM   19  C   UNL     1     -11.234  11.316  66.140  1.00  0.00    -0.065 A  
HETATM   20  C   UNL     1     -10.354  15.819  65.623  1.00  0.00    -0.411 A  
HETATM   21  C   UNL     1     -10.658  15.837  66.979  1.00  0.00    -0.316 A  
HETATM   22  N   UNL     1     -10.915  12.163  65.112  1.00  0.00    -0.301 NA 
HETATM   23  C   UNL     1     -10.756  13.446  65.575  1.00  0.00    -0.294 A  
HETATM   24  C   UNL     1     -10.779  11.765  63.728  1.00  0.00    -0.419 C  
HETATM   25  C   UNL     1     -11.035  13.423  66.950  1.00  0.00    -0.295 A  
HETATM   26  C   UNL     1     -10.987  14.650  67.650  1.00  0.00    -0.296 A  
ENDBRANCH  14  17
ENDBRANCH   9  11
ENDBRANCH   4   9
BRANCH   7  27
HETATM   27  N   UNL     1      -9.347   5.118  66.983  1.00  0.00    -0.120 N  
HETATM   28  O   UNL     1      -8.198   6.329  65.369  1.00  0.00    -0.132 OA 
HETATM   29  H   UNL     1      -9.841   4.240  67.141  1.00  0.00     0.000 HD 
HETATM   30  C   UNL     1      -8.921   5.398  65.704  1.00  0.00    -0.156 C  
BRANCH  30  31
HETATM   31  C   UNL     1      -9.365   4.369  64.727  1.00  0.00    -0.160 C  
HETATM   32  C   UNL     1     -10.646   3.981  64.698  1.00  0.00    -0.188 C  
ENDBRANCH  30  31
ENDBRANCH   7  27
BRANCH   5  33
HETATM   33  N   UNL     1      -7.000   4.905  68.688  1.00  0.00    -0.052 NA 
HETATM   34  C   UNL     1      -5.680   5.326  68.230  1.00  0.00    -0.016 C  
BRANCH  33  35
HETATM   35  C   UNL     1      -7.142   3.477  69.025  1.00  0.00    -0.049 C  
BRANCH  35  36
HETATM   36  C   UNL     1      -7.013   3.249  70.549  1.00  0.00    -0.034 C  
BRANCH  36  37
HETATM   37  N   UNL     1      -8.290   3.173  71.290  1.00  0.00    -0.062 NA 
HETATM   38  C   UNL     1      -8.140   2.208  72.386  1.00  0.00    -0.054 C  
HETATM   39  C   UNL     1      -9.394   2.754  70.421  1.00  0.00    -0.147 C  
ENDBRANCH  36  37
ENDBRANCH  35  36
ENDBRANCH  33  35
ENDBRANCH   5  33
ENDBRANCH   2   3
TORSDOF 10
ENDMDL
MODEL      209
REMARK 921   NORMALIZED FREE ENERGY PREDICTED BY IDOCK:   -4.49 KCAL/MOL
REMARK 922        TOTAL FREE ENERGY PREDICTED BY IDOCK:   -8.83 KCAL/MOL
REMARK 923 INTER-LIGAND FREE ENERGY PREDICTED BY IDOCK:   -7.34 KCAL/MOL
REMARK 924 INTRA-LIGAND FREE ENERGY PREDICTED BY IDOCK:   -1.49 KCAL/MOL
REMARK 927      BINDING AFFINITY PREDICTED BY RF-SCORE:    0.00 PKD
ROOT
HETATM    1  C   UNL     1     -11.083  14.061  69.150  1.00  0.00    -0.259 C  
HETATM    2  O   UNL     1      -9.825  14.603  69.538  1.00  0.00    -0.068 OA 
ENDROOT
BRANCH   2   3
HETATM    3  C   UNL     1      -9.115  15.288  68.582  1.00  0.00    -0.193 A  
HETATM    4  C   UNL     1      -7.727  15.410  68.493  1.00  0.00    -0.132 A  
HETATM    5  C   UNL     1      -9.415  16.710  66.560  1.00  0.00    -0.266 A  
HETATM    6  C   UNL     1      -7.207  16.032  67.351  1.00  0.00    -0.219 A  
HETATM    7  C   UNL     1      -8.012  16.724  66.439  1.00  0.00    -0.321 A  
HETATM    8  C   UNL     1      -9.926  15.910  67.609  1.00  0.00    -0.237 A  
BRANCH   4   9
HETATM    9  N   UNL     1      -6.849  14.953  69.491  1.00  0.00    -0.160 NA 
HETATM   10  H   UNL     1      -6.442  15.657  70.106  1.00  0.00     0.000 HD 
BRANCH   9  11
HETATM   11  C   UNL     1      -6.478  13.624  69.721  1.00  0.00    -0.060 A  
HETATM   12  N   UNL     1      -5.648  13.408  70.747  1.00  0.00    -0.172 NA 
HETATM   13  N   UNL     1      -6.986  12.641  68.956  1.00  0.00    -0.090 NA 
HETATM   14  C   UNL     1      -6.752  11.367  69.303  1.00  0.00    -0.113 A  
HETATM   15  C   UNL     1      -5.942  11.056  70.374  1.00  0.00    -0.141 A  
HETATM   16  C   UNL     1      -5.397  12.125  71.049  1.00  0.00    -0.126 A  
BRANCH  14  17
HETATM   17  C   UNL     1      -7.420  10.341  68.491  1.00  0.00    -0.084 A  
HETATM   18  C   UNL     1      -9.370   8.920  65.754  1.00  0.00    -0.286 A  
HETATM   19  C   UNL     1      -7.366   8.986  68.782  1.00  0.00    -0.076 A  
HETATM   20  C   UNL     1      -9.813  10.012  65.004  1.00  0.00    -0.374 A  
HETATM   21  C   UNL     1      -9.506  11.310  65.393  1.00  0.00    -0.251 A  
HETATM   22  N   UNL     1      -8.081   8.302  67.836  1.00  0.00    -0.125 NA 
HETATM   23  C   UNL     1      -8.605   9.167  66.908  1.00  0.00    -0.123 A  
HETATM   24  C   UNL     1      -8.272   6.868  67.824  1.00  0.00    -0.117 C  
HETATM   25  C   UNL     1      -8.249  10.464  67.309  1.00  0.00    -0.121 A  
HETATM   26  C   UNL     1      -8.721  11.545  66.531  1.00  0.00    -0.183 A  
ENDBRANCH  14  17
ENDBRANCH   9  11
ENDBRANCH   4   9
BRANCH   7  27
HETATM   27  N   UNL     1      -7.366  17.594  65.536  1.00  0.00     0.198 N  
HETATM   28  O   UNL     1      -6.330  19.004  67.063  1.00  0.00    -0.186 OA 
HETATM   29  H   UNL     1      -7.442  17.392  64.540  1.00  0.00     0.000 HD 
HETATM   30  C   UNL     1      -6.638  18.699  65.917  1.00  0.00    -0.255 C  
BRANCH  30  31
HETATM   31  C   UNL     1      -6.159  19.484  64.749  1.00  0.00    -0.313 C  
HETATM   32  C   UNL     1      -6.161  20.822  64.793  1.00  0.00    -0.317 C  
ENDBRANCH  30  31
ENDBRANCH   7  27
BRANCH   5  33
HETATM   33  N   UNL     1     -10.265  17.430  65.720  1.00  0.00    -0.599 NA 
HETATM   34  C   UNL     1     -11.081  16.795  64.690  1.00  0.00     0.076 C  
BRANCH  33  35
HETATM   35  C   UNL     1     -10.501  18.869  65.935  1.00  0.00    -0.391 C  
BRANCH  35  36
HETATM   36  C   UNL     1     -10.938  19.150  67.392  1.00  0.00    -0.320 C  
BRANCH  36  37
HETATM   37  N   UNL     1     -10.054  20.056  68.156  1.00  0.00    -0.427 NA 
HETATM   38  C   UNL     1      -9.233  20.820  67.209  1.00  0.00    -0.230 C  
HETATM   39  C   UNL     1      -9.180  19.315  69.070  1.00  0.00    -0.276 C  
ENDBRANCH  36  37
ENDBRANCH  35  36
ENDBRANCH  33  35
ENDBRANCH   5  33
ENDBRANCH   2   3
TORSDOF 10
ENDMDL
MODEL      210
REMARK 921   NORMALIZED FREE ENERGY PREDICTED BY IDOCK:   -4.49 KCAL/MOL
REMARK 922        TOTAL FREE ENERGY PREDICTED BY IDOCK:   -8.83 KCAL/MOL
REMARK 923 INTER-LIGAND FREE ENERGY PREDICTED BY IDOCK:   -7.89 KCAL/MOL
REMARK 924 INTRA-LIGAND FREE ENERGY PREDICTED BY IDOCK:   -0.94 KCAL/MOL
REMARK 927      BINDING AFFINITY PREDICTED BY RF-SCORE:    0.00 PKD
ROOT
HETATM    1  C   UNL     1      -5.989  18.198  65.449  1.00  0.00    -0.168 C  
HETATM    2  O   UNL     1      -7.265  17.604  65.232  1.00  0.00    -0.110 OA 
ENDROOT
BRANCH   2   3
HETATM    3  C   UNL     1      -7.877  17.019  66.315  1.00  0.00    -0.311 A  
HETATM    4  C   UNL     1      -9.162  16.476  66.362  1.00  0.00    -0.295 A  
HETATM    5  C   UNL     1      -7.511  16.477  68.718  1.00  0.00    -0.216 A  
HETATM    6  C   UNL     1      -9.531  15.796  67.529  1.00  0.00    -0.218 A  
HETATM    7  C   UNL     1      -8.768  15.845  68.701  1.00  0.00    -0.199 A  
HETATM    8  C   UNL     1      -7.071  16.987  67.473  1.00  0.00    -0.173 A  
BRANCH   4   9
HETATM    9  N   UNL     1     -10.086  16.594  65.309  1.00  0.00    -0.555 NA 
HETATM   10  H   UNL     1     -10.228  17.527  64.922  1.00  0.00     0.000 HD 
BRANCH   9  11
HETATM   11  C   UNL     1     -10.831  15.555  64.743  1.00  0.00    -0.363 A  
HETATM   12  N   UNL     1     -11.956  15.907  64.110  1.00  0.00    -0.616 NA 
HETATM   13  N   UNL     1     -10.383  14.289  64.814  1.00  0.00    -0.416 NA 
HETATM   14  C   UNL     1     -11.024  13.337  64.119  1.00  0.00    -0.354 A  
HETATM   15  C   UNL     1     -12.168  13.623  63.404  1.00  0.00    -0.236 A  
HETATM   16  C   UNL     1     -12.601  14.929  63.456  1.00  0.00     1.072 A  
BRANCH  14  17
HETATM   17  C   UNL     1     -10.426  11.996  64.153  1.00  0.00    -0.393 A  
HETATM   18  C   UNL     1      -9.270   8.832  65.555  1.00  0.00    -0.202 A  
HETATM   19  C   UNL     1      -9.974  11.336  63.020  1.00  0.00    -0.311 A  
HETATM   20  C   UNL     1      -9.466   8.940  66.933  1.00  0.00    -0.230 A  
HETATM   21  C   UNL     1      -9.976  10.107  67.487  1.00  0.00    -0.231 A  
HETATM   22  N   UNL     1      -9.482  10.113  63.388  1.00  0.00    -0.295 NA 
HETATM   23  C   UNL     1      -9.604   9.931  64.743  1.00  0.00    -0.271 A  
HETATM   24  C   UNL     1      -8.899   9.151  62.479  1.00  0.00    -0.185 C  
HETATM   25  C   UNL     1     -10.153  11.112  65.267  1.00  0.00    -0.329 A  
HETATM   26  C   UNL     1     -10.331  11.189  66.667  1.00  0.00    -0.286 A  
ENDBRANCH  14  17
ENDBRANCH   9  11
ENDBRANCH   4   9
BRANCH   7  27
HETATM   27  N   UNL     1      -9.391  15.428  69.896  1.00  0.00    -0.394 N  
HETATM   28  O   UNL     1     -11.545  16.186  69.471  1.00  0.00    -0.316 OA 
HETATM   29  H   UNL     1      -8.835  14.898  70.566  1.00  0.00     0.000 HD 
HETATM   30  C   UNL     1     -10.705  15.692  70.214  1.00  0.00    -0.338 C  
BRANCH  30  31
HETATM   31  C   UNL     1     -11.057  15.220  71.579  1.00  0.00    -0.272 C  
HETATM   32  C   UNL     1     -12.002  15.853  72.284  1.00  0.00    -0.617 C  
ENDBRANCH  30  31
ENDBRANCH   7  27
BRANCH   5  33
HETATM   33  N   UNL     1      -6.734  16.611  69.869  1.00  0.00    -0.001 NA 
HETATM   34  C   UNL     1      -5.965  15.508  70.436  1.00  0.00    -0.065 C  
BRANCH  33  35
HETATM   35  C   UNL     1      -6.524  17.931  70.491  1.00  0.00     0.960 C  
BRANCH  35  36
HETATM   36  C   UNL     1      -5.189  18.559  70.028  1.00  0.00    -0.216 C  
BRANCH  36  37
HETATM   37  N   UNL     1      -5.126  20.035  70.090  1.00  0.00    -0.197 NA 
HETATM   38  C   UNL     1      -5.562  20.468  71.423  1.00  0.00    -0.194 C  
HETATM   39  C   UNL     1      -5.982  20.655  69.073  1.00  0.00    -0.344 C  
ENDBRANCH  36  37
ENDBRANCH  35  36
ENDBRANCH  33  35
ENDBRANCH   5  33
ENDBRANCH   2   3
TORSDOF 10
ENDMDL
MODEL      211
REMARK 921   NORMALIZED FREE ENERGY PREDICTED BY IDOCK:   -4.48 KCAL/MOL
REMARK 922        TOTAL FREE ENERGY PREDICTED BY IDOCK:   -8.81 KCAL/MOL
REMARK 923 INTER-LIGAND FREE ENERGY PREDICTED BY IDOCK:   -7.62 KCAL/MOL
REMARK 924 INTRA-LIGAND FREE ENERGY PREDICTED BY IDOCK:   -1.19 KCAL/MOL
REMARK 927      BINDING AFFINITY PREDICTED BY RF-SCORE:    0.00 PKD
ROOT
HETATM    1  C   UNL     1      -6.086  14.588  70.078  1.00  0.00    -0.151 C  
HETATM    2  O   UNL     1      -6.339  13.260  69.632  1.00  0.00    -0.115 OA 
ENDROOT
BRANCH   2   3
HETATM    3  C   UNL     1      -7.339  13.089  68.705  1.00  0.00    -0.064 A  
HETATM    4  C   UNL     1      -7.693  11.902  68.061  1.00  0.00    -0.132 A  
HETATM    5  C   UNL     1      -9.091  14.343  67.457  1.00  0.00    -0.195 A  
HETATM    6  C   UNL     1      -8.842  11.923  67.260  1.00  0.00    -0.179 A  
HETATM    7  C   UNL     1      -9.491  13.111  66.906  1.00  0.00    -0.244 A  
HETATM    8  C   UNL     1      -8.053  14.271  68.417  1.00  0.00    -0.142 A  
BRANCH   4   9
HETATM    9  N   UNL     1      -6.949  10.714  68.173  1.00  0.00    -0.072 NA 
HETATM   10  H   UNL     1      -6.143  10.616  67.557  1.00  0.00     0.000 HD 
BRANCH   9  11
HETATM   11  C   UNL     1      -7.210   9.654  69.047  1.00  0.00    -0.071 A  
HETATM   12  N   UNL     1      -7.100   9.921  70.353  1.00  0.00    -0.174 NA 
HETATM   13  N   UNL     1      -7.592   8.459  68.562  1.00  0.00    -0.094 NA 
HETATM   14  C   UNL     1      -8.001   7.514  69.421  1.00  0.00    -0.123 A  
HETATM   15  C   UNL     1      -7.961   7.723  70.783  1.00  0.00    -0.101 A  
HETATM   16  C   UNL     1      -7.476   8.945  71.193  1.00  0.00    -0.106 A  
BRANCH  14  17
HETATM   17  C   UNL     1      -8.504   6.270  68.825  1.00  0.00    -0.119 A  
HETATM   18  C   UNL     1      -9.530   2.774  68.630  1.00  0.00    -0.191 A  
HETATM   19  C   UNL     1      -8.936   6.177  67.510  1.00  0.00    -0.111 A  
HETATM   20  C   UNL     1      -9.240   2.229  69.883  1.00  0.00    -0.189 A  
HETATM   21  C   UNL     1      -8.646   3.003  70.872  1.00  0.00    -0.111 A  
HETATM   22  N   UNL     1      -9.346   4.894  67.270  1.00  0.00    -0.125 NA 
HETATM   23  C   UNL     1      -9.210   4.124  68.398  1.00  0.00    -0.144 A  
HETATM   24  C   UNL     1      -9.840   4.410  65.998  1.00  0.00    -0.230 C  
HETATM   25  C   UNL     1      -8.642   4.942  69.387  1.00  0.00    -0.100 A  
HETATM   26  C   UNL     1      -8.355   4.354  70.640  1.00  0.00    -0.086 A  
ENDBRANCH  14  17
ENDBRANCH   9  11
ENDBRANCH   4   9
BRANCH   7  27
HETATM   27  N   UNL     1     -10.406  13.053  65.834  1.00  0.00    -0.283 N  
HETATM   28  O   UNL     1     -12.228  12.151  66.956  1.00  0.00    -0.522 OA 
HETATM   29  H   UNL     1     -10.113  13.433  64.934  1.00  0.00     0.000 HD 
HETATM   30  C   UNL     1     -11.670  12.516  65.927  1.00  0.00    -0.426 C  
BRANCH  30  31
HETATM   31  C   UNL     1     -12.370  12.499  64.616  1.00  0.00    -0.547 C  
HETATM   32  C   UNL     1     -11.760  11.991  63.538  1.00  0.00    -0.566 C  
ENDBRANCH  30  31
ENDBRANCH   7  27
BRANCH   5  33
HETATM   33  N   UNL     1      -9.658  15.566  67.096  1.00  0.00    -0.219 NA 
HETATM   34  C   UNL     1     -11.041  15.917  67.402  1.00  0.00    -0.207 C  
BRANCH  33  35
HETATM   35  C   UNL     1      -8.833  16.640  66.515  1.00  0.00    -0.279 C  
BRANCH  35  36
HETATM   36  C   UNL     1      -8.439  17.681  67.588  1.00  0.00    -0.224 C  
BRANCH  36  37
HETATM   37  N   UNL     1      -9.174  18.963  67.529  1.00  0.00    -0.288 NA 
HETATM   38  C   UNL     1      -9.923  19.017  66.268  1.00  0.00    -0.398 C  
HETATM   39  C   UNL     1      -8.265  20.111  67.605  1.00  0.00    -0.294 C  
ENDBRANCH  36  37
ENDBRANCH  35  36
ENDBRANCH  33  35
ENDBRANCH   5  33
ENDBRANCH   2   3
TORSDOF 10
ENDMDL
MODEL      212
REMARK 921   NORMALIZED FREE ENERGY PREDICTED BY IDOCK:   -4.47 KCAL/MOL
REMARK 922        TOTAL FREE ENERGY PREDICTED BY IDOCK:   -8.80 KCAL/MOL
REMARK 923 INTER-LIGAND FREE ENERGY PREDICTED BY IDOCK:   -7.59 KCAL/MOL
REMARK 924 INTRA-LIGAND FREE ENERGY PREDICTED BY IDOCK:   -1.22 KCAL/MOL
REMARK 927      BINDING AFFINITY PREDICTED BY RF-SCORE:    0.00 PKD
ROOT
HETATM    1  C   UNL     1     -10.780  10.165  67.068  1.00  0.00    -0.196 C  
HETATM    2  O   UNL     1     -10.254  10.794  68.232  1.00  0.00    -0.157 OA 
ENDROOT
BRANCH   2   3
HETATM    3  C   UNL     1      -9.512  11.936  68.047  1.00  0.00    -0.197 A  
HETATM    4  C   UNL     1      -8.123  12.058  68.130  1.00  0.00    -0.160 A  
HETATM    5  C   UNL     1      -9.741  14.366  67.555  1.00  0.00    -0.215 A  
HETATM    6  C   UNL     1      -7.562  13.286  67.758  1.00  0.00    -0.161 A  
HETATM    7  C   UNL     1      -8.335  14.432  67.541  1.00  0.00    -0.187 A  
HETATM    8  C   UNL     1     -10.287  13.073  67.737  1.00  0.00    -0.227 A  
BRANCH   4   9
HETATM    9  N   UNL     1      -7.284  11.021  68.575  1.00  0.00    -0.080 NA 
HETATM   10  H   UNL     1      -6.457  11.292  69.104  1.00  0.00     0.000 HD 
BRANCH   9  11
HETATM   11  C   UNL     1      -7.477   9.652  68.360  1.00  0.00    -0.080 A  
HETATM   12  N   UNL     1      -6.965   9.151  67.230  1.00  0.00    -0.077 NA 
HETATM   13  N   UNL     1      -8.110   8.908  69.284  1.00  0.00    -0.107 NA 
HETATM   14  C   UNL     1      -8.131   7.574  69.136  1.00  0.00    -0.123 A  
HETATM   15  C   UNL     1      -7.587   6.972  68.021  1.00  0.00    -0.111 A  
HETATM   16  C   UNL     1      -7.035   7.819  67.086  1.00  0.00    -0.077 A  
BRANCH  14  17
HETATM   17  C   UNL     1      -8.744   6.810  70.230  1.00  0.00    -0.144 A  
HETATM   18  C   UNL     1     -11.345   5.618  72.493  1.00  0.00    -0.349 A  
HETATM   19  C   UNL     1      -8.050   5.878  70.987  1.00  0.00    -0.121 A  
HETATM   20  C   UNL     1     -12.484   6.363  72.179  1.00  0.00    -0.173 A  
HETATM   21  C   UNL     1     -12.440   7.346  71.198  1.00  0.00    -0.343 A  
HETATM   22  N   UNL     1      -8.902   5.341  71.914  1.00  0.00    -0.134 NA 
HETATM   23  C   UNL     1     -10.157   5.884  71.789  1.00  0.00    -0.187 A  
HETATM   24  C   UNL     1      -8.530   4.351  72.901  1.00  0.00    -0.102 C  
HETATM   25  C   UNL     1     -10.087   6.845  70.769  1.00  0.00    -0.208 A  
HETATM   26  C   UNL     1     -11.257   7.586  70.484  1.00  0.00    -0.287 A  
ENDBRANCH  14  17
ENDBRANCH   9  11
ENDBRANCH   4   9
BRANCH   7  27
HETATM   27  N   UNL     1      -7.662  15.671  67.519  1.00  0.00    -0.152 N  
HETATM   28  O   UNL     1      -7.450  16.014  69.806  1.00  0.00    -0.101 OA 
HETATM   29  H   UNL     1      -7.400  16.057  66.612  1.00  0.00     0.000 HD 
HETATM   30  C   UNL     1      -7.338  16.393  68.646  1.00  0.00    -0.186 C  
BRANCH  30  31
HETATM   31  C   UNL     1      -6.725  17.706  68.313  1.00  0.00    -0.200 C  
HETATM   32  C   UNL     1      -7.010  18.785  69.052  1.00  0.00    -0.323 C  
ENDBRANCH  30  31
ENDBRANCH   7  27
BRANCH   5  33
HETATM   33  N   UNL     1     -10.563  15.483  67.406  1.00  0.00    -0.286 NA 
HETATM   34  C   UNL     1     -10.635  16.253  66.169  1.00  0.00    -0.267 C  
BRANCH  33  35
HETATM   35  C   UNL     1     -11.529  15.856  68.455  1.00  0.00    -0.377 C  
BRANCH  35  36
HETATM   36  C   UNL     1     -10.834  15.985  69.831  1.00  0.00    -0.351 C  
BRANCH  36  37
HETATM   37  N   UNL     1     -11.410  15.157  70.913  1.00  0.00    -0.308 NA 
HETATM   38  C   UNL     1     -12.630  14.511  70.412  1.00  0.00    -0.346 C  
HETATM   39  C   UNL     1     -11.737  15.963  72.093  1.00  0.00    -0.485 C  
ENDBRANCH  36  37
ENDBRANCH  35  36
ENDBRANCH  33  35
ENDBRANCH   5  33
ENDBRANCH   2   3
TORSDOF 10
ENDMDL
MODEL      213
REMARK 921   NORMALIZED FREE ENERGY PREDICTED BY IDOCK:   -4.46 KCAL/MOL
REMARK 922        TOTAL FREE ENERGY PREDICTED BY IDOCK:   -8.79 KCAL/MOL
REMARK 923 INTER-LIGAND FREE ENERGY PREDICTED BY IDOCK:   -7.40 KCAL/MOL
REMARK 924 INTRA-LIGAND FREE ENERGY PREDICTED BY IDOCK:   -1.39 KCAL/MOL
REMARK 927      BINDING AFFINITY PREDICTED BY RF-SCORE:    0.00 PKD
ROOT
HETATM    1  C   UNL     1      -5.908  12.799  70.316  1.00  0.00    -0.157 C  
HETATM    2  O   UNL     1      -6.145  11.556  69.663  1.00  0.00    -0.086 OA 
ENDROOT
BRANCH   2   3
HETATM    3  C   UNL     1      -6.965  11.572  68.561  1.00  0.00    -0.083 A  
HETATM    4  C   UNL     1      -7.153  10.540  67.639  1.00  0.00    -0.084 A  
HETATM    5  C   UNL     1      -8.534  13.042  67.305  1.00  0.00    -0.199 A  
HETATM    6  C   UNL     1      -8.149  10.716  66.671  1.00  0.00    -0.136 A  
HETATM    7  C   UNL     1      -8.781  11.947  66.456  1.00  0.00    -0.158 A  
HETATM    8  C   UNL     1      -7.672  12.782  68.396  1.00  0.00    -0.132 A  
BRANCH   4   9
HETATM    9  N   UNL     1      -6.387   9.361  67.637  1.00  0.00    -0.058 NA 
HETATM   10  H   UNL     1      -5.375   9.469  67.581  1.00  0.00     0.000 HD 
BRANCH   9  11
HETATM   11  C   UNL     1      -6.881   8.055  67.703  1.00  0.00    -0.070 A  
HETATM   12  N   UNL     1      -6.598   7.260  66.665  1.00  0.00    -0.054 NA 
HETATM   13  N   UNL     1      -7.563   7.646  68.788  1.00  0.00    -0.100 NA 
HETATM   14  C   UNL     1      -7.877   6.347  68.903  1.00  0.00    -0.110 A  
HETATM   15  C   UNL     1      -7.582   5.450  67.898  1.00  0.00    -0.088 A  
HETATM   16  C   UNL     1      -6.958   5.973  66.787  1.00  0.00    -0.068 A  
BRANCH  14  17
HETATM   17  C   UNL     1      -8.527   5.946  70.157  1.00  0.00    -0.126 A  
HETATM   18  C   UNL     1     -11.187   5.543  72.622  1.00  0.00    -0.348 A  
HETATM   19  C   UNL     1      -7.878   5.235  71.156  1.00  0.00    -0.103 A  
HETATM   20  C   UNL     1     -12.290   6.217  72.094  1.00  0.00    -0.193 A  
HETATM   21  C   UNL     1     -12.199   6.882  70.878  1.00  0.00    -0.404 A  
HETATM   22  N   UNL     1      -8.756   5.015  72.183  1.00  0.00    -0.128 NA 
HETATM   23  C   UNL     1      -9.985   5.552  71.891  1.00  0.00    -0.180 A  
HETATM   24  C   UNL     1      -8.431   4.326  73.413  1.00  0.00    -0.093 C  
HETATM   25  C   UNL     1      -9.870   6.186  70.643  1.00  0.00    -0.214 A  
HETATM   26  C   UNL     1     -11.004   6.864  70.144  1.00  0.00    -0.322 A  
ENDBRANCH  14  17
ENDBRANCH   9  11
ENDBRANCH   4   9
BRANCH   7  27
HETATM   27  N   UNL     1      -9.498  12.103  65.251  1.00  0.00    -0.434 N  
HETATM   28  O   UNL     1     -11.618  11.539  66.011  1.00  0.00    -0.311 OA 
HETATM   29  H   UNL     1      -8.992  12.448  64.435  1.00  0.00     0.000 HD 
HETATM   30  C   UNL     1     -10.838  11.821  65.109  1.00  0.00    -0.297 C  
BRANCH  30  31
HETATM   31  C   UNL     1     -11.299  11.983  63.705  1.00  0.00    -0.526 C  
HETATM   32  C   UNL     1     -12.576  12.293  63.451  1.00  0.00    -0.545 C  
ENDBRANCH  30  31
ENDBRANCH   7  27
BRANCH   5  33
HETATM   33  N   UNL     1      -9.085  14.308  67.105  1.00  0.00    -0.218 NA 
HETATM   34  C   UNL     1      -8.382  15.373  66.396  1.00  0.00    -0.045 C  
BRANCH  33  35
HETATM   35  C   UNL     1     -10.485  14.590  67.469  1.00  0.00    -0.253 C  
BRANCH  35  36
HETATM   36  C   UNL     1     -10.849  16.065  67.181  1.00  0.00    -0.239 C  
BRANCH  36  37
HETATM   37  N   UNL     1     -10.340  17.048  68.162  1.00  0.00    -0.328 NA 
HETATM   38  C   UNL     1     -10.775  16.639  69.504  1.00  0.00    -0.306 C  
HETATM   39  C   UNL     1     -10.836  18.398  67.881  1.00  0.00    -0.202 C  
ENDBRANCH  36  37
ENDBRANCH  35  36
ENDBRANCH  33  35
ENDBRANCH   5  33
ENDBRANCH   2   3
TORSDOF 10
ENDMDL
MODEL      214
REMARK 921   NORMALIZED FREE ENERGY PREDICTED BY IDOCK:   -4.43 KCAL/MOL
REMARK 922        TOTAL FREE ENERGY PREDICTED BY IDOCK:   -8.74 KCAL/MOL
REMARK 923 INTER-LIGAND FREE ENERGY PREDICTED BY IDOCK:   -7.39 KCAL/MOL
REMARK 924 INTRA-LIGAND FREE ENERGY PREDICTED BY IDOCK:   -1.35 KCAL/MOL
REMARK 927      BINDING AFFINITY PREDICTED BY RF-SCORE:    0.00 PKD
ROOT
HETATM    1  C   UNL     1      -7.437  11.258  69.192  1.00  0.00    -0.084 C  
HETATM    2  O   UNL     1      -8.847  11.074  69.134  1.00  0.00    -0.110 OA 
ENDROOT
BRANCH   2   3
HETATM    3  C   UNL     1      -9.312  10.006  68.404  1.00  0.00    -0.138 A  
HETATM    4  C   UNL     1      -9.785  10.028  67.091  1.00  0.00    -0.174 A  
HETATM    5  C   UNL     1      -9.753   7.561  68.570  1.00  0.00    -0.156 A  
HETATM    6  C   UNL     1     -10.072   8.796  66.489  1.00  0.00    -0.349 A  
HETATM    7  C   UNL     1     -10.124   7.600  67.213  1.00  0.00    -0.237 A  
HETATM    8  C   UNL     1      -9.278   8.782  69.106  1.00  0.00    -0.149 A  
BRANCH   4   9
HETATM    9  N   UNL     1      -9.993  11.216  66.367  1.00  0.00    -0.210 NA 
HETATM   10  H   UNL     1      -9.819  11.181  65.363  1.00  0.00     0.000 HD 
BRANCH   9  11
HETATM   11  C   UNL     1     -10.416  12.440  66.893  1.00  0.00    -0.224 A  
HETATM   12  N   UNL     1     -11.718  12.544  67.183  1.00  0.00    -0.402 NA 
HETATM   13  N   UNL     1      -9.523  13.420  67.121  1.00  0.00    -0.235 NA 
HETATM   14  C   UNL     1      -9.923  14.517  67.783  1.00  0.00    -0.225 A  
HETATM   15  C   UNL     1     -11.239  14.685  68.157  1.00  0.00    -0.304 A  
HETATM   16  C   UNL     1     -12.100  13.668  67.807  1.00  0.00    -0.290 A  
BRANCH  14  17
HETATM   17  C   UNL     1      -8.879  15.502  68.093  1.00  0.00    -0.169 A  
HETATM   18  C   UNL     1      -7.054  18.659  67.984  1.00  0.00    -0.251 A  
HETATM   19  C   UNL     1      -7.865  15.272  69.012  1.00  0.00    -0.184 A  
HETATM   20  C   UNL     1      -7.703  19.433  67.020  1.00  0.00    -0.268 A  
HETATM   21  C   UNL     1      -8.788  18.925  66.316  1.00  0.00    -0.260 A  
HETATM   22  N   UNL     1      -7.066  16.381  69.074  1.00  0.00    -0.196 NA 
HETATM   23  C   UNL     1      -7.527  17.357  68.227  1.00  0.00    -0.227 A  
HETATM   24  C   UNL     1      -5.889  16.503  69.906  1.00  0.00    -0.203 C  
HETATM   25  C   UNL     1      -8.642  16.827  67.558  1.00  0.00    -0.203 A  
HETATM   26  C   UNL     1      -9.269  17.635  66.583  1.00  0.00    -0.284 A  
ENDBRANCH  14  17
ENDBRANCH   9  11
ENDBRANCH   4   9
BRANCH   7  27
HETATM   27  N   UNL     1     -10.753   6.498  66.597  1.00  0.00    -0.525 N  
HETATM   28  O   UNL     1      -8.870   5.413  65.777  1.00  0.00    -0.143 OA 
HETATM   29  H   UNL     1     -11.764   6.408  66.694  1.00  0.00     0.000 HD 
HETATM   30  C   UNL     1     -10.086   5.535  65.872  1.00  0.00     0.058 C  
BRANCH  30  31
HETATM   31  C   UNL     1     -11.017   4.554  65.255  1.00  0.00    -0.014 C  
HETATM   32  C   UNL     1     -10.578   3.723  64.302  1.00  0.00    -0.241 C  
ENDBRANCH  30  31
ENDBRANCH   7  27
BRANCH   5  33
HETATM   33  N   UNL     1      -9.843   6.413  69.359  1.00  0.00    -0.148 NA 
HETATM   34  C   UNL     1     -11.086   5.986  69.995  1.00  0.00    -0.381 C  
BRANCH  33  35
HETATM   35  C   UNL     1      -8.709   5.478  69.465  1.00  0.00    -0.104 C  
BRANCH  35  36
HETATM   36  C   UNL     1      -8.806   4.630  70.755  1.00  0.00    -0.119 C  
BRANCH  36  37
HETATM   37  N   UNL     1      -7.957   5.083  71.878  1.00  0.00    -0.108 NA 
HETATM   38  C   UNL     1      -6.778   5.764  71.329  1.00  0.00    -0.061 C  
HETATM   39  C   UNL     1      -7.523   3.959  72.714  1.00  0.00    -0.072 C  
ENDBRANCH  36  37
ENDBRANCH  35  36
ENDBRANCH  33  35
ENDBRANCH   5  33
ENDBRANCH   2   3
TORSDOF 10
ENDMDL
MODEL      215
REMARK 921   NORMALIZED FREE ENERGY PREDICTED BY IDOCK:   -4.43 KCAL/MOL
REMARK 922        TOTAL FREE ENERGY PREDICTED BY IDOCK:   -8.73 KCAL/MOL
REMARK 923 INTER-LIGAND FREE ENERGY PREDICTED BY IDOCK:   -7.88 KCAL/MOL
REMARK 924 INTRA-LIGAND FREE ENERGY PREDICTED BY IDOCK:   -0.85 KCAL/MOL
REMARK 927      BINDING AFFINITY PREDICTED BY RF-SCORE:    0.00 PKD
ROOT
HETATM    1  C   UNL     1     -11.850   9.152  71.122  1.00  0.00    -0.307 C  
HETATM    2  O   UNL     1     -10.729   9.829  70.565  1.00  0.00    -0.275 OA 
ENDROOT
BRANCH   2   3
HETATM    3  C   UNL     1     -10.963  10.651  69.488  1.00  0.00    -0.272 A  
HETATM    4  C   UNL     1     -11.064  10.272  68.148  1.00  0.00    -0.264 A  
HETATM    5  C   UNL     1     -11.312  13.042  68.885  1.00  0.00    -0.287 A  
HETATM    6  C   UNL     1     -11.454  11.254  67.230  1.00  0.00    -0.265 A  
HETATM    7  C   UNL     1     -11.514  12.613  67.561  1.00  0.00    -0.340 A  
HETATM    8  C   UNL     1     -11.114  12.011  69.835  1.00  0.00     0.124 A  
BRANCH   4   9
HETATM    9  N   UNL     1     -10.784   8.972  67.693  1.00  0.00    -0.445 NA 
HETATM   10  H   UNL     1     -11.582   8.370  67.495  1.00  0.00     0.000 HD 
BRANCH   9  11
HETATM   11  C   UNL     1      -9.513   8.425  67.486  1.00  0.00    -0.149 A  
HETATM   12  N   UNL     1      -8.592   8.694  68.417  1.00  0.00    -0.134 NA 
HETATM   13  N   UNL     1      -9.283   7.641  66.417  1.00  0.00    -0.177 NA 
HETATM   14  C   UNL     1      -8.112   6.993  66.332  1.00  0.00    -0.112 A  
HETATM   15  C   UNL     1      -7.123   7.179  67.274  1.00  0.00    -0.084 A  
HETATM   16  C   UNL     1      -7.415   8.065  68.288  1.00  0.00    -0.100 A  
BRANCH  14  17
HETATM   17  C   UNL     1      -7.962   6.071  65.199  1.00  0.00    -0.123 A  
HETATM   18  C   UNL     1      -8.817   3.407  62.857  1.00  0.00    -0.093 A  
HETATM   19  C   UNL     1      -6.875   6.095  64.338  1.00  0.00    -0.046 A  
HETATM   20  C   UNL     1     -10.023   2.875  63.320  1.00  0.00    -0.119 A  
HETATM   21  C   UNL     1     -10.614   3.363  64.478  1.00  0.00     0.047 A  
HETATM   22  N   UNL     1      -7.040   5.120  63.391  1.00  0.00    -0.046 NA 
HETATM   23  C   UNL     1      -8.221   4.449  63.589  1.00  0.00    -0.099 A  
HETATM   24  C   UNL     1      -6.094   4.827  62.336  1.00  0.00    -0.017 C  
HETATM   25  C   UNL     1      -8.810   4.988  64.744  1.00  0.00    -0.128 A  
HETATM   26  C   UNL     1     -10.026   4.420  65.187  1.00  0.00    -0.191 A  
ENDBRANCH  14  17
ENDBRANCH   9  11
ENDBRANCH   4   9
BRANCH   7  27
HETATM   27  N   UNL     1     -11.573  13.536  66.495  1.00  0.00    -0.343 N  
HETATM   28  O   UNL     1      -9.299  13.767  66.083  1.00  0.00    -0.201 OA 
HETATM   29  H   UNL     1     -12.493  13.810  66.151  1.00  0.00     0.000 HD 
HETATM   30  C   UNL     1     -10.466  14.089  65.892  1.00  0.00    -0.309 C  
BRANCH  30  31
HETATM   31  C   UNL     1     -10.834  15.104  64.870  1.00  0.00    -0.437 C  
HETATM   32  C   UNL     1     -11.047  16.375  65.233  1.00  0.00    -0.117 C  
ENDBRANCH  30  31
ENDBRANCH   7  27
BRANCH   5  33
HETATM   33  N   UNL     1     -11.297  14.385  69.264  1.00  0.00    -0.270 NA 
HETATM   34  C   UNL     1     -10.220  15.298  68.898  1.00  0.00    -0.232 C  
BRANCH  33  35
HETATM   35  C   UNL     1     -12.461  14.994  69.932  1.00  0.00    -0.230 C  
BRANCH  35  36
HETATM   36  C   UNL     1     -12.172  15.251  71.430  1.00  0.00    -0.352 C  
BRANCH  36  37
HETATM   37  N   UNL     1     -13.340  15.137  72.330  1.00  0.00    -0.382 NA 
HETATM   38  C   UNL     1     -12.963  15.647  73.655  1.00  0.00    -0.526 C  
HETATM   39  C   UNL     1     -13.792  13.749  72.455  1.00  0.00    -0.579 C  
ENDBRANCH  36  37
ENDBRANCH  35  36
ENDBRANCH  33  35
ENDBRANCH   5  33
ENDBRANCH   2   3
TORSDOF 10
ENDMDL
MODEL      216
REMARK 921   NORMALIZED FREE ENERGY PREDICTED BY IDOCK:   -4.42 KCAL/MOL
REMARK 922        TOTAL FREE ENERGY PREDICTED BY IDOCK:   -8.72 KCAL/MOL
REMARK 923 INTER-LIGAND FREE ENERGY PREDICTED BY IDOCK:   -8.58 KCAL/MOL
REMARK 924 INTRA-LIGAND FREE ENERGY PREDICTED BY IDOCK:   -0.14 KCAL/MOL
REMARK 927      BINDING AFFINITY PREDICTED BY RF-SCORE:    0.00 PKD
ROOT
HETATM    1  C   UNL     1     -12.446  10.864  70.266  1.00  0.00    -0.303 C  
HETATM    2  O   UNL     1     -11.814  10.840  68.990  1.00  0.00    -0.304 OA 
ENDROOT
BRANCH   2   3
HETATM    3  C   UNL     1     -10.926  11.851  68.710  1.00  0.00    -0.235 A  
HETATM    4  C   UNL     1      -9.591  11.714  68.324  1.00  0.00    -0.198 A  
HETATM    5  C   UNL     1     -10.737  14.333  68.648  1.00  0.00    -0.249 A  
HETATM    6  C   UNL     1      -8.909  12.876  67.945  1.00  0.00    -0.190 A  
HETATM    7  C   UNL     1      -9.429  14.158  68.158  1.00  0.00    -0.213 A  
HETATM    8  C   UNL     1     -11.479  13.143  68.838  1.00  0.00    -0.343 A  
BRANCH   4   9
HETATM    9  N   UNL     1      -8.916  10.481  68.314  1.00  0.00    -0.134 NA 
HETATM   10  H   UNL     1      -7.897  10.512  68.350  1.00  0.00     0.000 HD 
BRANCH   9  11
HETATM   11  C   UNL     1      -9.507   9.215  68.259  1.00  0.00    -0.142 A  
HETATM   12  N   UNL     1     -10.179   8.922  67.140  1.00  0.00    -0.245 NA 
HETATM   13  N   UNL     1      -9.349   8.352  69.279  1.00  0.00    -0.154 NA 
HETATM   14  C   UNL     1      -9.779   7.090  69.130  1.00  0.00    -0.156 A  
HETATM   15  C   UNL     1     -10.442   6.692  67.989  1.00  0.00    -0.261 A  
HETATM   16  C   UNL     1     -10.634   7.664  67.032  1.00  0.00    -0.336 A  
BRANCH  14  17
HETATM   17  C   UNL     1      -9.483   6.170  70.236  1.00  0.00    -0.178 A  
HETATM   18  C   UNL     1     -10.068   4.156  73.221  1.00  0.00    -0.200 A  
HETATM   19  C   UNL     1      -8.252   5.554  70.404  1.00  0.00    -0.104 A  
HETATM   20  C   UNL     1     -11.376   4.444  73.616  1.00  0.00    -0.287 A  
HETATM   21  C   UNL     1     -12.141   5.367  72.915  1.00  0.00     0.042 A  
HETATM   22  N   UNL     1      -8.304   4.760  71.517  1.00  0.00    -0.107 NA 
HETATM   23  C   UNL     1      -9.547   4.819  72.095  1.00  0.00    -0.153 A  
HETATM   24  C   UNL     1      -7.198   3.977  72.025  1.00  0.00    -0.055 C  
HETATM   25  C   UNL     1     -10.305   5.731  71.344  1.00  0.00    -0.279 A  
HETATM   26  C   UNL     1     -11.623   6.004  71.778  1.00  0.00    -0.288 A  
ENDBRANCH  14  17
ENDBRANCH   9  11
ENDBRANCH   4   9
BRANCH   7  27
HETATM   27  N   UNL     1      -8.532  15.243  68.066  1.00  0.00    -0.145 N  
HETATM   28  O   UNL     1      -7.221  14.794  69.930  1.00  0.00    -0.157 OA 
HETATM   29  H   UNL     1      -8.616  15.866  67.264  1.00  0.00     0.000 HD 
HETATM   30  C   UNL     1      -7.550  15.513  68.993  1.00  0.00    -0.180 C  
BRANCH  30  31
HETATM   31  C   UNL     1      -6.826  16.775  68.690  1.00  0.00    -0.175 C  
HETATM   32  C   UNL     1      -5.836  16.780  67.789  1.00  0.00    -0.149 C  
ENDBRANCH  30  31
ENDBRANCH   7  27
BRANCH   5  33
HETATM   33  N   UNL     1     -11.287  15.582  68.939  1.00  0.00    -0.302 NA 
HETATM   34  C   UNL     1     -10.883  16.803  68.250  1.00  0.00    -0.366 C  
BRANCH  33  35
HETATM   35  C   UNL     1     -12.429  15.708  69.861  1.00  0.00    -0.161 C  
BRANCH  35  36
HETATM   36  C   UNL     1     -12.006  15.397  71.316  1.00  0.00    -0.374 C  
BRANCH  36  37
HETATM   37  N   UNL     1     -13.090  15.461  72.320  1.00  0.00    -0.371 NA 
HETATM   38  C   UNL     1     -12.495  15.380  73.659  1.00  0.00    -0.588 C  
HETATM   39  C   UNL     1     -14.051  14.367  72.148  1.00  0.00    -0.535 C  
ENDBRANCH  36  37
ENDBRANCH  35  36
ENDBRANCH  33  35
ENDBRANCH   5  33
ENDBRANCH   2   3
TORSDOF 10
ENDMDL
MODEL      217
REMARK 921   NORMALIZED FREE ENERGY PREDICTED BY IDOCK:   -4.42 KCAL/MOL
REMARK 922        TOTAL FREE ENERGY PREDICTED BY IDOCK:   -8.71 KCAL/MOL
REMARK 923 INTER-LIGAND FREE ENERGY PREDICTED BY IDOCK:   -7.51 KCAL/MOL
REMARK 924 INTRA-LIGAND FREE ENERGY PREDICTED BY IDOCK:   -1.21 KCAL/MOL
REMARK 927      BINDING AFFINITY PREDICTED BY RF-SCORE:    0.00 PKD
ROOT
HETATM    1  C   UNL     1      -5.200  16.627  66.859  1.00  0.00    -0.031 C  
HETATM    2  O   UNL     1      -5.575  15.263  67.023  1.00  0.00    -0.153 OA 
ENDROOT
BRANCH   2   3
HETATM    3  C   UNL     1      -6.821  15.013  67.545  1.00  0.00    -0.168 A  
HETATM    4  C   UNL     1      -7.269  13.820  68.117  1.00  0.00    -0.121 A  
HETATM    5  C   UNL     1      -9.046  16.073  67.905  1.00  0.00    -0.187 A  
HETATM    6  C   UNL     1      -8.532  13.831  68.721  1.00  0.00     0.026 A  
HETATM    7  C   UNL     1      -9.430  14.893  68.569  1.00  0.00    -0.210 A  
HETATM    8  C   UNL     1      -7.698  16.116  67.474  1.00  0.00    -0.170 A  
BRANCH   4   9
HETATM    9  N   UNL     1      -6.521  12.630  68.099  1.00  0.00    -0.071 NA 
HETATM   10  H   UNL     1      -5.899  12.488  67.303  1.00  0.00     0.000 HD 
BRANCH   9  11
HETATM   11  C   UNL     1      -6.549  11.621  69.067  1.00  0.00    -0.092 A  
HETATM   12  N   UNL     1      -5.520  11.590  69.921  1.00  0.00    -0.068 NA 
HETATM   13  N   UNL     1      -7.593  10.776  69.129  1.00  0.00    -0.124 NA 
HETATM   14  C   UNL     1      -7.679   9.931  70.168  1.00  0.00    -0.175 A  
HETATM   15  C   UNL     1      -6.683   9.864  71.118  1.00  0.00     0.174 A  
HETATM   16  C   UNL     1      -5.611  10.708  70.928  1.00  0.00    -0.098 A  
BRANCH  14  17
HETATM   17  C   UNL     1      -8.894   9.109  70.235  1.00  0.00    -0.238 A  
HETATM   18  C   UNL     1     -11.375   6.632  69.222  1.00  0.00    -0.301 A  
HETATM   19  C   UNL     1      -9.776   9.141  71.306  1.00  0.00    -0.281 A  
HETATM   20  C   UNL     1     -10.971   6.194  67.959  1.00  0.00    -0.399 A  
HETATM   21  C   UNL     1      -9.845   6.731  67.349  1.00  0.00    -0.174 A  
HETATM   22  N   UNL     1     -10.795   8.259  71.065  1.00  0.00    -0.228 NA 
HETATM   23  C   UNL     1     -10.612   7.626  69.861  1.00  0.00    -0.235 A  
HETATM   24  C   UNL     1     -11.918   8.036  71.949  1.00  0.00    -0.314 C  
HETATM   25  C   UNL     1      -9.450   8.166  69.287  1.00  0.00    -0.159 A  
HETATM   26  C   UNL     1      -9.076   7.704  68.004  1.00  0.00    -0.135 A  
ENDBRANCH  14  17
ENDBRANCH   9  11
ENDBRANCH   4   9
BRANCH   7  27
HETATM   27  N   UNL     1     -10.776  14.656  68.916  1.00  0.00    -0.241 N  
HETATM   28  O   UNL     1     -10.775  15.582  71.046  1.00  0.00    -0.267 OA 
HETATM   29  H   UNL     1     -11.385  14.239  68.213  1.00  0.00     0.000 HD 
HETATM   30  C   UNL     1     -11.320  14.954  70.146  1.00  0.00    -0.260 C  
BRANCH  30  31
HETATM   31  C   UNL     1     -12.731  14.501  70.259  1.00  0.00    -0.325 C  
HETATM   32  C   UNL     1     -13.556  15.089  71.135  1.00  0.00    -0.493 C  
ENDBRANCH  30  31
ENDBRANCH   7  27
BRANCH   5  33
HETATM   33  N   UNL     1      -9.914  17.139  67.669  1.00  0.00    -0.274 NA 
HETATM   34  C   UNL     1     -10.862  17.156  66.559  1.00  0.00     0.057 C  
BRANCH  33  35
HETATM   35  C   UNL     1     -10.026  18.250  68.630  1.00  0.00    -0.389 C  
BRANCH  35  36
HETATM   36  C   UNL     1      -8.771  19.153  68.587  1.00  0.00    -0.359 C  
BRANCH  36  37
HETATM   37  N   UNL     1      -8.785  20.211  67.554  1.00  0.00    -0.339 NA 
HETATM   38  C   UNL     1     -10.160  20.370  67.063  1.00  0.00    -0.366 C  
HETATM   39  C   UNL     1      -7.903  19.881  66.431  1.00  0.00    -0.316 C  
ENDBRANCH  36  37
ENDBRANCH  35  36
ENDBRANCH  33  35
ENDBRANCH   5  33
ENDBRANCH   2   3
TORSDOF 10
ENDMDL
MODEL      218
REMARK 921   NORMALIZED FREE ENERGY PREDICTED BY IDOCK:   -4.41 KCAL/MOL
REMARK 922        TOTAL FREE ENERGY PREDICTED BY IDOCK:   -8.70 KCAL/MOL
REMARK 923 INTER-LIGAND FREE ENERGY PREDICTED BY IDOCK:   -7.59 KCAL/MOL
REMARK 924 INTRA-LIGAND FREE ENERGY PREDICTED BY IDOCK:   -1.11 KCAL/MOL
REMARK 927      BINDING AFFINITY PREDICTED BY RF-SCORE:    0.00 PKD
ROOT
HETATM    1  C   UNL     1      -5.500  12.542  69.740  1.00  0.00    -0.092 C  
HETATM    2  O   UNL     1      -6.434  11.660  70.354  1.00  0.00    -0.214 OA 
ENDROOT
BRANCH   2   3
HETATM    3  C   UNL     1      -7.112  10.792  69.532  1.00  0.00    -0.132 A  
HETATM    4  C   UNL     1      -8.206  11.088  68.716  1.00  0.00    -0.146 A  
HETATM    5  C   UNL     1      -7.170   8.406  68.821  1.00  0.00    -0.079 A  
HETATM    6  C   UNL     1      -8.650  10.085  67.846  1.00  0.00    -0.121 A  
HETATM    7  C   UNL     1      -8.202   8.762  67.932  1.00  0.00    -0.111 A  
HETATM    8  C   UNL     1      -6.600   9.477  69.550  1.00  0.00    -0.044 A  
BRANCH   4   9
HETATM    9  N   UNL     1      -8.873  12.326  68.743  1.00  0.00    -0.380 NA 
HETATM   10  H   UNL     1      -9.083  12.716  69.661  1.00  0.00     0.000 HD 
BRANCH   9  11
HETATM   11  C   UNL     1      -9.277  13.071  67.631  1.00  0.00    -0.200 A  
HETATM   12  N   UNL     1     -10.210  12.514  66.851  1.00  0.00    -0.225 NA 
HETATM   13  N   UNL     1      -8.763  14.296  67.418  1.00  0.00    -0.197 NA 
HETATM   14  C   UNL     1      -9.289  15.057  66.447  1.00  0.00    -0.303 A  
HETATM   15  C   UNL     1     -10.285  14.576  65.624  1.00  0.00    -0.379 A  
HETATM   16  C   UNL     1     -10.691  13.282  65.861  1.00  0.00    -0.275 A  
BRANCH  14  17
HETATM   17  C   UNL     1      -8.757  16.421  66.333  1.00  0.00    -0.355 A  
HETATM   18  C   UNL     1      -8.654  20.057  66.615  1.00  0.00    -0.382 A  
HETATM   19  C   UNL     1      -7.485  16.703  65.855  1.00  0.00     0.519 A  
HETATM   20  C   UNL     1      -9.913  20.431  67.092  1.00  0.00    -0.568 A  
HETATM   21  C   UNL     1     -10.895  19.476  67.322  1.00  0.00    -0.557 A  
HETATM   22  N   UNL     1      -7.295  18.058  65.881  1.00  0.00    -0.494 NA 
HETATM   23  C   UNL     1      -8.407  18.693  66.377  1.00  0.00    -0.276 A  
HETATM   24  C   UNL     1      -6.095  18.731  65.434  1.00  0.00    -0.263 C  
HETATM   25  C   UNL     1      -9.366  17.700  66.631  1.00  0.00    -0.289 A  
HETATM   26  C   UNL     1     -10.631  18.116  67.106  1.00  0.00    -0.362 A  
ENDBRANCH  14  17
ENDBRANCH   9  11
ENDBRANCH   4   9
BRANCH   7  27
HETATM   27  N   UNL     1      -8.956   7.779  67.257  1.00  0.00    -0.126 N  
HETATM   28  O   UNL     1     -10.812   7.720  68.651  1.00  0.00    -0.097 OA 
HETATM   29  H   UNL     1      -8.585   7.408  66.383  1.00  0.00     0.000 HD 
HETATM   30  C   UNL     1     -10.162   7.289  67.706  1.00  0.00    -0.195 C  
BRANCH  30  31
HETATM   31  C   UNL     1     -10.675   6.190  66.846  1.00  0.00    -0.413 C  
HETATM   32  C   UNL     1      -9.850   5.558  66.003  1.00  0.00    -0.091 C  
ENDBRANCH  30  31
ENDBRANCH   7  27
BRANCH   5  33
HETATM   33  N   UNL     1      -6.724   7.095  68.995  1.00  0.00    -0.054 NA 
HETATM   34  C   UNL     1      -5.352   6.684  68.715  1.00  0.00    -0.016 C  
BRANCH  33  35
HETATM   35  C   UNL     1      -7.588   6.080  69.624  1.00  0.00    -0.089 C  
BRANCH  35  36
HETATM   36  C   UNL     1      -7.809   6.389  71.123  1.00  0.00    -0.114 C  
BRANCH  36  37
HETATM   37  N   UNL     1      -9.210   6.649  71.518  1.00  0.00    -0.147 NA 
HETATM   38  C   UNL     1      -9.345   8.070  71.862  1.00  0.00    -0.167 C  
HETATM   39  C   UNL     1      -9.608   5.831  72.667  1.00  0.00    -0.153 C  
ENDBRANCH  36  37
ENDBRANCH  35  36
ENDBRANCH  33  35
ENDBRANCH   5  33
ENDBRANCH   2   3
TORSDOF 10
ENDMDL
MODEL      219
REMARK 921   NORMALIZED FREE ENERGY PREDICTED BY IDOCK:   -4.40 KCAL/MOL
REMARK 922        TOTAL FREE ENERGY PREDICTED BY IDOCK:   -8.69 KCAL/MOL
REMARK 923 INTER-LIGAND FREE ENERGY PREDICTED BY IDOCK:   -7.45 KCAL/MOL
REMARK 924 INTRA-LIGAND FREE ENERGY PREDICTED BY IDOCK:   -1.24 KCAL/MOL
REMARK 927      BINDING AFFINITY PREDICTED BY RF-SCORE:    0.00 PKD
ROOT
HETATM    1  C   UNL     1     -12.731  10.939  70.080  1.00  0.00    -0.161 C  
HETATM    2  O   UNL     1     -12.288  10.751  68.740  1.00  0.00    -0.435 OA 
ENDROOT
BRANCH   2   3
HETATM    3  C   UNL     1     -11.178  11.456  68.341  1.00  0.00    -0.263 A  
HETATM    4  C   UNL     1      -9.874  11.308  68.817  1.00  0.00    -0.184 A  
HETATM    5  C   UNL     1     -10.463  13.287  66.813  1.00  0.00    -0.270 A  
HETATM    6  C   UNL     1      -8.866  12.029  68.164  1.00  0.00    -0.182 A  
HETATM    7  C   UNL     1      -9.144  13.039  67.237  1.00  0.00    -0.209 A  
HETATM    8  C   UNL     1     -11.444  12.413  67.339  1.00  0.00    -0.418 A  
BRANCH   4   9
HETATM    9  N   UNL     1      -9.541  10.490  69.911  1.00  0.00    -0.395 NA 
HETATM   10  H   UNL     1     -10.057  10.646  70.777  1.00  0.00     0.000 HD 
BRANCH   9  11
HETATM   11  C   UNL     1      -8.571   9.484  69.925  1.00  0.00    -0.204 A  
HETATM   12  N   UNL     1      -7.508   9.695  70.709  1.00  0.00    -0.303 NA 
HETATM   13  N   UNL     1      -8.754   8.360  69.209  1.00  0.00    -0.137 NA 
HETATM   14  C   UNL     1      -7.896   7.342  69.373  1.00  0.00    -0.122 A  
HETATM   15  C   UNL     1      -6.797   7.461  70.197  1.00  0.00    -0.055 A  
HETATM   16  C   UNL     1      -6.643   8.676  70.825  1.00  0.00    -0.045 A  
BRANCH  14  17
HETATM   17  C   UNL     1      -8.210   6.106  68.644  1.00  0.00    -0.108 A  
HETATM   18  C   UNL     1      -8.500   3.814  65.821  1.00  0.00    -0.110 A  
HETATM   19  C   UNL     1      -8.695   4.962  69.261  1.00  0.00    -0.087 A  
HETATM   20  C   UNL     1      -8.118   4.553  64.699  1.00  0.00    -0.101 A  
HETATM   21  C   UNL     1      -7.765   5.891  64.818  1.00  0.00    -0.099 A  
HETATM   22  N   UNL     1      -8.877   3.993  68.312  1.00  0.00    -0.101 NA 
HETATM   23  C   UNL     1      -8.514   4.456  67.072  1.00  0.00    -0.104 A  
HETATM   24  C   UNL     1      -9.395   2.668  68.575  1.00  0.00    -0.190 C  
HETATM   25  C   UNL     1      -8.131   5.797  67.232  1.00  0.00    -0.102 A  
HETATM   26  C   UNL     1      -7.758   6.516  66.073  1.00  0.00    -0.093 A  
ENDBRANCH  14  17
ENDBRANCH   9  11
ENDBRANCH   4   9
BRANCH   7  27
HETATM   27  N   UNL     1      -8.094  13.923  66.910  1.00  0.00    -0.386 N  
HETATM   28  O   UNL     1      -7.823  14.950  68.975  1.00  0.00    -0.147 OA 
HETATM   29  H   UNL     1      -7.700  13.871  65.971  1.00  0.00     0.000 HD 
HETATM   30  C   UNL     1      -7.568  14.852  67.781  1.00  0.00    -0.156 C  
BRANCH  30  31
HETATM   31  C   UNL     1      -6.544  15.712  67.131  1.00  0.00    -0.022 C  
HETATM   32  C   UNL     1      -6.900  16.883  66.589  1.00  0.00    -0.271 C  
ENDBRANCH  30  31
ENDBRANCH   7  27
BRANCH   5  33
HETATM   33  N   UNL     1     -10.808  14.319  65.940  1.00  0.00    -0.294 NA 
HETATM   34  C   UNL     1     -11.188  14.084  64.550  1.00  0.00    -0.350 C  
BRANCH  33  35
HETATM   35  C   UNL     1     -10.957  15.702  66.425  1.00  0.00    -0.197 C  
BRANCH  35  36
HETATM   36  C   UNL     1     -11.526  15.729  67.863  1.00  0.00    -0.221 C  
BRANCH  36  37
HETATM   37  N   UNL     1     -10.643  16.333  68.884  1.00  0.00    -0.263 NA 
HETATM   38  C   UNL     1     -11.258  16.151  70.204  1.00  0.00    -0.370 C  
HETATM   39  C   UNL     1     -10.433  17.763  68.639  1.00  0.00    -0.292 C  
ENDBRANCH  36  37
ENDBRANCH  35  36
ENDBRANCH  33  35
ENDBRANCH   5  33
ENDBRANCH   2   3
TORSDOF 10
ENDMDL
MODEL      220
REMARK 921   NORMALIZED FREE ENERGY PREDICTED BY IDOCK:   -4.38 KCAL/MOL
REMARK 922        TOTAL FREE ENERGY PREDICTED BY IDOCK:   -8.66 KCAL/MOL
REMARK 923 INTER-LIGAND FREE ENERGY PREDICTED BY IDOCK:   -6.98 KCAL/MOL
REMARK 924 INTRA-LIGAND FREE ENERGY PREDICTED BY IDOCK:   -1.68 KCAL/MOL
REMARK 927      BINDING AFFINITY PREDICTED BY RF-SCORE:    0.00 PKD
ROOT
HETATM    1  C   UNL     1      -7.909   5.767  64.659  1.00  0.00    -0.116 C  
HETATM    2  O   UNL     1      -7.810   6.869  65.555  1.00  0.00    -0.098 OA 
ENDROOT
BRANCH   2   3
HETATM    3  C   UNL     1      -8.183   6.653  66.860  1.00  0.00    -0.113 A  
HETATM    4  C   UNL     1      -9.416   6.956  67.442  1.00  0.00    -0.132 A  
HETATM    5  C   UNL     1      -7.320   5.786  69.029  1.00  0.00    -0.083 A  
HETATM    6  C   UNL     1      -9.633   6.515  68.753  1.00  0.00    -0.126 A  
HETATM    7  C   UNL     1      -8.606   6.006  69.556  1.00  0.00    -0.119 A  
HETATM    8  C   UNL     1      -7.176   6.055  67.647  1.00  0.00    -0.076 A  
BRANCH   4   9
HETATM    9  N   UNL     1     -10.421   7.683  66.781  1.00  0.00    -0.471 NA 
HETATM   10  H   UNL     1     -11.141   7.143  66.301  1.00  0.00     0.000 HD 
BRANCH   9  11
HETATM   11  C   UNL     1     -10.529   9.076  66.718  1.00  0.00    -0.200 A  
HETATM   12  N   UNL     1     -10.279   9.637  65.530  1.00  0.00    -0.114 NA 
HETATM   13  N   UNL     1     -10.907   9.772  67.805  1.00  0.00    -0.275 NA 
HETATM   14  C   UNL     1     -11.167  11.082  67.674  1.00  0.00    -0.305 A  
HETATM   15  C   UNL     1     -10.979  11.731  66.473  1.00  0.00    -0.342 A  
HETATM   16  C   UNL     1     -10.509  10.956  65.436  1.00  0.00    -0.223 A  
BRANCH  14  17
HETATM   17  C   UNL     1     -11.677  11.763  68.871  1.00  0.00    -0.384 A  
HETATM   18  C   UNL     1     -12.432  14.515  71.145  1.00  0.00    -0.411 A  
HETATM   19  C   UNL     1     -12.356  11.108  69.888  1.00  0.00    -0.261 A  
HETATM   20  C   UNL     1     -11.852  15.647  70.568  1.00  0.00    -0.402 A  
HETATM   21  C   UNL     1     -11.136  15.549  69.382  1.00  0.00    -0.291 A  
HETATM   22  N   UNL     1     -12.700  12.021  70.848  1.00  0.00    -0.256 NA 
HETATM   23  C   UNL     1     -12.277  13.278  70.494  1.00  0.00    -0.340 A  
HETATM   24  C   UNL     1     -13.398  11.704  72.075  1.00  0.00    -0.300 C  
HETATM   25  C   UNL     1     -11.590  13.151  69.277  1.00  0.00    -0.370 A  
HETATM   26  C   UNL     1     -11.009  14.316  68.726  1.00  0.00    -0.271 A  
ENDBRANCH  14  17
ENDBRANCH   9  11
ENDBRANCH   4   9
BRANCH   7  27
HETATM   27  N   UNL     1      -8.851   5.923  70.943  1.00  0.00    -0.137 N  
HETATM   28  O   UNL     1      -8.282   8.092  71.546  1.00  0.00    -0.105 OA 
HETATM   29  H   UNL     1      -9.234   5.052  71.309  1.00  0.00     0.000 HD 
HETATM   30  C   UNL     1      -8.604   6.945  71.832  1.00  0.00    -0.118 C  
BRANCH  30  31
HETATM   31  C   UNL     1      -8.861   6.537  73.239  1.00  0.00    -0.133 C  
HETATM   32  C   UNL     1     -10.011   5.933  73.562  1.00  0.00    -0.187 C  
ENDBRANCH  30  31
ENDBRANCH   7  27
BRANCH   5  33
HETATM   33  N   UNL     1      -6.242   5.340  69.794  1.00  0.00    -0.025 NA 
HETATM   34  C   UNL     1      -5.246   6.244  70.360  1.00  0.00    -0.014 C  
BRANCH  33  35
HETATM   35  C   UNL     1      -6.139   3.928  70.204  1.00  0.00    -0.019 C  
BRANCH  35  36
HETATM   36  C   UNL     1      -6.083   3.798  71.744  1.00  0.00    -0.014 C  
BRANCH  36  37
HETATM   37  N   UNL     1      -7.057   2.858  72.338  1.00  0.00    -0.031 NA 
HETATM   38  C   UNL     1      -8.238   2.794  71.469  1.00  0.00    -0.063 C  
HETATM   39  C   UNL     1      -7.465   3.280  73.681  1.00  0.00    -0.056 C  
ENDBRANCH  36  37
ENDBRANCH  35  36
ENDBRANCH  33  35
ENDBRANCH   5  33
ENDBRANCH   2   3
TORSDOF 10
ENDMDL
MODEL      221
REMARK 921   NORMALIZED FREE ENERGY PREDICTED BY IDOCK:   -4.37 KCAL/MOL
REMARK 922        TOTAL FREE ENERGY PREDICTED BY IDOCK:   -8.65 KCAL/MOL
REMARK 923 INTER-LIGAND FREE ENERGY PREDICTED BY IDOCK:   -7.04 KCAL/MOL
REMARK 924 INTRA-LIGAND FREE ENERGY PREDICTED BY IDOCK:   -1.60 KCAL/MOL
REMARK 927      BINDING AFFINITY PREDICTED BY RF-SCORE:    0.00 PKD
ROOT
HETATM    1  C   UNL     1      -5.375  13.295  69.782  1.00  0.00    -0.092 C  
HETATM    2  O   UNL     1      -6.082  12.116  69.411  1.00  0.00    -0.084 OA 
ENDROOT
BRANCH   2   3
HETATM    3  C   UNL     1      -7.065  12.247  68.460  1.00  0.00    -0.099 A  
HETATM    4  C   UNL     1      -7.467  11.286  67.530  1.00  0.00    -0.106 A  
HETATM    5  C   UNL     1      -8.712  13.879  67.553  1.00  0.00    -0.193 A  
HETATM    6  C   UNL     1      -8.591  11.578  66.748  1.00  0.00    -0.170 A  
HETATM    7  C   UNL     1      -9.164  12.854  66.701  1.00  0.00    -0.221 A  
HETATM    8  C   UNL     1      -7.705  13.504  68.474  1.00  0.00    -0.125 A  
BRANCH   4   9
HETATM    9  N   UNL     1      -6.792  10.066  67.343  1.00  0.00    -0.081 NA 
HETATM   10  H   UNL     1      -5.793  10.117  67.150  1.00  0.00     0.000 HD 
BRANCH   9  11
HETATM   11  C   UNL     1      -7.362   8.790  67.395  1.00  0.00    -0.081 A  
HETATM   12  N   UNL     1      -7.685   8.236  66.221  1.00  0.00    -0.095 NA 
HETATM   13  N   UNL     1      -7.521   8.171  68.578  1.00  0.00    -0.096 NA 
HETATM   14  C   UNL     1      -7.909   6.887  68.588  1.00  0.00    -0.118 A  
HETATM   15  C   UNL     1      -8.219   6.226  67.418  1.00  0.00    -0.109 A  
HETATM   16  C   UNL     1      -8.109   6.964  66.261  1.00  0.00    -0.112 A  
BRANCH  14  17
HETATM   17  C   UNL     1      -7.962   6.236  69.903  1.00  0.00    -0.115 A  
HETATM   18  C   UNL     1      -8.804   5.760  73.421  1.00  0.00    -0.123 A  
HETATM   19  C   UNL     1      -7.416   4.986  70.156  1.00  0.00    -0.059 A  
HETATM   20  C   UNL     1      -9.452   6.934  73.812  1.00  0.00    -0.237 A  
HETATM   21  C   UNL     1      -9.621   7.983  72.917  1.00  0.00    -0.348 A  
HETATM   22  N   UNL     1      -7.638   4.664  71.467  1.00  0.00    -0.079 NA 
HETATM   23  C   UNL     1      -8.331   5.666  72.100  1.00  0.00    -0.115 A  
HETATM   24  C   UNL     1      -7.190   3.445  72.105  1.00  0.00    -0.046 C  
HETATM   25  C   UNL     1      -8.516   6.693  71.161  1.00  0.00    -0.126 A  
HETATM   26  C   UNL     1      -9.169   7.869  71.594  1.00  0.00    -0.180 A  
ENDBRANCH  14  17
ENDBRANCH   9  11
ENDBRANCH   4   9
BRANCH   7  27
HETATM   27  N   UNL     1     -10.052  13.125  65.639  1.00  0.00    -0.324 N  
HETATM   28  O   UNL     1     -11.983  12.189  66.528  1.00  0.00    -0.618 OA 
HETATM   29  H   UNL     1      -9.700  13.662  64.846  1.00  0.00     0.000 HD 
HETATM   30  C   UNL     1     -11.365  12.712  65.607  1.00  0.00    -0.322 C  
BRANCH  30  31
HETATM   31  C   UNL     1     -12.029  13.053  64.321  1.00  0.00    -0.466 C  
HETATM   32  C   UNL     1     -12.127  12.134  63.353  1.00  0.00    -0.608 C  
ENDBRANCH  30  31
ENDBRANCH   7  27
BRANCH   5  33
HETATM   33  N   UNL     1      -9.201  15.185  67.509  1.00  0.00    -0.184 NA 
HETATM   34  C   UNL     1     -10.385  15.611  68.249  1.00  0.00    -0.244 C  
BRANCH  33  35
HETATM   35  C   UNL     1      -8.448  16.253  66.828  1.00  0.00    -0.247 C  
BRANCH  35  36
HETATM   36  C   UNL     1      -8.258  17.478  67.753  1.00  0.00    -0.219 C  
BRANCH  36  37
HETATM   37  N   UNL     1      -6.865  17.948  67.907  1.00  0.00    -0.191 NA 
HETATM   38  C   UNL     1      -5.986  16.778  68.027  1.00  0.00    -0.126 C  
HETATM   39  C   UNL     1      -6.709  18.796  69.092  1.00  0.00    -0.281 C  
ENDBRANCH  36  37
ENDBRANCH  35  36
ENDBRANCH  33  35
ENDBRANCH   5  33
ENDBRANCH   2   3
TORSDOF 10
ENDMDL
MODEL      222
REMARK 921   NORMALIZED FREE ENERGY PREDICTED BY IDOCK:   -4.36 KCAL/MOL
REMARK 922        TOTAL FREE ENERGY PREDICTED BY IDOCK:   -8.63 KCAL/MOL
REMARK 923 INTER-LIGAND FREE ENERGY PREDICTED BY IDOCK:   -7.08 KCAL/MOL
REMARK 924 INTRA-LIGAND FREE ENERGY PREDICTED BY IDOCK:   -1.55 KCAL/MOL
REMARK 927      BINDING AFFINITY PREDICTED BY RF-SCORE:    0.00 PKD
ROOT
HETATM    1  C   UNL     1      -7.654   7.811  63.483  1.00  0.00    -0.126 C  
HETATM    2  O   UNL     1      -8.126   9.066  63.962  1.00  0.00    -0.141 OA 
ENDROOT
BRANCH   2   3
HETATM    3  C   UNL     1      -8.749   9.076  65.187  1.00  0.00    -0.189 A  
HETATM    4  C   UNL     1      -9.839   9.861  65.569  1.00  0.00    -0.311 A  
HETATM    5  C   UNL     1      -8.637   8.049  67.453  1.00  0.00    -0.125 A  
HETATM    6  C   UNL     1     -10.410   9.603  66.821  1.00  0.00    -0.292 A  
HETATM    7  C   UNL     1      -9.800   8.775  67.770  1.00  0.00    -0.174 A  
HETATM    8  C   UNL     1      -8.189   8.172  66.116  1.00  0.00    -0.117 A  
BRANCH   4   9
HETATM    9  N   UNL     1     -10.367  10.887  64.766  1.00  0.00    -0.324 NA 
HETATM   10  H   UNL     1     -10.538  10.665  63.786  1.00  0.00     0.000 HD 
BRANCH   9  11
HETATM   11  C   UNL     1     -10.678  12.185  65.184  1.00  0.00    -0.292 A  
HETATM   12  N   UNL     1     -11.978  12.497  65.235  1.00  0.00    -0.422 NA 
HETATM   13  N   UNL     1      -9.696  13.030  65.547  1.00  0.00    -0.124 NA 
HETATM   14  C   UNL     1     -10.028  14.204  66.104  1.00  0.00    -0.314 A  
HETATM   15  C   UNL     1     -11.346  14.585  66.235  1.00  0.00    -0.352 A  
HETATM   16  C   UNL     1     -12.282  13.694  65.759  1.00  0.00    -0.464 A  
BRANCH  14  17
HETATM   17  C   UNL     1      -8.913  15.036  66.575  1.00  0.00    -0.310 A  
HETATM   18  C   UNL     1      -5.851  15.912  68.355  1.00  0.00    -0.107 A  
HETATM   19  C   UNL     1      -8.723  16.351  66.177  1.00  0.00    -0.312 A  
HETATM   20  C   UNL     1      -5.518  14.782  69.106  1.00  0.00    -0.095 A  
HETATM   21  C   UNL     1      -6.328  13.654  69.085  1.00  0.00    -0.103 A  
HETATM   22  N   UNL     1      -7.599  16.839  66.785  1.00  0.00    -0.219 NA 
HETATM   23  C   UNL     1      -7.021  15.877  67.576  1.00  0.00    -0.180 A  
HETATM   24  C   UNL     1      -7.096  18.187  66.631  1.00  0.00    -0.211 C  
HETATM   25  C   UNL     1      -7.843  14.741  67.506  1.00  0.00    -0.208 A  
HETATM   26  C   UNL     1      -7.480  13.619  68.285  1.00  0.00    -0.124 A  
ENDBRANCH  14  17
ENDBRANCH   9  11
ENDBRANCH   4   9
BRANCH   7  27
HETATM   27  N   UNL     1     -10.267   8.861  69.099  1.00  0.00    -0.201 N  
HETATM   28  O   UNL     1     -11.568   6.939  69.154  1.00  0.00    -0.034 OA 
HETATM   29  H   UNL     1      -9.918   9.623  69.680  1.00  0.00     0.000 HD 
HETATM   30  C   UNL     1     -11.164   7.980  69.659  1.00  0.00     0.089 C  
BRANCH  30  31
HETATM   31  C   UNL     1     -11.551   8.376  71.039  1.00  0.00    -0.307 C  
HETATM   32  C   UNL     1     -12.845   8.459  71.374  1.00  0.00    -0.262 C  
ENDBRANCH  30  31
ENDBRANCH   7  27
BRANCH   5  33
HETATM   33  N   UNL     1      -7.950   7.257  68.374  1.00  0.00    -0.122 NA 
HETATM   34  C   UNL     1      -7.741   5.825  68.185  1.00  0.00    -0.096 C  
BRANCH  33  35
HETATM   35  C   UNL     1      -7.259   7.864  69.525  1.00  0.00    -0.081 C  
BRANCH  35  36
HETATM   36  C   UNL     1      -7.138   6.858  70.695  1.00  0.00    -0.068 C  
BRANCH  36  37
HETATM   37  N   UNL     1      -8.396   6.566  71.414  1.00  0.00    -0.124 NA 
HETATM   38  C   UNL     1      -8.580   7.572  72.467  1.00  0.00    -0.116 C  
HETATM   39  C   UNL     1      -8.375   5.230  72.017  1.00  0.00    -0.122 C  
ENDBRANCH  36  37
ENDBRANCH  35  36
ENDBRANCH  33  35
ENDBRANCH   5  33
ENDBRANCH   2   3
TORSDOF 10
ENDMDL
MODEL      223
REMARK 921   NORMALIZED FREE ENERGY PREDICTED BY IDOCK:   -4.35 KCAL/MOL
REMARK 922        TOTAL FREE ENERGY PREDICTED BY IDOCK:   -8.61 KCAL/MOL
REMARK 923 INTER-LIGAND FREE ENERGY PREDICTED BY IDOCK:   -8.14 KCAL/MOL
REMARK 924 INTRA-LIGAND FREE ENERGY PREDICTED BY IDOCK:   -0.47 KCAL/MOL
REMARK 927      BINDING AFFINITY PREDICTED BY RF-SCORE:    0.00 PKD
ROOT
HETATM    1  C   UNL     1     -11.291  10.935  67.713  1.00  0.00    -0.292 C  
HETATM    2  O   UNL     1     -10.118  11.285  68.438  1.00  0.00    -0.181 OA 
ENDROOT
BRANCH   2   3
HETATM    3  C   UNL     1      -9.583  12.529  68.204  1.00  0.00    -0.215 A  
HETATM    4  C   UNL     1      -8.323  12.817  67.675  1.00  0.00    -0.175 A  
HETATM    5  C   UNL     1     -10.087  14.957  68.440  1.00  0.00    -0.225 A  
HETATM    6  C   UNL     1      -8.039  14.156  67.382  1.00  0.00    -0.205 A  
HETATM    7  C   UNL     1      -8.856  15.209  67.807  1.00  0.00    -0.170 A  
HETATM    8  C   UNL     1     -10.446  13.592  68.549  1.00  0.00    -0.250 A  
BRANCH   4   9
HETATM    9  N   UNL     1      -7.344  11.835  67.442  1.00  0.00    -0.127 NA 
HETATM   10  H   UNL     1      -6.394  12.051  67.741  1.00  0.00     0.000 HD 
BRANCH   9  11
HETATM   11  C   UNL     1      -7.550  10.590  66.838  1.00  0.00    -0.110 A  
HETATM   12  N   UNL     1      -7.546  10.571  65.501  1.00  0.00    -0.145 NA 
HETATM   13  N   UNL     1      -7.696   9.489  67.597  1.00  0.00    -0.094 NA 
HETATM   14  C   UNL     1      -7.719   8.290  66.997  1.00  0.00    -0.096 A  
HETATM   15  C   UNL     1      -7.675   8.178  65.624  1.00  0.00    -0.090 A  
HETATM   16  C   UNL     1      -7.611   9.362  64.924  1.00  0.00    -0.110 A  
BRANCH  14  17
HETATM   17  C   UNL     1      -7.774   7.122  67.886  1.00  0.00    -0.113 A  
HETATM   18  C   UNL     1      -9.170   4.727  70.258  1.00  0.00    -0.191 A  
HETATM   19  C   UNL     1      -6.726   6.223  68.026  1.00  0.00    -0.064 A  
HETATM   20  C   UNL     1     -10.438   5.215  70.580  1.00  0.00    -0.278 A  
HETATM   21  C   UNL     1     -10.896   6.409  70.037  1.00  0.00    -0.366 A  
HETATM   22  N   UNL     1      -7.095   5.252  68.917  1.00  0.00    -0.059 NA 
HETATM   23  C   UNL     1      -8.372   5.471  69.370  1.00  0.00    -0.101 A  
HETATM   24  C   UNL     1      -6.251   4.154  69.336  1.00  0.00    -0.028 C  
HETATM   25  C   UNL     1      -8.818   6.663  68.778  1.00  0.00    -0.126 A  
HETATM   26  C   UNL     1     -10.104   7.131  69.133  1.00  0.00    -0.183 A  
ENDBRANCH  14  17
ENDBRANCH   9  11
ENDBRANCH   4   9
BRANCH   7  27
HETATM   27  N   UNL     1      -8.309  16.509  67.767  1.00  0.00    -0.169 N  
HETATM   28  O   UNL     1      -6.942  16.389  69.640  1.00  0.00    -0.211 OA 
HETATM   29  H   UNL     1      -8.562  17.110  66.983  1.00  0.00     0.000 HD 
HETATM   30  C   UNL     1      -7.455  17.016  68.721  1.00  0.00    -0.242 C  
BRANCH  30  31
HETATM   31  C   UNL     1      -7.122  18.444  68.472  1.00  0.00    -0.285 C  
HETATM   32  C   UNL     1      -7.992  19.403  68.811  1.00  0.00    -0.391 C  
ENDBRANCH  30  31
ENDBRANCH   7  27
BRANCH   5  33
HETATM   33  N   UNL     1     -10.915  15.963  68.940  1.00  0.00    -0.270 NA 
HETATM   34  C   UNL     1     -10.886  17.333  68.438  1.00  0.00    -0.273 C  
BRANCH  33  35
HETATM   35  C   UNL     1     -11.982  15.653  69.908  1.00  0.00    -0.360 C  
BRANCH  35  36
HETATM   36  C   UNL     1     -11.529  15.962  71.354  1.00  0.00    -0.417 C  
BRANCH  36  37
HETATM   37  N   UNL     1     -12.617  16.076  72.350  1.00  0.00    -0.452 NA 
HETATM   38  C   UNL     1     -12.178  15.443  73.599  1.00  0.00    -0.561 C  
HETATM   39  C   UNL     1     -13.846  15.428  71.883  1.00  0.00    -0.517 C  
ENDBRANCH  36  37
ENDBRANCH  35  36
ENDBRANCH  33  35
ENDBRANCH   5  33
ENDBRANCH   2   3
TORSDOF 10
ENDMDL
MODEL      224
REMARK 921   NORMALIZED FREE ENERGY PREDICTED BY IDOCK:   -4.33 KCAL/MOL
REMARK 922        TOTAL FREE ENERGY PREDICTED BY IDOCK:   -8.57 KCAL/MOL
REMARK 923 INTER-LIGAND FREE ENERGY PREDICTED BY IDOCK:   -7.73 KCAL/MOL
REMARK 924 INTRA-LIGAND FREE ENERGY PREDICTED BY IDOCK:   -0.84 KCAL/MOL
REMARK 927      BINDING AFFINITY PREDICTED BY RF-SCORE:    0.00 PKD
ROOT
HETATM    1  C   UNL     1     -12.599  14.176  64.162  1.00  0.00    -0.069 C  
HETATM    2  O   UNL     1     -12.577  13.533  65.432  1.00  0.00    -0.470 OA 
ENDROOT
BRANCH   2   3
HETATM    3  C   UNL     1     -11.368  13.468  66.082  1.00  0.00    -0.308 A  
HETATM    4  C   UNL     1     -10.321  12.581  65.824  1.00  0.00    -0.265 A  
HETATM    5  C   UNL     1     -10.081  14.516  67.939  1.00  0.00    -0.227 A  
HETATM    6  C   UNL     1      -9.118  12.787  66.510  1.00  0.00    -0.150 A  
HETATM    7  C   UNL     1      -9.007  13.678  67.583  1.00  0.00    -0.202 A  
HETATM    8  C   UNL     1     -11.221  14.429  67.106  1.00  0.00    -0.337 A  
BRANCH   4   9
HETATM    9  N   UNL     1     -10.431  11.501  64.930  1.00  0.00    -0.276 NA 
HETATM   10  H   UNL     1     -11.036  11.633  64.120  1.00  0.00     0.000 HD 
BRANCH   9  11
HETATM   11  C   UNL     1      -9.790  10.263  65.046  1.00  0.00    -0.329 A  
HETATM   12  N   UNL     1      -8.874   9.980  64.114  1.00  0.00    -0.201 NA 
HETATM   13  N   UNL     1     -10.078   9.450  66.079  1.00  0.00    -0.283 NA 
HETATM   14  C   UNL     1      -9.331   8.351  66.262  1.00  0.00    -0.219 A  
HETATM   15  C   UNL     1      -8.336   8.008  65.372  1.00  0.00    -0.161 A  
HETATM   16  C   UNL     1      -8.168   8.854  64.299  1.00  0.00    -0.169 A  
BRANCH  14  17
HETATM   17  C   UNL     1      -9.625   7.562  67.465  1.00  0.00    -0.175 A  
HETATM   18  C   UNL     1      -9.252   4.947  69.982  1.00  0.00    -0.182 A  
HETATM   19  C   UNL     1     -10.652   7.870  68.344  1.00  0.00    -0.107 A  
HETATM   20  C   UNL     1      -8.199   4.145  69.535  1.00  0.00    -0.067 A  
HETATM   21  C   UNL     1      -7.562   4.419  68.331  1.00  0.00    -0.064 A  
HETATM   22  N   UNL     1     -10.657   6.951  69.358  1.00  0.00    -0.219 NA 
HETATM   23  C   UNL     1      -9.647   6.037  69.186  1.00  0.00    -0.132 A  
HETATM   24  C   UNL     1     -11.604   6.933  70.452  1.00  0.00    -0.335 C  
HETATM   25  C   UNL     1      -9.002   6.361  67.982  1.00  0.00    -0.115 A  
HETATM   26  C   UNL     1      -7.946   5.523  67.557  1.00  0.00    -0.101 A  
ENDBRANCH  14  17
ENDBRANCH   9  11
ENDBRANCH   4   9
BRANCH   7  27
HETATM   27  N   UNL     1      -7.872  13.554  68.412  1.00  0.00    -0.139 N  
HETATM   28  O   UNL     1      -7.675  11.241  68.420  1.00  0.00    -0.109 OA 
HETATM   29  H   UNL     1      -7.416  14.410  68.728  1.00  0.00     0.000 HD 
HETATM   30  C   UNL     1      -7.342  12.351  68.819  1.00  0.00    -0.076 C  
BRANCH  30  31
HETATM   31  C   UNL     1      -6.211  12.529  69.767  1.00  0.00    -0.113 C  
HETATM   32  C   UNL     1      -5.720  13.752  70.002  1.00  0.00    -0.125 C  
ENDBRANCH  30  31
ENDBRANCH   7  27
BRANCH   5  33
HETATM   33  N   UNL     1     -10.051  15.378  69.036  1.00  0.00    -0.222 NA 
HETATM   34  C   UNL     1     -11.080  15.375  70.071  1.00  0.00    -0.303 C  
BRANCH  33  35
HETATM   35  C   UNL     1      -8.884  16.241  69.288  1.00  0.00    -0.156 C  
BRANCH  35  36
HETATM   36  C   UNL     1      -8.806  17.389  68.254  1.00  0.00    -0.264 C  
BRANCH  36  37
HETATM   37  N   UNL     1     -10.107  17.872  67.743  1.00  0.00    -0.330 NA 
HETATM   38  C   UNL     1     -10.063  17.874  66.275  1.00  0.00    -0.351 C  
HETATM   39  C   UNL     1     -10.408  19.224  68.222  1.00  0.00    -0.380 C  
ENDBRANCH  36  37
ENDBRANCH  35  36
ENDBRANCH  33  35
ENDBRANCH   5  33
ENDBRANCH   2   3
TORSDOF 10
ENDMDL
MODEL      225
REMARK 921   NORMALIZED FREE ENERGY PREDICTED BY IDOCK:   -4.32 KCAL/MOL
REMARK 922        TOTAL FREE ENERGY PREDICTED BY IDOCK:   -8.57 KCAL/MOL
REMARK 923 INTER-LIGAND FREE ENERGY PREDICTED BY IDOCK:   -7.09 KCAL/MOL
REMARK 924 INTRA-LIGAND FREE ENERGY PREDICTED BY IDOCK:   -1.47 KCAL/MOL
REMARK 927      BINDING AFFINITY PREDICTED BY RF-SCORE:    0.00 PKD
ROOT
HETATM    1  C   UNL     1     -11.848   9.289  71.146  1.00  0.00    -0.325 C  
HETATM    2  O   UNL     1     -10.758  10.066  70.663  1.00  0.00    -0.303 OA 
ENDROOT
BRANCH   2   3
HETATM    3  C   UNL     1     -10.995  10.870  69.573  1.00  0.00    -0.253 A  
HETATM    4  C   UNL     1     -10.991  10.487  68.231  1.00  0.00    -0.263 A  
HETATM    5  C   UNL     1     -11.493  13.227  68.946  1.00  0.00    -0.298 A  
HETATM    6  C   UNL     1     -11.404  11.438  67.289  1.00  0.00    -0.347 A  
HETATM    7  C   UNL     1     -11.587  12.787  67.613  1.00  0.00    -0.358 A  
HETATM    8  C   UNL     1     -11.270  12.213  69.907  1.00  0.00     0.018 A  
BRANCH   4   9
HETATM    9  N   UNL     1     -10.585   9.213  67.795  1.00  0.00    -0.360 NA 
HETATM   10  H   UNL     1     -11.322   8.536  67.600  1.00  0.00     0.000 HD 
BRANCH   9  11
HETATM   11  C   UNL     1      -9.268   8.786  67.603  1.00  0.00    -0.134 A  
HETATM   12  N   UNL     1      -8.390   9.124  68.555  1.00  0.00    -0.122 NA 
HETATM   13  N   UNL     1      -8.950   8.041  66.529  1.00  0.00    -0.148 NA 
HETATM   14  C   UNL     1      -7.723   7.502  66.457  1.00  0.00    -0.097 A  
HETATM   15  C   UNL     1      -6.771   7.764  67.419  1.00  0.00    -0.068 A  
HETATM   16  C   UNL     1      -7.159   8.605  68.439  1.00  0.00    -0.077 A  
BRANCH  14  17
HETATM   17  C   UNL     1      -7.472   6.615  65.315  1.00  0.00    -0.082 A  
HETATM   18  C   UNL     1      -7.945   3.809  63.030  1.00  0.00    -0.075 A  
HETATM   19  C   UNL     1      -6.468   6.838  64.384  1.00  0.00    -0.038 A  
HETATM   20  C   UNL     1      -8.993   3.060  63.570  1.00  0.00    -0.092 A  
HETATM   21  C   UNL     1      -9.591   3.438  64.765  1.00  0.00    -0.159 A  
HETATM   22  N   UNL     1      -6.502   5.840  63.449  1.00  0.00    -0.031 NA 
HETATM   23  C   UNL     1      -7.516   4.955  63.723  1.00  0.00    -0.060 A  
HETATM   24  C   UNL     1      -5.588   5.722  62.334  1.00  0.00    -0.018 C  
HETATM   25  C   UNL     1      -8.122   5.383  64.915  1.00  0.00    -0.122 A  
HETATM   26  C   UNL     1      -9.174   4.596  65.436  1.00  0.00    -0.155 A  
ENDBRANCH  14  17
ENDBRANCH   9  11
ENDBRANCH   4   9
BRANCH   7  27
HETATM   27  N   UNL     1     -11.658  13.704  66.544  1.00  0.00    -0.349 N  
HETATM   28  O   UNL     1      -9.420  14.314  66.435  1.00  0.00    -0.280 OA 
HETATM   29  H   UNL     1     -12.557  13.828  66.079  1.00  0.00     0.000 HD 
HETATM   30  C   UNL     1     -10.588  14.443  66.089  1.00  0.00    -0.298 C  
BRANCH  30  31
HETATM   31  C   UNL     1     -10.982  15.399  65.021  1.00  0.00    -0.450 C  
HETATM   32  C   UNL     1     -12.110  15.203  64.328  1.00  0.00    -0.277 C  
ENDBRANCH  30  31
ENDBRANCH   7  27
BRANCH   5  33
HETATM   33  N   UNL     1     -11.605  14.567  69.322  1.00  0.00    -0.284 NA 
HETATM   34  C   UNL     1     -12.880  15.188  69.665  1.00  0.00     0.179 C  
BRANCH  33  35
HETATM   35  C   UNL     1     -10.404  15.392  69.543  1.00  0.00    -0.266 C  
BRANCH  35  36
HETATM   36  C   UNL     1     -10.579  16.804  68.935  1.00  0.00    -0.350 C  
BRANCH  36  37
HETATM   37  N   UNL     1      -9.332  17.578  68.758  1.00  0.00    -0.268 NA 
HETATM   38  C   UNL     1      -9.328  18.159  67.410  1.00  0.00    -0.254 C  
HETATM   39  C   UNL     1      -8.145  16.735  68.927  1.00  0.00    -0.230 C  
ENDBRANCH  36  37
ENDBRANCH  35  36
ENDBRANCH  33  35
ENDBRANCH   5  33
ENDBRANCH   2   3
TORSDOF 10
ENDMDL
MODEL      226
REMARK 921   NORMALIZED FREE ENERGY PREDICTED BY IDOCK:   -4.32 KCAL/MOL
REMARK 922        TOTAL FREE ENERGY PREDICTED BY IDOCK:   -8.57 KCAL/MOL
REMARK 923 INTER-LIGAND FREE ENERGY PREDICTED BY IDOCK:   -8.31 KCAL/MOL
REMARK 924 INTRA-LIGAND FREE ENERGY PREDICTED BY IDOCK:   -0.26 KCAL/MOL
REMARK 927      BINDING AFFINITY PREDICTED BY RF-SCORE:    0.00 PKD
ROOT
HETATM    1  C   UNL     1     -12.017  10.876  69.760  1.00  0.00    -0.351 C  
HETATM    2  O   UNL     1     -10.916  10.781  68.863  1.00  0.00    -0.206 OA 
ENDROOT
BRANCH   2   3
HETATM    3  C   UNL     1     -10.289  11.952  68.513  1.00  0.00    -0.218 A  
HETATM    4  C   UNL     1      -9.031  12.087  67.920  1.00  0.00    -0.182 A  
HETATM    5  C   UNL     1     -10.577  14.425  68.571  1.00  0.00    -0.255 A  
HETATM    6  C   UNL     1      -8.647  13.371  67.512  1.00  0.00    -0.200 A  
HETATM    7  C   UNL     1      -9.356  14.520  67.879  1.00  0.00    -0.201 A  
HETATM    8  C   UNL     1     -11.045  13.108  68.800  1.00  0.00    -0.309 A  
BRANCH   4   9
HETATM    9  N   UNL     1      -8.148  11.009  67.734  1.00  0.00    -0.114 NA 
HETATM   10  H   UNL     1      -7.232  11.082  68.174  1.00  0.00     0.000 HD 
BRANCH   9  11
HETATM   11  C   UNL     1      -8.407   9.846  67.002  1.00  0.00    -0.121 A  
HETATM   12  N   UNL     1      -8.258   9.934  65.675  1.00  0.00    -0.132 NA 
HETATM   13  N   UNL     1      -8.744   8.710  67.638  1.00  0.00    -0.135 NA 
HETATM   14  C   UNL     1      -8.818   7.572  66.932  1.00  0.00    -0.135 A  
HETATM   15  C   UNL     1      -8.635   7.566  65.566  1.00  0.00    -0.102 A  
HETATM   16  C   UNL     1      -8.378   8.789  64.987  1.00  0.00    -0.170 A  
BRANCH  14  17
HETATM   17  C   UNL     1      -9.085   6.349  67.700  1.00  0.00    -0.114 A  
HETATM   18  C   UNL     1      -9.343   2.780  68.415  1.00  0.00    -0.252 A  
HETATM   19  C   UNL     1      -9.478   6.357  69.030  1.00  0.00    -0.129 A  
HETATM   20  C   UNL     1      -9.048   2.136  67.212  1.00  0.00    -0.159 A  
HETATM   21  C   UNL     1      -8.771   2.868  66.065  1.00  0.00    -0.129 A  
HETATM   22  N   UNL     1      -9.638   5.065  69.452  1.00  0.00    -0.150 NA 
HETATM   23  C   UNL     1      -9.350   4.187  68.437  1.00  0.00    -0.155 A  
HETATM   24  C   UNL     1     -10.066   4.677  70.778  1.00  0.00    -0.194 C  
HETATM   25  C   UNL     1      -9.040   4.956  67.304  1.00  0.00    -0.122 A  
HETATM   26  C   UNL     1      -8.754   4.270  66.102  1.00  0.00    -0.114 A  
ENDBRANCH  14  17
ENDBRANCH   9  11
ENDBRANCH   4   9
BRANCH   7  27
HETATM   27  N   UNL     1      -8.704  15.761  67.717  1.00  0.00    -0.169 N  
HETATM   28  O   UNL     1      -7.277  15.667  69.546  1.00  0.00    -0.200 OA 
HETATM   29  H   UNL     1      -8.936  16.320  66.896  1.00  0.00     0.000 HD 
HETATM   30  C   UNL     1      -7.772  16.263  68.597  1.00  0.00    -0.192 C  
BRANCH  30  31
HETATM   31  C   UNL     1      -7.331  17.633  68.225  1.00  0.00    -0.234 C  
HETATM   32  C   UNL     1      -7.938  18.701  68.757  1.00  0.00    -0.317 C  
ENDBRANCH  30  31
ENDBRANCH   7  27
BRANCH   5  33
HETATM   33  N   UNL     1     -11.297  15.534  69.016  1.00  0.00    -0.302 NA 
HETATM   34  C   UNL     1     -11.107  16.872  68.465  1.00  0.00    -0.213 C  
BRANCH  33  35
HETATM   35  C   UNL     1     -12.408  15.381  69.971  1.00  0.00    -0.336 C  
BRANCH  35  36
HETATM   36  C   UNL     1     -11.961  15.738  71.408  1.00  0.00    -0.441 C  
BRANCH  36  37
HETATM   37  N   UNL     1     -13.000  15.596  72.451  1.00  0.00    -0.415 NA 
HETATM   38  C   UNL     1     -12.440  16.035  73.735  1.00  0.00    -0.605 C  
HETATM   39  C   UNL     1     -13.459  14.209  72.570  1.00  0.00    -0.534 C  
ENDBRANCH  36  37
ENDBRANCH  35  36
ENDBRANCH  33  35
ENDBRANCH   5  33
ENDBRANCH   2   3
TORSDOF 10
ENDMDL
MODEL      227
REMARK 921   NORMALIZED FREE ENERGY PREDICTED BY IDOCK:   -4.25 KCAL/MOL
REMARK 922        TOTAL FREE ENERGY PREDICTED BY IDOCK:   -8.44 KCAL/MOL
REMARK 923 INTER-LIGAND FREE ENERGY PREDICTED BY IDOCK:   -6.80 KCAL/MOL
REMARK 924 INTRA-LIGAND FREE ENERGY PREDICTED BY IDOCK:   -1.64 KCAL/MOL
REMARK 927      BINDING AFFINITY PREDICTED BY RF-SCORE:    0.00 PKD
ROOT
HETATM    1  C   UNL     1      -7.491   8.492  64.006  1.00  0.00    -0.116 C  
HETATM    2  O   UNL     1      -6.879   8.664  65.280  1.00  0.00    -0.070 OA 
ENDROOT
BRANCH   2   3
HETATM    3  C   UNL     1      -7.707   8.677  66.377  1.00  0.00    -0.095 A  
HETATM    4  C   UNL     1      -8.460   9.755  66.848  1.00  0.00    -0.120 A  
HETATM    5  C   UNL     1      -8.515   7.238  68.241  1.00  0.00    -0.124 A  
HETATM    6  C   UNL     1      -9.351   9.506  67.899  1.00  0.00    -0.145 A  
HETATM    7  C   UNL     1      -9.342   8.310  68.626  1.00  0.00    -0.143 A  
HETATM    8  C   UNL     1      -7.767   7.442  67.057  1.00  0.00    -0.111 A  
BRANCH   4   9
HETATM    9  N   UNL     1      -8.351  11.056  66.328  1.00  0.00    -0.164 NA 
HETATM   10  H   UNL     1      -8.739  11.215  65.399  1.00  0.00     0.000 HD 
BRANCH   9  11
HETATM   11  C   UNL     1      -7.760  12.153  66.962  1.00  0.00    -0.112 A  
HETATM   12  N   UNL     1      -6.423  12.188  66.965  1.00  0.00    -0.130 NA 
HETATM   13  N   UNL     1      -8.530  13.121  67.492  1.00  0.00    -0.185 NA 
HETATM   14  C   UNL     1      -7.943  14.241  67.940  1.00  0.00    -0.153 A  
HETATM   15  C   UNL     1      -6.572  14.377  67.939  1.00  0.00    -0.179 A  
HETATM   16  C   UNL     1      -5.859  13.302  67.456  1.00  0.00    -0.042 A  
BRANCH  14  17
HETATM   17  C   UNL     1      -8.844  15.301  68.408  1.00  0.00    -0.179 A  
HETATM   18  C   UNL     1     -10.408  18.594  68.579  1.00  0.00    -0.311 A  
HETATM   19  C   UNL     1      -9.797  15.108  69.398  1.00  0.00    -0.212 A  
HETATM   20  C   UNL     1      -9.711  19.387  67.665  1.00  0.00    -0.428 A  
HETATM   21  C   UNL     1      -8.640  18.867  66.949  1.00  0.00    -0.300 A  
HETATM   22  N   UNL     1     -10.472  16.282  69.596  1.00  0.00    -0.297 NA 
HETATM   23  C   UNL     1     -10.002  17.258  68.753  1.00  0.00    -0.325 A  
HETATM   24  C   UNL     1     -11.525  16.474  70.570  1.00  0.00     0.016 C  
HETATM   25  C   UNL     1      -8.946  16.693  68.020  1.00  0.00    -0.211 A  
HETATM   26  C   UNL     1      -8.259  17.527  67.110  1.00  0.00    -0.229 A  
ENDBRANCH  14  17
ENDBRANCH   9  11
ENDBRANCH   4   9
BRANCH   7  27
HETATM   27  N   UNL     1     -10.023   8.299  69.861  1.00  0.00    -0.187 N  
HETATM   28  O   UNL     1      -8.411   9.325  71.180  1.00  0.00    -0.291 OA 
HETATM   29  H   UNL     1     -10.979   7.942  69.877  1.00  0.00     0.000 HD 
HETATM   30  C   UNL     1      -9.480   8.741  71.047  1.00  0.00    -0.228 C  
BRANCH  30  31
HETATM   31  C   UNL     1     -10.390   8.514  72.200  1.00  0.00    -0.409 C  
HETATM   32  C   UNL     1     -11.683   8.239  71.989  1.00  0.00    -0.407 C  
ENDBRANCH  30  31
ENDBRANCH   7  27
BRANCH   5  33
HETATM   33  N   UNL     1      -8.417   6.047  68.961  1.00  0.00    -0.116 NA 
HETATM   34  C   UNL     1      -7.286   5.739  69.830  1.00  0.00    -0.070 C  
BRANCH  33  35
HETATM   35  C   UNL     1      -9.539   5.092  68.999  1.00  0.00    -0.150 C  
BRANCH  35  36
HETATM   36  C   UNL     1      -9.965   4.792  70.456  1.00  0.00    -0.236 C  
BRANCH  36  37
HETATM   37  N   UNL     1      -9.795   3.389  70.891  1.00  0.00    -0.118 NA 
HETATM   38  C   UNL     1      -8.959   3.371  72.098  1.00  0.00    -0.099 C  
HETATM   39  C   UNL     1      -9.163   2.574  69.850  1.00  0.00    -0.125 C  
ENDBRANCH  36  37
ENDBRANCH  35  36
ENDBRANCH  33  35
ENDBRANCH   5  33
ENDBRANCH   2   3
TORSDOF 10
ENDMDL
MODEL      228
REMARK 921   NORMALIZED FREE ENERGY PREDICTED BY IDOCK:   -4.24 KCAL/MOL
REMARK 922        TOTAL FREE ENERGY PREDICTED BY IDOCK:   -8.44 KCAL/MOL
REMARK 923 INTER-LIGAND FREE ENERGY PREDICTED BY IDOCK:   -7.58 KCAL/MOL
REMARK 924 INTRA-LIGAND FREE ENERGY PREDICTED BY IDOCK:   -0.85 KCAL/MOL
REMARK 927      BINDING AFFINITY PREDICTED BY RF-SCORE:    0.00 PKD
ROOT
HETATM    1  C   UNL     1     -11.960  13.934  67.375  1.00  0.00    -0.401 C  
HETATM    2  O   UNL     1     -10.795  14.384  66.691  1.00  0.00    -0.295 OA 
ENDROOT
BRANCH   2   3
HETATM    3  C   UNL     1      -9.945  15.216  67.379  1.00  0.00    -0.226 A  
HETATM    4  C   UNL     1      -9.038  14.852  68.376  1.00  0.00    -0.185 A  
HETATM    5  C   UNL     1      -9.295  17.610  67.598  1.00  0.00    -0.246 A  
HETATM    6  C   UNL     1      -8.163  15.841  68.842  1.00  0.00    -0.210 A  
HETATM    7  C   UNL     1      -8.319  17.195  68.522  1.00  0.00    -0.262 A  
HETATM    8  C   UNL     1     -10.038  16.570  66.991  1.00  0.00    -0.279 A  
BRANCH   4   9
HETATM    9  N   UNL     1      -8.979  13.561  68.930  1.00  0.00    -0.376 NA 
HETATM   10  H   UNL     1      -9.337  13.449  69.878  1.00  0.00     0.000 HD 
BRANCH   9  11
HETATM   11  C   UNL     1      -8.477  12.416  68.304  1.00  0.00    -0.170 A  
HETATM   12  N   UNL     1      -7.530  12.612  67.380  1.00  0.00    -0.152 NA 
HETATM   13  N   UNL     1      -8.917  11.199  68.672  1.00  0.00    -0.171 NA 
HETATM   14  C   UNL     1      -8.299  10.114  68.181  1.00  0.00    -0.117 A  
HETATM   15  C   UNL     1      -7.283  10.228  67.256  1.00  0.00    -0.089 A  
HETATM   16  C   UNL     1      -6.956  11.510  66.875  1.00  0.00    -0.134 A  
BRANCH  14  17
HETATM   17  C   UNL     1      -8.755   8.818  68.701  1.00  0.00    -0.134 A  
HETATM   18  C   UNL     1      -8.583   5.591  70.394  1.00  0.00    -0.131 A  
HETATM   19  C   UNL     1     -10.066   8.376  68.595  1.00  0.00    -0.193 A  
HETATM   20  C   UNL     1      -7.244   5.431  70.758  1.00  0.00    -0.070 A  
HETATM   21  C   UNL     1      -6.299   6.394  70.426  1.00  0.00    -0.036 A  
HETATM   22  N   UNL     1     -10.164   7.143  69.180  1.00  0.00    -0.188 NA 
HETATM   23  C   UNL     1      -8.950   6.751  69.688  1.00  0.00    -0.143 A  
HETATM   24  C   UNL     1     -11.374   6.353  69.242  1.00  0.00    -0.338 C  
HETATM   25  C   UNL     1      -8.027   7.759  69.368  1.00  0.00    -0.124 A  
HETATM   26  C   UNL     1      -6.680   7.559  69.745  1.00  0.00    -0.043 A  
ENDBRANCH  14  17
ENDBRANCH   9  11
ENDBRANCH   4   9
BRANCH   7  27
HETATM   27  N   UNL     1      -7.613  18.130  69.308  1.00  0.00    -0.028 N  
HETATM   28  O   UNL     1      -5.546  18.007  68.256  1.00  0.00    -0.158 OA 
HETATM   29  H   UNL     1      -8.127  18.631  70.032  1.00  0.00     0.000 HD 
HETATM   30  C   UNL     1      -6.273  18.408  69.158  1.00  0.00    -0.239 C  
BRANCH  30  31
HETATM   31  C   UNL     1      -5.779  19.358  70.190  1.00  0.00    -0.279 C  
HETATM   32  C   UNL     1      -5.210  18.895  71.310  1.00  0.00    -0.304 C  
ENDBRANCH  30  31
ENDBRANCH   7  27
BRANCH   5  33
HETATM   33  N   UNL     1      -9.538  18.948  67.286  1.00  0.00    -0.302 NA 
HETATM   34  C   UNL     1     -10.877  19.530  67.291  1.00  0.00    -0.437 C  
BRANCH  33  35
HETATM   35  C   UNL     1      -8.425  19.892  67.084  1.00  0.00    -0.324 C  
BRANCH  35  36
HETATM   36  C   UNL     1      -7.947  19.883  65.613  1.00  0.00    -0.053 C  
BRANCH  36  37
HETATM   37  N   UNL     1      -6.637  20.522  65.367  1.00  0.00    -0.257 NA 
HETATM   38  C   UNL     1      -5.772  19.566  64.666  1.00  0.00    -0.243 C  
HETATM   39  C   UNL     1      -5.993  20.933  66.618  1.00  0.00    -0.246 C  
ENDBRANCH  36  37
ENDBRANCH  35  36
ENDBRANCH  33  35
ENDBRANCH   5  33
ENDBRANCH   2   3
TORSDOF 10
ENDMDL
MODEL      229
REMARK 921   NORMALIZED FREE ENERGY PREDICTED BY IDOCK:   -4.24 KCAL/MOL
REMARK 922        TOTAL FREE ENERGY PREDICTED BY IDOCK:   -8.43 KCAL/MOL
REMARK 923 INTER-LIGAND FREE ENERGY PREDICTED BY IDOCK:   -7.52 KCAL/MOL
REMARK 924 INTRA-LIGAND FREE ENERGY PREDICTED BY IDOCK:   -0.91 KCAL/MOL
REMARK 927      BINDING AFFINITY PREDICTED BY RF-SCORE:    0.00 PKD
ROOT
HETATM    1  C   UNL     1     -12.740  15.533  64.317  1.00  0.00     0.538 C  
HETATM    2  O   UNL     1     -11.993  14.570  65.055  1.00  0.00    -0.382 OA 
ENDROOT
BRANCH   2   3
HETATM    3  C   UNL     1     -10.839  15.002  65.662  1.00  0.00    -0.349 A  
HETATM    4  C   UNL     1      -9.779  14.211  66.109  1.00  0.00    -0.290 A  
HETATM    5  C   UNL     1      -9.697  17.065  66.462  1.00  0.00    -0.282 A  
HETATM    6  C   UNL     1      -8.631  14.872  66.567  1.00  0.00    -0.131 A  
HETATM    7  C   UNL     1      -8.602  16.251  66.805  1.00  0.00    -0.237 A  
HETATM    8  C   UNL     1     -10.770  16.403  65.819  1.00  0.00    -0.245 A  
BRANCH   4   9
HETATM    9  N   UNL     1      -9.822  12.806  66.131  1.00  0.00    -0.266 NA 
HETATM   10  H   UNL     1      -9.390  12.320  65.345  1.00  0.00     0.000 HD 
BRANCH   9  11
HETATM   11  C   UNL     1     -10.400  12.012  67.125  1.00  0.00    -0.213 A  
HETATM   12  N   UNL     1     -11.278  12.618  67.933  1.00  0.00    -0.248 NA 
HETATM   13  N   UNL     1     -10.096  10.704  67.205  1.00  0.00    -0.191 NA 
HETATM   14  C   UNL     1     -10.790   9.931  68.054  1.00  0.00    -0.243 A  
HETATM   15  C   UNL     1     -11.745  10.467  68.891  1.00  0.00    -0.217 A  
HETATM   16  C   UNL     1     -11.930  11.829  68.800  1.00  0.00    -0.257 A  
BRANCH  14  17
HETATM   17  C   UNL     1     -10.485   8.495  68.019  1.00  0.00    -0.249 A  
HETATM   18  C   UNL     1     -10.107   5.076  69.236  1.00  0.00    -0.270 A  
HETATM   19  C   UNL     1     -10.098   7.827  66.866  1.00  0.00    -0.286 A  
HETATM   20  C   UNL     1     -10.374   5.135  70.606  1.00  0.00    -0.305 A  
HETATM   21  C   UNL     1     -10.671   6.346  71.218  1.00  0.00    -0.288 A  
HETATM   22  N   UNL     1      -9.896   6.508  67.166  1.00  0.00    -0.140 NA 
HETATM   23  C   UNL     1     -10.149   6.270  68.494  1.00  0.00    -0.157 A  
HETATM   24  C   UNL     1      -9.460   5.504  66.220  1.00  0.00    -0.157 C  
HETATM   25  C   UNL     1     -10.480   7.504  69.076  1.00  0.00    -0.216 A  
HETATM   26  C   UNL     1     -10.737   7.527  70.465  1.00  0.00    -0.244 A  
ENDBRANCH  14  17
ENDBRANCH   9  11
ENDBRANCH   4   9
BRANCH   7  27
HETATM   27  N   UNL     1      -7.535  16.750  67.581  1.00  0.00    -0.149 N  
HETATM   28  O   UNL     1      -6.021  17.198  65.879  1.00  0.00    -0.165 OA 
HETATM   29  H   UNL     1      -7.680  16.847  68.586  1.00  0.00     0.000 HD 
HETATM   30  C   UNL     1      -6.312  17.116  67.066  1.00  0.00    -0.185 C  
BRANCH  30  31
HETATM   31  C   UNL     1      -5.351  17.508  68.131  1.00  0.00    -0.139 C  
HETATM   32  C   UNL     1      -5.175  16.720  69.198  1.00  0.00    -0.130 C  
ENDBRANCH  30  31
ENDBRANCH   7  27
BRANCH   5  33
HETATM   33  N   UNL     1      -9.751  18.434  66.731  1.00  0.00    -0.311 NA 
HETATM   34  C   UNL     1      -9.520  19.450  65.709  1.00  0.00     0.128 C  
BRANCH  33  35
HETATM   35  C   UNL     1     -10.200  18.929  68.044  1.00  0.00    -0.388 C  
BRANCH  35  36
HETATM   36  C   UNL     1      -9.257  20.034  68.574  1.00  0.00    -0.087 C  
BRANCH  36  37
HETATM   37  N   UNL     1      -7.813  19.786  68.376  1.00  0.00    -0.320 NA 
HETATM   38  C   UNL     1      -7.141  19.857  69.679  1.00  0.00    -0.122 C  
HETATM   39  C   UNL     1      -7.216  20.769  67.467  1.00  0.00    -0.326 C  
ENDBRANCH  36  37
ENDBRANCH  35  36
ENDBRANCH  33  35
ENDBRANCH   5  33
ENDBRANCH   2   3
TORSDOF 10
ENDMDL
MODEL      230
REMARK 921   NORMALIZED FREE ENERGY PREDICTED BY IDOCK:   -4.23 KCAL/MOL
REMARK 922        TOTAL FREE ENERGY PREDICTED BY IDOCK:   -8.42 KCAL/MOL
REMARK 923 INTER-LIGAND FREE ENERGY PREDICTED BY IDOCK:   -6.84 KCAL/MOL
REMARK 924 INTRA-LIGAND FREE ENERGY PREDICTED BY IDOCK:   -1.57 KCAL/MOL
REMARK 927      BINDING AFFINITY PREDICTED BY RF-SCORE:    0.00 PKD
ROOT
HETATM    1  C   UNL     1      -5.442  12.666  70.760  1.00  0.00    -0.175 C  
HETATM    2  O   UNL     1      -6.158  12.843  69.542  1.00  0.00    -0.102 OA 
ENDROOT
BRANCH   2   3
HETATM    3  C   UNL     1      -6.974  11.815  69.138  1.00  0.00    -0.091 A  
HETATM    4  C   UNL     1      -8.297  11.914  68.702  1.00  0.00    -0.058 A  
HETATM    5  C   UNL     1      -7.022   9.340  68.862  1.00  0.00    -0.064 A  
HETATM    6  C   UNL     1      -8.897  10.754  68.196  1.00  0.00    -0.133 A  
HETATM    7  C   UNL     1      -8.315   9.488  68.328  1.00  0.00    -0.118 A  
HETATM    8  C   UNL     1      -6.356  10.547  69.184  1.00  0.00    -0.051 A  
BRANCH   4   9
HETATM    9  N   UNL     1      -9.040  13.107  68.761  1.00  0.00    -0.390 NA 
HETATM   10  H   UNL     1      -9.662  13.223  69.561  1.00  0.00     0.000 HD 
BRANCH   9  11
HETATM   11  C   UNL     1      -9.007  14.148  67.829  1.00  0.00    -0.187 A  
HETATM   12  N   UNL     1      -9.755  13.986  66.731  1.00  0.00    -0.269 NA 
HETATM   13  N   UNL     1      -8.284  15.255  68.079  1.00  0.00    -0.138 NA 
HETATM   14  C   UNL     1      -8.405  16.305  67.254  1.00  0.00    -0.180 A  
HETATM   15  C   UNL     1      -9.190  16.238  66.123  1.00  0.00    -0.376 A  
HETATM   16  C   UNL     1      -9.827  15.037  65.901  1.00  0.00    -0.338 A  
BRANCH  14  17
HETATM   17  C   UNL     1      -7.673  17.519  67.639  1.00  0.00    -0.207 A  
HETATM   18  C   UNL     1      -5.728  20.579  67.234  1.00  0.00    -0.216 A  
HETATM   19  C   UNL     1      -7.562  17.956  68.950  1.00  0.00    -0.217 A  
HETATM   20  C   UNL     1      -5.449  20.667  65.868  1.00  0.00    -0.228 A  
HETATM   21  C   UNL     1      -5.875  19.676  64.993  1.00  0.00    -0.259 A  
HETATM   22  N   UNL     1      -6.828  19.111  68.970  1.00  0.00    -0.316 NA 
HETATM   23  C   UNL     1      -6.453  19.467  67.698  1.00  0.00    -0.212 A  
HETATM   24  C   UNL     1      -6.481  19.847  70.166  1.00  0.00    -0.279 C  
HETATM   25  C   UNL     1      -6.927  18.466  66.836  1.00  0.00    -0.214 A  
HETATM   26  C   UNL     1      -6.619  18.584  65.462  1.00  0.00    -0.299 A  
ENDBRANCH  14  17
ENDBRANCH   9  11
ENDBRANCH   4   9
BRANCH   7  27
HETATM   27  N   UNL     1      -9.145   8.369  68.104  1.00  0.00    -0.138 N  
HETATM   28  O   UNL     1      -9.697   8.759  65.883  1.00  0.00    -0.237 OA 
HETATM   29  H   UNL     1      -9.250   7.693  68.861  1.00  0.00     0.000 HD 
HETATM   30  C   UNL     1      -9.822   8.133  66.929  1.00  0.00    -0.247 C  
BRANCH  30  31
HETATM   31  C   UNL     1     -10.697   6.935  67.017  1.00  0.00    -0.432 C  
HETATM   32  C   UNL     1     -11.148   6.520  68.207  1.00  0.00    -0.332 C  
ENDBRANCH  30  31
ENDBRANCH   7  27
BRANCH   5  33
HETATM   33  N   UNL     1      -6.415   8.102  69.075  1.00  0.00    -0.040 NA 
HETATM   34  C   UNL     1      -6.602   7.330  70.299  1.00  0.00    -0.047 C  
BRANCH  33  35
HETATM   35  C   UNL     1      -5.668   7.431  67.996  1.00  0.00    -0.027 C  
BRANCH  35  36
HETATM   36  C   UNL     1      -6.299   6.062  67.650  1.00  0.00    -0.041 C  
BRANCH  36  37
HETATM   37  N   UNL     1      -6.498   5.800  66.209  1.00  0.00    -0.042 NA 
HETATM   38  C   UNL     1      -6.603   7.086  65.508  1.00  0.00    -0.051 C  
HETATM   39  C   UNL     1      -7.711   5.014  65.965  1.00  0.00    -0.091 C  
ENDBRANCH  36  37
ENDBRANCH  35  36
ENDBRANCH  33  35
ENDBRANCH   5  33
ENDBRANCH   2   3
TORSDOF 10
ENDMDL
MODEL      231
REMARK 921   NORMALIZED FREE ENERGY PREDICTED BY IDOCK:   -4.22 KCAL/MOL
REMARK 922        TOTAL FREE ENERGY PREDICTED BY IDOCK:   -8.40 KCAL/MOL
REMARK 923 INTER-LIGAND FREE ENERGY PREDICTED BY IDOCK:   -6.91 KCAL/MOL
REMARK 924 INTRA-LIGAND FREE ENERGY PREDICTED BY IDOCK:   -1.49 KCAL/MOL
REMARK 927      BINDING AFFINITY PREDICTED BY RF-SCORE:    0.00 PKD
ROOT
HETATM    1  C   UNL     1     -11.313   9.881  70.488  1.00  0.00    -0.327 C  
HETATM    2  O   UNL     1     -10.119  10.424  69.934  1.00  0.00    -0.209 OA 
ENDROOT
BRANCH   2   3
HETATM    3  C   UNL     1      -9.499   9.697  68.947  1.00  0.00    -0.157 A  
HETATM    4  C   UNL     1      -9.735   9.774  67.572  1.00  0.00    -0.157 A  
HETATM    5  C   UNL     1      -7.796   7.914  68.600  1.00  0.00    -0.119 A  
HETATM    6  C   UNL     1      -8.883   9.047  66.732  1.00  0.00    -0.144 A  
HETATM    7  C   UNL     1      -7.983   8.091  67.217  1.00  0.00    -0.121 A  
HETATM    8  C   UNL     1      -8.524   8.798  69.431  1.00  0.00    -0.125 A  
BRANCH   4   9
HETATM    9  N   UNL     1     -10.782  10.527  67.012  1.00  0.00    -0.264 NA 
HETATM   10  H   UNL     1     -11.731  10.265  67.277  1.00  0.00     0.000 HD 
BRANCH   9  11
HETATM   11  C   UNL     1     -10.646  11.600  66.126  1.00  0.00    -0.262 A  
HETATM   12  N   UNL     1     -11.035  11.382  64.865  1.00  0.00    -0.256 NA 
HETATM   13  N   UNL     1     -10.184  12.784  66.568  1.00  0.00    -0.248 NA 
HETATM   14  C   UNL     1     -10.225  13.841  65.743  1.00  0.00    -0.311 A  
HETATM   15  C   UNL     1     -10.654  13.713  64.439  1.00  0.00    -0.360 A  
HETATM   16  C   UNL     1     -11.028  12.446  64.049  1.00  0.00    -0.391 A  
BRANCH  14  17
HETATM   17  C   UNL     1      -9.806  15.127  66.317  1.00  0.00    -0.317 A  
HETATM   18  C   UNL     1      -7.616  17.594  67.874  1.00  0.00    -0.210 A  
HETATM   19  C   UNL     1     -10.629  16.243  66.361  1.00  0.00    -0.253 A  
HETATM   20  C   UNL     1      -6.428  16.916  68.153  1.00  0.00    -0.148 A  
HETATM   21  C   UNL     1      -6.298  15.564  67.861  1.00  0.00    -0.169 A  
HETATM   22  N   UNL     1      -9.944  17.273  66.947  1.00  0.00    -0.283 NA 
HETATM   23  C   UNL     1      -8.674  16.877  67.287  1.00  0.00    -0.194 A  
HETATM   24  C   UNL     1     -10.486  18.592  67.189  1.00  0.00    -0.409 C  
HETATM   25  C   UNL     1      -8.563  15.519  66.948  1.00  0.00    -0.289 A  
HETATM   26  C   UNL     1      -7.349  14.863  67.252  1.00  0.00    -0.174 A  
ENDBRANCH  14  17
ENDBRANCH   9  11
ENDBRANCH   4   9
BRANCH   7  27
HETATM   27  N   UNL     1      -7.437   7.185  66.284  1.00  0.00    -0.085 N  
HETATM   28  O   UNL     1      -9.337   5.926  65.841  1.00  0.00    -0.140 OA 
HETATM   29  H   UNL     1      -6.465   7.314  66.004  1.00  0.00     0.000 HD 
HETATM   30  C   UNL     1      -8.135   6.137  65.727  1.00  0.00    -0.124 C  
BRANCH  30  31
HETATM   31  C   UNL     1      -7.276   5.291  64.858  1.00  0.00    -0.066 C  
HETATM   32  C   UNL     1      -7.670   4.055  64.526  1.00  0.00    -0.081 C  
ENDBRANCH  30  31
ENDBRANCH   7  27
BRANCH   5  33
HETATM   33  N   UNL     1      -6.960   6.937  69.143  1.00  0.00    -0.075 NA 
HETATM   34  C   UNL     1      -5.524   7.132  69.315  1.00  0.00    -0.015 C  
BRANCH  33  35
HETATM   35  C   UNL     1      -7.517   5.701  69.720  1.00  0.00    -0.074 C  
BRANCH  35  36
HETATM   36  C   UNL     1      -7.263   5.634  71.245  1.00  0.00    -0.074 C  
BRANCH  36  37
HETATM   37  N   UNL     1      -8.191   4.771  72.006  1.00  0.00    -0.108 NA 
HETATM   38  C   UNL     1      -8.329   5.312  73.363  1.00  0.00    -0.114 C  
HETATM   39  C   UNL     1      -7.705   3.390  72.080  1.00  0.00    -0.058 C  
ENDBRANCH  36  37
ENDBRANCH  35  36
ENDBRANCH  33  35
ENDBRANCH   5  33
ENDBRANCH   2   3
TORSDOF 10
ENDMDL
MODEL      232
REMARK 921   NORMALIZED FREE ENERGY PREDICTED BY IDOCK:   -4.21 KCAL/MOL
REMARK 922        TOTAL FREE ENERGY PREDICTED BY IDOCK:   -8.38 KCAL/MOL
REMARK 923 INTER-LIGAND FREE ENERGY PREDICTED BY IDOCK:   -7.98 KCAL/MOL
REMARK 924 INTRA-LIGAND FREE ENERGY PREDICTED BY IDOCK:   -0.40 KCAL/MOL
REMARK 927      BINDING AFFINITY PREDICTED BY RF-SCORE:    0.00 PKD
ROOT
HETATM    1  C   UNL     1      -5.258  16.524  69.406  1.00  0.00    -0.134 C  
HETATM    2  O   UNL     1      -6.609  16.500  69.856  1.00  0.00    -0.169 OA 
ENDROOT
BRANCH   2   3
HETATM    3  C   UNL     1      -7.561  16.079  68.959  1.00  0.00    -0.209 A  
HETATM    4  C   UNL     1      -7.863  14.761  68.610  1.00  0.00    -0.140 A  
HETATM    5  C   UNL     1      -9.277  16.940  67.373  1.00  0.00    -0.222 A  
HETATM    6  C   UNL     1      -8.974  14.553  67.783  1.00  0.00    -0.190 A  
HETATM    7  C   UNL     1      -9.628  15.600  67.124  1.00  0.00    -0.218 A  
HETATM    8  C   UNL     1      -8.284  17.134  68.362  1.00  0.00    -0.253 A  
BRANCH   4   9
HETATM    9  N   UNL     1      -7.103  13.659  69.038  1.00  0.00    -0.182 NA 
HETATM   10  H   UNL     1      -6.453  13.817  69.808  1.00  0.00     0.000 HD 
BRANCH   9  11
HETATM   11  C   UNL     1      -7.152  12.366  68.508  1.00  0.00    -0.100 A  
HETATM   12  N   UNL     1      -6.285  12.093  67.527  1.00  0.00    -0.114 NA 
HETATM   13  N   UNL     1      -8.010  11.462  69.016  1.00  0.00    -0.078 NA 
HETATM   14  C   UNL     1      -7.919  10.186  68.609  1.00  0.00    -0.103 A  
HETATM   15  C   UNL     1      -7.022   9.811  67.632  1.00  0.00    -0.086 A  
HETATM   16  C   UNL     1      -6.242  10.818  67.110  1.00  0.00    -0.065 A  
BRANCH  14  17
HETATM   17  C   UNL     1      -8.810   9.229  69.276  1.00  0.00    -0.146 A  
HETATM   18  C   UNL     1     -11.067   6.386  69.648  1.00  0.00    -0.465 A  
HETATM   19  C   UNL     1      -9.057   9.243  70.641  1.00  0.00    -0.253 A  
HETATM   20  C   UNL     1     -11.265   5.894  68.356  1.00  0.00     0.027 A  
HETATM   21  C   UNL     1     -10.670   6.513  67.264  1.00  0.00    -0.427 A  
HETATM   22  N   UNL     1      -9.920   8.225  70.945  1.00  0.00    -0.187 NA 
HETATM   23  C   UNL     1     -10.250   7.519  69.815  1.00  0.00    -0.211 A  
HETATM   24  C   UNL     1     -10.427   7.941  72.270  1.00  0.00    -0.262 C  
HETATM   25  C   UNL     1      -9.607   8.146  68.737  1.00  0.00    -0.149 A  
HETATM   26  C   UNL     1      -9.836   7.626  67.443  1.00  0.00    -0.226 A  
ENDBRANCH  14  17
ENDBRANCH   9  11
ENDBRANCH   4   9
BRANCH   7  27
HETATM   27  N   UNL     1     -10.491  15.256  66.063  1.00  0.00    -0.300 N  
HETATM   28  O   UNL     1     -12.090  14.071  67.260  1.00  0.00    -0.409 OA 
HETATM   29  H   UNL     1     -10.274  15.616  65.134  1.00  0.00     0.000 HD 
HETATM   30  C   UNL     1     -11.609  14.464  66.203  1.00  0.00    -0.369 C  
BRANCH  30  31
HETATM   31  C   UNL     1     -12.267  14.188  64.899  1.00  0.00    -0.451 C  
HETATM   32  C   UNL     1     -11.973  13.071  64.224  1.00  0.00    -0.466 C  
ENDBRANCH  30  31
ENDBRANCH   7  27
BRANCH   5  33
HETATM   33  N   UNL     1      -9.850  18.021  66.702  1.00  0.00    -0.334 NA 
HETATM   34  C   UNL     1     -10.748  17.858  65.563  1.00  0.00     0.023 C  
BRANCH  33  35
HETATM   35  C   UNL     1      -9.697  19.395  67.213  1.00  0.00    -0.334 C  
BRANCH  35  36
HETATM   36  C   UNL     1      -8.868  20.262  66.236  1.00  0.00    -0.135 C  
BRANCH  36  37
HETATM   37  N   UNL     1      -7.492  20.577  66.678  1.00  0.00    -0.245 NA 
HETATM   38  C   UNL     1      -6.554  19.726  65.937  1.00  0.00    -0.237 C  
HETATM   39  C   UNL     1      -7.322  20.350  68.116  1.00  0.00    -0.162 C  
ENDBRANCH  36  37
ENDBRANCH  35  36
ENDBRANCH  33  35
ENDBRANCH   5  33
ENDBRANCH   2   3
TORSDOF 10
ENDMDL
MODEL      233
REMARK 921   NORMALIZED FREE ENERGY PREDICTED BY IDOCK:   -4.20 KCAL/MOL
REMARK 922        TOTAL FREE ENERGY PREDICTED BY IDOCK:   -8.37 KCAL/MOL
REMARK 923 INTER-LIGAND FREE ENERGY PREDICTED BY IDOCK:   -6.80 KCAL/MOL
REMARK 924 INTRA-LIGAND FREE ENERGY PREDICTED BY IDOCK:   -1.57 KCAL/MOL
REMARK 927      BINDING AFFINITY PREDICTED BY RF-SCORE:    0.00 PKD
ROOT
HETATM    1  C   UNL     1      -6.077  12.161  70.128  1.00  0.00    -0.121 C  
HETATM    2  O   UNL     1      -5.917  12.618  68.789  1.00  0.00    -0.062 OA 
ENDROOT
BRANCH   2   3
HETATM    3  C   UNL     1      -7.031  12.610  67.985  1.00  0.00    -0.099 A  
HETATM    4  C   UNL     1      -7.302  11.731  66.934  1.00  0.00    -0.104 A  
HETATM    5  C   UNL     1      -9.166  13.825  67.579  1.00  0.00    -0.216 A  
HETATM    6  C   UNL     1      -8.568  11.809  66.341  1.00  0.00    -0.113 A  
HETATM    7  C   UNL     1      -9.456  12.860  66.597  1.00  0.00    -0.255 A  
HETATM    8  C   UNL     1      -7.969  13.614  68.305  1.00  0.00    -0.150 A  
BRANCH   4   9
HETATM    9  N   UNL     1      -6.367  10.799  66.450  1.00  0.00    -0.111 NA 
HETATM   10  H   UNL     1      -5.460  10.772  66.914  1.00  0.00     0.000 HD 
BRANCH   9  11
HETATM   11  C   UNL     1      -6.563   9.906  65.392  1.00  0.00    -0.099 A  
HETATM   12  N   UNL     1      -6.118  10.299  64.193  1.00  0.00    -0.135 NA 
HETATM   13  N   UNL     1      -7.133   8.708  65.618  1.00  0.00    -0.082 NA 
HETATM   14  C   UNL     1      -7.154   7.805  64.626  1.00  0.00    -0.068 A  
HETATM   15  C   UNL     1      -6.675   8.114  63.370  1.00  0.00    -0.080 A  
HETATM   16  C   UNL     1      -6.187   9.391  63.208  1.00  0.00    -0.092 A  
BRANCH  14  17
HETATM   17  C   UNL     1      -7.693   6.482  64.965  1.00  0.00    -0.103 A  
HETATM   18  C   UNL     1      -8.147   2.865  64.821  1.00  0.00    -0.086 A  
HETATM   19  C   UNL     1      -8.614   6.275  65.981  1.00  0.00    -0.146 A  
HETATM   20  C   UNL     1      -7.353   2.431  63.757  1.00  0.00    -0.053 A  
HETATM   21  C   UNL     1      -6.632   3.340  62.994  1.00  0.00    -0.030 A  
HETATM   22  N   UNL     1      -8.908   4.939  66.045  1.00  0.00    -0.123 NA 
HETATM   23  C   UNL     1      -8.195   4.242  65.102  1.00  0.00    -0.102 A  
HETATM   24  C   UNL     1      -9.850   4.345  66.968  1.00  0.00    -0.194 C  
HETATM   25  C   UNL     1      -7.452   5.183  64.372  1.00  0.00    -0.065 A  
HETATM   26  C   UNL     1      -6.665   4.709  63.298  1.00  0.00    -0.038 A  
ENDBRANCH  14  17
ENDBRANCH   9  11
ENDBRANCH   4   9
BRANCH   7  27
HETATM   27  N   UNL     1     -10.533  13.028  65.703  1.00  0.00    -0.275 N  
HETATM   28  O   UNL     1     -12.146  11.800  66.836  1.00  0.00    -0.566 OA 
HETATM   29  H   UNL     1     -10.392  13.631  64.892  1.00  0.00     0.000 HD 
HETATM   30  C   UNL     1     -11.764  12.431  65.857  1.00  0.00    -0.419 C  
BRANCH  30  31
HETATM   31  C   UNL     1     -12.669  12.708  64.710  1.00  0.00    -0.460 C  
HETATM   32  C   UNL     1     -12.262  12.455  63.459  1.00  0.00    -0.661 C  
ENDBRANCH  30  31
ENDBRANCH   7  27
BRANCH   5  33
HETATM   33  N   UNL     1      -9.981  14.928  67.836  1.00  0.00    -0.218 NA 
HETATM   34  C   UNL     1     -11.114  14.876  68.755  1.00  0.00    -0.264 C  
BRANCH  33  35
HETATM   35  C   UNL     1      -9.643  16.260  67.304  1.00  0.00    -0.230 C  
BRANCH  35  36
HETATM   36  C   UNL     1      -9.120  17.191  68.423  1.00  0.00    -0.263 C  
BRANCH  36  37
HETATM   37  N   UNL     1      -8.060  18.138  68.017  1.00  0.00    -0.252 NA 
HETATM   38  C   UNL     1      -7.446  17.653  66.775  1.00  0.00    -0.215 C  
HETATM   39  C   UNL     1      -7.028  18.269  69.050  1.00  0.00    -0.255 C  
ENDBRANCH  36  37
ENDBRANCH  35  36
ENDBRANCH  33  35
ENDBRANCH   5  33
ENDBRANCH   2   3
TORSDOF 10
ENDMDL
MODEL      234
REMARK 921   NORMALIZED FREE ENERGY PREDICTED BY IDOCK:   -4.20 KCAL/MOL
REMARK 922        TOTAL FREE ENERGY PREDICTED BY IDOCK:   -8.37 KCAL/MOL
REMARK 923 INTER-LIGAND FREE ENERGY PREDICTED BY IDOCK:   -7.00 KCAL/MOL
REMARK 924 INTRA-LIGAND FREE ENERGY PREDICTED BY IDOCK:   -1.37 KCAL/MOL
REMARK 927      BINDING AFFINITY PREDICTED BY RF-SCORE:    0.00 PKD
ROOT
HETATM    1  C   UNL     1     -11.826   9.231  71.169  1.00  0.00    -0.325 C  
HETATM    2  O   UNL     1     -10.644   9.896  70.736  1.00  0.00    -0.304 OA 
ENDROOT
BRANCH   2   3
HETATM    3  C   UNL     1     -10.739  10.671  69.605  1.00  0.00    -0.244 A  
HETATM    4  C   UNL     1     -10.721  10.229  68.280  1.00  0.00    -0.237 A  
HETATM    5  C   UNL     1     -10.935  13.039  68.860  1.00  0.00    -0.230 A  
HETATM    6  C   UNL     1     -10.980  11.177  67.282  1.00  0.00    -0.354 A  
HETATM    7  C   UNL     1     -11.020  12.552  67.543  1.00  0.00    -0.251 A  
HETATM    8  C   UNL     1     -10.872  12.050  69.871  1.00  0.00     0.452 A  
BRANCH   4   9
HETATM    9  N   UNL     1     -10.445   8.900  67.916  1.00  0.00    -0.304 NA 
HETATM   10  H   UNL     1     -11.235   8.332  67.612  1.00  0.00     0.000 HD 
BRANCH   9  11
HETATM   11  C   UNL     1      -9.191   8.281  67.932  1.00  0.00    -0.132 A  
HETATM   12  N   UNL     1      -8.135   9.077  67.731  1.00  0.00    -0.109 NA 
HETATM   13  N   UNL     1      -9.092   6.963  68.182  1.00  0.00    -0.126 NA 
HETATM   14  C   UNL     1      -7.875   6.429  68.361  1.00  0.00    -0.105 A  
HETATM   15  C   UNL     1      -6.734   7.189  68.216  1.00  0.00    -0.061 A  
HETATM   16  C   UNL     1      -6.927   8.510  67.876  1.00  0.00    -0.074 A  
BRANCH  14  17
HETATM   17  C   UNL     1      -7.839   5.010  68.735  1.00  0.00    -0.078 A  
HETATM   18  C   UNL     1      -8.161   2.047  70.840  1.00  0.00    -0.064 A  
HETATM   19  C   UNL     1      -7.525   3.996  67.842  1.00  0.00    -0.067 A  
HETATM   20  C   UNL     1      -8.482   2.526  72.113  1.00  0.00    -0.076 A  
HETATM   21  C   UNL     1      -8.580   3.890  72.352  1.00  0.00    -0.108 A  
HETATM   22  N   UNL     1      -7.586   2.796  68.498  1.00  0.00    -0.048 NA 
HETATM   23  C   UNL     1      -7.945   2.980  69.810  1.00  0.00    -0.042 A  
HETATM   24  C   UNL     1      -7.296   1.512  67.896  1.00  0.00    -0.046 C  
HETATM   25  C   UNL     1      -8.070   4.363  70.010  1.00  0.00    -0.060 A  
HETATM   26  C   UNL     1      -8.388   4.812  71.313  1.00  0.00    -0.108 A  
ENDBRANCH  14  17
ENDBRANCH   9  11
ENDBRANCH   4   9
BRANCH   7  27
HETATM   27  N   UNL     1     -10.938  13.422  66.436  1.00  0.00    -0.288 N  
HETATM   28  O   UNL     1     -13.129  14.192  66.411  1.00  0.00     0.048 OA 
HETATM   29  H   UNL     1     -10.029  13.546  65.991  1.00  0.00     0.000 HD 
HETATM   30  C   UNL     1     -12.009  14.115  65.918  1.00  0.00    -0.409 C  
BRANCH  30  31
HETATM   31  C   UNL     1     -11.647  14.873  64.692  1.00  0.00    -0.395 C  
HETATM   32  C   UNL     1     -11.205  16.133  64.789  1.00  0.00    -0.313 C  
ENDBRANCH  30  31
ENDBRANCH   7  27
BRANCH   5  33
HETATM   33  N   UNL     1     -10.908  14.398  69.176  1.00  0.00    -0.257 NA 
HETATM   34  C   UNL     1      -9.764  15.255  68.883  1.00  0.00    -0.220 C  
BRANCH  33  35
HETATM   35  C   UNL     1     -12.110  15.079  69.690  1.00  0.00    -0.300 C  
BRANCH  35  36
HETATM   36  C   UNL     1     -12.074  15.184  71.233  1.00  0.00    -0.342 C  
BRANCH  36  37
HETATM   37  N   UNL     1     -13.393  15.277  71.894  1.00  0.00    -0.393 NA 
HETATM   38  C   UNL     1     -13.199  15.778  73.260  1.00  0.00    -0.581 C  
HETATM   39  C   UNL     1     -14.065  13.975  71.944  1.00  0.00    -0.450 C  
ENDBRANCH  36  37
ENDBRANCH  35  36
ENDBRANCH  33  35
ENDBRANCH   5  33
ENDBRANCH   2   3
TORSDOF 10
ENDMDL
MODEL      235
REMARK 921   NORMALIZED FREE ENERGY PREDICTED BY IDOCK:   -4.18 KCAL/MOL
REMARK 922        TOTAL FREE ENERGY PREDICTED BY IDOCK:   -8.33 KCAL/MOL
REMARK 923 INTER-LIGAND FREE ENERGY PREDICTED BY IDOCK:   -7.07 KCAL/MOL
REMARK 924 INTRA-LIGAND FREE ENERGY PREDICTED BY IDOCK:   -1.27 KCAL/MOL
REMARK 927      BINDING AFFINITY PREDICTED BY RF-SCORE:    0.00 PKD
ROOT
HETATM    1  C   UNL     1     -11.686  12.591  67.216  1.00  0.00    -0.362 C  
HETATM    2  O   UNL     1     -10.758  12.325  68.263  1.00  0.00    -0.205 OA 
ENDROOT
BRANCH   2   3
HETATM    3  C   UNL     1      -9.868  11.297  68.065  1.00  0.00    -0.178 A  
HETATM    4  C   UNL     1      -8.581  11.391  67.532  1.00  0.00    -0.137 A  
HETATM    5  C   UNL     1      -9.634   8.830  68.312  1.00  0.00    -0.146 A  
HETATM    6  C   UNL     1      -7.788  10.237  67.557  1.00  0.00    -0.102 A  
HETATM    7  C   UNL     1      -8.306   8.975  67.870  1.00  0.00    -0.117 A  
HETATM    8  C   UNL     1     -10.358  10.036  68.468  1.00  0.00    -0.217 A  
BRANCH   4   9
HETATM    9  N   UNL     1      -8.065  12.572  66.971  1.00  0.00    -0.327 NA 
HETATM   10  H   UNL     1      -7.958  12.593  65.957  1.00  0.00     0.000 HD 
BRANCH   9  11
HETATM   11  C   UNL     1      -7.684  13.722  67.670  1.00  0.00    -0.179 A  
HETATM   12  N   UNL     1      -7.051  13.527  68.832  1.00  0.00    -0.106 NA 
HETATM   13  N   UNL     1      -7.920  14.938  67.147  1.00  0.00    -0.210 NA 
HETATM   14  C   UNL     1      -7.395  16.015  67.751  1.00  0.00    -0.139 A  
HETATM   15  C   UNL     1      -6.691  15.898  68.931  1.00  0.00    -0.134 A  
HETATM   16  C   UNL     1      -6.570  14.623  69.438  1.00  0.00    -0.138 A  
BRANCH  14  17
HETATM   17  C   UNL     1      -7.599  17.302  67.074  1.00  0.00    -0.228 A  
HETATM   18  C   UNL     1      -9.244  20.425  66.150  1.00  0.00    -0.168 A  
HETATM   19  C   UNL     1      -6.667  17.866  66.217  1.00  0.00    -0.259 A  
HETATM   20  C   UNL     1     -10.482  20.400  66.796  1.00  0.00    -0.192 A  
HETATM   21  C   UNL     1     -10.859  19.307  67.565  1.00  0.00    -0.524 A  
HETATM   22  N   UNL     1      -7.154  19.061  65.760  1.00  0.00    -0.365 NA 
HETATM   23  C   UNL     1      -8.389  19.319  66.302  1.00  0.00    -0.319 A  
HETATM   24  C   UNL     1      -6.470  19.927  64.824  1.00  0.00    -0.230 C  
HETATM   25  C   UNL     1      -8.724  18.214  67.100  1.00  0.00    -0.249 A  
HETATM   26  C   UNL     1      -9.989  18.220  67.732  1.00  0.00    -0.343 A  
ENDBRANCH  14  17
ENDBRANCH   9  11
ENDBRANCH   4   9
BRANCH   7  27
HETATM   27  N   UNL     1      -7.523   7.852  67.530  1.00  0.00    -0.092 N  
HETATM   28  O   UNL     1      -7.163   8.323  65.285  1.00  0.00    -0.076 OA 
HETATM   29  H   UNL     1      -7.272   7.201  68.274  1.00  0.00     0.000 HD 
HETATM   30  C   UNL     1      -7.075   7.581  66.257  1.00  0.00    -0.070 C  
BRANCH  30  31
HETATM   31  C   UNL     1      -6.361   6.280  66.179  1.00  0.00    -0.039 C  
HETATM   32  C   UNL     1      -6.255   5.507  67.267  1.00  0.00    -0.031 C  
ENDBRANCH  30  31
ENDBRANCH   7  27
BRANCH   5  33
HETATM   33  N   UNL     1     -10.224   7.594  68.579  1.00  0.00    -0.195 NA 
HETATM   34  C   UNL     1     -10.601   7.173  69.925  1.00  0.00    -0.230 C  
BRANCH  33  35
HETATM   35  C   UNL     1     -10.642   6.702  67.483  1.00  0.00    -0.281 C  
BRANCH  35  36
HETATM   36  C   UNL     1     -10.369   5.221  67.835  1.00  0.00    -0.125 C  
BRANCH  36  37
HETATM   37  N   UNL     1      -9.423   4.520  66.941  1.00  0.00    -0.161 NA 
HETATM   38  C   UNL     1      -9.725   4.891  65.553  1.00  0.00    -0.112 C  
HETATM   39  C   UNL     1      -9.519   3.065  67.087  1.00  0.00    -0.080 C  
ENDBRANCH  36  37
ENDBRANCH  35  36
ENDBRANCH  33  35
ENDBRANCH   5  33
ENDBRANCH   2   3
TORSDOF 10
ENDMDL
MODEL      236
REMARK 921   NORMALIZED FREE ENERGY PREDICTED BY IDOCK:   -4.17 KCAL/MOL
REMARK 922        TOTAL FREE ENERGY PREDICTED BY IDOCK:   -8.33 KCAL/MOL
REMARK 923 INTER-LIGAND FREE ENERGY PREDICTED BY IDOCK:   -6.67 KCAL/MOL
REMARK 924 INTRA-LIGAND FREE ENERGY PREDICTED BY IDOCK:   -1.65 KCAL/MOL
REMARK 927      BINDING AFFINITY PREDICTED BY RF-SCORE:    0.00 PKD
ROOT
HETATM    1  C   UNL     1      -7.681   8.314  74.276  1.00  0.00    -0.222 C  
HETATM    2  O   UNL     1      -8.853   7.774  73.673  1.00  0.00    -0.215 OA 
ENDROOT
BRANCH   2   3
HETATM    3  C   UNL     1      -8.713   7.199  72.433  1.00  0.00    -0.123 A  
HETATM    4  C   UNL     1      -8.664   7.856  71.202  1.00  0.00    -0.136 A  
HETATM    5  C   UNL     1      -8.506   4.986  71.310  1.00  0.00    -0.121 A  
HETATM    6  C   UNL     1      -8.368   7.085  70.071  1.00  0.00    -0.138 A  
HETATM    7  C   UNL     1      -8.354   5.686  70.098  1.00  0.00    -0.118 A  
HETATM    8  C   UNL     1      -8.607   5.792  72.469  1.00  0.00    -0.120 A  
BRANCH   4   9
HETATM    9  N   UNL     1      -8.909   9.233  71.055  1.00  0.00    -0.267 NA 
HETATM   10  H   UNL     1      -9.582   9.653  71.695  1.00  0.00     0.000 HD 
BRANCH   9  11
HETATM   11  C   UNL     1      -8.317  10.082  70.114  1.00  0.00    -0.039 A  
HETATM   12  N   UNL     1      -7.054  10.447  70.356  1.00  0.00    -0.282 NA 
HETATM   13  N   UNL     1      -9.002  10.452  69.016  1.00  0.00    -0.171 NA 
HETATM   14  C   UNL     1      -8.357  11.122  68.049  1.00  0.00    -0.134 A  
HETATM   15  C   UNL     1      -7.040  11.501  68.199  1.00  0.00    -0.076 A  
HETATM   16  C   UNL     1      -6.444  11.152  69.391  1.00  0.00    -0.100 A  
BRANCH  14  17
HETATM   17  C   UNL     1      -9.129  11.405  66.833  1.00  0.00    -0.178 A  
HETATM   18  C   UNL     1     -11.591  13.016  64.675  1.00  0.00    -0.389 A  
HETATM   19  C   UNL     1      -8.903  10.765  65.623  1.00  0.00    -0.190 A  
HETATM   20  C   UNL     1     -12.287  13.903  65.500  1.00  0.00    -0.506 A  
HETATM   21  C   UNL     1     -11.990  13.994  66.854  1.00  0.00    -0.479 A  
HETATM   22  N   UNL     1      -9.780  11.256  64.693  1.00  0.00    -0.245 NA 
HETATM   23  C   UNL     1     -10.582  12.222  65.249  1.00  0.00    -0.287 A  
HETATM   24  C   UNL     1      -9.861  10.810  63.320  1.00  0.00    -0.346 C  
HETATM   25  C   UNL     1     -10.234  12.314  66.605  1.00  0.00    -0.235 A  
HETATM   26  C   UNL     1     -10.965  13.216  67.411  1.00  0.00    -0.283 A  
ENDBRANCH  14  17
ENDBRANCH   9  11
ENDBRANCH   4   9
BRANCH   7  27
HETATM   27  N   UNL     1      -8.392   5.015  68.858  1.00  0.00    -0.084 N  
HETATM   28  O   UNL     1     -10.689   5.007  68.517  1.00  0.00     0.047 OA 
HETATM   29  H   UNL     1      -7.505   4.772  68.418  1.00  0.00     0.000 HD 
HETATM   30  C   UNL     1      -9.553   4.669  68.204  1.00  0.00    -0.148 C  
BRANCH  30  31
HETATM   31  C   UNL     1      -9.289   3.882  66.971  1.00  0.00    -0.212 C  
HETATM   32  C   UNL     1      -9.970   4.145  65.849  1.00  0.00    -0.198 C  
ENDBRANCH  30  31
ENDBRANCH   7  27
BRANCH   5  33
HETATM   33  N   UNL     1      -8.561   3.594  71.391  1.00  0.00    -0.075 NA 
HETATM   34  C   UNL     1      -7.376   2.748  71.293  1.00  0.00    -0.033 C  
BRANCH  33  35
HETATM   35  C   UNL     1      -9.818   2.907  71.738  1.00  0.00    -0.148 C  
BRANCH  35  36
HETATM   36  C   UNL     1      -9.665   2.096  73.047  1.00  0.00    -0.088 C  
BRANCH  36  37
HETATM   37  N   UNL     1     -10.683   2.368  74.085  1.00  0.00    -0.160 NA 
HETATM   38  C   UNL     1     -11.826   1.473  73.867  1.00  0.00    -0.096 C  
HETATM   39  C   UNL     1     -11.141   3.760  74.040  1.00  0.00    -0.078 C  
ENDBRANCH  36  37
ENDBRANCH  35  36
ENDBRANCH  33  35
ENDBRANCH   5  33
ENDBRANCH   2   3
TORSDOF 10
ENDMDL
MODEL      237
REMARK 921   NORMALIZED FREE ENERGY PREDICTED BY IDOCK:   -4.15 KCAL/MOL
REMARK 922        TOTAL FREE ENERGY PREDICTED BY IDOCK:   -8.30 KCAL/MOL
REMARK 923 INTER-LIGAND FREE ENERGY PREDICTED BY IDOCK:   -7.51 KCAL/MOL
REMARK 924 INTRA-LIGAND FREE ENERGY PREDICTED BY IDOCK:   -0.79 KCAL/MOL
REMARK 927      BINDING AFFINITY PREDICTED BY RF-SCORE:    0.00 PKD
ROOT
HETATM    1  C   UNL     1      -9.631   6.425  66.041  1.00  0.00     0.087 C  
HETATM    2  O   UNL     1      -9.413   7.196  67.218  1.00  0.00    -0.132 OA 
ENDROOT
BRANCH   2   3
HETATM    3  C   UNL     1      -9.116   8.527  67.050  1.00  0.00    -0.143 A  
HETATM    4  C   UNL     1      -8.324   9.322  67.881  1.00  0.00    -0.116 A  
HETATM    5  C   UNL     1      -9.563  10.463  65.549  1.00  0.00    -0.234 A  
HETATM    6  C   UNL     1      -8.030  10.619  67.442  1.00  0.00    -0.111 A  
HETATM    7  C   UNL     1      -8.676  11.207  66.348  1.00  0.00    -0.177 A  
HETATM    8  C   UNL     1      -9.694   9.097  65.895  1.00  0.00    -0.336 A  
BRANCH   4   9
HETATM    9  N   UNL     1      -7.830   8.884  69.123  1.00  0.00    -0.092 NA 
HETATM   10  H   UNL     1      -6.824   8.740  69.194  1.00  0.00     0.000 HD 
BRANCH   9  11
HETATM   11  C   UNL     1      -8.589   8.627  70.269  1.00  0.00    -0.141 A  
HETATM   12  N   UNL     1      -9.593   9.475  70.519  1.00  0.00    -0.262 NA 
HETATM   13  N   UNL     1      -8.318   7.550  71.029  1.00  0.00    -0.112 NA 
HETATM   14  C   UNL     1      -9.163   7.231  72.020  1.00  0.00    -0.132 A  
HETATM   15  C   UNL     1     -10.249   8.027  72.318  1.00  0.00    -0.325 A  
HETATM   16  C   UNL     1     -10.400   9.155  71.542  1.00  0.00    -0.344 A  
BRANCH  14  17
HETATM   17  C   UNL     1      -8.872   5.987  72.744  1.00  0.00    -0.123 A  
HETATM   18  C   UNL     1      -9.461   2.702  74.220  1.00  0.00    -0.110 A  
HETATM   19  C   UNL     1      -7.615   5.673  73.240  1.00  0.00    -0.096 A  
HETATM   20  C   UNL     1     -10.822   2.448  74.035  1.00  0.00    -0.256 A  
HETATM   21  C   UNL     1     -11.642   3.389  73.425  1.00  0.00    -0.041 A  
HETATM   22  N   UNL     1      -7.675   4.450  73.853  1.00  0.00    -0.084 NA 
HETATM   23  C   UNL     1      -8.942   3.929  73.769  1.00  0.00    -0.091 A  
HETATM   24  C   UNL     1      -6.561   3.802  74.511  1.00  0.00    -0.040 C  
HETATM   25  C   UNL     1      -9.736   4.886  73.118  1.00  0.00    -0.161 A  
HETATM   26  C   UNL     1     -11.110   4.599  72.956  1.00  0.00    -0.327 A  
ENDBRANCH  14  17
ENDBRANCH   9  11
ENDBRANCH   4   9
BRANCH   7  27
HETATM   27  N   UNL     1      -8.566  12.606  66.209  1.00  0.00    -0.394 N  
HETATM   28  O   UNL     1      -9.327  13.245  68.308  1.00  0.00    -0.212 OA 
HETATM   29  H   UNL     1      -8.167  12.971  65.344  1.00  0.00     0.000 HD 
HETATM   30  C   UNL     1      -8.964  13.511  67.168  1.00  0.00    -0.227 C  
BRANCH  30  31
HETATM   31  C   UNL     1      -8.823  14.916  66.705  1.00  0.00    -0.291 C  
HETATM   32  C   UNL     1      -8.308  15.842  67.523  1.00  0.00    -0.180 C  
ENDBRANCH  30  31
ENDBRANCH   7  27
BRANCH   5  33
HETATM   33  N   UNL     1     -10.282  11.010  64.486  1.00  0.00    -0.319 NA 
HETATM   34  C   UNL     1      -9.845  10.902  63.098  1.00  0.00    -0.351 C  
BRANCH  33  35
HETATM   35  C   UNL     1     -11.616  11.599  64.698  1.00  0.00    -0.125 C  
BRANCH  35  36
HETATM   36  C   UNL     1     -11.898  12.724  63.675  1.00  0.00    -0.532 C  
BRANCH  36  37
HETATM   37  N   UNL     1     -12.303  14.023  64.255  1.00  0.00    -0.653 NA 
HETATM   38  C   UNL     1     -11.096  14.747  64.673  1.00  0.00    -0.325 C  
HETATM   39  C   UNL     1     -13.189  13.846  65.409  1.00  0.00     0.001 C  
ENDBRANCH  36  37
ENDBRANCH  35  36
ENDBRANCH  33  35
ENDBRANCH   5  33
ENDBRANCH   2   3
TORSDOF 10
ENDMDL
MODEL      238
REMARK 921   NORMALIZED FREE ENERGY PREDICTED BY IDOCK:   -4.15 KCAL/MOL
REMARK 922        TOTAL FREE ENERGY PREDICTED BY IDOCK:   -8.29 KCAL/MOL
REMARK 923 INTER-LIGAND FREE ENERGY PREDICTED BY IDOCK:   -8.24 KCAL/MOL
REMARK 924 INTRA-LIGAND FREE ENERGY PREDICTED BY IDOCK:   -0.05 KCAL/MOL
REMARK 927      BINDING AFFINITY PREDICTED BY RF-SCORE:    0.00 PKD
ROOT
HETATM    1  C   UNL     1     -12.050  14.304  68.725  1.00  0.00    -0.265 C  
HETATM    2  O   UNL     1     -11.000  14.318  67.762  1.00  0.00    -0.256 OA 
ENDROOT
BRANCH   2   3
HETATM    3  C   UNL     1      -9.930  15.141  68.012  1.00  0.00    -0.221 A  
HETATM    4  C   UNL     1      -8.650  14.756  68.417  1.00  0.00    -0.166 A  
HETATM    5  C   UNL     1      -9.272  17.543  68.064  1.00  0.00    -0.275 A  
HETATM    6  C   UNL     1      -7.666  15.751  68.472  1.00  0.00    -0.137 A  
HETATM    7  C   UNL     1      -7.967  17.114  68.368  1.00  0.00    -0.250 A  
HETATM    8  C   UNL     1     -10.209  16.511  67.817  1.00  0.00    -0.278 A  
BRANCH   4   9
HETATM    9  N   UNL     1      -8.321  13.438  68.777  1.00  0.00    -0.354 NA 
HETATM   10  H   UNL     1      -7.497  13.312  69.365  1.00  0.00     0.000 HD 
BRANCH   9  11
HETATM   11  C   UNL     1      -9.015  12.282  68.405  1.00  0.00    -0.141 A  
HETATM   12  N   UNL     1      -9.010  11.980  67.102  1.00  0.00    -0.179 NA 
HETATM   13  N   UNL     1      -9.605  11.519  69.343  1.00  0.00     0.348 NA 
HETATM   14  C   UNL     1     -10.114  10.331  68.983  1.00  0.00    -0.213 A  
HETATM   15  C   UNL     1     -10.111   9.923  67.666  1.00  0.00    -0.241 A  
HETATM   16  C   UNL     1      -9.562  10.805  66.762  1.00  0.00    -0.172 A  
BRANCH  14  17
HETATM   17  C   UNL     1     -10.649   9.500  70.069  1.00  0.00    -0.280 A  
HETATM   18  C   UNL     1     -10.674   7.556  73.156  1.00  0.00    -0.452 A  
HETATM   19  C   UNL     1     -11.985   9.137  70.161  1.00  0.00     0.256 A  
HETATM   20  C   UNL     1      -9.347   7.527  73.590  1.00  0.00    -0.329 A  
HETATM   21  C   UNL     1      -8.345   8.139  72.848  1.00  0.00    -0.248 A  
HETATM   22  N   UNL     1     -12.158   8.372  71.282  1.00  0.00    -0.291 NA 
HETATM   23  C   UNL     1     -10.970   8.223  71.954  1.00  0.00    -0.287 A  
HETATM   24  C   UNL     1     -13.416   7.789  71.697  1.00  0.00    -0.349 C  
HETATM   25  C   UNL     1      -9.987   8.880  71.198  1.00  0.00    -0.342 A  
HETATM   26  C   UNL     1      -8.654   8.824  71.663  1.00  0.00    -0.228 A  
ENDBRANCH  14  17
ENDBRANCH   9  11
ENDBRANCH   4   9
BRANCH   7  27
HETATM   27  N   UNL     1      -6.975  18.028  68.780  1.00  0.00    -0.255 N  
HETATM   28  O   UNL     1      -5.789  16.655  70.228  1.00  0.00    -0.202 OA 
HETATM   29  H   UNL     1      -6.971  18.954  68.352  1.00  0.00     0.000 HD 
HETATM   30  C   UNL     1      -6.013  17.749  69.725  1.00  0.00    -0.234 C  
BRANCH  30  31
HETATM   31  C   UNL     1      -5.169  18.934  70.031  1.00  0.00    -0.207 C  
HETATM   32  C   UNL     1      -5.682  19.963  70.716  1.00  0.00    -0.325 C  
ENDBRANCH  30  31
ENDBRANCH   7  27
BRANCH   5  33
HETATM   33  N   UNL     1      -9.646  18.886  68.007  1.00  0.00    -0.309 NA 
HETATM   34  C   UNL     1     -10.195  19.602  69.154  1.00  0.00    -0.205 C  
BRANCH  33  35
HETATM   35  C   UNL     1      -9.358  19.702  66.814  1.00  0.00    -0.364 C  
BRANCH  35  36
HETATM   36  C   UNL     1      -8.312  19.011  65.907  1.00  0.00     0.050 C  
BRANCH  36  37
HETATM   37  N   UNL     1      -7.122  19.824  65.577  1.00  0.00    -0.310 NA 
HETATM   38  C   UNL     1      -5.994  18.922  65.317  1.00  0.00    -0.253 C  
HETATM   39  C   UNL     1      -6.773  20.737  66.668  1.00  0.00    -0.275 C  
ENDBRANCH  36  37
ENDBRANCH  35  36
ENDBRANCH  33  35
ENDBRANCH   5  33
ENDBRANCH   2   3
TORSDOF 10
ENDMDL
MODEL      239
REMARK 921   NORMALIZED FREE ENERGY PREDICTED BY IDOCK:   -4.14 KCAL/MOL
REMARK 922        TOTAL FREE ENERGY PREDICTED BY IDOCK:   -8.28 KCAL/MOL
REMARK 923 INTER-LIGAND FREE ENERGY PREDICTED BY IDOCK:   -6.46 KCAL/MOL
REMARK 924 INTRA-LIGAND FREE ENERGY PREDICTED BY IDOCK:   -1.82 KCAL/MOL
REMARK 927      BINDING AFFINITY PREDICTED BY RF-SCORE:    0.00 PKD
ROOT
HETATM    1  C   UNL     1      -7.914   8.201  73.695  1.00  0.00    -0.199 C  
HETATM    2  O   UNL     1      -8.768   8.760  72.702  1.00  0.00    -0.408 OA 
ENDROOT
BRANCH   2   3
HETATM    3  C   UNL     1      -8.777   8.153  71.470  1.00  0.00    -0.146 A  
HETATM    4  C   UNL     1      -8.911   8.776  70.227  1.00  0.00    -0.161 A  
HETATM    5  C   UNL     1      -8.658   5.914  70.384  1.00  0.00    -0.135 A  
HETATM    6  C   UNL     1      -8.746   7.980  69.087  1.00  0.00    -0.137 A  
HETATM    7  C   UNL     1      -8.689   6.583  69.146  1.00  0.00    -0.129 A  
HETATM    8  C   UNL     1      -8.627   6.751  71.526  1.00  0.00    -0.120 A  
BRANCH   4   9
HETATM    9  N   UNL     1      -9.212  10.141  70.080  1.00  0.00    -0.392 NA 
HETATM   10  H   UNL     1      -9.839  10.553  70.770  1.00  0.00     0.000 HD 
BRANCH   9  11
HETATM   11  C   UNL     1      -8.735  10.989  69.075  1.00  0.00    -0.064 A  
HETATM   12  N   UNL     1      -7.412  11.189  69.046  1.00  0.00    -0.124 NA 
HETATM   13  N   UNL     1      -9.587  11.520  68.180  1.00  0.00    -0.181 NA 
HETATM   14  C   UNL     1      -9.086  12.187  67.129  1.00  0.00    -0.189 A  
HETATM   15  C   UNL     1      -7.731  12.401  66.999  1.00  0.00    -0.065 A  
HETATM   16  C   UNL     1      -6.941  11.894  68.006  1.00  0.00    -0.078 A  
BRANCH  14  17
HETATM   17  C   UNL     1     -10.061  12.651  66.133  1.00  0.00    -0.268 A  
HETATM   18  C   UNL     1     -11.959  14.996  64.080  1.00  0.00    -0.221 A  
HETATM   19  C   UNL     1     -10.828  11.791  65.362  1.00  0.00    -0.295 A  
HETATM   20  C   UNL     1     -11.574  16.267  64.512  1.00  0.00    -0.091 A  
HETATM   21  C   UNL     1     -10.665  16.417  65.551  1.00  0.00    -0.300 A  
HETATM   22  N   UNL     1     -11.625  12.533  64.533  1.00  0.00    -0.331 NA 
HETATM   23  C   UNL     1     -11.402  13.874  64.722  1.00  0.00    -0.363 A  
HETATM   24  C   UNL     1     -12.583  11.982  63.599  1.00  0.00    -0.490 C  
HETATM   25  C   UNL     1     -10.456  13.992  65.752  1.00  0.00    -0.317 A  
HETATM   26  C   UNL     1     -10.096  15.294  66.168  1.00  0.00    -0.315 A  
ENDBRANCH  14  17
ENDBRANCH   9  11
ENDBRANCH   4   9
BRANCH   7  27
HETATM   27  N   UNL     1      -8.873   5.876  67.940  1.00  0.00    -0.107 N  
HETATM   28  O   UNL     1      -6.928   6.512  66.842  1.00  0.00    -0.064 OA 
HETATM   29  H   UNL     1      -9.690   5.271  67.860  1.00  0.00     0.000 HD 
HETATM   30  C   UNL     1      -8.018   5.953  66.863  1.00  0.00    -0.102 C  
BRANCH  30  31
HETATM   31  C   UNL     1      -8.518   5.181  65.695  1.00  0.00    -0.134 C  
HETATM   32  C   UNL     1      -7.658   4.723  64.777  1.00  0.00    -0.077 C  
ENDBRANCH  30  31
ENDBRANCH   7  27
BRANCH   5  33
HETATM   33  N   UNL     1      -8.663   4.525  70.507  1.00  0.00    -0.091 NA 
HETATM   34  C   UNL     1      -9.892   3.745  70.620  1.00  0.00    -0.089 C  
BRANCH  33  35
HETATM   35  C   UNL     1      -7.417   3.749  70.373  1.00  0.00    -0.041 C  
BRANCH  35  36
HETATM   36  C   UNL     1      -7.638   2.487  69.505  1.00  0.00    -0.043 C  
BRANCH  36  37
HETATM   37  N   UNL     1      -7.675   2.719  68.045  1.00  0.00    -0.056 NA 
HETATM   38  C   UNL     1      -8.727   1.877  67.463  1.00  0.00    -0.107 C  
HETATM   39  C   UNL     1      -6.391   2.399  67.415  1.00  0.00    -0.031 C  
ENDBRANCH  36  37
ENDBRANCH  35  36
ENDBRANCH  33  35
ENDBRANCH   5  33
ENDBRANCH   2   3
TORSDOF 10
ENDMDL
MODEL      240
REMARK 921   NORMALIZED FREE ENERGY PREDICTED BY IDOCK:   -4.12 KCAL/MOL
REMARK 922        TOTAL FREE ENERGY PREDICTED BY IDOCK:   -8.24 KCAL/MOL
REMARK 923 INTER-LIGAND FREE ENERGY PREDICTED BY IDOCK:   -7.47 KCAL/MOL
REMARK 924 INTRA-LIGAND FREE ENERGY PREDICTED BY IDOCK:   -0.77 KCAL/MOL
REMARK 927      BINDING AFFINITY PREDICTED BY RF-SCORE:    0.00 PKD
ROOT
HETATM    1  C   UNL     1     -10.720  10.002  65.985  1.00  0.00     0.148 C  
HETATM    2  O   UNL     1     -11.061  10.708  67.174  1.00  0.00    -0.282 OA 
ENDROOT
BRANCH   2   3
HETATM    3  C   UNL     1     -10.120  11.567  67.686  1.00  0.00    -0.184 A  
HETATM    4  C   UNL     1      -8.928  11.223  68.327  1.00  0.00    -0.172 A  
HETATM    5  C   UNL     1      -9.643  13.991  68.003  1.00  0.00    -0.217 A  
HETATM    6  C   UNL     1      -8.042  12.262  68.640  1.00  0.00    -0.029 A  
HETATM    7  C   UNL     1      -8.403  13.611  68.549  1.00  0.00    -0.110 A  
HETATM    8  C   UNL     1     -10.441  12.930  67.512  1.00  0.00    -0.226 A  
BRANCH   4   9
HETATM    9  N   UNL     1      -8.595   9.902  68.675  1.00  0.00    -0.116 NA 
HETATM   10  H   UNL     1      -7.797   9.486  68.196  1.00  0.00     0.000 HD 
BRANCH   9  11
HETATM   11  C   UNL     1      -9.255   9.105  69.616  1.00  0.00    -0.168 A  
HETATM   12  N   UNL     1     -10.047   9.743  70.484  1.00  0.00    -0.265 NA 
HETATM   13  N   UNL     1      -9.107   7.768  69.588  1.00  0.00    -0.146 NA 
HETATM   14  C   UNL     1      -9.880   7.016  70.386  1.00  0.00    -0.179 A  
HETATM   15  C   UNL     1     -10.756   7.593  71.280  1.00  0.00    -0.248 A  
HETATM   16  C   UNL     1     -10.780   8.969  71.300  1.00  0.00    -0.309 A  
BRANCH  14  17
HETATM   17  C   UNL     1      -9.747   5.561  70.233  1.00  0.00    -0.242 A  
HETATM   18  C   UNL     1      -9.323   2.352  68.550  1.00  0.00    -0.252 A  
HETATM   19  C   UNL     1      -9.721   4.683  71.307  1.00  0.00    -0.182 A  
HETATM   20  C   UNL     1      -9.322   2.643  67.184  1.00  0.00    -0.109 A  
HETATM   21  C   UNL     1      -9.497   3.947  66.738  1.00  0.00    -0.223 A  
HETATM   22  N   UNL     1      -9.582   3.408  70.830  1.00  0.00    -0.167 NA 
HETATM   23  C   UNL     1      -9.501   3.410  69.460  1.00  0.00    -0.149 A  
HETATM   24  C   UNL     1      -9.541   2.219  71.655  1.00  0.00    -0.141 C  
HETATM   25  C   UNL     1      -9.646   4.742  69.043  1.00  0.00    -0.233 A  
HETATM   26  C   UNL     1      -9.648   4.999  67.653  1.00  0.00    -0.173 A  
ENDBRANCH  14  17
ENDBRANCH   9  11
ENDBRANCH   4   9
BRANCH   7  27
HETATM   27  N   UNL     1      -7.578  14.546  69.208  1.00  0.00    -0.277 N  
HETATM   28  O   UNL     1      -5.985  14.864  67.548  1.00  0.00    -0.320 OA 
HETATM   29  H   UNL     1      -7.869  14.876  70.128  1.00  0.00     0.000 HD 
HETATM   30  C   UNL     1      -6.404  15.042  68.686  1.00  0.00    -0.088 C  
BRANCH  30  31
HETATM   31  C   UNL     1      -5.696  15.931  69.644  1.00  0.00    -0.133 C  
HETATM   32  C   UNL     1      -6.056  17.215  69.759  1.00  0.00    -0.229 C  
ENDBRANCH  30  31
ENDBRANCH   7  27
BRANCH   5  33
HETATM   33  N   UNL     1     -10.083  15.314  67.943  1.00  0.00    -0.231 NA 
HETATM   34  C   UNL     1     -11.387  15.737  68.444  1.00  0.00    -0.372 C  
BRANCH  33  35
HETATM   35  C   UNL     1      -9.179  16.392  67.505  1.00  0.00    -0.198 C  
BRANCH  35  36
HETATM   36  C   UNL     1      -9.395  17.674  68.343  1.00  0.00    -0.289 C  
BRANCH  36  37
HETATM   37  N   UNL     1      -9.055  18.942  67.662  1.00  0.00    -0.281 NA 
HETATM   38  C   UNL     1     -10.067  19.947  68.009  1.00  0.00    -0.440 C  
HETATM   39  C   UNL     1      -9.011  18.779  66.207  1.00  0.00    -0.236 C  
ENDBRANCH  36  37
ENDBRANCH  35  36
ENDBRANCH  33  35
ENDBRANCH   5  33
ENDBRANCH   2   3
TORSDOF 10
ENDMDL
MODEL      241
REMARK 921   NORMALIZED FREE ENERGY PREDICTED BY IDOCK:   -4.11 KCAL/MOL
REMARK 922        TOTAL FREE ENERGY PREDICTED BY IDOCK:   -8.23 KCAL/MOL
REMARK 923 INTER-LIGAND FREE ENERGY PREDICTED BY IDOCK:   -7.44 KCAL/MOL
REMARK 924 INTRA-LIGAND FREE ENERGY PREDICTED BY IDOCK:   -0.80 KCAL/MOL
REMARK 927      BINDING AFFINITY PREDICTED BY RF-SCORE:    0.00 PKD
ROOT
HETATM    1  C   UNL     1     -11.381  14.805  64.625  1.00  0.00    -0.366 C  
HETATM    2  O   UNL     1     -11.461  15.418  65.908  1.00  0.00    -0.189 OA 
ENDROOT
BRANCH   2   3
HETATM    3  C   UNL     1     -10.279  15.802  66.494  1.00  0.00    -0.286 A  
HETATM    4  C   UNL     1      -9.608  15.156  67.534  1.00  0.00    -0.207 A  
HETATM    5  C   UNL     1      -8.544  17.587  66.422  1.00  0.00    -0.240 A  
HETATM    6  C   UNL     1      -8.340  15.640  67.881  1.00  0.00    -0.150 A  
HETATM    7  C   UNL     1      -7.841  16.855  67.397  1.00  0.00    -0.170 A  
HETATM    8  C   UNL     1      -9.728  16.979  65.943  1.00  0.00    -0.170 A  
BRANCH   4   9
HETATM    9  N   UNL     1     -10.149  14.069  68.242  1.00  0.00    -0.240 NA 
HETATM   10  H   UNL     1     -10.642  14.282  69.109  1.00  0.00     0.000 HD 
BRANCH   9  11
HETATM   11  C   UNL     1     -10.077  12.723  67.871  1.00  0.00    -0.231 A  
HETATM   12  N   UNL     1     -10.195  12.460  66.564  1.00  0.00    -0.224 NA 
HETATM   13  N   UNL     1      -9.857  11.778  68.802  1.00  0.00    -0.141 NA 
HETATM   14  C   UNL     1      -9.621  10.519  68.402  1.00  0.00    -0.160 A  
HETATM   15  C   UNL     1      -9.680  10.171  67.069  1.00  0.00    -0.224 A  
HETATM   16  C   UNL     1      -9.995  11.186  66.194  1.00  0.00    -0.229 A  
BRANCH  14  17
HETATM   17  C   UNL     1      -9.283   9.556  69.458  1.00  0.00    -0.198 A  
HETATM   18  C   UNL     1      -7.324   7.948  72.082  1.00  0.00    -0.092 A  
HETATM   19  C   UNL     1     -10.149   8.560  69.884  1.00  0.00    -0.195 A  
HETATM   20  C   UNL     1      -6.097   8.616  72.095  1.00  0.00    -0.072 A  
HETATM   21  C   UNL     1      -5.837   9.639  71.192  1.00  0.00    -0.077 A  
HETATM   22  N   UNL     1      -9.541   7.841  70.877  1.00  0.00    -0.167 NA 
HETATM   23  C   UNL     1      -8.288   8.339  71.136  1.00  0.00    -0.129 A  
HETATM   24  C   UNL     1     -10.129   6.704  71.551  1.00  0.00    -0.182 C  
HETATM   25  C   UNL     1      -8.071   9.391  70.233  1.00  0.00    -0.180 A  
HETATM   26  C   UNL     1      -6.815  10.039  70.269  1.00  0.00    -0.147 A  
ENDBRANCH  14  17
ENDBRANCH   9  11
ENDBRANCH   4   9
BRANCH   7  27
HETATM   27  N   UNL     1      -6.730  17.410  68.066  1.00  0.00    -0.175 N  
HETATM   28  O   UNL     1      -7.854  18.769  69.576  1.00  0.00     0.092 OA 
HETATM   29  H   UNL     1      -5.801  17.079  67.807  1.00  0.00     0.000 HD 
HETATM   30  C   UNL     1      -6.822  18.370  69.049  1.00  0.00    -0.265 C  
BRANCH  30  31
HETATM   31  C   UNL     1      -5.486  18.839  69.501  1.00  0.00    -0.214 C  
HETATM   32  C   UNL     1      -5.385  19.658  70.555  1.00  0.00    -0.256 C  
ENDBRANCH  30  31
ENDBRANCH   7  27
BRANCH   5  33
HETATM   33  N   UNL     1      -8.128  18.832  65.948  1.00  0.00    -0.476 NA 
HETATM   34  C   UNL     1      -8.970  20.022  66.007  1.00  0.00    -0.201 C  
BRANCH  33  35
HETATM   35  C   UNL     1      -6.741  19.044  65.497  1.00  0.00    -0.260 C  
BRANCH  35  36
HETATM   36  C   UNL     1      -6.606  20.373  64.717  1.00  0.00    -0.270 C  
BRANCH  36  37
HETATM   37  N   UNL     1      -5.523  20.412  63.712  1.00  0.00    -0.203 NA 
HETATM   38  C   UNL     1      -5.901  21.352  62.650  1.00  0.00    -0.283 C  
HETATM   39  C   UNL     1      -5.281  19.090  63.127  1.00  0.00    -0.259 C  
ENDBRANCH  36  37
ENDBRANCH  35  36
ENDBRANCH  33  35
ENDBRANCH   5  33
ENDBRANCH   2   3
TORSDOF 10
ENDMDL
MODEL      242
REMARK 921   NORMALIZED FREE ENERGY PREDICTED BY IDOCK:   -4.09 KCAL/MOL
REMARK 922        TOTAL FREE ENERGY PREDICTED BY IDOCK:   -8.20 KCAL/MOL
REMARK 923 INTER-LIGAND FREE ENERGY PREDICTED BY IDOCK:   -7.38 KCAL/MOL
REMARK 924 INTRA-LIGAND FREE ENERGY PREDICTED BY IDOCK:   -0.82 KCAL/MOL
REMARK 927      BINDING AFFINITY PREDICTED BY RF-SCORE:    0.00 PKD
ROOT
HETATM    1  C   UNL     1      -9.954   8.856  66.014  1.00  0.00    -0.129 C  
HETATM    2  O   UNL     1     -10.495   9.471  67.179  1.00  0.00    -0.254 OA 
ENDROOT
BRANCH   2   3
HETATM    3  C   UNL     1      -9.888  10.621  67.621  1.00  0.00    -0.167 A  
HETATM    4  C   UNL     1      -8.732  10.715  68.399  1.00  0.00    -0.141 A  
HETATM    5  C   UNL     1     -10.122  13.100  67.590  1.00  0.00    -0.221 A  
HETATM    6  C   UNL     1      -8.202  11.993  68.613  1.00  0.00    -0.052 A  
HETATM    7  C   UNL     1      -8.899  13.161  68.284  1.00  0.00    -0.175 A  
HETATM    8  C   UNL     1     -10.541  11.803  67.211  1.00  0.00    -0.259 A  
BRANCH   4   9
HETATM    9  N   UNL     1      -8.100   9.599  68.976  1.00  0.00    -0.099 NA 
HETATM   10  H   UNL     1      -7.149   9.398  68.668  1.00  0.00     0.000 HD 
BRANCH   9  11
HETATM   11  C   UNL     1      -8.651   8.738  69.930  1.00  0.00    -0.133 A  
HETATM   12  N   UNL     1      -9.184   9.315  71.012  1.00  0.00    -0.237 NA 
HETATM   13  N   UNL     1      -8.664   7.410  69.712  1.00  0.00    -0.141 NA 
HETATM   14  C   UNL     1      -9.348   6.624  70.557  1.00  0.00    -0.166 A  
HETATM   15  C   UNL     1      -9.965   7.144  71.675  1.00  0.00    -0.186 A  
HETATM   16  C   UNL     1      -9.829   8.502  71.863  1.00  0.00    -0.288 A  
BRANCH  14  17
HETATM   17  C   UNL     1      -9.412   5.199  70.207  1.00  0.00    -0.233 A  
HETATM   18  C   UNL     1      -9.432   2.221  68.100  1.00  0.00    -0.218 A  
HETATM   19  C   UNL     1      -9.497   4.188  71.153  1.00  0.00    -0.163 A  
HETATM   20  C   UNL     1      -9.401   2.693  66.786  1.00  0.00    -0.044 A  
HETATM   21  C   UNL     1      -9.402   4.056  66.522  1.00  0.00    -0.192 A  
HETATM   22  N   UNL     1      -9.533   2.982  70.506  1.00  0.00    -0.159 NA 
HETATM   23  C   UNL     1      -9.461   3.159  69.147  1.00  0.00    -0.107 A  
HETATM   24  C   UNL     1      -9.646   1.697  71.163  1.00  0.00    -0.135 C  
HETATM   25  C   UNL     1      -9.429   4.544  68.916  1.00  0.00    -0.225 A  
HETATM   26  C   UNL     1      -9.405   4.985  67.573  1.00  0.00    -0.138 A  
ENDBRANCH  14  17
ENDBRANCH   9  11
ENDBRANCH   4   9
BRANCH   7  27
HETATM   27  N   UNL     1      -8.440  14.369  68.850  1.00  0.00    -0.300 N  
HETATM   28  O   UNL     1      -7.707  15.426  66.917  1.00  0.00    -0.212 OA 
HETATM   29  H   UNL     1      -8.576  14.510  69.851  1.00  0.00     0.000 HD 
HETATM   30  C   UNL     1      -7.821  15.370  68.136  1.00  0.00    -0.124 C  
BRANCH  30  31
HETATM   31  C   UNL     1      -7.355  16.478  69.011  1.00  0.00    -0.228 C  
HETATM   32  C   UNL     1      -6.284  16.307  69.796  1.00  0.00    -0.192 C  
ENDBRANCH  30  31
ENDBRANCH   7  27
BRANCH   5  33
HETATM   33  N   UNL     1     -10.891  14.225  67.290  1.00  0.00    -0.280 NA 
HETATM   34  C   UNL     1     -11.780  14.857  68.259  1.00  0.00    -0.315 C  
BRANCH  33  35
HETATM   35  C   UNL     1     -10.727  14.932  66.007  1.00  0.00    -0.323 C  
BRANCH  35  36
HETATM   36  C   UNL     1     -10.097  14.008  64.938  1.00  0.00    -0.256 C  
BRANCH  36  37
HETATM   37  N   UNL     1     -11.038  13.095  64.254  1.00  0.00    -0.379 NA 
HETATM   38  C   UNL     1     -10.301  12.338  63.235  1.00  0.00    -0.235 C  
HETATM   39  C   UNL     1     -12.135  13.829  63.616  1.00  0.00    -0.279 C  
ENDBRANCH  36  37
ENDBRANCH  35  36
ENDBRANCH  33  35
ENDBRANCH   5  33
ENDBRANCH   2   3
TORSDOF 10
ENDMDL
MODEL      243
REMARK 921   NORMALIZED FREE ENERGY PREDICTED BY IDOCK:   -4.08 KCAL/MOL
REMARK 922        TOTAL FREE ENERGY PREDICTED BY IDOCK:   -8.18 KCAL/MOL
REMARK 923 INTER-LIGAND FREE ENERGY PREDICTED BY IDOCK:   -6.92 KCAL/MOL
REMARK 924 INTRA-LIGAND FREE ENERGY PREDICTED BY IDOCK:   -1.26 KCAL/MOL
REMARK 927      BINDING AFFINITY PREDICTED BY RF-SCORE:    0.00 PKD
ROOT
HETATM    1  C   UNL     1      -9.218  10.471  62.555  1.00  0.00    -0.297 C  
HETATM    2  O   UNL     1      -8.103   9.928  63.254  1.00  0.00    -0.137 OA 
ENDROOT
BRANCH   2   3
HETATM    3  C   UNL     1      -8.367   9.006  64.238  1.00  0.00    -0.173 A  
HETATM    4  C   UNL     1      -9.065   9.224  65.428  1.00  0.00    -0.222 A  
HETATM    5  C   UNL     1      -7.970   6.626  64.853  1.00  0.00    -0.121 A  
HETATM    6  C   UNL     1      -9.347   8.105  66.222  1.00  0.00    -0.259 A  
HETATM    7  C   UNL     1      -8.767   6.853  65.990  1.00  0.00    -0.141 A  
HETATM    8  C   UNL     1      -7.861   7.719  63.960  1.00  0.00    -0.127 A  
BRANCH   4   9
HETATM    9  N   UNL     1      -9.475  10.498  65.858  1.00  0.00    -0.180 NA 
HETATM   10  H   UNL     1     -10.431  10.773  65.636  1.00  0.00     0.000 HD 
BRANCH   9  11
HETATM   11  C   UNL     1      -8.697  11.424  66.559  1.00  0.00    -0.181 A  
HETATM   12  N   UNL     1      -7.378  11.200  66.576  1.00  0.00    -0.144 NA 
HETATM   13  N   UNL     1      -9.277  12.493  67.135  1.00  0.00    -0.198 NA 
HETATM   14  C   UNL     1      -8.494  13.452  67.652  1.00  0.00    -0.187 A  
HETATM   15  C   UNL     1      -7.122  13.320  67.670  1.00  0.00    -0.163 A  
HETATM   16  C   UNL     1      -6.620  12.155  67.135  1.00  0.00    -0.127 A  
BRANCH  14  17
HETATM   17  C   UNL     1      -9.182  14.641  68.170  1.00  0.00    -0.192 A  
HETATM   18  C   UNL     1     -10.246  18.125  68.379  1.00  0.00    -0.401 A  
HETATM   19  C   UNL     1     -10.040  14.607  69.260  1.00  0.00    -0.115 A  
HETATM   20  C   UNL     1      -9.548  18.789  67.367  1.00  0.00    -0.337 A  
HETATM   21  C   UNL     1      -8.644  18.107  66.564  1.00  0.00    -0.282 A  
HETATM   22  N   UNL     1     -10.520  15.870  69.483  1.00  0.00    -0.258 NA 
HETATM   23  C   UNL     1     -10.012  16.750  68.559  1.00  0.00    -0.271 A  
HETATM   24  C   UNL     1     -11.424  16.231  70.553  1.00  0.00    -0.262 C  
HETATM   25  C   UNL     1      -9.131  16.023  67.743  1.00  0.00    -0.196 A  
HETATM   26  C   UNL     1      -8.437  16.730  66.735  1.00  0.00    -0.268 A  
ENDBRANCH  14  17
ENDBRANCH   9  11
ENDBRANCH   4   9
BRANCH   7  27
HETATM   27  N   UNL     1      -8.839   5.904  67.032  1.00  0.00    -0.113 N  
HETATM   28  O   UNL     1     -10.744   4.761  66.356  1.00  0.00    -0.253 OA 
HETATM   29  H   UNL     1      -8.092   5.899  67.727  1.00  0.00     0.000 HD 
HETATM   30  C   UNL     1      -9.855   4.985  67.170  1.00  0.00    -0.182 C  
BRANCH  30  31
HETATM   31  C   UNL     1      -9.721   4.184  68.415  1.00  0.00    -0.150 C  
HETATM   32  C   UNL     1      -9.264   2.927  68.358  1.00  0.00    -0.245 C  
ENDBRANCH  30  31
ENDBRANCH   7  27
BRANCH   5  33
HETATM   33  N   UNL     1      -7.317   5.419  64.601  1.00  0.00    -0.062 NA 
HETATM   34  C   UNL     1      -6.166   4.966  65.375  1.00  0.00    -0.034 C  
BRANCH  33  35
HETATM   35  C   UNL     1      -7.859   4.455  63.627  1.00  0.00    -0.080 C  
BRANCH  35  36
HETATM   36  C   UNL     1      -8.321   3.156  64.327  1.00  0.00    -0.089 C  
BRANCH  36  37
HETATM   37  N   UNL     1      -9.713   2.743  64.045  1.00  0.00    -0.144 NA 
HETATM   38  C   UNL     1      -9.686   1.482  63.295  1.00  0.00    -0.104 C  
HETATM   39  C   UNL     1     -10.429   3.757  63.266  1.00  0.00    -0.221 C  
ENDBRANCH  36  37
ENDBRANCH  35  36
ENDBRANCH  33  35
ENDBRANCH   5  33
ENDBRANCH   2   3
TORSDOF 10
ENDMDL
MODEL      244
REMARK 921   NORMALIZED FREE ENERGY PREDICTED BY IDOCK:   -4.07 KCAL/MOL
REMARK 922        TOTAL FREE ENERGY PREDICTED BY IDOCK:   -8.16 KCAL/MOL
REMARK 923 INTER-LIGAND FREE ENERGY PREDICTED BY IDOCK:   -7.48 KCAL/MOL
REMARK 924 INTRA-LIGAND FREE ENERGY PREDICTED BY IDOCK:   -0.68 KCAL/MOL
REMARK 927      BINDING AFFINITY PREDICTED BY RF-SCORE:    0.00 PKD
ROOT
HETATM    1  C   UNL     1      -7.040   9.364  66.222  1.00  0.00    -0.088 C  
HETATM    2  O   UNL     1      -8.444   9.489  66.020  1.00  0.00    -0.120 OA 
ENDROOT
BRANCH   2   3
HETATM    3  C   UNL     1      -9.146  10.233  66.938  1.00  0.00    -0.143 A  
HETATM    4  C   UNL     1     -10.204   9.798  67.739  1.00  0.00    -0.208 A  
HETATM    5  C   UNL     1      -9.311  12.529  67.887  1.00  0.00    -0.200 A  
HETATM    6  C   UNL     1     -10.679  10.685  68.713  1.00  0.00    -0.249 A  
HETATM    7  C   UNL     1     -10.302  12.032  68.753  1.00  0.00    -0.160 A  
HETATM    8  C   UNL     1      -8.703  11.569  67.043  1.00  0.00    -0.169 A  
BRANCH   4   9
HETATM    9  N   UNL     1     -10.807   8.536  67.599  1.00  0.00    -0.494 NA 
HETATM   10  H   UNL     1     -11.771   8.519  67.269  1.00  0.00     0.000 HD 
BRANCH   9  11
HETATM   11  C   UNL     1     -10.210   7.301  67.871  1.00  0.00    -0.191 A  
HETATM   12  N   UNL     1      -9.630   6.682  66.837  1.00  0.00    -0.151 NA 
HETATM   13  N   UNL     1     -10.204   6.816  69.126  1.00  0.00    -0.174 NA 
HETATM   14  C   UNL     1      -9.480   5.719  69.391  1.00  0.00    -0.130 A  
HETATM   15  C   UNL     1      -8.814   5.044  68.390  1.00  0.00    -0.111 A  
HETATM   16  C   UNL     1      -8.946   5.563  67.121  1.00  0.00    -0.112 A  
BRANCH  14  17
HETATM   17  C   UNL     1      -9.428   5.301  70.798  1.00  0.00    -0.221 A  
HETATM   18  C   UNL     1      -8.053   4.806  74.141  1.00  0.00    -0.100 A  
HETATM   19  C   UNL     1     -10.504   4.731  71.462  1.00  0.00    -0.072 A  
HETATM   20  C   UNL     1      -6.727   5.236  74.067  1.00  0.00    -0.076 A  
HETATM   21  C   UNL     1      -6.196   5.696  72.869  1.00  0.00    -0.052 A  
HETATM   22  N   UNL     1     -10.136   4.464  72.753  1.00  0.00    -0.161 NA 
HETATM   23  C   UNL     1      -8.838   4.853  72.975  1.00  0.00    -0.113 A  
HETATM   24  C   UNL     1     -10.989   3.844  73.743  1.00  0.00    -0.238 C  
HETATM   25  C   UNL     1      -8.343   5.344  71.756  1.00  0.00    -0.119 A  
HETATM   26  C   UNL     1      -6.994   5.763  71.717  1.00  0.00    -0.073 A  
ENDBRANCH  14  17
ENDBRANCH   9  11
ENDBRANCH   4   9
BRANCH   7  27
HETATM   27  N   UNL     1     -11.090  12.901  69.537  1.00  0.00    -0.458 N  
HETATM   28  O   UNL     1     -12.127  11.330  70.896  1.00  0.00    -0.348 OA 
HETATM   29  H   UNL     1     -10.989  13.904  69.386  1.00  0.00     0.000 HD 
HETATM   30  C   UNL     1     -11.987  12.478  70.492  1.00  0.00    -0.189 C  
BRANCH  30  31
HETATM   31  C   UNL     1     -12.748  13.609  71.086  1.00  0.00    -0.432 C  
HETATM   32  C   UNL     1     -13.601  13.388  72.093  1.00  0.00    -0.660 C  
ENDBRANCH  30  31
ENDBRANCH   7  27
BRANCH   5  33
HETATM   33  N   UNL     1      -8.938  13.873  67.838  1.00  0.00    -0.181 NA 
HETATM   34  C   UNL     1      -8.152  14.514  68.887  1.00  0.00    -0.124 C  
BRANCH  33  35
HETATM   35  C   UNL     1      -9.190  14.685  66.634  1.00  0.00    -0.267 C  
BRANCH  35  36
HETATM   36  C   UNL     1      -8.299  15.949  66.618  1.00  0.00    -0.293 C  
BRANCH  36  37
HETATM   37  N   UNL     1      -9.020  17.231  66.464  1.00  0.00    -0.259 NA 
HETATM   38  C   UNL     1      -8.078  18.242  65.967  1.00  0.00    -0.080 C  
HETATM   39  C   UNL     1      -9.594  17.684  67.734  1.00  0.00    -0.267 C  
ENDBRANCH  36  37
ENDBRANCH  35  36
ENDBRANCH  33  35
ENDBRANCH   5  33
ENDBRANCH   2   3
TORSDOF 10
ENDMDL
MODEL      245
REMARK 921   NORMALIZED FREE ENERGY PREDICTED BY IDOCK:   -4.02 KCAL/MOL
REMARK 922        TOTAL FREE ENERGY PREDICTED BY IDOCK:   -8.09 KCAL/MOL
REMARK 923 INTER-LIGAND FREE ENERGY PREDICTED BY IDOCK:   -6.36 KCAL/MOL
REMARK 924 INTRA-LIGAND FREE ENERGY PREDICTED BY IDOCK:   -1.73 KCAL/MOL
REMARK 927      BINDING AFFINITY PREDICTED BY RF-SCORE:    0.00 PKD
ROOT
HETATM    1  C   UNL     1     -10.648   5.758  66.585  1.00  0.00    -0.280 C  
HETATM    2  O   UNL     1      -9.398   6.089  65.988  1.00  0.00    -0.151 OA 
ENDROOT
BRANCH   2   3
HETATM    3  C   UNL     1      -8.844   7.300  66.323  1.00  0.00    -0.159 A  
HETATM    4  C   UNL     1      -7.550   7.531  66.796  1.00  0.00    -0.101 A  
HETATM    5  C   UNL     1      -9.380   9.728  66.474  1.00  0.00    -0.162 A  
HETATM    6  C   UNL     1      -7.144   8.864  66.935  1.00  0.00    -0.082 A  
HETATM    7  C   UNL     1      -8.039   9.936  66.846  1.00  0.00    -0.113 A  
HETATM    8  C   UNL     1      -9.719   8.393  66.146  1.00  0.00    -0.223 A  
BRANCH   4   9
HETATM    9  N   UNL     1      -6.662   6.497  67.142  1.00  0.00    -0.058 NA 
HETATM   10  H   UNL     1      -6.016   6.183  66.419  1.00  0.00     0.000 HD 
BRANCH   9  11
HETATM   11  C   UNL     1      -6.581   5.859  68.384  1.00  0.00    -0.052 A  
HETATM   12  N   UNL     1      -5.361   5.477  68.776  1.00  0.00     0.000 NA 
HETATM   13  N   UNL     1      -7.688   5.696  69.131  1.00  0.00    -0.087 NA 
HETATM   14  C   UNL     1      -7.558   5.239  70.386  1.00  0.00    -0.075 A  
HETATM   15  C   UNL     1      -6.329   4.863  70.885  1.00  0.00    -0.019 A  
HETATM   16  C   UNL     1      -5.264   4.984  70.020  1.00  0.00    -0.003 A  
BRANCH  14  17
HETATM   17  C   UNL     1      -8.788   5.183  71.185  1.00  0.00    -0.150 A  
HETATM   18  C   UNL     1     -12.081   6.160  72.416  1.00  0.00    -0.186 A  
HETATM   19  C   UNL     1      -9.061   4.169  72.091  1.00  0.00    -0.120 A  
HETATM   20  C   UNL     1     -12.377   7.365  71.775  1.00  0.00    -0.365 A  
HETATM   21  C   UNL     1     -11.466   7.947  70.903  1.00  0.00    -0.294 A  
HETATM   22  N   UNL     1     -10.281   4.405  72.664  1.00  0.00    -0.175 NA 
HETATM   23  C   UNL     1     -10.841   5.550  72.154  1.00  0.00    -0.235 A  
HETATM   24  C   UNL     1     -10.892   3.573  73.678  1.00  0.00    -0.235 C  
HETATM   25  C   UNL     1      -9.912   6.094  71.253  1.00  0.00    -0.215 A  
HETATM   26  C   UNL     1     -10.242   7.318  70.628  1.00  0.00    -0.202 A  
ENDBRANCH  14  17
ENDBRANCH   9  11
ENDBRANCH   4   9
BRANCH   7  27
HETATM   27  N   UNL     1      -7.604  11.184  67.341  1.00  0.00    -0.108 N  
HETATM   28  O   UNL     1      -5.782  11.518  65.940  1.00  0.00    -0.170 OA 
HETATM   29  H   UNL     1      -8.159  11.628  68.071  1.00  0.00     0.000 HD 
HETATM   30  C   UNL     1      -6.476  11.838  66.898  1.00  0.00    -0.121 C  
BRANCH  30  31
HETATM   31  C   UNL     1      -6.210  13.080  67.670  1.00  0.00    -0.158 C  
HETATM   32  C   UNL     1      -6.950  13.372  68.747  1.00  0.00    -0.103 C  
ENDBRANCH  30  31
ENDBRANCH   7  27
BRANCH   5  33
HETATM   33  N   UNL     1     -10.332  10.747  66.428  1.00  0.00    -0.246 NA 
HETATM   34  C   UNL     1     -10.617  11.508  65.216  1.00  0.00    -0.283 C  
BRANCH  33  35
HETATM   35  C   UNL     1     -11.217  11.007  67.577  1.00  0.00    -0.302 C  
BRANCH  35  36
HETATM   36  C   UNL     1     -10.748  12.247  68.373  1.00  0.00    -0.234 C  
BRANCH  36  37
HETATM   37  N   UNL     1     -11.643  13.422  68.303  1.00  0.00    -0.321 NA 
HETATM   38  C   UNL     1     -10.878  14.566  67.791  1.00  0.00    -0.264 C  
HETATM   39  C   UNL     1     -12.197  13.758  69.618  1.00  0.00    -0.305 C  
ENDBRANCH  36  37
ENDBRANCH  35  36
ENDBRANCH  33  35
ENDBRANCH   5  33
ENDBRANCH   2   3
TORSDOF 10
ENDMDL
MODEL      246
REMARK 921   NORMALIZED FREE ENERGY PREDICTED BY IDOCK:   -4.01 KCAL/MOL
REMARK 922        TOTAL FREE ENERGY PREDICTED BY IDOCK:   -8.07 KCAL/MOL
REMARK 923 INTER-LIGAND FREE ENERGY PREDICTED BY IDOCK:   -7.21 KCAL/MOL
REMARK 924 INTRA-LIGAND FREE ENERGY PREDICTED BY IDOCK:   -0.86 KCAL/MOL
REMARK 927      BINDING AFFINITY PREDICTED BY RF-SCORE:    0.00 PKD
ROOT
HETATM    1  C   UNL     1     -10.647   9.836  70.362  1.00  0.00    -0.304 C  
HETATM    2  O   UNL     1      -9.516  10.647  70.062  1.00  0.00     0.204 OA 
ENDROOT
BRANCH   2   3
HETATM    3  C   UNL     1      -8.956  10.507  68.815  1.00  0.00    -0.166 A  
HETATM    4  C   UNL     1      -9.206  11.294  67.688  1.00  0.00    -0.156 A  
HETATM    5  C   UNL     1      -7.376   9.080  67.523  1.00  0.00    -0.081 A  
HETATM    6  C   UNL     1      -8.414  11.066  66.556  1.00  0.00    -0.161 A  
HETATM    7  C   UNL     1      -7.570   9.956  66.439  1.00  0.00    -0.101 A  
HETATM    8  C   UNL     1      -8.035   9.441  68.722  1.00  0.00    -0.092 A  
BRANCH   4   9
HETATM    9  N   UNL     1     -10.209  12.277  67.644  1.00  0.00    -0.200 NA 
HETATM   10  H   UNL     1     -10.931  12.233  68.362  1.00  0.00     0.000 HD 
BRANCH   9  11
HETATM   11  C   UNL     1     -10.313  13.311  66.707  1.00  0.00    -0.257 A  
HETATM   12  N   UNL     1     -10.946  13.016  65.566  1.00  0.00    -0.272 NA 
HETATM   13  N   UNL     1      -9.827  14.532  66.994  1.00  0.00    -0.244 NA 
HETATM   14  C   UNL     1     -10.090  15.545  66.155  1.00  0.00    -0.309 A  
HETATM   15  C   UNL     1     -10.775  15.337  64.977  1.00  0.00    -0.461 A  
HETATM   16  C   UNL     1     -11.160  14.039  64.725  1.00  0.00    -0.387 A  
BRANCH  14  17
HETATM   17  C   UNL     1      -9.624  16.872  66.576  1.00  0.00    -0.295 A  
HETATM   18  C   UNL     1      -7.500  19.373  68.172  1.00  0.00    -0.328 A  
HETATM   19  C   UNL     1     -10.255  18.052  66.209  1.00  0.00    -0.381 A  
HETATM   20  C   UNL     1      -6.524  18.649  68.862  1.00  0.00    -0.261 A  
HETATM   21  C   UNL     1      -6.537  17.261  68.859  1.00  0.00    -0.212 A  
HETATM   22  N   UNL     1      -9.574  19.105  66.756  1.00  0.00    -0.316 NA 
HETATM   23  C   UNL     1      -8.491  18.661  67.474  1.00  0.00    -0.265 A  
HETATM   24  C   UNL     1      -9.950  20.495  66.611  1.00  0.00    -0.239 C  
HETATM   25  C   UNL     1      -8.513  17.259  67.422  1.00  0.00    -0.210 A  
HETATM   26  C   UNL     1      -7.515  16.560  68.138  1.00  0.00    -0.161 A  
ENDBRANCH  14  17
ENDBRANCH   9  11
ENDBRANCH   4   9
BRANCH   7  27
HETATM   27  N   UNL     1      -7.096   9.637  65.149  1.00  0.00    -0.108 N  
HETATM   28  O   UNL     1      -8.993  10.168  63.920  1.00  0.00    -0.201 OA 
HETATM   29  H   UNL     1      -6.124   9.342  65.056  1.00  0.00     0.000 HD 
HETATM   30  C   UNL     1      -7.863   9.702  64.008  1.00  0.00    -0.137 C  
BRANCH  30  31
HETATM   31  C   UNL     1      -7.130   9.211  62.811  1.00  0.00    -0.094 C  
HETATM   32  C   UNL     1      -7.308   7.956  62.384  1.00  0.00    -0.099 C  
ENDBRANCH  30  31
ENDBRANCH   7  27
BRANCH   5  33
HETATM   33  N   UNL     1      -6.598   7.924  67.447  1.00  0.00    -0.056 NA 
HETATM   34  C   UNL     1      -5.156   7.956  67.220  1.00  0.00    -0.027 C  
BRANCH  33  35
HETATM   35  C   UNL     1      -7.175   6.602  67.749  1.00  0.00    -0.091 C  
BRANCH  35  36
HETATM   36  C   UNL     1      -8.101   6.124  66.606  1.00  0.00    -0.109 C  
BRANCH  36  37
HETATM   37  N   UNL     1      -9.456   5.703  67.021  1.00  0.00    -0.122 NA 
HETATM   38  C   UNL     1      -9.915   4.642  66.117  1.00  0.00    -0.247 C  
HETATM   39  C   UNL     1     -10.404   6.819  66.982  1.00  0.00    -0.268 C  
ENDBRANCH  36  37
ENDBRANCH  35  36
ENDBRANCH  33  35
ENDBRANCH   5  33
ENDBRANCH   2   3
TORSDOF 10
ENDMDL
MODEL      247
REMARK 921   NORMALIZED FREE ENERGY PREDICTED BY IDOCK:   -3.99 KCAL/MOL
REMARK 922        TOTAL FREE ENERGY PREDICTED BY IDOCK:   -8.04 KCAL/MOL
REMARK 923 INTER-LIGAND FREE ENERGY PREDICTED BY IDOCK:   -7.73 KCAL/MOL
REMARK 924 INTRA-LIGAND FREE ENERGY PREDICTED BY IDOCK:   -0.31 KCAL/MOL
REMARK 927      BINDING AFFINITY PREDICTED BY RF-SCORE:    0.00 PKD
ROOT
HETATM    1  C   UNL     1     -12.677  10.437  71.484  1.00  0.00    -0.459 C  
HETATM    2  O   UNL     1     -12.386  10.829  70.146  1.00  0.00    -0.315 OA 
ENDROOT
BRANCH   2   3
HETATM    3  C   UNL     1     -11.255  10.303  69.570  1.00  0.00    -0.261 A  
HETATM    4  C   UNL     1     -10.177  11.011  69.034  1.00  0.00    -0.200 A  
HETATM    5  C   UNL     1     -10.191   8.135  68.961  1.00  0.00    -0.220 A  
HETATM    6  C   UNL     1      -9.059  10.272  68.629  1.00  0.00    -0.152 A  
HETATM    7  C   UNL     1      -9.077   8.876  68.527  1.00  0.00    -0.137 A  
HETATM    8  C   UNL     1     -11.233   8.892  69.550  1.00  0.00     0.087 A  
BRANCH   4   9
HETATM    9  N   UNL     1     -10.177  12.408  68.876  1.00  0.00    -0.423 NA 
HETATM   10  H   UNL     1     -11.043  12.898  69.097  1.00  0.00     0.000 HD 
BRANCH   9  11
HETATM   11  C   UNL     1      -9.101  13.190  68.444  1.00  0.00    -0.134 A  
HETATM   12  N   UNL     1      -7.933  12.558  68.288  1.00  0.00    -0.148 NA 
HETATM   13  N   UNL     1      -9.283  14.495  68.171  1.00  0.00    -0.189 NA 
HETATM   14  C   UNL     1      -8.283  15.180  67.597  1.00  0.00    -0.164 A  
HETATM   15  C   UNL     1      -7.059  14.592  67.360  1.00  0.00    -0.157 A  
HETATM   16  C   UNL     1      -6.936  13.277  67.749  1.00  0.00    -0.153 A  
BRANCH  14  17
HETATM   17  C   UNL     1      -8.579  16.570  67.226  1.00  0.00    -0.202 A  
HETATM   18  C   UNL     1      -8.063  19.878  65.775  1.00  0.00    -0.155 A  
HETATM   19  C   UNL     1      -9.791  17.188  67.499  1.00  0.00    -0.266 A  
HETATM   20  C   UNL     1      -6.753  19.873  65.290  1.00  0.00    -0.330 A  
HETATM   21  C   UNL     1      -5.943  18.756  65.450  1.00  0.00    -0.278 A  
HETATM   22  N   UNL     1      -9.750  18.470  67.022  1.00  0.00    -0.299 NA 
HETATM   23  C   UNL     1      -8.540  18.725  66.425  1.00  0.00    -0.284 A  
HETATM   24  C   UNL     1     -10.825  19.430  67.144  1.00  0.00    -0.450 C  
HETATM   25  C   UNL     1      -7.759  17.568  66.572  1.00  0.00    -0.310 A  
HETATM   26  C   UNL     1      -6.436  17.602  66.075  1.00  0.00    -0.265 A  
ENDBRANCH  14  17
ENDBRANCH   9  11
ENDBRANCH   4   9
BRANCH   7  27
HETATM   27  N   UNL     1      -8.039   8.269  67.790  1.00  0.00    -0.125 N  
HETATM   28  O   UNL     1      -6.518   7.927  69.512  1.00  0.00    -0.034 OA 
HETATM   29  H   UNL     1      -8.199   8.084  66.800  1.00  0.00     0.000 HD 
HETATM   30  C   UNL     1      -6.822   7.909  68.324  1.00  0.00    -0.071 C  
BRANCH  30  31
HETATM   31  C   UNL     1      -5.889   7.385  67.292  1.00  0.00    -0.031 C  
HETATM   32  C   UNL     1      -6.371   6.845  66.166  1.00  0.00    -0.050 C  
ENDBRANCH  30  31
ENDBRANCH   7  27
BRANCH   5  33
HETATM   33  N   UNL     1     -10.292   6.750  68.828  1.00  0.00    -0.185 NA 
HETATM   34  C   UNL     1     -10.855   6.108  67.644  1.00  0.00    -0.332 C  
BRANCH  33  35
HETATM   35  C   UNL     1      -9.687   5.848  69.825  1.00  0.00    -0.160 C  
BRANCH  35  36
HETATM   36  C   UNL     1     -10.657   5.587  71.001  1.00  0.00    -0.230 C  
BRANCH  36  37
HETATM   37  N   UNL     1     -10.015   5.297  72.301  1.00  0.00    -0.172 NA 
HETATM   38  C   UNL     1     -11.063   5.054  73.299  1.00  0.00    -0.337 C  
HETATM   39  C   UNL     1      -9.170   6.410  72.745  1.00  0.00    -0.137 C  
ENDBRANCH  36  37
ENDBRANCH  35  36
ENDBRANCH  33  35
ENDBRANCH   5  33
ENDBRANCH   2   3
TORSDOF 10
ENDMDL
MODEL      248
REMARK 921   NORMALIZED FREE ENERGY PREDICTED BY IDOCK:   -3.99 KCAL/MOL
REMARK 922        TOTAL FREE ENERGY PREDICTED BY IDOCK:   -8.03 KCAL/MOL
REMARK 923 INTER-LIGAND FREE ENERGY PREDICTED BY IDOCK:   -7.24 KCAL/MOL
REMARK 924 INTRA-LIGAND FREE ENERGY PREDICTED BY IDOCK:   -0.79 KCAL/MOL
REMARK 927      BINDING AFFINITY PREDICTED BY RF-SCORE:    0.00 PKD
ROOT
HETATM    1  C   UNL     1      -9.466  11.174  63.882  1.00  0.00    -0.227 C  
HETATM    2  O   UNL     1     -10.533  10.782  64.739  1.00  0.00    -0.326 OA 
ENDROOT
BRANCH   2   3
HETATM    3  C   UNL     1     -10.199  10.106  65.888  1.00  0.00    -0.211 A  
HETATM    4  C   UNL     1     -10.660  10.366  67.180  1.00  0.00    -0.261 A  
HETATM    5  C   UNL     1      -8.774   8.242  66.723  1.00  0.00    -0.133 A  
HETATM    6  C   UNL     1     -10.304   9.458  68.185  1.00  0.00    -0.255 A  
HETATM    7  C   UNL     1      -9.339   8.463  67.993  1.00  0.00    -0.136 A  
HETATM    8  C   UNL     1      -9.295   9.043  65.678  1.00  0.00    -0.289 A  
BRANCH   4   9
HETATM    9  N   UNL     1     -11.442  11.488  67.507  1.00  0.00    -0.463 NA 
HETATM   10  H   UNL     1     -11.988  11.434  68.366  1.00  0.00     0.000 HD 
BRANCH   9  11
HETATM   11  C   UNL     1     -11.541  12.670  66.767  1.00  0.00    -0.374 A  
HETATM   12  N   UNL     1     -12.615  12.787  65.978  1.00  0.00    -0.382 NA 
HETATM   13  N   UNL     1     -10.609  13.630  66.902  1.00  0.00    -0.271 NA 
HETATM   14  C   UNL     1     -10.817  14.818  66.315  1.00  0.00    -0.322 A  
HETATM   15  C   UNL     1     -11.921  15.038  65.519  1.00  0.00     0.000 A  
HETATM   16  C   UNL     1     -12.779  13.971  65.369  1.00  0.00    -0.471 A  
BRANCH  14  17
HETATM   17  C   UNL     1      -9.816  15.858  66.586  1.00  0.00    -0.267 A  
HETATM   18  C   UNL     1      -8.446  19.011  67.809  1.00  0.00    -0.323 A  
HETATM   19  C   UNL     1      -8.474  15.725  66.262  1.00  0.00    -0.210 A  
HETATM   20  C   UNL     1      -9.538  19.726  68.304  1.00  0.00    -0.467 A  
HETATM   21  C   UNL     1     -10.822  19.202  68.229  1.00  0.00     0.059 A  
HETATM   22  N   UNL     1      -7.812  16.859  66.649  1.00  0.00    -0.232 NA 
HETATM   23  C   UNL     1      -8.677  17.747  67.238  1.00  0.00    -0.237 A  
HETATM   24  C   UNL     1      -6.398  17.096  66.453  1.00  0.00    -0.182 C  
HETATM   25  C   UNL     1      -9.957  17.173  67.177  1.00  0.00    -0.283 A  
HETATM   26  C   UNL     1     -11.040  17.929  67.680  1.00  0.00     0.065 A  
ENDBRANCH  14  17
ENDBRANCH   9  11
ENDBRANCH   4   9
BRANCH   7  27
HETATM   27  N   UNL     1      -8.810   7.843  69.145  1.00  0.00    -0.141 N  
HETATM   28  O   UNL     1      -7.320   9.499  69.801  1.00  0.00    -0.071 OA 
HETATM   29  H   UNL     1      -9.202   6.945  69.427  1.00  0.00     0.000 HD 
HETATM   30  C   UNL     1      -7.799   8.376  69.912  1.00  0.00    -0.101 C  
BRANCH  30  31
HETATM   31  C   UNL     1      -7.379   7.457  71.002  1.00  0.00    -0.073 C  
HETATM   32  C   UNL     1      -6.078   7.253  71.242  1.00  0.00    -0.036 C  
ENDBRANCH  30  31
ENDBRANCH   7  27
BRANCH   5  33
HETATM   33  N   UNL     1      -7.765   7.308  66.483  1.00  0.00    -0.092 NA 
HETATM   34  C   UNL     1      -6.424   7.432  67.044  1.00  0.00    -0.060 C  
BRANCH  33  35
HETATM   35  C   UNL     1      -8.052   6.053  65.766  1.00  0.00    -0.123 C  
BRANCH  35  36
HETATM   36  C   UNL     1      -8.635   4.986  66.723  1.00  0.00    -0.109 C  
BRANCH  36  37
HETATM   37  N   UNL     1      -7.807   3.774  66.903  1.00  0.00    -0.084 NA 
HETATM   38  C   UNL     1      -8.644   2.716  67.480  1.00  0.00    -0.103 C  
HETATM   39  C   UNL     1      -6.665   4.027  67.786  1.00  0.00    -0.047 C  
ENDBRANCH  36  37
ENDBRANCH  35  36
ENDBRANCH  33  35
ENDBRANCH   5  33
ENDBRANCH   2   3
TORSDOF 10
ENDMDL
MODEL      249
REMARK 921   NORMALIZED FREE ENERGY PREDICTED BY IDOCK:   -3.98 KCAL/MOL
REMARK 922        TOTAL FREE ENERGY PREDICTED BY IDOCK:   -8.01 KCAL/MOL
REMARK 923 INTER-LIGAND FREE ENERGY PREDICTED BY IDOCK:   -6.66 KCAL/MOL
REMARK 924 INTRA-LIGAND FREE ENERGY PREDICTED BY IDOCK:   -1.35 KCAL/MOL
REMARK 927      BINDING AFFINITY PREDICTED BY RF-SCORE:    0.00 PKD
ROOT
HETATM    1  C   UNL     1      -7.914   8.201  73.695  1.00  0.00    -0.199 C  
HETATM    2  O   UNL     1      -8.768   8.760  72.702  1.00  0.00    -0.408 OA 
ENDROOT
BRANCH   2   3
HETATM    3  C   UNL     1      -8.777   8.153  71.470  1.00  0.00    -0.146 A  
HETATM    4  C   UNL     1      -8.911   8.776  70.227  1.00  0.00    -0.161 A  
HETATM    5  C   UNL     1      -8.658   5.914  70.384  1.00  0.00    -0.135 A  
HETATM    6  C   UNL     1      -8.746   7.980  69.087  1.00  0.00    -0.137 A  
HETATM    7  C   UNL     1      -8.689   6.583  69.146  1.00  0.00    -0.129 A  
HETATM    8  C   UNL     1      -8.627   6.751  71.526  1.00  0.00    -0.120 A  
BRANCH   4   9
HETATM    9  N   UNL     1      -9.212  10.141  70.080  1.00  0.00    -0.392 NA 
HETATM   10  H   UNL     1      -9.839  10.553  70.770  1.00  0.00     0.000 HD 
BRANCH   9  11
HETATM   11  C   UNL     1      -8.735  10.989  69.075  1.00  0.00    -0.064 A  
HETATM   12  N   UNL     1      -7.412  11.189  69.046  1.00  0.00    -0.124 NA 
HETATM   13  N   UNL     1      -9.587  11.520  68.180  1.00  0.00    -0.181 NA 
HETATM   14  C   UNL     1      -9.086  12.187  67.129  1.00  0.00    -0.189 A  
HETATM   15  C   UNL     1      -7.731  12.401  66.999  1.00  0.00    -0.065 A  
HETATM   16  C   UNL     1      -6.941  11.894  68.006  1.00  0.00    -0.078 A  
BRANCH  14  17
HETATM   17  C   UNL     1     -10.061  12.651  66.133  1.00  0.00    -0.268 A  
HETATM   18  C   UNL     1     -11.959  14.996  64.080  1.00  0.00    -0.221 A  
HETATM   19  C   UNL     1     -10.828  11.791  65.362  1.00  0.00    -0.295 A  
HETATM   20  C   UNL     1     -11.574  16.267  64.512  1.00  0.00    -0.091 A  
HETATM   21  C   UNL     1     -10.665  16.417  65.551  1.00  0.00    -0.300 A  
HETATM   22  N   UNL     1     -11.625  12.533  64.533  1.00  0.00    -0.331 NA 
HETATM   23  C   UNL     1     -11.402  13.874  64.722  1.00  0.00    -0.363 A  
HETATM   24  C   UNL     1     -12.583  11.982  63.599  1.00  0.00    -0.490 C  
HETATM   25  C   UNL     1     -10.456  13.992  65.752  1.00  0.00    -0.317 A  
HETATM   26  C   UNL     1     -10.096  15.294  66.168  1.00  0.00    -0.315 A  
ENDBRANCH  14  17
ENDBRANCH   9  11
ENDBRANCH   4   9
BRANCH   7  27
HETATM   27  N   UNL     1      -8.873   5.876  67.940  1.00  0.00    -0.107 N  
HETATM   28  O   UNL     1      -6.928   6.512  66.842  1.00  0.00    -0.064 OA 
HETATM   29  H   UNL     1      -9.690   5.271  67.860  1.00  0.00     0.000 HD 
HETATM   30  C   UNL     1      -8.018   5.953  66.863  1.00  0.00    -0.102 C  
BRANCH  30  31
HETATM   31  C   UNL     1      -8.518   5.181  65.695  1.00  0.00    -0.134 C  
HETATM   32  C   UNL     1      -7.921   5.307  64.503  1.00  0.00    -0.113 C  
ENDBRANCH  30  31
ENDBRANCH   7  27
BRANCH   5  33
HETATM   33  N   UNL     1      -8.663   4.525  70.507  1.00  0.00    -0.091 NA 
HETATM   34  C   UNL     1      -7.545   3.689  70.082  1.00  0.00    -0.047 C  
BRANCH  33  35
HETATM   35  C   UNL     1      -9.749   3.833  71.224  1.00  0.00    -0.175 C  
BRANCH  35  36
HETATM   36  C   UNL     1      -9.190   2.727  72.149  1.00  0.00    -0.095 C  
BRANCH  36  37
HETATM   37  N   UNL     1      -8.619   3.198  73.429  1.00  0.00    -0.077 NA 
HETATM   38  C   UNL     1      -7.404   2.424  73.715  1.00  0.00    -0.037 C  
HETATM   39  C   UNL     1      -9.568   3.039  74.535  1.00  0.00    -0.098 C  
ENDBRANCH  36  37
ENDBRANCH  35  36
ENDBRANCH  33  35
ENDBRANCH   5  33
ENDBRANCH   2   3
TORSDOF 10
ENDMDL
MODEL      250
REMARK 921   NORMALIZED FREE ENERGY PREDICTED BY IDOCK:   -3.97 KCAL/MOL
REMARK 922        TOTAL FREE ENERGY PREDICTED BY IDOCK:   -8.00 KCAL/MOL
REMARK 923 INTER-LIGAND FREE ENERGY PREDICTED BY IDOCK:   -6.83 KCAL/MOL
REMARK 924 INTRA-LIGAND FREE ENERGY PREDICTED BY IDOCK:   -1.17 KCAL/MOL
REMARK 927      BINDING AFFINITY PREDICTED BY RF-SCORE:    0.00 PKD
ROOT
HETATM    1  C   UNL     1     -10.761   7.431  66.892  1.00  0.00    -0.254 C  
HETATM    2  O   UNL     1      -9.566   7.737  66.180  1.00  0.00    -0.146 OA 
ENDROOT
BRANCH   2   3
HETATM    3  C   UNL     1      -8.813   8.789  66.642  1.00  0.00    -0.131 A  
HETATM    4  C   UNL     1      -7.476   8.753  67.043  1.00  0.00    -0.091 A  
HETATM    5  C   UNL     1      -8.955  11.217  67.177  1.00  0.00    -0.145 A  
HETATM    6  C   UNL     1      -6.860   9.975  67.340  1.00  0.00    -0.082 A  
HETATM    7  C   UNL     1      -7.580  11.168  67.473  1.00  0.00    -0.108 A  
HETATM    8  C   UNL     1      -9.515  10.012  66.689  1.00  0.00    -0.215 A  
BRANCH   4   9
HETATM    9  N   UNL     1      -6.743   7.560  67.170  1.00  0.00    -0.065 NA 
HETATM   10  H   UNL     1      -5.840   7.521  66.698  1.00  0.00     0.000 HD 
BRANCH   9  11
HETATM   11  C   UNL     1      -7.133   6.422  67.882  1.00  0.00    -0.085 A  
HETATM   12  N   UNL     1      -6.497   5.285  67.579  1.00  0.00    -0.050 NA 
HETATM   13  N   UNL     1      -8.071   6.516  68.842  1.00  0.00    -0.114 NA 
HETATM   14  C   UNL     1      -8.304   5.452  69.624  1.00  0.00    -0.100 A  
HETATM   15  C   UNL     1      -7.659   4.253  69.408  1.00  0.00    -0.054 A  
HETATM   16  C   UNL     1      -6.778   4.223  68.351  1.00  0.00    -0.047 A  
BRANCH  14  17
HETATM   17  C   UNL     1      -9.262   5.650  70.720  1.00  0.00    -0.175 A  
HETATM   18  C   UNL     1     -11.721   7.353  72.810  1.00  0.00    -0.184 A  
HETATM   19  C   UNL     1      -9.587   4.659  71.634  1.00  0.00    -0.161 A  
HETATM   20  C   UNL     1     -11.801   8.654  72.307  1.00  0.00    -0.436 A  
HETATM   21  C   UNL     1     -11.003   9.053  71.243  1.00  0.00    -0.384 A  
HETATM   22  N   UNL     1     -10.507   5.157  72.517  1.00  0.00    -0.207 NA 
HETATM   23  C   UNL     1     -10.816   6.459  72.209  1.00  0.00    -0.239 A  
HETATM   24  C   UNL     1     -11.064   4.421  73.630  1.00  0.00    -0.278 C  
HETATM   25  C   UNL     1     -10.020   6.820  71.111  1.00  0.00    -0.194 A  
HETATM   26  C   UNL     1     -10.122   8.147  70.635  1.00  0.00    -0.209 A  
ENDBRANCH  14  17
ENDBRANCH   9  11
ENDBRANCH   4   9
BRANCH   7  27
HETATM   27  N   UNL     1      -6.931  12.248  68.106  1.00  0.00    -0.079 N  
HETATM   28  O   UNL     1      -6.426  11.235  70.134  1.00  0.00    -0.148 OA 
HETATM   29  H   UNL     1      -6.793  13.104  67.569  1.00  0.00     0.000 HD 
HETATM   30  C   UNL     1      -6.470  12.218  69.403  1.00  0.00    -0.105 C  
BRANCH  30  31
HETATM   31  C   UNL     1      -5.922  13.531  69.833  1.00  0.00    -0.130 C  
HETATM   32  C   UNL     1      -6.438  14.666  69.346  1.00  0.00    -0.132 C  
ENDBRANCH  30  31
ENDBRANCH   7  27
BRANCH   5  33
HETATM   33  N   UNL     1      -9.738  12.359  67.350  1.00  0.00    -0.191 NA 
HETATM   34  C   UNL     1     -10.707  12.498  68.432  1.00  0.00    -0.240 C  
BRANCH  33  35
HETATM   35  C   UNL     1      -9.512  13.561  66.527  1.00  0.00    -0.256 C  
BRANCH  35  36
HETATM   36  C   UNL     1     -10.853  14.198  66.092  1.00  0.00    -0.296 C  
BRANCH  36  37
HETATM   37  N   UNL     1     -11.259  13.930  64.696  1.00  0.00    -0.369 NA 
HETATM   38  C   UNL     1     -12.061  15.061  64.215  1.00  0.00    -0.306 C  
HETATM   39  C   UNL     1     -12.044  12.697  64.588  1.00  0.00    -0.420 C  
ENDBRANCH  36  37
ENDBRANCH  35  36
ENDBRANCH  33  35
ENDBRANCH   5  33
ENDBRANCH   2   3
TORSDOF 10
ENDMDL
MODEL      251
REMARK 921   NORMALIZED FREE ENERGY PREDICTED BY IDOCK:   -3.94 KCAL/MOL
REMARK 922        TOTAL FREE ENERGY PREDICTED BY IDOCK:   -7.96 KCAL/MOL
REMARK 923 INTER-LIGAND FREE ENERGY PREDICTED BY IDOCK:   -8.68 KCAL/MOL
REMARK 924 INTRA-LIGAND FREE ENERGY PREDICTED BY IDOCK:    0.72 KCAL/MOL
REMARK 927      BINDING AFFINITY PREDICTED BY RF-SCORE:    0.00 PKD
ROOT
HETATM    1  C   UNL     1      -5.842  14.392  69.994  1.00  0.00    -0.131 C  
HETATM    2  O   UNL     1      -6.977  15.243  69.863  1.00  0.00    -0.180 OA 
ENDROOT
BRANCH   2   3
HETATM    3  C   UNL     1      -7.952  14.856  68.975  1.00  0.00    -0.170 A  
HETATM    4  C   UNL     1      -8.240  13.555  68.557  1.00  0.00    -0.104 A  
HETATM    5  C   UNL     1      -9.741  15.773  67.505  1.00  0.00    -0.226 A  
HETATM    6  C   UNL     1      -9.375  13.373  67.758  1.00  0.00    -0.211 A  
HETATM    7  C   UNL     1     -10.073  14.443  67.187  1.00  0.00    -0.253 A  
HETATM    8  C   UNL     1      -8.717  15.929  68.469  1.00  0.00    -0.194 A  
BRANCH   4   9
HETATM    9  N   UNL     1      -7.443  12.446  68.890  1.00  0.00    -0.279 NA 
HETATM   10  H   UNL     1      -6.918  12.500  69.763  1.00  0.00     0.000 HD 
BRANCH   9  11
HETATM   11  C   UNL     1      -7.300  11.276  68.139  1.00  0.00    -0.088 A  
HETATM   12  N   UNL     1      -6.318  11.270  67.230  1.00  0.00    -0.072 NA 
HETATM   13  N   UNL     1      -8.100  10.220  68.377  1.00  0.00    -0.106 NA 
HETATM   14  C   UNL     1      -7.832   9.056  67.765  1.00  0.00    -0.101 A  
HETATM   15  C   UNL     1      -6.810   8.952  66.846  1.00  0.00    -0.077 A  
HETATM   16  C   UNL     1      -6.097  10.105  66.602  1.00  0.00    -0.065 A  
BRANCH  14  17
HETATM   17  C   UNL     1      -8.675   7.916  68.146  1.00  0.00    -0.126 A  
HETATM   18  C   UNL     1     -11.280   6.059  69.900  1.00  0.00    -0.438 A  
HETATM   19  C   UNL     1      -8.579   6.667  67.549  1.00  0.00    -0.120 A  
HETATM   20  C   UNL     1     -11.807   6.950  70.839  1.00  0.00    -0.424 A  
HETATM   21  C   UNL     1     -11.292   8.234  70.963  1.00  0.00    -0.299 A  
HETATM   22  N   UNL     1      -9.501   5.833  68.123  1.00  0.00    -0.109 NA 
HETATM   23  C   UNL     1     -10.222   6.496  69.084  1.00  0.00    -0.180 A  
HETATM   24  C   UNL     1      -9.680   4.440  67.775  1.00  0.00    -0.137 C  
HETATM   25  C   UNL     1      -9.702   7.798  69.161  1.00  0.00    -0.161 A  
HETATM   26  C   UNL     1     -10.254   8.669  70.127  1.00  0.00    -0.204 A  
ENDBRANCH  14  17
ENDBRANCH   9  11
ENDBRANCH   4   9
BRANCH   7  27
HETATM   27  N   UNL     1     -10.967  14.145  66.137  1.00  0.00    -0.305 N  
HETATM   28  O   UNL     1     -12.342  12.635  67.243  1.00  0.00    -0.352 OA 
HETATM   29  H   UNL     1     -10.855  14.648  65.257  1.00  0.00     0.000 HD 
HETATM   30  C   UNL     1     -11.981  13.218  66.227  1.00  0.00    -0.417 C  
BRANCH  30  31
HETATM   31  C   UNL     1     -12.695  13.042  64.935  1.00  0.00    -0.456 C  
HETATM   32  C   UNL     1     -12.104  13.399  63.788  1.00  0.00    -0.516 C  
ENDBRANCH  30  31
ENDBRANCH   7  27
BRANCH   5  33
HETATM   33  N   UNL     1     -10.359  16.880  66.922  1.00  0.00    -0.311 NA 
HETATM   34  C   UNL     1     -10.656  16.958  65.495  1.00  0.00    -0.202 C  
BRANCH  33  35
HETATM   35  C   UNL     1     -10.889  17.975  67.753  1.00  0.00    -0.228 C  
BRANCH  35  36
HETATM   36  C   UNL     1      -9.777  18.596  68.631  1.00  0.00    -0.377 C  
BRANCH  36  37
HETATM   37  N   UNL     1      -9.178  19.843  68.109  1.00  0.00    -0.316 NA 
HETATM   38  C   UNL     1     -10.006  20.333  67.000  1.00  0.00    -0.460 C  
HETATM   39  C   UNL     1      -7.809  19.626  67.634  1.00  0.00    -0.282 C  
ENDBRANCH  36  37
ENDBRANCH  35  36
ENDBRANCH  33  35
ENDBRANCH   5  33
ENDBRANCH   2   3
TORSDOF 10
ENDMDL
MODEL      252
REMARK 921   NORMALIZED FREE ENERGY PREDICTED BY IDOCK:   -3.92 KCAL/MOL
REMARK 922        TOTAL FREE ENERGY PREDICTED BY IDOCK:   -7.93 KCAL/MOL
REMARK 923 INTER-LIGAND FREE ENERGY PREDICTED BY IDOCK:   -8.97 KCAL/MOL
REMARK 924 INTRA-LIGAND FREE ENERGY PREDICTED BY IDOCK:    1.04 KCAL/MOL
REMARK 927      BINDING AFFINITY PREDICTED BY RF-SCORE:    0.00 PKD
ROOT
HETATM    1  C   UNL     1     -11.595  15.477  72.675  1.00  0.00    -0.400 C  
HETATM    2  O   UNL     1     -12.100  14.320  72.018  1.00  0.00    -0.216 OA 
ENDROOT
BRANCH   2   3
HETATM    3  C   UNL     1     -11.950  14.257  70.653  1.00  0.00    -0.322 A  
HETATM    4  C   UNL     1     -12.143  13.140  69.837  1.00  0.00    -0.287 A  
HETATM    5  C   UNL     1     -11.299  15.638  68.686  1.00  0.00    -0.357 A  
HETATM    6  C   UNL     1     -12.078  13.337  68.452  1.00  0.00    -0.244 A  
HETATM    7  C   UNL     1     -11.606  14.524  67.882  1.00  0.00    -0.344 A  
HETATM    8  C   UNL     1     -11.562  15.481  70.068  1.00  0.00    -0.356 A  
BRANCH   4   9
HETATM    9  N   UNL     1     -12.384  11.850  70.342  1.00  0.00    -0.286 NA 
HETATM   10  H   UNL     1     -13.095  11.765  71.068  1.00  0.00     0.000 HD 
BRANCH   9  11
HETATM   11  C   UNL     1     -11.742  10.674  69.945  1.00  0.00    -0.317 A  
HETATM   12  N   UNL     1     -11.913   9.608  70.734  1.00  0.00    -0.286 NA 
HETATM   13  N   UNL     1     -11.034  10.646  68.801  1.00  0.00    -0.228 NA 
HETATM   14  C   UNL     1     -10.573   9.468  68.355  1.00  0.00    -0.219 A  
HETATM   15  C   UNL     1     -10.744   8.312  69.087  1.00  0.00    -0.117 A  
HETATM   16  C   UNL     1     -11.407   8.449  70.286  1.00  0.00    -0.129 A  
BRANCH  14  17
HETATM   17  C   UNL     1      -9.901   9.487  67.050  1.00  0.00    -0.246 A  
HETATM   18  C   UNL     1      -7.456   8.632  64.480  1.00  0.00    -0.107 A  
HETATM   19  C   UNL     1     -10.358  10.229  65.971  1.00  0.00    -0.178 A  
HETATM   20  C   UNL     1      -6.540   7.783  65.104  1.00  0.00    -0.047 A  
HETATM   21  C   UNL     1      -6.670   7.465  66.450  1.00  0.00    -0.060 A  
HETATM   22  N   UNL     1      -9.518  10.026  64.909  1.00  0.00    -0.273 NA 
HETATM   23  C   UNL     1      -8.514   9.154  65.246  1.00  0.00    -0.154 A  
HETATM   24  C   UNL     1      -9.660  10.655  63.613  1.00  0.00    -0.314 C  
HETATM   25  C   UNL     1      -8.694   8.826  66.599  1.00  0.00    -0.138 A  
HETATM   26  C   UNL     1      -7.743   7.969  67.199  1.00  0.00    -0.101 A  
ENDBRANCH  14  17
ENDBRANCH   9  11
ENDBRANCH   4   9
BRANCH   7  27
HETATM   27  N   UNL     1     -11.255  14.491  66.516  1.00  0.00    -0.337 N  
HETATM   28  O   UNL     1     -13.335  13.990  65.615  1.00  0.00    -0.636 OA 
HETATM   29  H   UNL     1     -10.296  14.728  66.263  1.00  0.00     0.000 HD 
HETATM   30  C   UNL     1     -12.127  14.159  65.504  1.00  0.00    -0.414 C  
BRANCH  30  31
HETATM   31  C   UNL     1     -11.454  14.109  64.179  1.00  0.00    -0.192 C  
HETATM   32  C   UNL     1     -11.272  12.935  63.564  1.00  0.00    -0.350 C  
ENDBRANCH  30  31
ENDBRANCH   7  27
BRANCH   5  33
HETATM   33  N   UNL     1     -10.768  16.826  68.182  1.00  0.00    -0.351 NA 
HETATM   34  C   UNL     1      -9.936  17.720  68.980  1.00  0.00    -0.264 C  
BRANCH  33  35
HETATM   35  C   UNL     1     -10.895  17.166  66.754  1.00  0.00     0.022 C  
BRANCH  35  36
HETATM   36  C   UNL     1      -9.583  17.775  66.208  1.00  0.00    -0.243 C  
BRANCH  36  37
HETATM   37  N   UNL     1      -9.648  19.209  65.852  1.00  0.00    -0.430 NA 
HETATM   38  C   UNL     1      -9.400  20.004  67.062  1.00  0.00    -0.386 C  
HETATM   39  C   UNL     1     -10.954  19.568  65.293  1.00  0.00     0.336 C  
ENDBRANCH  36  37
ENDBRANCH  35  36
ENDBRANCH  33  35
ENDBRANCH   5  33
ENDBRANCH   2   3
TORSDOF 10
ENDMDL
MODEL      253
REMARK 921   NORMALIZED FREE ENERGY PREDICTED BY IDOCK:   -3.90 KCAL/MOL
REMARK 922        TOTAL FREE ENERGY PREDICTED BY IDOCK:   -7.90 KCAL/MOL
REMARK 923 INTER-LIGAND FREE ENERGY PREDICTED BY IDOCK:   -6.32 KCAL/MOL
REMARK 924 INTRA-LIGAND FREE ENERGY PREDICTED BY IDOCK:   -1.58 KCAL/MOL
REMARK 927      BINDING AFFINITY PREDICTED BY RF-SCORE:    0.00 PKD
ROOT
HETATM    1  C   UNL     1      -7.626  10.447  70.263  1.00  0.00     0.239 C  
HETATM    2  O   UNL     1      -7.923   9.136  70.733  1.00  0.00    -0.139 OA 
ENDROOT
BRANCH   2   3
HETATM    3  C   UNL     1      -8.430   8.242  69.822  1.00  0.00    -0.128 A  
HETATM    4  C   UNL     1      -9.776   7.971  69.569  1.00  0.00    -0.170 A  
HETATM    5  C   UNL     1      -7.727   6.554  68.131  1.00  0.00    -0.105 A  
HETATM    6  C   UNL     1     -10.072   7.128  68.491  1.00  0.00    -0.177 A  
HETATM    7  C   UNL     1      -9.091   6.383  67.827  1.00  0.00    -0.111 A  
HETATM    8  C   UNL     1      -7.439   7.557  69.087  1.00  0.00    -0.098 A  
BRANCH   4   9
HETATM    9  N   UNL     1     -10.825   8.492  70.348  1.00  0.00    -0.232 NA 
HETATM   10  H   UNL     1     -11.212   7.882  71.067  1.00  0.00     0.000 HD 
BRANCH   9  11
HETATM   11  C   UNL     1     -11.388   9.766  70.230  1.00  0.00    -0.272 A  
HETATM   12  N   UNL     1     -12.142  10.180  71.255  1.00  0.00    -0.377 NA 
HETATM   13  N   UNL     1     -11.126  10.521  69.148  1.00  0.00    -0.233 NA 
HETATM   14  C   UNL     1     -11.535  11.799  69.137  1.00  0.00    -0.297 A  
HETATM   15  C   UNL     1     -12.280  12.318  70.174  1.00  0.00    -0.302 A  
HETATM   16  C   UNL     1     -12.573  11.449  71.201  1.00  0.00    -0.386 A  
BRANCH  14  17
HETATM   17  C   UNL     1     -11.127  12.600  67.976  1.00  0.00    -0.288 A  
HETATM   18  C   UNL     1      -9.314  15.123  66.063  1.00  0.00    -0.326 A  
HETATM   19  C   UNL     1     -11.627  12.396  66.698  1.00  0.00    -0.385 A  
HETATM   20  C   UNL     1      -8.531  15.808  66.995  1.00  0.00    -0.251 A  
HETATM   21  C   UNL     1      -8.588  15.481  68.344  1.00  0.00    -0.168 A  
HETATM   22  N   UNL     1     -11.045  13.296  65.848  1.00  0.00    -0.284 NA 
HETATM   23  C   UNL     1     -10.156  14.094  66.523  1.00  0.00    -0.280 A  
HETATM   24  C   UNL     1     -11.338  13.404  64.435  1.00  0.00    -0.391 C  
HETATM   25  C   UNL     1     -10.211  13.717  67.874  1.00  0.00    -0.245 A  
HETATM   26  C   UNL     1      -9.411  14.437  68.790  1.00  0.00    -0.161 A  
ENDBRANCH  14  17
ENDBRANCH   9  11
ENDBRANCH   4   9
BRANCH   7  27
HETATM   27  N   UNL     1      -9.529   5.322  67.007  1.00  0.00    -0.128 N  
HETATM   28  O   UNL     1      -8.835   6.140  64.948  1.00  0.00     0.032 OA 
HETATM   29  H   UNL     1      -9.945   4.508  67.460  1.00  0.00     0.000 HD 
HETATM   30  C   UNL     1      -9.430   5.317  65.634  1.00  0.00    -0.081 C  
BRANCH  30  31
HETATM   31  C   UNL     1     -10.065   4.116  65.031  1.00  0.00    -0.220 C  
HETATM   32  C   UNL     1      -9.905   3.855  63.728  1.00  0.00    -0.168 C  
ENDBRANCH  30  31
ENDBRANCH   7  27
BRANCH   5  33
HETATM   33  N   UNL     1      -6.710   5.798  67.547  1.00  0.00    -0.057 NA 
HETATM   34  C   UNL     1      -6.414   4.427  67.950  1.00  0.00    -0.038 C  
BRANCH  33  35
HETATM   35  C   UNL     1      -5.973   6.299  66.374  1.00  0.00    -0.028 C  
BRANCH  35  36
HETATM   36  C   UNL     1      -5.277   5.142  65.618  1.00  0.00    -0.012 C  
BRANCH  36  37
HETATM   37  N   UNL     1      -5.973   4.668  64.403  1.00  0.00    -0.017 NA 
HETATM   38  C   UNL     1      -6.047   3.203  64.446  1.00  0.00    -0.022 C  
HETATM   39  C   UNL     1      -5.273   5.084  63.183  1.00  0.00    -0.009 C  
ENDBRANCH  36  37
ENDBRANCH  35  36
ENDBRANCH  33  35
ENDBRANCH   5  33
ENDBRANCH   2   3
TORSDOF 10
ENDMDL
MODEL      254
REMARK 921   NORMALIZED FREE ENERGY PREDICTED BY IDOCK:   -3.88 KCAL/MOL
REMARK 922        TOTAL FREE ENERGY PREDICTED BY IDOCK:   -7.87 KCAL/MOL
REMARK 923 INTER-LIGAND FREE ENERGY PREDICTED BY IDOCK:   -7.23 KCAL/MOL
REMARK 924 INTRA-LIGAND FREE ENERGY PREDICTED BY IDOCK:   -0.64 KCAL/MOL
REMARK 927      BINDING AFFINITY PREDICTED BY RF-SCORE:    0.00 PKD
ROOT
HETATM    1  C   UNL     1      -9.436   3.899  64.624  1.00  0.00    -0.167 C  
HETATM    2  O   UNL     1      -8.775   5.132  64.891  1.00  0.00    -0.149 OA 
ENDROOT
BRANCH   2   3
HETATM    3  C   UNL     1      -8.929   5.669  66.146  1.00  0.00    -0.151 A  
HETATM    4  C   UNL     1      -9.266   6.987  66.461  1.00  0.00    -0.164 A  
HETATM    5  C   UNL     1      -8.776   5.084  68.562  1.00  0.00    -0.097 A  
HETATM    6  C   UNL     1      -9.516   7.284  67.806  1.00  0.00    -0.143 A  
HETATM    7  C   UNL     1      -9.219   6.390  68.841  1.00  0.00    -0.128 A  
HETATM    8  C   UNL     1      -8.719   4.742  67.190  1.00  0.00    -0.103 A  
BRANCH   4   9
HETATM    9  N   UNL     1      -9.349   8.010  65.500  1.00  0.00    -0.397 NA 
HETATM   10  H   UNL     1      -9.115   7.761  64.540  1.00  0.00     0.000 HD 
BRANCH   9  11
HETATM   11  C   UNL     1      -9.721   9.337  65.737  1.00  0.00    -0.269 A  
HETATM   12  N   UNL     1      -9.627  10.174  64.697  1.00  0.00    -0.299 NA 
HETATM   13  N   UNL     1     -10.183   9.702  66.946  1.00  0.00    -0.230 NA 
HETATM   14  C   UNL     1     -10.693  10.934  67.097  1.00  0.00    -0.270 A  
HETATM   15  C   UNL     1     -10.676  11.846  66.064  1.00  0.00    -0.326 A  
HETATM   16  C   UNL     1     -10.107  11.413  64.887  1.00  0.00    -0.274 A  
BRANCH  14  17
HETATM   17  C   UNL     1     -11.277  11.236  68.410  1.00  0.00    -0.324 A  
HETATM   18  C   UNL     1     -12.488  10.647  71.801  1.00  0.00    -0.321 A  
HETATM   19  C   UNL     1     -11.648  12.514  68.802  1.00  0.00    -0.322 A  
HETATM   20  C   UNL     1     -12.383   9.268  72.001  1.00  0.00    -0.433 A  
HETATM   21  C   UNL     1     -11.923   8.438  70.988  1.00  0.00    -0.255 A  
HETATM   22  N   UNL     1     -12.149  12.458  70.074  1.00  0.00    -0.296 NA 
HETATM   23  C   UNL     1     -12.113  11.172  70.551  1.00  0.00    -0.381 A  
HETATM   24  C   UNL     1     -12.662  13.594  70.809  1.00  0.00    -0.268 C  
HETATM   25  C   UNL     1     -11.612  10.365  69.518  1.00  0.00    -0.288 A  
HETATM   26  C   UNL     1     -11.527   8.974  69.753  1.00  0.00     0.141 A  
ENDBRANCH  14  17
ENDBRANCH   9  11
ENDBRANCH   4   9
BRANCH   7  27
HETATM   27  N   UNL     1      -9.180   6.909  70.153  1.00  0.00    -0.155 N  
HETATM   28  O   UNL     1      -6.993   7.690  70.173  1.00  0.00    -0.049 OA 
HETATM   29  H   UNL     1     -10.038   6.882  70.703  1.00  0.00     0.000 HD 
HETATM   30  C   UNL     1      -8.056   7.451  70.734  1.00  0.00    -0.110 C  
BRANCH  30  31
HETATM   31  C   UNL     1      -8.284   7.822  72.156  1.00  0.00    -0.140 C  
HETATM   32  C   UNL     1      -7.407   7.449  73.095  1.00  0.00    -0.085 C  
ENDBRANCH  30  31
ENDBRANCH   7  27
BRANCH   5  33
HETATM   33  N   UNL     1      -8.406   4.170  69.550  1.00  0.00    -0.058 NA 
HETATM   34  C   UNL     1      -7.036   4.043  70.036  1.00  0.00    -0.042 C  
BRANCH  33  35
HETATM   35  C   UNL     1      -9.423   3.384  70.271  1.00  0.00    -0.177 C  
BRANCH  35  36
HETATM   36  C   UNL     1      -9.579   3.879  71.728  1.00  0.00    -0.158 C  
BRANCH  36  37
HETATM   37  N   UNL     1      -9.509   2.829  72.766  1.00  0.00    -0.095 NA 
HETATM   38  C   UNL     1     -10.637   3.005  73.689  1.00  0.00    -0.175 C  
HETATM   39  C   UNL     1      -8.252   2.895  73.517  1.00  0.00    -0.072 C  
ENDBRANCH  36  37
ENDBRANCH  35  36
ENDBRANCH  33  35
ENDBRANCH   5  33
ENDBRANCH   2   3
TORSDOF 10
ENDMDL
MODEL      255
REMARK 921   NORMALIZED FREE ENERGY PREDICTED BY IDOCK:   -3.88 KCAL/MOL
REMARK 922        TOTAL FREE ENERGY PREDICTED BY IDOCK:   -7.87 KCAL/MOL
REMARK 923 INTER-LIGAND FREE ENERGY PREDICTED BY IDOCK:   -6.64 KCAL/MOL
REMARK 924 INTRA-LIGAND FREE ENERGY PREDICTED BY IDOCK:   -1.22 KCAL/MOL
REMARK 927      BINDING AFFINITY PREDICTED BY RF-SCORE:    0.00 PKD
ROOT
HETATM    1  C   UNL     1      -7.688   6.209  67.279  1.00  0.00    -0.094 C  
HETATM    2  O   UNL     1      -7.312   6.804  68.517  1.00  0.00    -0.082 OA 
ENDROOT
BRANCH   2   3
HETATM    3  C   UNL     1      -7.496   8.160  68.642  1.00  0.00    -0.098 A  
HETATM    4  C   UNL     1      -7.190   8.950  69.752  1.00  0.00    -0.055 A  
HETATM    5  C   UNL     1      -8.373  10.142  67.416  1.00  0.00    -0.118 A  
HETATM    6  C   UNL     1      -7.322  10.337  69.611  1.00  0.00    -0.150 A  
HETATM    7  C   UNL     1      -7.956  10.924  68.509  1.00  0.00    -0.134 A  
HETATM    8  C   UNL     1      -8.051   8.766  67.495  1.00  0.00    -0.106 A  
BRANCH   4   9
HETATM    9  N   UNL     1      -6.775   8.417  70.985  1.00  0.00    -0.044 NA 
HETATM   10  H   UNL     1      -5.773   8.425  71.177  1.00  0.00     0.000 HD 
BRANCH   9  11
HETATM   11  C   UNL     1      -7.604   7.878  71.973  1.00  0.00    -0.083 A  
HETATM   12  N   UNL     1      -7.975   8.707  72.955  1.00  0.00    -0.400 NA 
HETATM   13  N   UNL     1      -8.019   6.601  71.882  1.00  0.00    -0.102 NA 
HETATM   14  C   UNL     1      -8.947   6.160  72.745  1.00  0.00    -0.126 A  
HETATM   15  C   UNL     1      -9.416   6.965  73.761  1.00  0.00    -0.237 A  
HETATM   16  C   UNL     1      -8.873   8.229  73.829  1.00  0.00    -0.111 A  
BRANCH  14  17
HETATM   17  C   UNL     1      -9.435   4.793  72.527  1.00  0.00    -0.165 A  
HETATM   18  C   UNL     1      -9.872   1.569  70.875  1.00  0.00    -0.104 A  
HETATM   19  C   UNL     1     -10.238   4.119  73.436  1.00  0.00    -0.152 A  
HETATM   20  C   UNL     1      -9.196   1.678  69.658  1.00  0.00    -0.163 A  
HETATM   21  C   UNL     1      -8.570   2.864  69.299  1.00  0.00    -0.114 A  
HETATM   22  N   UNL     1     -10.512   2.872  72.942  1.00  0.00    -0.160 NA 
HETATM   23  C   UNL     1      -9.900   2.688  71.727  1.00  0.00    -0.153 A  
HETATM   24  C   UNL     1     -11.343   1.888  73.602  1.00  0.00    -0.208 C  
HETATM   25  C   UNL     1      -9.249   3.890  71.410  1.00  0.00    -0.189 A  
HETATM   26  C   UNL     1      -8.581   3.966  70.167  1.00  0.00    -0.105 A  
ENDBRANCH  14  17
ENDBRANCH   9  11
ENDBRANCH   4   9
BRANCH   7  27
HETATM   27  N   UNL     1      -8.342  12.275  68.630  1.00  0.00    -0.335 N  
HETATM   28  O   UNL     1      -6.763  13.235  67.224  1.00  0.00    -0.172 OA 
HETATM   29  H   UNL     1      -9.166  12.489  69.191  1.00  0.00     0.000 HD 
HETATM   30  C   UNL     1      -7.675  13.324  68.037  1.00  0.00    -0.147 C  
BRANCH  30  31
HETATM   31  C   UNL     1      -8.247  14.641  68.422  1.00  0.00    -0.154 C  
HETATM   32  C   UNL     1      -7.629  15.399  69.335  1.00  0.00    -0.224 C  
ENDBRANCH  30  31
ENDBRANCH   7  27
BRANCH   5  33
HETATM   33  N   UNL     1      -9.064  10.660  66.320  1.00  0.00    -0.163 NA 
HETATM   34  C   UNL     1      -8.579  10.534  64.949  1.00  0.00    -0.172 C  
BRANCH  33  35
HETATM   35  C   UNL     1     -10.411  11.235  66.478  1.00  0.00    -0.253 C  
BRANCH  35  36
HETATM   36  C   UNL     1     -11.079  11.476  65.104  1.00  0.00    -0.194 C  
BRANCH  36  37
HETATM   37  N   UNL     1     -12.204  12.436  65.104  1.00  0.00    -0.521 NA 
HETATM   38  C   UNL     1     -12.168  13.201  63.851  1.00  0.00    -0.433 C  
HETATM   39  C   UNL     1     -12.126  13.359  66.240  1.00  0.00    -0.422 C  
ENDBRANCH  36  37
ENDBRANCH  35  36
ENDBRANCH  33  35
ENDBRANCH   5  33
ENDBRANCH   2   3
TORSDOF 10
ENDMDL
MODEL      256
REMARK 921   NORMALIZED FREE ENERGY PREDICTED BY IDOCK:   -3.81 KCAL/MOL
REMARK 922        TOTAL FREE ENERGY PREDICTED BY IDOCK:   -7.76 KCAL/MOL
REMARK 923 INTER-LIGAND FREE ENERGY PREDICTED BY IDOCK:   -6.68 KCAL/MOL
REMARK 924 INTRA-LIGAND FREE ENERGY PREDICTED BY IDOCK:   -1.08 KCAL/MOL
REMARK 927      BINDING AFFINITY PREDICTED BY RF-SCORE:    0.00 PKD
ROOT
HETATM    1  C   UNL     1      -5.580  12.465  69.253  1.00  0.00    -0.075 C  
HETATM    2  O   UNL     1      -6.690  11.618  69.532  1.00  0.00    -0.117 OA 
ENDROOT
BRANCH   2   3
HETATM    3  C   UNL     1      -7.739  11.644  68.645  1.00  0.00    -0.134 A  
HETATM    4  C   UNL     1      -8.076  10.660  67.714  1.00  0.00    -0.111 A  
HETATM    5  C   UNL     1      -9.630  13.076  67.886  1.00  0.00    -0.215 A  
HETATM    6  C   UNL     1      -9.275  10.825  67.009  1.00  0.00    -0.166 A  
HETATM    7  C   UNL     1     -10.004  12.020  67.034  1.00  0.00    -0.204 A  
HETATM    8  C   UNL     1      -8.528  12.810  68.734  1.00  0.00     0.161 A  
BRANCH   4   9
HETATM    9  N   UNL     1      -7.269   9.539  67.451  1.00  0.00    -0.086 NA 
HETATM   10  H   UNL     1      -6.270   9.707  67.337  1.00  0.00     0.000 HD 
BRANCH   9  11
HETATM   11  C   UNL     1      -7.706   8.216  67.331  1.00  0.00    -0.102 A  
HETATM   12  N   UNL     1      -7.414   7.597  66.182  1.00  0.00    -0.081 NA 
HETATM   13  N   UNL     1      -8.344   7.621  68.356  1.00  0.00    -0.125 NA 
HETATM   14  C   UNL     1      -8.599   6.306  68.282  1.00  0.00    -0.117 A  
HETATM   15  C   UNL     1      -8.291   5.582  67.150  1.00  0.00    -0.104 A  
HETATM   16  C   UNL     1      -7.716   6.291  66.118  1.00  0.00    -0.096 A  
BRANCH  14  17
HETATM   17  C   UNL     1      -9.201   5.695  69.473  1.00  0.00    -0.154 A  
HETATM   18  C   UNL     1      -9.850   3.179  72.035  1.00  0.00    -0.241 A  
HETATM   19  C   UNL     1     -10.110   6.353  70.289  1.00  0.00    -0.181 A  
HETATM   20  C   UNL     1      -9.104   2.061  71.658  1.00  0.00    -0.146 A  
HETATM   21  C   UNL     1      -8.352   2.071  70.490  1.00  0.00    -0.072 A  
HETATM   22  N   UNL     1     -10.472   5.518  71.310  1.00  0.00    -0.235 NA 
HETATM   23  C   UNL     1      -9.818   4.315  71.206  1.00  0.00    -0.187 A  
HETATM   24  C   UNL     1     -11.425   5.848  72.347  1.00  0.00    -0.306 C  
HETATM   25  C   UNL     1      -9.042   4.371  70.038  1.00  0.00    -0.168 A  
HETATM   26  C   UNL     1      -8.305   3.218  69.683  1.00  0.00    -0.081 A  
ENDBRANCH  14  17
ENDBRANCH   9  11
ENDBRANCH   4   9
BRANCH   7  27
HETATM   27  N   UNL     1     -10.984  12.200  66.035  1.00  0.00    -0.281 N  
HETATM   28  O   UNL     1      -9.916  11.125  64.275  1.00  0.00    -0.255 OA 
HETATM   29  H   UNL     1     -11.858  12.653  66.300  1.00  0.00     0.000 HD 
HETATM   30  C   UNL     1     -10.833  11.803  64.725  1.00  0.00    -0.302 C  
BRANCH  30  31
HETATM   31  C   UNL     1     -11.984  12.214  63.879  1.00  0.00    -0.581 C  
HETATM   32  C   UNL     1     -13.035  12.831  64.432  1.00  0.00    -0.178 C  
ENDBRANCH  30  31
ENDBRANCH   7  27
BRANCH   5  33
HETATM   33  N   UNL     1     -10.279  14.311  67.910  1.00  0.00    -0.234 NA 
HETATM   34  C   UNL     1     -11.567  14.514  68.565  1.00  0.00    -0.313 C  
BRANCH  33  35
HETATM   35  C   UNL     1      -9.615  15.524  67.401  1.00  0.00    -0.213 C  
BRANCH  35  36
HETATM   36  C   UNL     1      -9.517  15.499  65.857  1.00  0.00    -0.342 C  
BRANCH  36  37
HETATM   37  N   UNL     1     -10.355  16.493  65.152  1.00  0.00    -0.623 NA 
HETATM   38  C   UNL     1     -10.304  17.760  65.892  1.00  0.00    -0.254 C  
HETATM   39  C   UNL     1     -11.748  16.048  65.047  1.00  0.00     0.237 C  
ENDBRANCH  36  37
ENDBRANCH  35  36
ENDBRANCH  33  35
ENDBRANCH   5  33
ENDBRANCH   2   3
TORSDOF 10
ENDMDL
MODEL      257
REMARK 921   NORMALIZED FREE ENERGY PREDICTED BY IDOCK:   -3.81 KCAL/MOL
REMARK 922        TOTAL FREE ENERGY PREDICTED BY IDOCK:   -7.76 KCAL/MOL
REMARK 923 INTER-LIGAND FREE ENERGY PREDICTED BY IDOCK:   -6.29 KCAL/MOL
REMARK 924 INTRA-LIGAND FREE ENERGY PREDICTED BY IDOCK:   -1.47 KCAL/MOL
REMARK 927      BINDING AFFINITY PREDICTED BY RF-SCORE:    0.00 PKD
ROOT
HETATM    1  C   UNL     1     -11.020  10.369  67.344  1.00  0.00    -0.270 C  
HETATM    2  O   UNL     1     -10.590  11.002  68.544  1.00  0.00    -0.171 OA 
ENDROOT
BRANCH   2   3
HETATM    3  C   UNL     1      -9.727  12.063  68.419  1.00  0.00    -0.199 A  
HETATM    4  C   UNL     1      -8.336  12.006  68.303  1.00  0.00    -0.163 A  
HETATM    5  C   UNL     1      -9.675  14.552  68.338  1.00  0.00    -0.224 A  
HETATM    6  C   UNL     1      -7.663  13.204  68.037  1.00  0.00    -0.146 A  
HETATM    7  C   UNL     1      -8.289  14.453  68.117  1.00  0.00    -0.158 A  
HETATM    8  C   UNL     1     -10.369  13.320  68.407  1.00  0.00    -0.254 A  
BRANCH   4   9
HETATM    9  N   UNL     1      -7.600  10.817  68.452  1.00  0.00    -0.097 NA 
HETATM   10  H   UNL     1      -7.211  10.628  69.375  1.00  0.00     0.000 HD 
BRANCH   9  11
HETATM   11  C   UNL     1      -7.349   9.870  67.454  1.00  0.00    -0.090 A  
HETATM   12  N   UNL     1      -6.467  10.220  66.512  1.00  0.00    -0.075 NA 
HETATM   13  N   UNL     1      -7.951   8.667  67.501  1.00  0.00    -0.105 NA 
HETATM   14  C   UNL     1      -7.565   7.719  66.634  1.00  0.00    -0.097 A  
HETATM   15  C   UNL     1      -6.629   7.983  65.657  1.00  0.00    -0.042 A  
HETATM   16  C   UNL     1      -6.128   9.265  65.632  1.00  0.00    -0.059 A  
BRANCH  14  17
HETATM   17  C   UNL     1      -8.183   6.397  66.803  1.00  0.00    -0.110 A  
HETATM   18  C   UNL     1      -9.520   3.133  65.870  1.00  0.00    -0.050 A  
HETATM   19  C   UNL     1      -8.527   5.872  68.039  1.00  0.00    -0.110 A  
HETATM   20  C   UNL     1      -9.463   3.091  64.475  1.00  0.00    -0.147 A  
HETATM   21  C   UNL     1      -8.996   4.180  63.752  1.00  0.00    -0.130 A  
HETATM   22  N   UNL     1      -9.071   4.629  67.855  1.00  0.00    -0.114 NA 
HETATM   23  C   UNL     1      -9.089   4.303  66.522  1.00  0.00    -0.128 A  
HETATM   24  C   UNL     1      -9.572   3.783  68.916  1.00  0.00    -0.113 C  
HETATM   25  C   UNL     1      -8.580   5.408  65.822  1.00  0.00    -0.139 A  
HETATM   26  C   UNL     1      -8.544   5.333  64.411  1.00  0.00    -0.093 A  
ENDBRANCH  14  17
ENDBRANCH   9  11
ENDBRANCH   4   9
BRANCH   7  27
HETATM   27  N   UNL     1      -7.458  15.591  68.176  1.00  0.00    -0.110 N  
HETATM   28  O   UNL     1      -6.523  15.253  70.275  1.00  0.00    -0.127 OA 
HETATM   29  H   UNL     1      -7.416  16.196  67.356  1.00  0.00     0.000 HD 
HETATM   30  C   UNL     1      -6.699  15.936  69.272  1.00  0.00    -0.176 C  
BRANCH  30  31
HETATM   31  C   UNL     1      -6.004  17.237  69.086  1.00  0.00    -0.205 C  
HETATM   32  C   UNL     1      -6.618  18.378  69.420  1.00  0.00    -0.223 C  
ENDBRANCH  30  31
ENDBRANCH   7  27
BRANCH   5  33
HETATM   33  N   UNL     1     -10.345  15.767  68.489  1.00  0.00    -0.224 NA 
HETATM   34  C   UNL     1     -10.702  16.317  69.792  1.00  0.00    -0.345 C  
BRANCH  33  35
HETATM   35  C   UNL     1     -10.592  16.642  67.329  1.00  0.00    -0.281 C  
BRANCH  35  36
HETATM   36  C   UNL     1     -10.632  18.129  67.753  1.00  0.00    -0.389 C  
BRANCH  36  37
HETATM   37  N   UNL     1      -9.456  18.934  67.359  1.00  0.00    -0.295 NA 
HETATM   38  C   UNL     1      -9.915  20.265  66.944  1.00  0.00    -0.452 C  
HETATM   39  C   UNL     1      -8.719  18.308  66.257  1.00  0.00    -0.178 C  
ENDBRANCH  36  37
ENDBRANCH  35  36
ENDBRANCH  33  35
ENDBRANCH   5  33
ENDBRANCH   2   3
TORSDOF 10
ENDMDL
MODEL      258
REMARK 921   NORMALIZED FREE ENERGY PREDICTED BY IDOCK:   -3.79 KCAL/MOL
REMARK 922        TOTAL FREE ENERGY PREDICTED BY IDOCK:   -7.72 KCAL/MOL
REMARK 923 INTER-LIGAND FREE ENERGY PREDICTED BY IDOCK:   -6.99 KCAL/MOL
REMARK 924 INTRA-LIGAND FREE ENERGY PREDICTED BY IDOCK:   -0.74 KCAL/MOL
REMARK 927      BINDING AFFINITY PREDICTED BY RF-SCORE:    0.00 PKD
ROOT
HETATM    1  C   UNL     1     -11.149  10.302  67.342  1.00  0.00    -0.189 C  
HETATM    2  O   UNL     1     -10.203  10.626  68.355  1.00  0.00    -0.161 OA 
ENDROOT
BRANCH   2   3
HETATM    3  C   UNL     1      -9.428  11.743  68.155  1.00  0.00    -0.193 A  
HETATM    4  C   UNL     1      -8.089  11.777  67.761  1.00  0.00    -0.143 A  
HETATM    5  C   UNL     1      -9.499  14.229  68.286  1.00  0.00    -0.209 A  
HETATM    6  C   UNL     1      -7.534  13.030  67.474  1.00  0.00    -0.158 A  
HETATM    7  C   UNL     1      -8.183  14.230  67.786  1.00  0.00    -0.174 A  
HETATM    8  C   UNL     1     -10.112  12.957  68.382  1.00  0.00    -0.227 A  
BRANCH   4   9
HETATM    9  N   UNL     1      -7.288  10.626  67.656  1.00  0.00    -0.089 NA 
HETATM   10  H   UNL     1      -6.310  10.718  67.929  1.00  0.00     0.000 HD 
BRANCH   9  11
HETATM   11  C   UNL     1      -7.705   9.367  67.212  1.00  0.00    -0.091 A  
HETATM   12  N   UNL     1      -7.494   9.093  65.920  1.00  0.00    -0.093 NA 
HETATM   13  N   UNL     1      -8.245   8.492  68.080  1.00  0.00    -0.119 NA 
HETATM   14  C   UNL     1      -8.478   7.236  67.669  1.00  0.00    -0.116 A  
HETATM   15  C   UNL     1      -8.246   6.857  66.364  1.00  0.00    -0.117 A  
HETATM   16  C   UNL     1      -7.772   7.841  65.525  1.00  0.00    -0.100 A  
BRANCH  14  17
HETATM   17  C   UNL     1      -8.968   6.301  68.690  1.00  0.00    -0.127 A  
HETATM   18  C   UNL     1      -9.475   3.132  70.424  1.00  0.00    -0.227 A  
HETATM   19  C   UNL     1      -9.717   6.699  69.788  1.00  0.00    -0.159 A  
HETATM   20  C   UNL     1      -8.867   2.164  69.621  1.00  0.00    -0.133 A  
HETATM   21  C   UNL     1      -8.269   2.517  68.418  1.00  0.00    -0.073 A  
HETATM   22  N   UNL     1     -10.009   5.597  70.546  1.00  0.00    -0.193 NA 
HETATM   23  C   UNL     1      -9.464   4.468  69.987  1.00  0.00    -0.177 A  
HETATM   24  C   UNL     1     -10.797   5.616  71.759  1.00  0.00    -0.239 C  
HETATM   25  C   UNL     1      -8.838   4.863  68.794  1.00  0.00    -0.114 A  
HETATM   26  C   UNL     1      -8.239   3.856  68.003  1.00  0.00    -0.095 A  
ENDBRANCH  14  17
ENDBRANCH   9  11
ENDBRANCH   4   9
BRANCH   7  27
HETATM   27  N   UNL     1      -7.406  15.407  67.780  1.00  0.00    -0.145 N  
HETATM   28  O   UNL     1      -6.507  15.264  69.916  1.00  0.00    -0.157 OA 
HETATM   29  H   UNL     1      -7.372  15.952  66.919  1.00  0.00     0.000 HD 
HETATM   30  C   UNL     1      -6.690  15.864  68.863  1.00  0.00    -0.134 C  
BRANCH  30  31
HETATM   31  C   UNL     1      -6.050  17.179  68.597  1.00  0.00    -0.153 C  
HETATM   32  C   UNL     1      -6.556  18.293  69.141  1.00  0.00    -0.265 C  
ENDBRANCH  30  31
ENDBRANCH   7  27
BRANCH   5  33
HETATM   33  N   UNL     1     -10.175  15.387  68.672  1.00  0.00    -0.212 NA 
HETATM   34  C   UNL     1     -10.425  15.727  70.069  1.00  0.00    -0.306 C  
BRANCH  33  35
HETATM   35  C   UNL     1     -10.539  16.416  67.682  1.00  0.00    -0.313 C  
BRANCH  35  36
HETATM   36  C   UNL     1     -10.475  17.832  68.301  1.00  0.00    -0.364 C  
BRANCH  36  37
HETATM   37  N   UNL     1     -10.657  18.949  67.350  1.00  0.00    -0.445 NA 
HETATM   38  C   UNL     1     -10.453  18.444  65.987  1.00  0.00    -0.374 C  
HETATM   39  C   UNL     1      -9.713  20.039  67.610  1.00  0.00    -0.403 C  
ENDBRANCH  36  37
ENDBRANCH  35  36
ENDBRANCH  33  35
ENDBRANCH   5  33
ENDBRANCH   2   3
TORSDOF 10
ENDMDL
MODEL      259
REMARK 921   NORMALIZED FREE ENERGY PREDICTED BY IDOCK:   -3.73 KCAL/MOL
REMARK 922        TOTAL FREE ENERGY PREDICTED BY IDOCK:   -7.63 KCAL/MOL
REMARK 923 INTER-LIGAND FREE ENERGY PREDICTED BY IDOCK:   -7.45 KCAL/MOL
REMARK 924 INTRA-LIGAND FREE ENERGY PREDICTED BY IDOCK:   -0.18 KCAL/MOL
REMARK 927      BINDING AFFINITY PREDICTED BY RF-SCORE:    0.00 PKD
ROOT
HETATM    1  C   UNL     1      -6.298  18.749  65.064  1.00  0.00    -0.194 C  
HETATM    2  O   UNL     1      -7.022  17.528  64.955  1.00  0.00     0.574 OA 
ENDROOT
BRANCH   2   3
HETATM    3  C   UNL     1      -7.570  17.019  66.108  1.00  0.00    -0.245 A  
HETATM    4  C   UNL     1      -8.673  16.169  66.209  1.00  0.00    -0.337 A  
HETATM    5  C   UNL     1      -7.322  17.066  68.585  1.00  0.00    -0.229 A  
HETATM    6  C   UNL     1      -8.973  15.651  67.476  1.00  0.00    -0.199 A  
HETATM    7  C   UNL     1      -8.368  16.128  68.645  1.00  0.00    -0.211 A  
HETATM    8  C   UNL     1      -6.902  17.427  67.282  1.00  0.00    -0.194 A  
BRANCH   4   9
HETATM    9  N   UNL     1      -9.487  15.830  65.114  1.00  0.00    -0.140 NA 
HETATM   10  H   UNL     1      -9.333  16.346  64.248  1.00  0.00     0.000 HD 
BRANCH   9  11
HETATM   11  C   UNL     1     -10.487  14.852  65.099  1.00  0.00    -0.417 A  
HETATM   12  N   UNL     1     -11.425  14.978  64.154  1.00  0.00    -0.092 NA 
HETATM   13  N   UNL     1     -10.447  13.833  65.976  1.00  0.00    -0.291 NA 
HETATM   14  C   UNL     1     -11.316  12.822  65.831  1.00  0.00    -0.324 A  
HETATM   15  C   UNL     1     -12.289  12.851  64.855  1.00  0.00    -0.532 A  
HETATM   16  C   UNL     1     -12.308  13.973  64.055  1.00  0.00    -0.298 A  
BRANCH  14  17
HETATM   17  C   UNL     1     -11.153  11.691  66.753  1.00  0.00    -0.366 A  
HETATM   18  C   UNL     1     -11.311   9.811  69.876  1.00  0.00    -0.238 A  
HETATM   19  C   UNL     1     -10.662  10.454  66.361  1.00  0.00    -0.064 A  
HETATM   20  C   UNL     1     -11.779  10.714  70.833  1.00  0.00    -0.387 A  
HETATM   21  C   UNL     1     -12.045  12.034  70.492  1.00  0.00    -0.402 A  
HETATM   22  N   UNL     1     -10.641   9.623  67.448  1.00  0.00    -0.272 NA 
HETATM   23  C   UNL     1     -11.119  10.270  68.561  1.00  0.00    -0.242 A  
HETATM   24  C   UNL     1     -10.167   8.256  67.432  1.00  0.00    -0.258 C  
HETATM   25  C   UNL     1     -11.410  11.587  68.175  1.00  0.00    -0.367 A  
HETATM   26  C   UNL     1     -11.875  12.476  69.171  1.00  0.00    -0.348 A  
ENDBRANCH  14  17
ENDBRANCH   9  11
ENDBRANCH   4   9
BRANCH   7  27
HETATM   27  N   UNL     1      -8.982  15.795  69.871  1.00  0.00     0.038 N  
HETATM   28  O   UNL     1     -11.203  15.840  69.194  1.00  0.00    -0.276 OA 
HETATM   29  H   UNL     1      -8.378  15.576  70.664  1.00  0.00     0.000 HD 
HETATM   30  C   UNL     1     -10.344  15.747  70.064  1.00  0.00    -0.278 C  
BRANCH  30  31
HETATM   31  C   UNL     1     -10.700  15.469  71.480  1.00  0.00     0.247 C  
HETATM   32  C   UNL     1     -11.876  15.881  71.969  1.00  0.00    -0.609 C  
ENDBRANCH  30  31
ENDBRANCH   7  27
BRANCH   5  33
HETATM   33  N   UNL     1      -6.723  17.622  69.716  1.00  0.00    -0.016 NA 
HETATM   34  C   UNL     1      -5.587  17.006  70.394  1.00  0.00    -0.180 C  
BRANCH  33  35
HETATM   35  C   UNL     1      -7.116  18.958  70.200  1.00  0.00     0.648 C  
BRANCH  35  36
HETATM   36  C   UNL     1      -7.451  19.901  69.020  1.00  0.00    -0.170 C  
BRANCH  36  37
HETATM   37  N   UNL     1      -8.757  19.663  68.369  1.00  0.00    -0.335 NA 
HETATM   38  C   UNL     1      -8.881  20.570  67.221  1.00  0.00    -0.291 C  
HETATM   39  C   UNL     1      -9.871  19.894  69.293  1.00  0.00    -0.157 C  
ENDBRANCH  36  37
ENDBRANCH  35  36
ENDBRANCH  33  35
ENDBRANCH   5  33
ENDBRANCH   2   3
TORSDOF 10
ENDMDL
MODEL      260
REMARK 921   NORMALIZED FREE ENERGY PREDICTED BY IDOCK:   -3.73 KCAL/MOL
REMARK 922        TOTAL FREE ENERGY PREDICTED BY IDOCK:   -7.62 KCAL/MOL
REMARK 923 INTER-LIGAND FREE ENERGY PREDICTED BY IDOCK:   -6.48 KCAL/MOL
REMARK 924 INTRA-LIGAND FREE ENERGY PREDICTED BY IDOCK:   -1.14 KCAL/MOL
REMARK 927      BINDING AFFINITY PREDICTED BY RF-SCORE:    0.00 PKD
ROOT
HETATM    1  C   UNL     1      -6.629  12.206  68.931  1.00  0.00    -0.090 C  
HETATM    2  O   UNL     1      -7.988  11.888  68.647  1.00  0.00    -0.145 OA 
ENDROOT
BRANCH   2   3
HETATM    3  C   UNL     1      -8.290  10.566  68.426  1.00  0.00    -0.126 A  
HETATM    4  C   UNL     1      -9.260   9.805  69.082  1.00  0.00    -0.176 A  
HETATM    5  C   UNL     1      -7.612   8.602  67.054  1.00  0.00    -0.084 A  
HETATM    6  C   UNL     1      -9.502   8.514  68.596  1.00  0.00    -0.144 A  
HETATM    7  C   UNL     1      -8.668   7.895  67.659  1.00  0.00    -0.126 A  
HETATM    8  C   UNL     1      -7.509   9.967  67.415  1.00  0.00    -0.091 A  
BRANCH   4   9
HETATM    9  N   UNL     1      -9.980  10.271  70.196  1.00  0.00    -0.423 NA 
HETATM   10  H   UNL     1      -9.928  11.269  70.395  1.00  0.00     0.000 HD 
BRANCH   9  11
HETATM   11  C   UNL     1     -10.761   9.495  71.058  1.00  0.00    -0.340 A  
HETATM   12  N   UNL     1     -11.985   9.960  71.331  1.00  0.00    -0.389 NA 
HETATM   13  N   UNL     1     -10.286   8.329  71.532  1.00  0.00    -0.202 NA 
HETATM   14  C   UNL     1     -11.114   7.524  72.215  1.00  0.00    -0.273 A  
HETATM   15  C   UNL     1     -12.406   7.908  72.502  1.00  0.00    -0.188 A  
HETATM   16  C   UNL     1     -12.780   9.154  72.051  1.00  0.00    -0.398 A  
BRANCH  14  17
HETATM   17  C   UNL     1     -10.568   6.220  72.613  1.00  0.00    -0.243 A  
HETATM   18  C   UNL     1      -8.075   3.744  73.596  1.00  0.00    -0.087 A  
HETATM   19  C   UNL     1     -11.355   5.097  72.821  1.00  0.00    -0.239 A  
HETATM   20  C   UNL     1      -6.845   4.401  73.519  1.00  0.00    -0.060 A  
HETATM   21  C   UNL     1      -6.772   5.722  73.097  1.00  0.00    -0.074 A  
HETATM   22  N   UNL     1     -10.548   4.054  73.187  1.00  0.00    -0.174 NA 
HETATM   23  C   UNL     1      -9.236   4.454  73.241  1.00  0.00    -0.113 A  
HETATM   24  C   UNL     1     -11.010   2.711  73.463  1.00  0.00    -0.212 C  
HETATM   25  C   UNL     1      -9.201   5.800  72.844  1.00  0.00    -0.134 A  
HETATM   26  C   UNL     1      -7.938   6.430  72.769  1.00  0.00    -0.104 A  
ENDBRANCH  14  17
ENDBRANCH   9  11
ENDBRANCH   4   9
BRANCH   7  27
HETATM   27  N   UNL     1      -8.794   6.498  67.504  1.00  0.00    -0.113 N  
HETATM   28  O   UNL     1     -11.040   6.394  66.927  1.00  0.00    -0.384 OA 
HETATM   29  H   UNL     1      -7.954   5.928  67.608  1.00  0.00     0.000 HD 
HETATM   30  C   UNL     1      -9.979   5.857  67.222  1.00  0.00    -0.153 C  
BRANCH  30  31
HETATM   31  C   UNL     1      -9.829   4.378  67.218  1.00  0.00    -0.207 C  
HETATM   32  C   UNL     1      -9.129   3.773  68.185  1.00  0.00    -0.190 C  
ENDBRANCH  30  31
ENDBRANCH   7  27
BRANCH   5  33
HETATM   33  N   UNL     1      -6.711   8.022  66.161  1.00  0.00    -0.053 NA 
HETATM   34  C   UNL     1      -5.502   7.329  66.595  1.00  0.00    -0.023 C  
BRANCH  33  35
HETATM   35  C   UNL     1      -7.017   7.944  64.721  1.00  0.00    -0.062 C  
BRANCH  35  36
HETATM   36  C   UNL     1      -8.518   8.209  64.456  1.00  0.00     0.005 C  
BRANCH  36  37
HETATM   37  N   UNL     1      -8.815   9.384  63.608  1.00  0.00    -0.206 NA 
HETATM   38  C   UNL     1      -7.547  10.002  63.202  1.00  0.00    -0.142 C  
HETATM   39  C   UNL     1      -9.631  10.371  64.320  1.00  0.00    -0.318 C  
ENDBRANCH  36  37
ENDBRANCH  35  36
ENDBRANCH  33  35
ENDBRANCH   5  33
ENDBRANCH   2   3
TORSDOF 10
ENDMDL
MODEL      261
REMARK 921   NORMALIZED FREE ENERGY PREDICTED BY IDOCK:   -3.71 KCAL/MOL
REMARK 922        TOTAL FREE ENERGY PREDICTED BY IDOCK:   -7.59 KCAL/MOL
REMARK 923 INTER-LIGAND FREE ENERGY PREDICTED BY IDOCK:   -6.79 KCAL/MOL
REMARK 924 INTRA-LIGAND FREE ENERGY PREDICTED BY IDOCK:   -0.80 KCAL/MOL
REMARK 927      BINDING AFFINITY PREDICTED BY RF-SCORE:    0.00 PKD
ROOT
HETATM    1  C   UNL     1     -12.187  13.441  69.337  1.00  0.00    -0.195 C  
HETATM    2  O   UNL     1     -10.995  12.663  69.365  1.00  0.00    -0.124 OA 
ENDROOT
BRANCH   2   3
HETATM    3  C   UNL     1     -10.540  12.168  68.167  1.00  0.00    -0.216 A  
HETATM    4  C   UNL     1      -9.381  11.420  67.952  1.00  0.00    -0.164 A  
HETATM    5  C   UNL     1     -11.081  12.109  65.737  1.00  0.00    -0.319 A  
HETATM    6  C   UNL     1      -9.184  10.890  66.671  1.00  0.00    -0.184 A  
HETATM    7  C   UNL     1      -9.964  11.269  65.573  1.00  0.00    -0.247 A  
HETATM    8  C   UNL     1     -11.377  12.473  67.072  1.00  0.00    -0.386 A  
BRANCH   4   9
HETATM    9  N   UNL     1      -8.416  11.193  68.950  1.00  0.00    -0.295 NA 
HETATM   10  H   UNL     1      -8.500  10.330  69.485  1.00  0.00     0.000 HD 
BRANCH   9  11
HETATM   11  C   UNL     1      -7.352  12.040  69.278  1.00  0.00     0.127 A  
HETATM   12  N   UNL     1      -6.270  11.456  69.805  1.00  0.00    -0.120 NA 
HETATM   13  N   UNL     1      -7.436  13.357  69.021  1.00  0.00    -0.003 NA 
HETATM   14  C   UNL     1      -6.342  14.118  69.185  1.00  0.00    -0.106 A  
HETATM   15  C   UNL     1      -5.172  13.587  69.682  1.00  0.00    -0.085 A  
HETATM   16  C   UNL     1      -5.203  12.246  69.997  1.00  0.00    -0.089 A  
BRANCH  14  17
HETATM   17  C   UNL     1      -6.468  15.526  68.787  1.00  0.00    -0.107 A  
HETATM   18  C   UNL     1      -6.176  19.155  69.021  1.00  0.00    -0.287 A  
HETATM   19  C   UNL     1      -6.982  15.928  67.563  1.00  0.00    -0.180 A  
HETATM   20  C   UNL     1      -5.660  19.408  70.294  1.00  0.00    -0.260 A  
HETATM   21  C   UNL     1      -5.405  18.365  71.175  1.00  0.00    -0.224 A  
HETATM   22  N   UNL     1      -6.956  17.295  67.501  1.00  0.00    -0.154 NA 
HETATM   23  C   UNL     1      -6.426  17.821  68.653  1.00  0.00    -0.210 A  
HETATM   24  C   UNL     1      -7.437  18.079  66.384  1.00  0.00    -0.262 C  
HETATM   25  C   UNL     1      -6.146  16.742  69.506  1.00  0.00    -0.218 A  
HETATM   26  C   UNL     1      -5.633  17.035  70.789  1.00  0.00     0.019 A  
ENDBRANCH  14  17
ENDBRANCH   9  11
ENDBRANCH   4   9
BRANCH   7  27
HETATM   27  N   UNL     1      -9.470  10.953  64.290  1.00  0.00    -0.234 N  
HETATM   28  O   UNL     1      -8.898   8.732  64.653  1.00  0.00    -0.136 OA 
HETATM   29  H   UNL     1      -9.528  11.669  63.565  1.00  0.00     0.000 HD 
HETATM   30  C   UNL     1      -8.915   9.739  63.954  1.00  0.00    -0.243 C  
BRANCH  30  31
HETATM   31  C   UNL     1      -8.390   9.728  62.564  1.00  0.00    -0.156 C  
HETATM   32  C   UNL     1      -7.071   9.800  62.345  1.00  0.00    -0.117 C  
ENDBRANCH  30  31
ENDBRANCH   7  27
BRANCH   5  33
HETATM   33  N   UNL     1     -11.858  12.570  64.673  1.00  0.00    -0.359 NA 
HETATM   34  C   UNL     1     -12.822  11.726  63.975  1.00  0.00    -0.072 C  
BRANCH  33  35
HETATM   35  C   UNL     1     -11.856  13.995  64.297  1.00  0.00    -0.410 C  
BRANCH  35  36
HETATM   36  C   UNL     1     -11.794  14.901  65.549  1.00  0.00    -0.155 C  
BRANCH  36  37
HETATM   37  N   UNL     1     -10.593  15.756  65.656  1.00  0.00    -0.358 NA 
HETATM   38  C   UNL     1     -10.158  15.783  67.058  1.00  0.00    -0.261 C  
HETATM   39  C   UNL     1     -10.861  17.124  65.204  1.00  0.00     0.001 C  
ENDBRANCH  36  37
ENDBRANCH  35  36
ENDBRANCH  33  35
ENDBRANCH   5  33
ENDBRANCH   2   3
TORSDOF 10
ENDMDL
MODEL      262
REMARK 921   NORMALIZED FREE ENERGY PREDICTED BY IDOCK:   -3.64 KCAL/MOL
REMARK 922        TOTAL FREE ENERGY PREDICTED BY IDOCK:   -7.48 KCAL/MOL
REMARK 923 INTER-LIGAND FREE ENERGY PREDICTED BY IDOCK:   -6.14 KCAL/MOL
REMARK 924 INTRA-LIGAND FREE ENERGY PREDICTED BY IDOCK:   -1.35 KCAL/MOL
REMARK 927      BINDING AFFINITY PREDICTED BY RF-SCORE:    0.00 PKD
ROOT
HETATM    1  C   UNL     1      -9.251   9.681  64.310  1.00  0.00    -0.178 C  
HETATM    2  O   UNL     1      -8.523   9.740  65.533  1.00  0.00    -0.132 OA 
ENDROOT
BRANCH   2   3
HETATM    3  C   UNL     1      -9.045  10.519  66.537  1.00  0.00    -0.157 A  
HETATM    4  C   UNL     1      -9.646  10.077  67.718  1.00  0.00    -0.148 A  
HETATM    5  C   UNL     1      -9.442  12.894  67.172  1.00  0.00    -0.229 A  
HETATM    6  C   UNL     1      -9.977  11.045  68.674  1.00  0.00    -0.205 A  
HETATM    7  C   UNL     1      -9.945  12.417  68.397  1.00  0.00    -0.210 A  
HETATM    8  C   UNL     1      -8.930  11.905  66.299  1.00  0.00    -0.157 A  
BRANCH   4   9
HETATM    9  N   UNL     1      -9.937   8.725  67.973  1.00  0.00    -0.173 NA 
HETATM   10  H   UNL     1     -10.129   8.134  67.165  1.00  0.00     0.000 HD 
BRANCH   9  11
HETATM   11  C   UNL     1      -9.989   8.115  69.230  1.00  0.00    -0.188 A  
HETATM   12  N   UNL     1     -11.135   8.248  69.908  1.00  0.00    -0.163 NA 
HETATM   13  N   UNL     1      -8.938   7.405  69.679  1.00  0.00    -0.141 NA 
HETATM   14  C   UNL     1      -9.076   6.689  70.805  1.00  0.00    -0.151 A  
HETATM   15  C   UNL     1     -10.240   6.735  71.542  1.00  0.00    -0.210 A  
HETATM   16  C   UNL     1     -11.232   7.555  71.052  1.00  0.00    -0.263 A  
BRANCH  14  17
HETATM   17  C   UNL     1      -7.930   5.853  71.185  1.00  0.00    -0.113 A  
HETATM   18  C   UNL     1      -5.239   4.527  73.262  1.00  0.00    -0.008 A  
HETATM   19  C   UNL     1      -7.410   4.859  70.370  1.00  0.00    -0.054 A  
HETATM   20  C   UNL     1      -5.242   5.307  74.420  1.00  0.00    -0.022 A  
HETATM   21  C   UNL     1      -6.137   6.359  74.564  1.00  0.00    -0.065 A  
HETATM   22  N   UNL     1      -6.359   4.265  71.013  1.00  0.00    -0.021 NA 
HETATM   23  C   UNL     1      -6.167   4.830  72.249  1.00  0.00    -0.022 A  
HETATM   24  C   UNL     1      -5.550   3.199  70.462  1.00  0.00    -0.013 C  
HETATM   25  C   UNL     1      -7.107   5.864  72.378  1.00  0.00    -0.085 A  
HETATM   26  C   UNL     1      -7.075   6.638  73.560  1.00  0.00    -0.076 A  
ENDBRANCH  14  17
ENDBRANCH   9  11
ENDBRANCH   4   9
BRANCH   7  27
HETATM   27  N   UNL     1     -10.619  13.273  69.293  1.00  0.00    -0.434 N  
HETATM   28  O   UNL     1     -12.728  13.233  68.321  1.00  0.00     0.493 OA 
HETATM   29  H   UNL     1     -10.103  13.622  70.100  1.00  0.00     0.000 HD 
HETATM   30  C   UNL     1     -11.930  13.666  69.145  1.00  0.00    -0.351 C  
BRANCH  30  31
HETATM   31  C   UNL     1     -12.341  14.649  70.181  1.00  0.00    -0.390 C  
HETATM   32  C   UNL     1     -12.072  14.414  71.472  1.00  0.00    -0.373 C  
ENDBRANCH  30  31
ENDBRANCH   7  27
BRANCH   5  33
HETATM   33  N   UNL     1      -9.442  14.243  66.816  1.00  0.00    -0.264 NA 
HETATM   34  C   UNL     1     -10.473  14.838  65.971  1.00  0.00    -0.303 C  
BRANCH  33  35
HETATM   35  C   UNL     1      -8.472  15.182  67.407  1.00  0.00    -0.183 C  
BRANCH  35  36
HETATM   36  C   UNL     1      -9.181  16.225  68.302  1.00  0.00    -0.197 C  
BRANCH  36  37
HETATM   37  N   UNL     1      -9.173  17.612  67.788  1.00  0.00    -0.248 NA 
HETATM   38  C   UNL     1      -8.355  18.439  68.684  1.00  0.00    -0.296 C  
HETATM   39  C   UNL     1     -10.527  18.169  67.714  1.00  0.00    -0.404 C  
ENDBRANCH  36  37
ENDBRANCH  35  36
ENDBRANCH  33  35
ENDBRANCH   5  33
ENDBRANCH   2   3
TORSDOF 10
ENDMDL
MODEL      263
REMARK 921   NORMALIZED FREE ENERGY PREDICTED BY IDOCK:   -3.64 KCAL/MOL
REMARK 922        TOTAL FREE ENERGY PREDICTED BY IDOCK:   -7.48 KCAL/MOL
REMARK 923 INTER-LIGAND FREE ENERGY PREDICTED BY IDOCK:   -7.42 KCAL/MOL
REMARK 924 INTRA-LIGAND FREE ENERGY PREDICTED BY IDOCK:   -0.05 KCAL/MOL
REMARK 927      BINDING AFFINITY PREDICTED BY RF-SCORE:    0.00 PKD
ROOT
HETATM    1  C   UNL     1      -5.699  12.977  70.697  1.00  0.00    -0.165 C  
HETATM    2  O   UNL     1      -5.490  11.572  70.602  1.00  0.00    -0.119 OA 
ENDROOT
BRANCH   2   3
HETATM    3  C   UNL     1      -6.445  10.838  69.940  1.00  0.00    -0.135 A  
HETATM    4  C   UNL     1      -7.501  11.332  69.171  1.00  0.00    -0.084 A  
HETATM    5  C   UNL     1      -7.183   8.495  69.530  1.00  0.00    -0.060 A  
HETATM    6  C   UNL     1      -8.271  10.402  68.462  1.00  0.00    -0.119 A  
HETATM    7  C   UNL     1      -8.171   9.023  68.677  1.00  0.00    -0.118 A  
HETATM    8  C   UNL     1      -6.288   9.443  70.082  1.00  0.00    -0.058 A  
BRANCH   4   9
HETATM    9  N   UNL     1      -7.822  12.699  69.093  1.00  0.00    -0.306 NA 
HETATM   10  H   UNL     1      -7.579  13.276  69.897  1.00  0.00     0.000 HD 
BRANCH   9  11
HETATM   11  C   UNL     1      -8.446  13.341  68.019  1.00  0.00    -0.170 A  
HETATM   12  N   UNL     1      -9.199  12.572  67.224  1.00  0.00    -0.183 NA 
HETATM   13  N   UNL     1      -8.305  14.668  67.854  1.00  0.00    -0.143 NA 
HETATM   14  C   UNL     1      -9.047  15.286  66.922  1.00  0.00    -0.240 A  
HETATM   15  C   UNL     1      -9.883  14.573  66.089  1.00  0.00    -0.339 A  
HETATM   16  C   UNL     1      -9.900  13.209  66.274  1.00  0.00    -0.283 A  
BRANCH  14  17
HETATM   17  C   UNL     1      -8.927  16.748  66.862  1.00  0.00    -0.244 A  
HETATM   18  C   UNL     1      -7.430  20.003  66.171  1.00  0.00    -0.324 A  
HETATM   19  C   UNL     1      -9.939  17.611  67.256  1.00  0.00    -0.322 A  
HETATM   20  C   UNL     1      -6.143  19.731  65.704  1.00  0.00    -0.217 A  
HETATM   21  C   UNL     1      -5.681  18.423  65.621  1.00  0.00    -0.241 A  
HETATM   22  N   UNL     1      -9.517  18.900  67.071  1.00  0.00    -0.302 NA 
HETATM   23  C   UNL     1      -8.247  18.922  66.550  1.00  0.00    -0.297 A  
HETATM   24  C   UNL     1     -10.294  20.077  67.393  1.00  0.00    -0.393 C  
HETATM   25  C   UNL     1      -7.823  17.588  66.446  1.00  0.00    -0.329 A  
HETATM   26  C   UNL     1      -6.511  17.351  65.977  1.00  0.00    -0.161 A  
ENDBRANCH  14  17
ENDBRANCH   9  11
ENDBRANCH   4   9
BRANCH   7  27
HETATM   27  N   UNL     1      -9.214   8.213  68.181  1.00  0.00    -0.134 N  
HETATM   28  O   UNL     1      -8.284   7.630  66.135  1.00  0.00    -0.111 OA 
HETATM   29  H   UNL     1     -10.015   8.040  68.788  1.00  0.00     0.000 HD 
HETATM   30  C   UNL     1      -9.218   7.642  66.928  1.00  0.00    -0.145 C  
BRANCH  30  31
HETATM   31  C   UNL     1     -10.490   6.929  66.641  1.00  0.00    -0.213 C  
HETATM   32  C   UNL     1     -11.026   6.118  67.562  1.00  0.00    -0.404 C  
ENDBRANCH  30  31
ENDBRANCH   7  27
BRANCH   5  33
HETATM   33  N   UNL     1      -7.073   7.137  69.831  1.00  0.00    -0.071 NA 
HETATM   34  C   UNL     1      -6.341   6.197  68.988  1.00  0.00    -0.041 C  
BRANCH  33  35
HETATM   35  C   UNL     1      -7.568   6.604  71.113  1.00  0.00    -0.089 C  
BRANCH  35  36
HETATM   36  C   UNL     1      -9.097   6.796  71.242  1.00  0.00    -0.150 C  
BRANCH  36  37
HETATM   37  N   UNL     1      -9.536   7.661  72.358  1.00  0.00    -0.158 NA 
HETATM   38  C   UNL     1     -10.175   8.859  71.801  1.00  0.00    -0.344 C  
HETATM   39  C   UNL     1      -8.410   8.061  73.207  1.00  0.00    -0.211 C  
ENDBRANCH  36  37
ENDBRANCH  35  36
ENDBRANCH  33  35
ENDBRANCH   5  33
ENDBRANCH   2   3
TORSDOF 10
ENDMDL
MODEL      264
REMARK 921   NORMALIZED FREE ENERGY PREDICTED BY IDOCK:   -3.61 KCAL/MOL
REMARK 922        TOTAL FREE ENERGY PREDICTED BY IDOCK:   -7.43 KCAL/MOL
REMARK 923 INTER-LIGAND FREE ENERGY PREDICTED BY IDOCK:   -6.36 KCAL/MOL
REMARK 924 INTRA-LIGAND FREE ENERGY PREDICTED BY IDOCK:   -1.08 KCAL/MOL
REMARK 927      BINDING AFFINITY PREDICTED BY RF-SCORE:    0.00 PKD
ROOT
HETATM    1  C   UNL     1      -6.114  17.343  66.429  1.00  0.00    -0.221 C  
HETATM    2  O   UNL     1      -6.893  16.151  66.443  1.00  0.00    -0.107 OA 
ENDROOT
BRANCH   2   3
HETATM    3  C   UNL     1      -7.878  16.056  67.396  1.00  0.00    -0.161 A  
HETATM    4  C   UNL     1      -8.398  14.886  67.953  1.00  0.00    -0.146 A  
HETATM    5  C   UNL     1      -9.426  17.448  68.762  1.00  0.00    -0.256 A  
HETATM    6  C   UNL     1      -9.295  15.025  69.020  1.00  0.00    -0.206 A  
HETATM    7  C   UNL     1      -9.852  16.257  69.379  1.00  0.00    -0.217 A  
HETATM    8  C   UNL     1      -8.376  17.305  67.825  1.00  0.00    -0.212 A  
BRANCH   4   9
HETATM    9  N   UNL     1      -8.073  13.600  67.486  1.00  0.00    -0.172 NA 
HETATM   10  H   UNL     1      -7.104  13.301  67.597  1.00  0.00     0.000 HD 
BRANCH   9  11
HETATM   11  C   UNL     1      -8.950  12.694  66.883  1.00  0.00    -0.213 A  
HETATM   12  N   UNL     1      -9.746  13.184  65.927  1.00  0.00    -0.226 NA 
HETATM   13  N   UNL     1      -8.932  11.398  67.244  1.00  0.00    -0.156 NA 
HETATM   14  C   UNL     1      -9.658  10.520  66.534  1.00  0.00    -0.174 A  
HETATM   15  C   UNL     1     -10.473  10.936  65.503  1.00  0.00    -0.286 A  
HETATM   16  C   UNL     1     -10.492  12.292  65.259  1.00  0.00    -0.282 A  
BRANCH  14  17
HETATM   17  C   UNL     1      -9.514   9.108  66.910  1.00  0.00    -0.222 A  
HETATM   18  C   UNL     1      -7.879   5.893  67.459  1.00  0.00    -0.098 A  
HETATM   19  C   UNL     1     -10.552   8.351  67.434  1.00  0.00    -0.243 A  
HETATM   20  C   UNL     1      -6.573   6.053  66.992  1.00  0.00    -0.056 A  
HETATM   21  C   UNL     1      -6.164   7.255  66.430  1.00  0.00    -0.040 A  
HETATM   22  N   UNL     1     -10.094   7.086  67.682  1.00  0.00    -0.159 NA 
HETATM   23  C   UNL     1      -8.767   6.978  67.348  1.00  0.00    -0.120 A  
HETATM   24  C   UNL     1     -10.900   6.006  68.210  1.00  0.00    -0.284 C  
HETATM   25  C   UNL     1      -8.377   8.216  66.816  1.00  0.00    -0.115 A  
HETATM   26  C   UNL     1      -7.049   8.340  66.347  1.00  0.00    -0.071 A  
ENDBRANCH  14  17
ENDBRANCH   9  11
ENDBRANCH   4   9
BRANCH   7  27
HETATM   27  N   UNL     1     -10.987  16.234  70.217  1.00  0.00    -0.339 N  
HETATM   28  O   UNL     1     -12.010  14.318  69.397  1.00  0.00    -0.304 OA 
HETATM   29  H   UNL     1     -11.057  16.944  70.945  1.00  0.00     0.000 HD 
HETATM   30  C   UNL     1     -12.004  15.312  70.113  1.00  0.00    -0.338 C  
BRANCH  30  31
HETATM   31  C   UNL     1     -13.115  15.595  71.060  1.00  0.00    -0.487 C  
HETATM   32  C   UNL     1     -14.046  14.663  71.298  1.00  0.00    -0.378 C  
ENDBRANCH  30  31
ENDBRANCH   7  27
BRANCH   5  33
HETATM   33  N   UNL     1      -9.987  18.697  69.034  1.00  0.00    -0.359 NA 
HETATM   34  C   UNL     1      -9.714  19.435  70.263  1.00  0.00     0.993 C  
BRANCH  33  35
HETATM   35  C   UNL     1     -10.772  19.412  68.012  1.00  0.00    -0.234 C  
BRANCH  35  36
HETATM   36  C   UNL     1      -9.952  20.564  67.386  1.00  0.00    -0.385 C  
BRANCH  36  37
HETATM   37  N   UNL     1      -9.729  20.465  65.927  1.00  0.00    -0.193 NA 
HETATM   38  C   UNL     1     -10.662  19.474  65.376  1.00  0.00    -0.019 C  
HETATM   39  C   UNL     1      -8.355  20.063  65.617  1.00  0.00     0.128 C  
ENDBRANCH  36  37
ENDBRANCH  35  36
ENDBRANCH  33  35
ENDBRANCH   5  33
ENDBRANCH   2   3
TORSDOF 10
ENDMDL
MODEL      265
REMARK 921   NORMALIZED FREE ENERGY PREDICTED BY IDOCK:   -3.60 KCAL/MOL
REMARK 922        TOTAL FREE ENERGY PREDICTED BY IDOCK:   -7.42 KCAL/MOL
REMARK 923 INTER-LIGAND FREE ENERGY PREDICTED BY IDOCK:   -6.08 KCAL/MOL
REMARK 924 INTRA-LIGAND FREE ENERGY PREDICTED BY IDOCK:   -1.34 KCAL/MOL
REMARK 927      BINDING AFFINITY PREDICTED BY RF-SCORE:    0.00 PKD
ROOT
HETATM    1  C   UNL     1      -7.582   8.543  72.894  1.00  0.00     0.009 C  
HETATM    2  O   UNL     1      -7.169   9.126  71.662  1.00  0.00    -0.299 OA 
ENDROOT
BRANCH   2   3
HETATM    3  C   UNL     1      -7.545   8.484  70.507  1.00  0.00    -0.074 A  
HETATM    4  C   UNL     1      -7.054   8.713  69.220  1.00  0.00    -0.062 A  
HETATM    5  C   UNL     1      -9.106   6.743  69.650  1.00  0.00    -0.143 A  
HETATM    6  C   UNL     1      -7.472   7.841  68.207  1.00  0.00    -0.104 A  
HETATM    7  C   UNL     1      -8.514   6.925  68.386  1.00  0.00    -0.123 A  
HETATM    8  C   UNL     1      -8.533   7.495  70.703  1.00  0.00    -0.132 A  
BRANCH   4   9
HETATM    9  N   UNL     1      -6.183   9.771  68.906  1.00  0.00    -0.042 NA 
HETATM   10  H   UNL     1      -5.326   9.531  68.409  1.00  0.00     0.000 HD 
BRANCH   9  11
HETATM   11  C   UNL     1      -6.380  11.122  69.211  1.00  0.00    -0.076 A  
HETATM   12  N   UNL     1      -5.574  11.643  70.143  1.00  0.00    -0.111 NA 
HETATM   13  N   UNL     1      -7.311  11.833  68.551  1.00  0.00    -0.097 NA 
HETATM   14  C   UNL     1      -7.363  13.161  68.739  1.00  0.00    -0.068 A  
HETATM   15  C   UNL     1      -6.538  13.785  69.649  1.00  0.00    -0.061 A  
HETATM   16  C   UNL     1      -5.674  12.966  70.342  1.00  0.00    -0.171 A  
BRANCH  14  17
HETATM   17  C   UNL     1      -8.329  13.895  67.911  1.00  0.00    -0.167 A  
HETATM   18  C   UNL     1     -11.376  14.524  66.005  1.00  0.00    -0.341 A  
HETATM   19  C   UNL     1      -8.150  15.215  67.524  1.00  0.00    -0.177 A  
HETATM   20  C   UNL     1     -12.074  13.314  66.006  1.00  0.00    -0.491 A  
HETATM   21  C   UNL     1     -11.544  12.191  66.628  1.00  0.00    -0.416 A  
HETATM   22  N   UNL     1      -9.224  15.603  66.770  1.00  0.00    -0.233 NA 
HETATM   23  C   UNL     1     -10.127  14.576  66.651  1.00  0.00    -0.272 A  
HETATM   24  C   UNL     1      -9.380  16.909  66.168  1.00  0.00    -0.236 C  
HETATM   25  C   UNL     1      -9.580  13.469  67.318  1.00  0.00    -0.235 A  
HETATM   26  C   UNL     1     -10.310  12.260  67.292  1.00  0.00    -0.228 A  
ENDBRANCH  14  17
ENDBRANCH   9  11
ENDBRANCH   4   9
BRANCH   7  27
HETATM   27  N   UNL     1      -9.080   6.355  67.226  1.00  0.00    -0.116 N  
HETATM   28  O   UNL     1      -7.878   4.369  67.170  1.00  0.00    -0.095 OA 
HETATM   29  H   UNL     1      -9.840   6.858  66.769  1.00  0.00     0.000 HD 
HETATM   30  C   UNL     1      -8.670   5.162  66.674  1.00  0.00    -0.109 C  
BRANCH  30  31
HETATM   31  C   UNL     1      -9.376   4.862  65.401  1.00  0.00    -0.147 C  
HETATM   32  C   UNL     1      -9.485   3.597  64.976  1.00  0.00    -0.161 C  
ENDBRANCH  30  31
ENDBRANCH   7  27
BRANCH   5  33
HETATM   33  N   UNL     1     -10.188   5.891  69.876  1.00  0.00    -0.199 NA 
HETATM   34  C   UNL     1     -11.574   6.346  69.837  1.00  0.00    -0.353 C  
BRANCH  33  35
HETATM   35  C   UNL     1      -9.989   4.438  70.017  1.00  0.00    -0.175 C  
BRANCH  35  36
HETATM   36  C   UNL     1      -8.645   4.124  70.715  1.00  0.00    -0.075 C  
BRANCH  36  37
HETATM   37  N   UNL     1      -8.753   3.443  72.023  1.00  0.00    -0.088 NA 
HETATM   38  C   UNL     1      -9.027   2.020  71.790  1.00  0.00    -0.075 C  
HETATM   39  C   UNL     1      -9.823   4.016  72.844  1.00  0.00    -0.138 C  
ENDBRANCH  36  37
ENDBRANCH  35  36
ENDBRANCH  33  35
ENDBRANCH   5  33
ENDBRANCH   2   3
TORSDOF 10
ENDMDL
MODEL      266
REMARK 921   NORMALIZED FREE ENERGY PREDICTED BY IDOCK:   -3.58 KCAL/MOL
REMARK 922        TOTAL FREE ENERGY PREDICTED BY IDOCK:   -7.39 KCAL/MOL
REMARK 923 INTER-LIGAND FREE ENERGY PREDICTED BY IDOCK:   -6.11 KCAL/MOL
REMARK 924 INTRA-LIGAND FREE ENERGY PREDICTED BY IDOCK:   -1.29 KCAL/MOL
REMARK 927      BINDING AFFINITY PREDICTED BY RF-SCORE:    0.00 PKD
ROOT
HETATM    1  C   UNL     1      -8.388   9.220  66.015  1.00  0.00    -0.113 C  
HETATM    2  O   UNL     1      -7.961   9.736  67.272  1.00  0.00    -0.105 OA 
ENDROOT
BRANCH   2   3
HETATM    3  C   UNL     1      -8.765  10.675  67.870  1.00  0.00    -0.127 A  
HETATM    4  C   UNL     1      -9.987  10.452  68.508  1.00  0.00    -0.167 A  
HETATM    5  C   UNL     1      -8.929  13.121  68.314  1.00  0.00    -0.175 A  
HETATM    6  C   UNL     1     -10.569  11.534  69.181  1.00  0.00    -0.174 A  
HETATM    7  C   UNL     1     -10.102  12.846  69.040  1.00  0.00     0.190 A  
HETATM    8  C   UNL     1      -8.248  11.987  67.808  1.00  0.00    -0.151 A  
BRANCH   4   9
HETATM    9  N   UNL     1     -10.649   9.212  68.492  1.00  0.00    -0.324 NA 
HETATM   10  H   UNL     1     -11.130   8.958  67.630  1.00  0.00     0.000 HD 
BRANCH   9  11
HETATM   11  C   UNL     1     -10.710   8.294  69.545  1.00  0.00    -0.174 A  
HETATM   12  N   UNL     1     -11.617   8.543  70.496  1.00  0.00    -0.194 NA 
HETATM   13  N   UNL     1      -9.914   7.210  69.541  1.00  0.00    -0.162 NA 
HETATM   14  C   UNL     1     -10.111   6.260  70.468  1.00  0.00    -0.189 A  
HETATM   15  C   UNL     1     -11.056   6.417  71.460  1.00  0.00    -0.322 A  
HETATM   16  C   UNL     1     -11.767   7.596  71.435  1.00  0.00    -0.283 A  
BRANCH  14  17
HETATM   17  C   UNL     1      -9.282   5.055  70.347  1.00  0.00    -0.198 A  
HETATM   18  C   UNL     1      -6.554   2.731  71.034  1.00  0.00    -0.031 A  
HETATM   19  C   UNL     1      -9.585   4.006  69.492  1.00  0.00    -0.195 A  
HETATM   20  C   UNL     1      -5.740   3.376  71.968  1.00  0.00    -0.008 A  
HETATM   21  C   UNL     1      -6.043   4.659  72.407  1.00  0.00    -0.017 A  
HETATM   22  N   UNL     1      -8.624   3.039  69.621  1.00  0.00    -0.061 NA 
HETATM   23  C   UNL     1      -7.688   3.410  70.553  1.00  0.00    -0.043 A  
HETATM   24  C   UNL     1      -8.591   1.805  68.868  1.00  0.00    -0.062 C  
HETATM   25  C   UNL     1      -8.041   4.693  71.002  1.00  0.00    -0.086 A  
HETATM   26  C   UNL     1      -7.190   5.318  71.941  1.00  0.00    -0.085 A  
ENDBRANCH  14  17
ENDBRANCH   9  11
ENDBRANCH   4   9
BRANCH   7  27
HETATM   27  N   UNL     1     -10.955  13.885  69.469  1.00  0.00    -0.432 N  
HETATM   28  O   UNL     1     -12.010  14.349  67.453  1.00  0.00    -0.398 OA 
HETATM   29  H   UNL     1     -10.957  14.123  70.461  1.00  0.00     0.000 HD 
HETATM   30  C   UNL     1     -11.785  14.597  68.632  1.00  0.00    -0.329 C  
BRANCH  30  31
HETATM   31  C   UNL     1     -12.489  15.696  69.344  1.00  0.00     0.028 C  
HETATM   32  C   UNL     1     -13.148  15.444  70.481  1.00  0.00    -0.318 C  
ENDBRANCH  30  31
ENDBRANCH   7  27
BRANCH   5  33
HETATM   33  N   UNL     1      -8.449  14.411  68.088  1.00  0.00    -0.152 NA 
HETATM   34  C   UNL     1      -8.667  15.127  66.835  1.00  0.00    -0.259 C  
BRANCH  33  35
HETATM   35  C   UNL     1      -7.822  15.186  69.173  1.00  0.00    -0.199 C  
BRANCH  35  36
HETATM   36  C   UNL     1      -7.645  16.668  68.769  1.00  0.00    -0.227 C  
BRANCH  36  37
HETATM   37  N   UNL     1      -6.281  17.214  68.935  1.00  0.00    -0.170 NA 
HETATM   38  C   UNL     1      -5.520  16.316  69.813  1.00  0.00    -0.148 C  
HETATM   39  C   UNL     1      -6.304  18.558  69.518  1.00  0.00    -0.243 C  
ENDBRANCH  36  37
ENDBRANCH  35  36
ENDBRANCH  33  35
ENDBRANCH   5  33
ENDBRANCH   2   3
TORSDOF 10
ENDMDL
MODEL      267
REMARK 921   NORMALIZED FREE ENERGY PREDICTED BY IDOCK:   -3.57 KCAL/MOL
REMARK 922        TOTAL FREE ENERGY PREDICTED BY IDOCK:   -7.37 KCAL/MOL
REMARK 923 INTER-LIGAND FREE ENERGY PREDICTED BY IDOCK:   -6.39 KCAL/MOL
REMARK 924 INTRA-LIGAND FREE ENERGY PREDICTED BY IDOCK:   -0.98 KCAL/MOL
REMARK 927      BINDING AFFINITY PREDICTED BY RF-SCORE:    0.00 PKD
ROOT
HETATM    1  C   UNL     1     -10.353   7.909  66.722  1.00  0.00    -0.287 C  
HETATM    2  O   UNL     1     -10.767   8.727  67.811  1.00  0.00    -0.218 OA 
ENDROOT
BRANCH   2   3
HETATM    3  C   UNL     1     -10.175   9.961  67.929  1.00  0.00    -0.193 A  
HETATM    4  C   UNL     1      -9.073  10.293  68.720  1.00  0.00    -0.159 A  
HETATM    5  C   UNL     1     -10.375  12.315  67.141  1.00  0.00    -0.218 A  
HETATM    6  C   UNL     1      -8.542  11.581  68.576  1.00  0.00    -0.140 A  
HETATM    7  C   UNL     1      -9.200  12.591  67.866  1.00  0.00    -0.200 A  
HETATM    8  C   UNL     1     -10.784  10.960  67.140  1.00  0.00    -0.320 A  
BRANCH   4   9
HETATM    9  N   UNL     1      -8.495   9.406  69.646  1.00  0.00    -0.149 NA 
HETATM   10  H   UNL     1      -7.515   9.164  69.503  1.00  0.00     0.000 HD 
BRANCH   9  11
HETATM   11  C   UNL     1      -9.137   8.824  70.743  1.00  0.00    -0.192 A  
HETATM   12  N   UNL     1     -10.247   9.433  71.174  1.00  0.00    -0.309 NA 
HETATM   13  N   UNL     1      -8.655   7.688  71.281  1.00  0.00    -0.119 NA 
HETATM   14  C   UNL     1      -9.381   7.059  72.217  1.00  0.00    -0.136 A  
HETATM   15  C   UNL     1     -10.561   7.596  72.686  1.00  0.00    -0.354 A  
HETATM   16  C   UNL     1     -10.934   8.804  72.140  1.00  0.00    -0.334 A  
BRANCH  14  17
HETATM   17  C   UNL     1      -8.854   5.772  72.688  1.00  0.00    -0.125 A  
HETATM   18  C   UNL     1      -8.736   2.179  73.313  1.00  0.00    -0.066 A  
HETATM   19  C   UNL     1      -7.608   5.631  73.280  1.00  0.00    -0.096 A  
HETATM   20  C   UNL     1      -9.969   1.684  72.883  1.00  0.00    -0.163 A  
HETATM   21  C   UNL     1     -10.940   2.540  72.379  1.00  0.00     0.352 A  
HETATM   22  N   UNL     1      -7.415   4.313  73.597  1.00  0.00    -0.075 NA 
HETATM   23  C   UNL     1      -8.501   3.563  73.220  1.00  0.00    -0.082 A  
HETATM   24  C   UNL     1      -6.239   3.786  74.252  1.00  0.00    -0.021 C  
HETATM   25  C   UNL     1      -9.447   4.450  72.684  1.00  0.00    -0.169 A  
HETATM   26  C   UNL     1     -10.687   3.915  72.266  1.00  0.00     0.078 A  
ENDBRANCH  14  17
ENDBRANCH   9  11
ENDBRANCH   4   9
BRANCH   7  27
HETATM   27  N   UNL     1      -8.765  13.917  68.074  1.00  0.00    -0.173 N  
HETATM   28  O   UNL     1     -10.333  14.573  69.656  1.00  0.00    -0.090 OA 
HETATM   29  H   UNL     1      -7.925  14.226  67.586  1.00  0.00     0.000 HD 
HETATM   30  C   UNL     1      -9.405  14.818  68.895  1.00  0.00    -0.184 C  
BRANCH  30  31
HETATM   31  C   UNL     1      -8.780  16.166  68.840  1.00  0.00    -0.248 C  
HETATM   32  C   UNL     1      -7.459  16.301  69.009  1.00  0.00    -0.220 C  
ENDBRANCH  30  31
ENDBRANCH   7  27
BRANCH   5  33
HETATM   33  N   UNL     1     -11.108  13.292  66.466  1.00  0.00    -0.290 NA 
HETATM   34  C   UNL     1     -12.185  14.048  67.096  1.00  0.00    -0.321 C  
BRANCH  33  35
HETATM   35  C   UNL     1     -10.724  13.722  65.110  1.00  0.00    -0.358 C  
BRANCH  35  36
HETATM   36  C   UNL     1      -9.987  15.082  65.145  1.00  0.00    -0.234 C  
BRANCH  36  37
HETATM   37  N   UNL     1     -10.755  16.234  64.626  1.00  0.00    -0.625 NA 
HETATM   38  C   UNL     1     -10.909  17.219  65.703  1.00  0.00    -0.029 C  
HETATM   39  C   UNL     1     -12.079  15.828  64.146  1.00  0.00     0.080 C  
ENDBRANCH  36  37
ENDBRANCH  35  36
ENDBRANCH  33  35
ENDBRANCH   5  33
ENDBRANCH   2   3
TORSDOF 10
ENDMDL
MODEL      268
REMARK 921   NORMALIZED FREE ENERGY PREDICTED BY IDOCK:   -3.53 KCAL/MOL
REMARK 922        TOTAL FREE ENERGY PREDICTED BY IDOCK:   -7.31 KCAL/MOL
REMARK 923 INTER-LIGAND FREE ENERGY PREDICTED BY IDOCK:   -6.84 KCAL/MOL
REMARK 924 INTRA-LIGAND FREE ENERGY PREDICTED BY IDOCK:   -0.47 KCAL/MOL
REMARK 927      BINDING AFFINITY PREDICTED BY RF-SCORE:    0.00 PKD
ROOT
HETATM    1  C   UNL     1     -12.412  13.166  69.891  1.00  0.00    -0.027 C  
HETATM    2  O   UNL     1     -12.200  11.841  70.366  1.00  0.00    -0.346 OA 
ENDROOT
BRANCH   2   3
HETATM    3  C   UNL     1     -11.485  10.991  69.558  1.00  0.00    -0.299 A  
HETATM    4  C   UNL     1     -10.756   9.868  69.955  1.00  0.00    -0.280 A  
HETATM    5  C   UNL     1     -10.830  10.631  67.182  1.00  0.00    -0.270 A  
HETATM    6  C   UNL     1     -10.223   9.057  68.945  1.00  0.00    -0.223 A  
HETATM    7  C   UNL     1     -10.194   9.448  67.602  1.00  0.00    -0.227 A  
HETATM    8  C   UNL     1     -11.532  11.335  68.190  1.00  0.00    -0.376 A  
BRANCH   4   9
HETATM    9  N   UNL     1     -10.531   9.534  71.302  1.00  0.00    -0.305 NA 
HETATM   10  H   UNL     1     -10.423  10.307  71.957  1.00  0.00     0.000 HD 
BRANCH   9  11
HETATM   11  C   UNL     1     -10.439   8.242  71.828  1.00  0.00    -0.259 A  
HETATM   12  N   UNL     1     -10.968   8.057  73.043  1.00  0.00    -0.335 NA 
HETATM   13  N   UNL     1      -9.880   7.256  71.103  1.00  0.00    -0.182 NA 
HETATM   14  C   UNL     1      -9.959   5.996  71.557  1.00  0.00    -0.177 A  
HETATM   15  C   UNL     1     -10.528   5.712  72.780  1.00  0.00    -0.247 A  
HETATM   16  C   UNL     1     -10.998   6.793  73.492  1.00  0.00    -0.102 A  
BRANCH  14  17
HETATM   17  C   UNL     1      -9.424   4.954  70.671  1.00  0.00    -0.237 A  
HETATM   18  C   UNL     1      -8.779   3.139  67.572  1.00  0.00    -0.140 A  
HETATM   19  C   UNL     1      -8.591   3.936  71.111  1.00  0.00    -0.076 A  
HETATM   20  C   UNL     1      -9.528   3.794  66.592  1.00  0.00    -0.212 A  
HETATM   21  C   UNL     1     -10.329   4.880  66.921  1.00  0.00    -0.237 A  
HETATM   22  N   UNL     1      -8.267   3.140  70.046  1.00  0.00    -0.044 NA 
HETATM   23  C   UNL     1      -8.854   3.608  68.896  1.00  0.00    -0.108 A  
HETATM   24  C   UNL     1      -7.433   1.960  70.122  1.00  0.00    -0.036 C  
HETATM   25  C   UNL     1      -9.627   4.723  69.256  1.00  0.00    -0.243 A  
HETATM   26  C   UNL     1     -10.378   5.356  68.239  1.00  0.00    -0.213 A  
ENDBRANCH  14  17
ENDBRANCH   9  11
ENDBRANCH   4   9
BRANCH   7  27
HETATM   27  N   UNL     1      -9.339   8.733  66.738  1.00  0.00    -0.166 N  
HETATM   28  O   UNL     1      -7.296   9.524  67.508  1.00  0.00    -0.089 OA 
HETATM   29  H   UNL     1      -9.760   8.065  66.093  1.00  0.00     0.000 HD 
HETATM   30  C   UNL     1      -7.970   8.880  66.713  1.00  0.00    -0.107 C  
BRANCH  30  31
HETATM   31  C   UNL     1      -7.340   8.075  65.633  1.00  0.00    -0.079 C  
HETATM   32  C   UNL     1      -6.771   6.898  65.920  1.00  0.00    -0.052 C  
ENDBRANCH  30  31
ENDBRANCH   7  27
BRANCH   5  33
HETATM   33  N   UNL     1     -10.783  11.104  65.870  1.00  0.00    -0.233 NA 
HETATM   34  C   UNL     1     -11.241  12.438  65.494  1.00  0.00    -0.325 C  
BRANCH  33  35
HETATM   35  C   UNL     1     -10.117  10.327  64.809  1.00  0.00    -0.266 C  
BRANCH  35  36
HETATM   36  C   UNL     1      -9.112  11.203  64.026  1.00  0.00    -0.042 C  
BRANCH  36  37
HETATM   37  N   UNL     1      -8.674  10.656  62.724  1.00  0.00    -0.213 NA 
HETATM   38  C   UNL     1      -9.091   9.251  62.640  1.00  0.00    -0.037 C  
HETATM   39  C   UNL     1      -7.219  10.741  62.564  1.00  0.00    -0.028 C  
ENDBRANCH  36  37
ENDBRANCH  35  36
ENDBRANCH  33  35
ENDBRANCH   5  33
ENDBRANCH   2   3
TORSDOF 10
ENDMDL
MODEL      269
REMARK 921   NORMALIZED FREE ENERGY PREDICTED BY IDOCK:   -3.53 KCAL/MOL
REMARK 922        TOTAL FREE ENERGY PREDICTED BY IDOCK:   -7.30 KCAL/MOL
REMARK 923 INTER-LIGAND FREE ENERGY PREDICTED BY IDOCK:   -6.86 KCAL/MOL
REMARK 924 INTRA-LIGAND FREE ENERGY PREDICTED BY IDOCK:   -0.44 KCAL/MOL
REMARK 927      BINDING AFFINITY PREDICTED BY RF-SCORE:    0.00 PKD
ROOT
HETATM    1  C   UNL     1     -12.471  10.278  69.988  1.00  0.00    -0.046 C  
HETATM    2  O   UNL     1     -11.447  10.123  69.011  1.00  0.00    -0.183 OA 
ENDROOT
BRANCH   2   3
HETATM    3  C   UNL     1     -10.651  11.215  68.759  1.00  0.00    -0.202 A  
HETATM    4  C   UNL     1      -9.261  11.285  68.870  1.00  0.00    -0.064 A  
HETATM    5  C   UNL     1     -10.762  13.606  68.073  1.00  0.00    -0.247 A  
HETATM    6  C   UNL     1      -8.637  12.455  68.420  1.00  0.00    -0.129 A  
HETATM    7  C   UNL     1      -9.355  13.612  68.093  1.00  0.00    -0.212 A  
HETATM    8  C   UNL     1     -11.368  12.356  68.340  1.00  0.00    -0.330 A  
BRANCH   4   9
HETATM    9  N   UNL     1      -8.480  10.252  69.418  1.00  0.00    -0.195 NA 
HETATM   10  H   UNL     1      -7.845  10.506  70.175  1.00  0.00     0.000 HD 
BRANCH   9  11
HETATM   11  C   UNL     1      -8.489   8.911  69.024  1.00  0.00    -0.133 A  
HETATM   12  N   UNL     1      -7.905   8.633  67.853  1.00  0.00    -0.102 NA 
HETATM   13  N   UNL     1      -9.028   7.976  69.827  1.00  0.00    -0.144 NA 
HETATM   14  C   UNL     1      -8.872   6.682  69.507  1.00  0.00    -0.139 A  
HETATM   15  C   UNL     1      -8.243   6.307  68.339  1.00  0.00    -0.116 A  
HETATM   16  C   UNL     1      -7.798   7.333  67.536  1.00  0.00    -0.112 A  
BRANCH  14  17
HETATM   17  C   UNL     1      -9.390   5.708  70.477  1.00  0.00    -0.194 A  
HETATM   18  C   UNL     1      -9.995   2.465  72.033  1.00  0.00    -0.231 A  
HETATM   19  C   UNL     1     -10.120   6.068  71.600  1.00  0.00    -0.190 A  
HETATM   20  C   UNL     1      -9.422   1.525  71.174  1.00  0.00    -0.188 A  
HETATM   21  C   UNL     1      -8.818   1.924  69.989  1.00  0.00    -0.120 A  
HETATM   22  N   UNL     1     -10.446   4.936  72.296  1.00  0.00    -0.209 NA 
HETATM   23  C   UNL     1      -9.941   3.823  71.672  1.00  0.00    -0.141 A  
HETATM   24  C   UNL     1     -11.228   4.912  73.513  1.00  0.00    -0.298 C  
HETATM   25  C   UNL     1      -9.307   4.263  70.499  1.00  0.00    -0.216 A  
HETATM   26  C   UNL     1      -8.745   3.283  69.649  1.00  0.00    -0.128 A  
ENDBRANCH  14  17
ENDBRANCH   9  11
ENDBRANCH   4   9
BRANCH   7  27
HETATM   27  N   UNL     1      -8.628  14.817  67.993  1.00  0.00    -0.160 N  
HETATM   28  O   UNL     1      -9.039  15.308  65.761  1.00  0.00    -0.234 OA 
HETATM   29  H   UNL     1      -8.192  15.184  68.839  1.00  0.00     0.000 HD 
HETATM   30  C   UNL     1      -8.470  15.528  66.825  1.00  0.00    -0.279 C  
BRANCH  30  31
HETATM   31  C   UNL     1      -7.572  16.699  66.999  1.00  0.00    -0.237 C  
HETATM   32  C   UNL     1      -7.519  17.649  66.056  1.00  0.00    -0.282 C  
ENDBRANCH  30  31
ENDBRANCH   7  27
BRANCH   5  33
HETATM   33  N   UNL     1     -11.531  14.742  67.815  1.00  0.00    -0.333 NA 
HETATM   34  C   UNL     1     -11.836  15.738  68.836  1.00  0.00    -0.341 C  
BRANCH  33  35
HETATM   35  C   UNL     1     -11.951  15.075  66.442  1.00  0.00     0.051 C  
BRANCH  35  36
HETATM   36  C   UNL     1     -12.875  13.979  65.861  1.00  0.00    -0.311 C  
BRANCH  36  37
HETATM   37  N   UNL     1     -12.421  13.373  64.591  1.00  0.00    -0.591 NA 
HETATM   38  C   UNL     1     -11.098  12.774  64.803  1.00  0.00    -0.302 C  
HETATM   39  C   UNL     1     -12.338  14.368  63.518  1.00  0.00     0.431 C  
ENDBRANCH  36  37
ENDBRANCH  35  36
ENDBRANCH  33  35
ENDBRANCH   5  33
ENDBRANCH   2   3
TORSDOF 10
ENDMDL
MODEL      270
REMARK 921   NORMALIZED FREE ENERGY PREDICTED BY IDOCK:   -3.48 KCAL/MOL
REMARK 922        TOTAL FREE ENERGY PREDICTED BY IDOCK:   -7.23 KCAL/MOL
REMARK 923 INTER-LIGAND FREE ENERGY PREDICTED BY IDOCK:   -6.51 KCAL/MOL
REMARK 924 INTRA-LIGAND FREE ENERGY PREDICTED BY IDOCK:   -0.72 KCAL/MOL
REMARK 927      BINDING AFFINITY PREDICTED BY RF-SCORE:    0.00 PKD
ROOT
HETATM    1  C   UNL     1      -7.817   6.420  67.031  1.00  0.00    -0.104 C  
HETATM    2  O   UNL     1      -7.788   7.252  68.186  1.00  0.00    -0.114 OA 
ENDROOT
BRANCH   2   3
HETATM    3  C   UNL     1      -7.930   8.604  67.989  1.00  0.00    -0.107 A  
HETATM    4  C   UNL     1      -7.850   9.607  68.957  1.00  0.00    -0.079 A  
HETATM    5  C   UNL     1      -8.402  10.289  66.217  1.00  0.00    -0.134 A  
HETATM    6  C   UNL     1      -7.878  10.935  68.512  1.00  0.00    -0.126 A  
HETATM    7  C   UNL     1      -8.211  11.281  67.198  1.00  0.00    -0.149 A  
HETATM    8  C   UNL     1      -8.174   8.960  66.645  1.00  0.00    -0.111 A  
BRANCH   4   9
HETATM    9  N   UNL     1      -7.758   9.341  70.335  1.00  0.00    -0.125 NA 
HETATM   10  H   UNL     1      -6.906   9.643  70.806  1.00  0.00     0.000 HD 
BRANCH   9  11
HETATM   11  C   UNL     1      -8.722   8.702  71.119  1.00  0.00    -0.197 A  
HETATM   12  N   UNL     1      -9.816   9.415  71.412  1.00  0.00    -0.211 NA 
HETATM   13  N   UNL     1      -8.542   7.426  71.503  1.00  0.00    -0.116 NA 
HETATM   14  C   UNL     1      -9.553   6.783  72.106  1.00  0.00    -0.145 A  
HETATM   15  C   UNL     1     -10.733   7.431  72.405  1.00  0.00    -0.295 A  
HETATM   16  C   UNL     1     -10.798   8.760  72.052  1.00  0.00    -0.358 A  
BRANCH  14  17
HETATM   17  C   UNL     1      -9.332   5.362  72.404  1.00  0.00    -0.158 A  
HETATM   18  C   UNL     1      -7.772   2.406  73.868  1.00  0.00    -0.050 A  
HETATM   19  C   UNL     1     -10.157   4.350  71.937  1.00  0.00    -0.174 A  
HETATM   20  C   UNL     1      -6.649   2.876  74.552  1.00  0.00    -0.026 A  
HETATM   21  C   UNL     1      -6.324   4.227  74.538  1.00  0.00    -0.051 A  
HETATM   22  N   UNL     1      -9.685   3.149  72.395  1.00  0.00    -0.138 NA 
HETATM   23  C   UNL     1      -8.567   3.334  73.170  1.00  0.00    -0.081 A  
HETATM   24  C   UNL     1     -10.272   1.862  72.092  1.00  0.00    -0.154 C  
HETATM   25  C   UNL     1      -8.286   4.709  73.164  1.00  0.00    -0.100 A  
HETATM   26  C   UNL     1      -7.137   5.147  73.860  1.00  0.00    -0.082 A  
ENDBRANCH  14  17
ENDBRANCH   9  11
ENDBRANCH   4   9
BRANCH   7  27
HETATM   27  N   UNL     1      -8.548  12.628  66.949  1.00  0.00    -0.322 N  
HETATM   28  O   UNL     1      -6.570  13.633  67.636  1.00  0.00    -0.160 OA 
HETATM   29  H   UNL     1      -9.451  12.823  66.518  1.00  0.00     0.000 HD 
HETATM   30  C   UNL     1      -7.732  13.695  67.252  1.00  0.00    -0.074 C  
BRANCH  30  31
HETATM   31  C   UNL     1      -8.390  14.999  66.973  1.00  0.00    -0.254 C  
HETATM   32  C   UNL     1      -9.554  15.035  66.313  1.00  0.00    -0.335 C  
ENDBRANCH  30  31
ENDBRANCH   7  27
BRANCH   5  33
HETATM   33  N   UNL     1      -8.794  10.570  64.908  1.00  0.00    -0.186 NA 
HETATM   34  C   UNL     1      -7.856  10.597  63.790  1.00  0.00     0.118 C  
BRANCH  33  35
HETATM   35  C   UNL     1     -10.220  10.702  64.557  1.00  0.00    -0.329 C  
BRANCH  35  36
HETATM   36  C   UNL     1     -10.816  12.007  65.136  1.00  0.00    -0.300 C  
BRANCH  36  37
HETATM   37  N   UNL     1     -12.271  12.183  64.938  1.00  0.00    -0.392 NA 
HETATM   38  C   UNL     1     -12.586  11.938  63.525  1.00  0.00    -0.459 C  
HETATM   39  C   UNL     1     -12.707  13.533  65.306  1.00  0.00    -0.427 C  
ENDBRANCH  36  37
ENDBRANCH  35  36
ENDBRANCH  33  35
ENDBRANCH   5  33
ENDBRANCH   2   3
TORSDOF 10
ENDMDL
MODEL      271
REMARK 921   NORMALIZED FREE ENERGY PREDICTED BY IDOCK:   -3.41 KCAL/MOL
REMARK 922        TOTAL FREE ENERGY PREDICTED BY IDOCK:   -7.11 KCAL/MOL
REMARK 923 INTER-LIGAND FREE ENERGY PREDICTED BY IDOCK:   -5.98 KCAL/MOL
REMARK 924 INTRA-LIGAND FREE ENERGY PREDICTED BY IDOCK:   -1.14 KCAL/MOL
REMARK 927      BINDING AFFINITY PREDICTED BY RF-SCORE:    0.00 PKD
ROOT
HETATM    1  C   UNL     1     -10.790  19.439  65.502  1.00  0.00    -0.113 C  
HETATM    2  O   UNL     1     -11.220  18.116  65.199  1.00  0.00    -0.359 OA 
ENDROOT
BRANCH   2   3
HETATM    3  C   UNL     1     -10.462  17.081  65.690  1.00  0.00    -0.216 A  
HETATM    4  C   UNL     1     -10.362  15.790  65.167  1.00  0.00    -0.299 A  
HETATM    5  C   UNL     1      -8.912  16.496  67.550  1.00  0.00    -0.196 A  
HETATM    6  C   UNL     1      -9.414  14.935  65.743  1.00  0.00    -0.237 A  
HETATM    7  C   UNL     1      -8.752  15.240  66.937  1.00  0.00    -0.258 A  
HETATM    8  C   UNL     1      -9.722  17.418  66.844  1.00  0.00    -0.286 A  
BRANCH   4   9
HETATM    9  N   UNL     1     -11.168  15.322  64.115  1.00  0.00    -0.583 NA 
HETATM   10  H   UNL     1     -11.498  16.014  63.444  1.00  0.00     0.000 HD 
BRANCH   9  11
HETATM   11  C   UNL     1     -11.561  13.997  63.903  1.00  0.00    -0.061 A  
HETATM   12  N   UNL     1     -12.734  13.818  63.284  1.00  0.00    -0.576 NA 
HETATM   13  N   UNL     1     -10.756  12.986  64.277  1.00  0.00    -0.389 NA 
HETATM   14  C   UNL     1     -11.075  11.736  63.909  1.00  0.00    -0.408 A  
HETATM   15  C   UNL     1     -12.244  11.468  63.230  1.00  0.00    -0.073 A  
HETATM   16  C   UNL     1     -13.049  12.553  62.963  1.00  0.00     0.802 A  
BRANCH  14  17
HETATM   17  C   UNL     1     -10.103  10.691  64.256  1.00  0.00    -0.411 A  
HETATM   18  C   UNL     1      -8.509   8.055  66.210  1.00  0.00    -0.138 A  
HETATM   19  C   UNL     1      -9.071  10.303  63.413  1.00  0.00    -0.262 A  
HETATM   20  C   UNL     1      -9.216   8.002  67.413  1.00  0.00    -0.155 A  
HETATM   21  C   UNL     1     -10.264   8.880  67.658  1.00  0.00    -0.296 A  
HETATM   22  N   UNL     1      -8.353   9.310  64.024  1.00  0.00    -0.168 NA 
HETATM   23  C   UNL     1      -8.887   9.014  65.253  1.00  0.00    -0.193 A  
HETATM   24  C   UNL     1      -7.184   8.672  63.459  1.00  0.00    -0.095 C  
HETATM   25  C   UNL     1      -9.963   9.892  65.456  1.00  0.00    -0.363 A  
HETATM   26  C   UNL     1     -10.650   9.816  66.688  1.00  0.00    -0.178 A  
ENDBRANCH  14  17
ENDBRANCH   9  11
ENDBRANCH   4   9
BRANCH   7  27
HETATM   27  N   UNL     1      -8.096  14.182  67.601  1.00  0.00    -0.165 N  
HETATM   28  O   UNL     1      -9.861  12.677  67.725  1.00  0.00    -0.201 OA 
HETATM   29  H   UNL     1      -7.101  14.284  67.796  1.00  0.00     0.000 HD 
HETATM   30  C   UNL     1      -8.718  13.020  68.003  1.00  0.00    -0.187 C  
BRANCH  30  31
HETATM   31  C   UNL     1      -7.804  12.132  68.767  1.00  0.00    -0.017 C  
HETATM   32  C   UNL     1      -6.486  12.367  68.768  1.00  0.00    -0.084 C  
ENDBRANCH  30  31
ENDBRANCH   7  27
BRANCH   5  33
HETATM   33  N   UNL     1      -8.328  16.836  68.771  1.00  0.00    -0.248 NA 
HETATM   34  C   UNL     1      -7.116  17.643  68.870  1.00  0.00    -0.254 C  
BRANCH  33  35
HETATM   35  C   UNL     1      -9.000  16.521  70.044  1.00  0.00     1.258 C  
BRANCH  35  36
HETATM   36  C   UNL     1     -10.413  17.148  70.097  1.00  0.00     0.468 C  
BRANCH  36  37
HETATM   37  N   UNL     1     -11.518  16.201  70.358  1.00  0.00    -0.362 NA 
HETATM   38  C   UNL     1     -11.199  15.427  71.564  1.00  0.00    -0.336 C  
HETATM   39  C   UNL     1     -11.721  15.284  69.232  1.00  0.00    -0.338 C  
ENDBRANCH  36  37
ENDBRANCH  35  36
ENDBRANCH  33  35
ENDBRANCH   5  33
ENDBRANCH   2   3
TORSDOF 10
ENDMDL
MODEL      272
REMARK 921   NORMALIZED FREE ENERGY PREDICTED BY IDOCK:   -3.30 KCAL/MOL
REMARK 922        TOTAL FREE ENERGY PREDICTED BY IDOCK:   -6.95 KCAL/MOL
REMARK 923 INTER-LIGAND FREE ENERGY PREDICTED BY IDOCK:   -5.95 KCAL/MOL
REMARK 924 INTRA-LIGAND FREE ENERGY PREDICTED BY IDOCK:   -1.00 KCAL/MOL
REMARK 927      BINDING AFFINITY PREDICTED BY RF-SCORE:    0.00 PKD
ROOT
HETATM    1  C   UNL     1      -8.846   5.773  65.494  1.00  0.00    -0.113 C  
HETATM    2  O   UNL     1      -8.433   6.973  66.140  1.00  0.00    -0.123 OA 
ENDROOT
BRANCH   2   3
HETATM    3  C   UNL     1      -8.693   7.083  67.485  1.00  0.00    -0.120 A  
HETATM    4  C   UNL     1      -9.733   7.797  68.084  1.00  0.00    -0.155 A  
HETATM    5  C   UNL     1      -7.827   6.387  69.713  1.00  0.00    -0.114 A  
HETATM    6  C   UNL     1      -9.899   7.653  69.467  1.00  0.00    -0.178 A  
HETATM    7  C   UNL     1      -8.946   7.027  70.278  1.00  0.00    -0.149 A  
HETATM    8  C   UNL     1      -7.783   6.375  68.299  1.00  0.00    -0.104 A  
BRANCH   4   9
HETATM    9  N   UNL     1     -10.595   8.647  67.369  1.00  0.00    -0.400 NA 
HETATM   10  H   UNL     1     -11.580   8.388  67.342  1.00  0.00     0.000 HD 
BRANCH   9  11
HETATM   11  C   UNL     1     -10.229   9.814  66.691  1.00  0.00    -0.226 A  
HETATM   12  N   UNL     1     -10.568   9.881  65.399  1.00  0.00     0.216 NA 
HETATM   13  N   UNL     1      -9.608  10.810  67.350  1.00  0.00    -0.158 NA 
HETATM   14  C   UNL     1      -9.423  11.981  66.723  1.00  0.00    -0.208 A  
HETATM   15  C   UNL     1      -9.784  12.150  65.403  1.00  0.00    -0.178 A  
HETATM   16  C   UNL     1     -10.335  11.050  64.783  1.00  0.00    -0.324 A  
BRANCH  14  17
HETATM   17  C   UNL     1      -8.836  13.061  67.527  1.00  0.00    -0.195 A  
HETATM   18  C   UNL     1      -8.513  16.354  69.065  1.00  0.00    -0.225 A  
HETATM   19  C   UNL     1      -7.672  12.911  68.267  1.00  0.00    -0.137 A  
HETATM   20  C   UNL     1      -9.580  17.105  68.569  1.00  0.00    -0.288 A  
HETATM   21  C   UNL     1     -10.467  16.555  67.652  1.00  0.00    -0.305 A  
HETATM   22  N   UNL     1      -7.400  14.092  68.904  1.00  0.00    -0.124 NA 
HETATM   23  C   UNL     1      -8.361  15.029  68.618  1.00  0.00    -0.166 A  
HETATM   24  C   UNL     1      -6.249  14.326  69.749  1.00  0.00    -0.139 C  
HETATM   25  C   UNL     1      -9.260  14.433  67.719  1.00  0.00    -0.192 A  
HETATM   26  C   UNL     1     -10.324  15.225  67.231  1.00  0.00    -0.264 A  
ENDBRANCH  14  17
ENDBRANCH   9  11
ENDBRANCH   4   9
BRANCH   7  27
HETATM   27  N   UNL     1      -9.039   7.242  71.669  1.00  0.00    -0.136 N  
HETATM   28  O   UNL     1     -10.883   5.906  72.124  1.00  0.00    -0.221 OA 
HETATM   29  H   UNL     1      -8.323   7.817  72.113  1.00  0.00     0.000 HD 
HETATM   30  C   UNL     1     -10.036   6.723  72.465  1.00  0.00    -0.172 C  
BRANCH  30  31
HETATM   31  C   UNL     1      -9.936   7.200  73.869  1.00  0.00    -0.360 C  
HETATM   32  C   UNL     1      -8.735   7.378  74.433  1.00  0.00    -0.236 C  
ENDBRANCH  30  31
ENDBRANCH   7  27
BRANCH   5  33
HETATM   33  N   UNL     1      -6.813   5.800  70.472  1.00  0.00    -0.054 NA 
HETATM   34  C   UNL     1      -6.369   6.343  71.752  1.00  0.00    -0.042 C  
BRANCH  33  35
HETATM   35  C   UNL     1      -6.238   4.499  70.089  1.00  0.00    -0.022 C  
BRANCH  35  36
HETATM   36  C   UNL     1      -7.026   3.332  70.730  1.00  0.00    -0.033 C  
BRANCH  36  37
HETATM   37  N   UNL     1      -8.444   3.616  71.036  1.00  0.00    -0.070 NA 
HETATM   38  C   UNL     1      -8.760   3.057  72.357  1.00  0.00    -0.079 C  
HETATM   39  C   UNL     1      -9.341   3.032  70.034  1.00  0.00    -0.153 C  
ENDBRANCH  36  37
ENDBRANCH  35  36
ENDBRANCH  33  35
ENDBRANCH   5  33
ENDBRANCH   2   3
TORSDOF 10
ENDMDL
MODEL      273
REMARK 921   NORMALIZED FREE ENERGY PREDICTED BY IDOCK:   -3.29 KCAL/MOL
REMARK 922        TOTAL FREE ENERGY PREDICTED BY IDOCK:   -6.93 KCAL/MOL
REMARK 923 INTER-LIGAND FREE ENERGY PREDICTED BY IDOCK:   -6.11 KCAL/MOL
REMARK 924 INTRA-LIGAND FREE ENERGY PREDICTED BY IDOCK:   -0.82 KCAL/MOL
REMARK 927      BINDING AFFINITY PREDICTED BY RF-SCORE:    0.00 PKD
ROOT
HETATM    1  C   UNL     1     -10.707   5.392  66.476  1.00  0.00    -0.240 C  
HETATM    2  O   UNL     1     -10.957   6.487  67.350  1.00  0.00    -0.325 OA 
ENDROOT
BRANCH   2   3
HETATM    3  C   UNL     1     -10.588   6.337  68.665  1.00  0.00    -0.264 A  
HETATM    4  C   UNL     1     -10.452   7.347  69.620  1.00  0.00    -0.232 A  
HETATM    5  C   UNL     1      -9.895   4.613  70.323  1.00  0.00    -0.243 A  
HETATM    6  C   UNL     1     -10.208   6.954  70.942  1.00  0.00    -0.214 A  
HETATM    7  C   UNL     1      -9.871   5.640  71.286  1.00  0.00    -0.175 A  
HETATM    8  C   UNL     1     -10.336   4.999  69.035  1.00  0.00    -0.155 A  
BRANCH   4   9
HETATM    9  N   UNL     1     -10.537   8.716  69.311  1.00  0.00    -0.294 NA 
HETATM   10  H   UNL     1     -11.373   9.208  69.622  1.00  0.00     0.000 HD 
BRANCH   9  11
HETATM   11  C   UNL     1      -9.583   9.466  68.615  1.00  0.00    -0.147 A  
HETATM   12  N   UNL     1      -8.867   8.810  67.696  1.00  0.00    -0.135 NA 
HETATM   13  N   UNL     1      -9.455  10.783  68.857  1.00  0.00    -0.186 NA 
HETATM   14  C   UNL     1      -8.658  11.511  68.061  1.00  0.00    -0.150 A  
HETATM   15  C   UNL     1      -7.917  10.920  67.060  1.00  0.00    -0.132 A  
HETATM   16  C   UNL     1      -8.047   9.554  66.939  1.00  0.00    -0.109 A  
BRANCH  14  17
HETATM   17  C   UNL     1      -8.642  12.958  68.309  1.00  0.00    -0.170 A  
HETATM   18  C   UNL     1      -9.905  16.373  68.554  1.00  0.00    -0.231 A  
HETATM   19  C   UNL     1      -7.526  13.637  68.776  1.00  0.00    -0.088 A  
HETATM   20  C   UNL     1     -11.221  16.319  68.089  1.00  0.00    -0.298 A  
HETATM   21  C   UNL     1     -11.761  15.125  67.629  1.00  0.00    -0.233 A  
HETATM   22  N   UNL     1      -7.839  14.963  68.907  1.00  0.00    -0.151 NA 
HETATM   23  C   UNL     1      -9.145  15.189  68.549  1.00  0.00    -0.191 A  
HETATM   24  C   UNL     1      -6.917  15.988  69.347  1.00  0.00    -0.216 C  
HETATM   25  C   UNL     1      -9.672  13.960  68.124  1.00  0.00    -0.222 A  
HETATM   26  C   UNL     1     -11.004  13.944  67.653  1.00  0.00    -0.278 A  
ENDBRANCH  14  17
ENDBRANCH   9  11
ENDBRANCH   4   9
BRANCH   7  27
HETATM   27  N   UNL     1      -9.312   5.429  72.564  1.00  0.00    -0.142 N  
HETATM   28  O   UNL     1      -7.166   6.218  72.161  1.00  0.00    -0.087 OA 
HETATM   29  H   UNL     1      -9.924   5.078  73.301  1.00  0.00     0.000 HD 
HETATM   30  C   UNL     1      -7.993   5.668  72.878  1.00  0.00    -0.101 C  
BRANCH  30  31
HETATM   31  C   UNL     1      -7.666   5.259  74.269  1.00  0.00    -0.093 C  
HETATM   32  C   UNL     1      -7.297   3.998  74.528  1.00  0.00    -0.070 C  
ENDBRANCH  30  31
ENDBRANCH   7  27
BRANCH   5  33
HETATM   33  N   UNL     1      -9.510   3.299  70.592  1.00  0.00    -0.163 NA 
HETATM   34  C   UNL     1      -9.823   2.625  71.848  1.00  0.00    -0.157 C  
BRANCH  33  35
HETATM   35  C   UNL     1      -8.894   2.463  69.547  1.00  0.00    -0.091 C  
BRANCH  35  36
HETATM   36  C   UNL     1      -7.355   2.423  69.701  1.00  0.00    -0.043 C  
BRANCH  36  37
HETATM   37  N   UNL     1      -6.613   3.433  68.916  1.00  0.00    -0.039 NA 
HETATM   38  C   UNL     1      -6.074   2.788  67.711  1.00  0.00    -0.028 C  
HETATM   39  C   UNL     1      -5.512   4.015  69.689  1.00  0.00    -0.015 C  
ENDBRANCH  36  37
ENDBRANCH  35  36
ENDBRANCH  33  35
ENDBRANCH   5  33
ENDBRANCH   2   3
TORSDOF 10
ENDMDL
MODEL      274
REMARK 921   NORMALIZED FREE ENERGY PREDICTED BY IDOCK:   -3.25 KCAL/MOL
REMARK 922        TOTAL FREE ENERGY PREDICTED BY IDOCK:   -6.86 KCAL/MOL
REMARK 923 INTER-LIGAND FREE ENERGY PREDICTED BY IDOCK:   -6.32 KCAL/MOL
REMARK 924 INTRA-LIGAND FREE ENERGY PREDICTED BY IDOCK:   -0.53 KCAL/MOL
REMARK 927      BINDING AFFINITY PREDICTED BY RF-SCORE:    0.00 PKD
ROOT
HETATM    1  C   UNL     1     -10.349   9.054  66.238  1.00  0.00    -0.060 C  
HETATM    2  O   UNL     1     -10.523   9.780  67.450  1.00  0.00    -0.227 OA 
ENDROOT
BRANCH   2   3
HETATM    3  C   UNL     1      -9.684  10.846  67.669  1.00  0.00    -0.171 A  
HETATM    4  C   UNL     1      -8.440  10.820  68.303  1.00  0.00    -0.130 A  
HETATM    5  C   UNL     1      -9.510  13.307  67.331  1.00  0.00    -0.218 A  
HETATM    6  C   UNL     1      -7.685  11.999  68.288  1.00  0.00    -0.127 A  
HETATM    7  C   UNL     1      -8.216  13.227  67.879  1.00  0.00    -0.163 A  
HETATM    8  C   UNL     1     -10.181  12.071  67.174  1.00  0.00    -0.221 A  
BRANCH   4   9
HETATM    9  N   UNL     1      -7.933   9.682  68.954  1.00  0.00    -0.087 NA 
HETATM   10  H   UNL     1      -7.081   9.273  68.572  1.00  0.00     0.000 HD 
BRANCH   9  11
HETATM   11  C   UNL     1      -8.485   9.057  70.077  1.00  0.00    -0.145 A  
HETATM   12  N   UNL     1      -9.587   9.619  70.587  1.00  0.00    -0.218 NA 
HETATM   13  N   UNL     1      -7.933   7.929  70.560  1.00  0.00    -0.095 NA 
HETATM   14  C   UNL     1      -8.578   7.258  71.526  1.00  0.00    -0.118 A  
HETATM   15  C   UNL     1      -9.744   7.744  72.078  1.00  0.00    -0.224 A  
HETATM   16  C   UNL     1     -10.191   8.948  71.579  1.00  0.00    -0.328 A  
BRANCH  14  17
HETATM   17  C   UNL     1      -7.980   5.981  71.937  1.00  0.00    -0.107 A  
HETATM   18  C   UNL     1      -7.746   2.400  72.596  1.00  0.00    -0.053 A  
HETATM   19  C   UNL     1      -6.660   5.857  72.348  1.00  0.00    -0.067 A  
HETATM   20  C   UNL     1      -9.024   1.891  72.354  1.00  0.00    -0.098 A  
HETATM   21  C   UNL     1     -10.063   2.734  71.981  1.00  0.00    -0.186 A  
HETATM   22  N   UNL     1      -6.415   4.546  72.655  1.00  0.00    -0.038 NA 
HETATM   23  C   UNL     1      -7.538   3.783  72.448  1.00  0.00    -0.066 A  
HETATM   24  C   UNL     1      -5.153   4.036  73.144  1.00  0.00     0.000 C  
HETATM   25  C   UNL     1      -8.557   4.657  72.039  1.00  0.00    -0.124 A  
HETATM   26  C   UNL     1      -9.840   4.108  71.811  1.00  0.00    -0.252 A  
ENDBRANCH  14  17
ENDBRANCH   9  11
ENDBRANCH   4   9
BRANCH   7  27
HETATM   27  N   UNL     1      -7.498  14.390  68.228  1.00  0.00    -0.112 N  
HETATM   28  O   UNL     1      -8.755  15.061  70.062  1.00  0.00     0.105 OA 
HETATM   29  H   UNL     1      -6.656  14.609  67.697  1.00  0.00     0.000 HD 
HETATM   30  C   UNL     1      -7.863  15.247  69.242  1.00  0.00    -0.221 C  
BRANCH  30  31
HETATM   31  C   UNL     1      -6.978  16.440  69.313  1.00  0.00    -0.223 C  
HETATM   32  C   UNL     1      -7.214  17.498  68.528  1.00  0.00    -0.240 C  
ENDBRANCH  30  31
ENDBRANCH   7  27
BRANCH   5  33
HETATM   33  N   UNL     1     -10.116  14.510  66.964  1.00  0.00    -0.252 NA 
HETATM   34  C   UNL     1      -9.759  15.236  65.750  1.00  0.00    -0.350 C  
BRANCH  33  35
HETATM   35  C   UNL     1     -11.270  15.035  67.715  1.00  0.00    -0.321 C  
BRANCH  35  36
HETATM   36  C   UNL     1     -11.931  13.926  68.567  1.00  0.00    -0.359 C  
BRANCH  36  37
HETATM   37  N   UNL     1     -12.673  14.396  69.756  1.00  0.00    -0.117 NA 
HETATM   38  C   UNL     1     -12.068  15.650  70.222  1.00  0.00    -0.385 C  
HETATM   39  C   UNL     1     -12.640  13.409  70.839  1.00  0.00    -0.327 C  
ENDBRANCH  36  37
ENDBRANCH  35  36
ENDBRANCH  33  35
ENDBRANCH   5  33
ENDBRANCH   2   3
TORSDOF 10
ENDMDL
MODEL      275
REMARK 921   NORMALIZED FREE ENERGY PREDICTED BY IDOCK:   -3.22 KCAL/MOL
REMARK 922        TOTAL FREE ENERGY PREDICTED BY IDOCK:   -6.81 KCAL/MOL
REMARK 923 INTER-LIGAND FREE ENERGY PREDICTED BY IDOCK:   -6.26 KCAL/MOL
REMARK 924 INTRA-LIGAND FREE ENERGY PREDICTED BY IDOCK:   -0.55 KCAL/MOL
REMARK 927      BINDING AFFINITY PREDICTED BY RF-SCORE:    0.00 PKD
ROOT
HETATM    1  C   UNL     1      -5.344  18.124  65.405  1.00  0.00    -0.159 C  
HETATM    2  O   UNL     1      -5.351  16.847  66.035  1.00  0.00    -0.254 OA 
ENDROOT
BRANCH   2   3
HETATM    3  C   UNL     1      -6.348  16.603  66.948  1.00  0.00    -0.173 A  
HETATM    4  C   UNL     1      -6.729  15.363  67.466  1.00  0.00    -0.181 A  
HETATM    5  C   UNL     1      -8.115  17.750  68.277  1.00  0.00    -0.283 A  
HETATM    6  C   UNL     1      -7.674  15.360  68.499  1.00  0.00    -0.132 A  
HETATM    7  C   UNL     1      -8.402  16.501  68.857  1.00  0.00    -0.241 A  
HETATM    8  C   UNL     1      -7.021  17.767  67.378  1.00  0.00    -0.197 A  
BRANCH   4   9
HETATM    9  N   UNL     1      -6.220  14.142  66.991  1.00  0.00    -0.092 NA 
HETATM   10  H   UNL     1      -5.987  14.094  65.999  1.00  0.00     0.000 HD 
BRANCH   9  11
HETATM   11  C   UNL     1      -6.003  12.987  67.748  1.00  0.00    -0.145 A  
HETATM   12  N   UNL     1      -5.446  13.162  68.951  1.00  0.00    -0.071 NA 
HETATM   13  N   UNL     1      -6.387  11.788  67.273  1.00  0.00    -0.117 NA 
HETATM   14  C   UNL     1      -6.325  10.722  68.085  1.00  0.00    -0.057 A  
HETATM   15  C   UNL     1      -5.805  10.823  69.358  1.00  0.00    -0.040 A  
HETATM   16  C   UNL     1      -5.359  12.072  69.729  1.00  0.00    -0.081 A  
BRANCH  14  17
HETATM   17  C   UNL     1      -6.857   9.464  67.545  1.00  0.00    -0.076 A  
HETATM   18  C   UNL     1      -9.325   6.925  66.663  1.00  0.00    -0.198 A  
HETATM   19  C   UNL     1      -6.071   8.522  66.897  1.00  0.00    -0.054 A  
HETATM   20  C   UNL     1     -10.535   7.382  67.190  1.00  0.00    -0.403 A  
HETATM   21  C   UNL     1     -10.592   8.569  67.909  1.00  0.00    -0.219 A  
HETATM   22  N   UNL     1      -6.864   7.476  66.512  1.00  0.00    -0.060 NA 
HETATM   23  C   UNL     1      -8.169   7.698  66.875  1.00  0.00    -0.120 A  
HETATM   24  C   UNL     1      -6.392   6.291  65.829  1.00  0.00    -0.038 C  
HETATM   25  C   UNL     1      -8.199   8.919  67.568  1.00  0.00    -0.109 A  
HETATM   26  C   UNL     1      -9.440   9.346  68.093  1.00  0.00    -0.146 A  
ENDBRANCH  14  17
ENDBRANCH   9  11
ENDBRANCH   4   9
BRANCH   7  27
HETATM   27  N   UNL     1      -9.552  16.311  69.650  1.00  0.00    -0.099 N  
HETATM   28  O   UNL     1     -10.957  15.393  68.045  1.00  0.00    -0.285 OA 
HETATM   29  H   UNL     1      -9.491  16.536  70.643  1.00  0.00     0.000 HD 
HETATM   30  C   UNL     1     -10.753  15.841  69.168  1.00  0.00    -0.246 C  
BRANCH  30  31
HETATM   31  C   UNL     1     -11.814  15.841  70.209  1.00  0.00    -0.369 C  
HETATM   32  C   UNL     1     -11.557  15.352  71.428  1.00  0.00    -0.461 C  
ENDBRANCH  30  31
ENDBRANCH   7  27
BRANCH   5  33
HETATM   33  N   UNL     1      -8.845  18.908  68.547  1.00  0.00    -0.344 NA 
HETATM   34  C   UNL     1     -10.285  19.003  68.331  1.00  0.00    -0.377 C  
BRANCH  33  35
HETATM   35  C   UNL     1      -8.216  20.060  69.218  1.00  0.00     0.314 C  
BRANCH  35  36
HETATM   36  C   UNL     1      -6.881  19.653  69.887  1.00  0.00    -0.151 C  
BRANCH  36  37
HETATM   37  N   UNL     1      -5.680  20.352  69.383  1.00  0.00    -0.310 NA 
HETATM   38  C   UNL     1      -5.237  21.317  70.396  1.00  0.00     0.060 C  
HETATM   39  C   UNL     1      -5.952  21.056  68.127  1.00  0.00    -0.346 C  
ENDBRANCH  36  37
ENDBRANCH  35  36
ENDBRANCH  33  35
ENDBRANCH   5  33
ENDBRANCH   2   3
TORSDOF 10
ENDMDL
MODEL      276
REMARK 921   NORMALIZED FREE ENERGY PREDICTED BY IDOCK:   -3.15 KCAL/MOL
REMARK 922        TOTAL FREE ENERGY PREDICTED BY IDOCK:   -6.71 KCAL/MOL
REMARK 923 INTER-LIGAND FREE ENERGY PREDICTED BY IDOCK:   -6.32 KCAL/MOL
REMARK 924 INTRA-LIGAND FREE ENERGY PREDICTED BY IDOCK:   -0.39 KCAL/MOL
REMARK 927      BINDING AFFINITY PREDICTED BY RF-SCORE:    0.00 PKD
ROOT
HETATM    1  C   UNL     1     -11.099   6.937  67.533  1.00  0.00    -0.213 C  
HETATM    2  O   UNL     1     -10.406   7.319  66.350  1.00  0.00    -0.096 OA 
ENDROOT
BRANCH   2   3
HETATM    3  C   UNL     1     -10.006   8.630  66.252  1.00  0.00    -0.217 A  
HETATM    4  C   UNL     1      -8.854   9.113  65.629  1.00  0.00    -0.185 A  
HETATM    5  C   UNL     1     -10.663  10.936  66.925  1.00  0.00    -0.264 A  
HETATM    6  C   UNL     1      -8.716  10.502  65.518  1.00  0.00    -0.197 A  
HETATM    7  C   UNL     1      -9.550  11.397  66.198  1.00  0.00    -0.218 A  
HETATM    8  C   UNL     1     -10.897   9.542  66.859  1.00  0.00    -0.085 A  
BRANCH   4   9
HETATM    9  N   UNL     1      -7.840   8.276  65.130  1.00  0.00    -0.112 NA 
HETATM   10  H   UNL     1      -7.136   8.710  64.534  1.00  0.00     0.000 HD 
BRANCH   9  11
HETATM   11  C   UNL     1      -7.707   6.905  65.372  1.00  0.00    -0.107 A  
HETATM   12  N   UNL     1      -7.654   6.115  64.294  1.00  0.00    -0.088 NA 
HETATM   13  N   UNL     1      -7.598   6.451  66.634  1.00  0.00    -0.093 NA 
HETATM   14  C   UNL     1      -7.299   5.158  66.831  1.00  0.00    -0.086 A  
HETATM   15  C   UNL     1      -7.183   4.283  65.772  1.00  0.00    -0.072 A  
HETATM   16  C   UNL     1      -7.395   4.818  64.521  1.00  0.00    -0.067 A  
BRANCH  14  17
HETATM   17  C   UNL     1      -7.090   4.748  68.225  1.00  0.00    -0.061 A  
HETATM   18  C   UNL     1      -7.288   4.877  71.866  1.00  0.00    -0.080 A  
HETATM   19  C   UNL     1      -6.441   3.575  68.583  1.00  0.00    -0.036 A  
HETATM   20  C   UNL     1      -7.922   6.085  72.163  1.00  0.00    -0.106 A  
HETATM   21  C   UNL     1      -8.299   6.956  71.149  1.00  0.00    -0.119 A  
HETATM   22  N   UNL     1      -6.416   3.483  69.948  1.00  0.00    -0.032 NA 
HETATM   23  C   UNL     1      -7.044   4.563  70.517  1.00  0.00    -0.041 A  
HETATM   24  C   UNL     1      -5.800   2.406  70.691  1.00  0.00    -0.017 C  
HETATM   25  C   UNL     1      -7.443   5.405  69.467  1.00  0.00    -0.069 A  
HETATM   26  C   UNL     1      -8.075   6.623  69.805  1.00  0.00    -0.126 A  
ENDBRANCH  14  17
ENDBRANCH   9  11
ENDBRANCH   4   9
BRANCH   7  27
HETATM   27  N   UNL     1      -9.117  12.736  66.298  1.00  0.00    -0.434 N  
HETATM   28  O   UNL     1      -7.723  12.534  68.143  1.00  0.00    -0.121 OA 
HETATM   29  H   UNL     1      -9.430  13.394  65.584  1.00  0.00     0.000 HD 
HETATM   30  C   UNL     1      -8.298  13.209  67.298  1.00  0.00    -0.179 C  
BRANCH  30  31
HETATM   31  C   UNL     1      -8.092  14.679  67.205  1.00  0.00    -0.230 C  
HETATM   32  C   UNL     1      -8.978  15.440  66.552  1.00  0.00    -0.344 C  
ENDBRANCH  30  31
ENDBRANCH   7  27
BRANCH   5  33
HETATM   33  N   UNL     1     -11.494  11.773  67.671  1.00  0.00    -0.375 NA 
HETATM   34  C   UNL     1     -11.915  13.090  67.204  1.00  0.00    -0.329 C  
BRANCH  33  35
HETATM   35  C   UNL     1     -12.120  11.299  68.919  1.00  0.00    -0.224 C  
BRANCH  35  36
HETATM   36  C   UNL     1     -11.828  12.266  70.090  1.00  0.00    -0.272 C  
BRANCH  36  37
HETATM   37  N   UNL     1     -12.322  11.827  71.413  1.00  0.00    -0.150 NA 
HETATM   38  C   UNL     1     -13.024  10.548  71.252  1.00  0.00    -0.433 C  
HETATM   39  C   UNL     1     -13.234  12.812  72.002  1.00  0.00    -0.436 C  
ENDBRANCH  36  37
ENDBRANCH  35  36
ENDBRANCH  33  35
ENDBRANCH   5  33
ENDBRANCH   2   3
TORSDOF 10
ENDMDL
MODEL      277
REMARK 921   NORMALIZED FREE ENERGY PREDICTED BY IDOCK:   -2.84 KCAL/MOL
REMARK 922        TOTAL FREE ENERGY PREDICTED BY IDOCK:   -6.21 KCAL/MOL
REMARK 923 INTER-LIGAND FREE ENERGY PREDICTED BY IDOCK:   -4.76 KCAL/MOL
REMARK 924 INTRA-LIGAND FREE ENERGY PREDICTED BY IDOCK:   -1.45 KCAL/MOL
REMARK 927      BINDING AFFINITY PREDICTED BY RF-SCORE:    0.00 PKD
ROOT
HETATM    1  C   UNL     1      -8.592  13.421  68.217  1.00  0.00    -0.169 C  
HETATM    2  O   UNL     1      -8.750  12.579  67.080  1.00  0.00    -0.199 OA 
ENDROOT
BRANCH   2   3
HETATM    3  C   UNL     1      -8.871  11.230  67.310  1.00  0.00    -0.150 A  
HETATM    4  C   UNL     1      -8.548  10.195  66.430  1.00  0.00    -0.130 A  
HETATM    5  C   UNL     1      -9.629   9.593  69.027  1.00  0.00    -0.168 A  
HETATM    6  C   UNL     1      -8.611   8.886  66.924  1.00  0.00    -0.121 A  
HETATM    7  C   UNL     1      -9.195   8.575  68.158  1.00  0.00    -0.137 A  
HETATM    8  C   UNL     1      -9.374  10.915  68.590  1.00  0.00    -0.188 A  
BRANCH   4   9
HETATM    9  N   UNL     1      -8.183  10.411  65.089  1.00  0.00    -0.161 NA 
HETATM   10  H   UNL     1      -8.375  11.334  64.702  1.00  0.00     0.000 HD 
BRANCH   9  11
HETATM   11  C   UNL     1      -7.581   9.480  64.237  1.00  0.00    -0.122 A  
HETATM   12  N   UNL     1      -6.876   9.979  63.216  1.00  0.00    -0.129 NA 
HETATM   13  N   UNL     1      -7.692   8.163  64.490  1.00  0.00    -0.113 NA 
HETATM   14  C   UNL     1      -6.967   7.302  63.761  1.00  0.00    -0.058 A  
HETATM   15  C   UNL     1      -6.180   7.737  62.717  1.00  0.00    -0.072 A  
HETATM   16  C   UNL     1      -6.192   9.093  62.476  1.00  0.00    -0.094 A  
BRANCH  14  17
HETATM   17  C   UNL     1      -7.052   5.889  64.154  1.00  0.00    -0.053 A  
HETATM   18  C   UNL     1      -8.508   2.819  65.484  1.00  0.00    -0.100 A  
HETATM   19  C   UNL     1      -6.027   4.979  63.942  1.00  0.00    -0.021 A  
HETATM   20  C   UNL     1      -9.763   3.184  65.976  1.00  0.00     0.130 A  
HETATM   21  C   UNL     1     -10.191   4.504  65.919  1.00  0.00    -0.289 A  
HETATM   22  N   UNL     1      -6.420   3.755  64.414  1.00  0.00    -0.036 NA 
HETATM   23  C   UNL     1      -7.691   3.820  64.927  1.00  0.00    -0.081 A  
HETATM   24  C   UNL     1      -5.604   2.561  64.389  1.00  0.00    -0.009 C  
HETATM   25  C   UNL     1      -8.107   5.157  64.823  1.00  0.00    -0.117 A  
HETATM   26  C   UNL     1      -9.380   5.491  65.338  1.00  0.00     0.044 A  
ENDBRANCH  14  17
ENDBRANCH   9  11
ENDBRANCH   4   9
BRANCH   7  27
HETATM   27  N   UNL     1      -9.517   7.223  68.398  1.00  0.00    -0.142 N  
HETATM   28  O   UNL     1      -7.881   6.729  69.970  1.00  0.00    -0.106 OA 
HETATM   29  H   UNL     1     -10.336   6.837  67.929  1.00  0.00     0.000 HD 
HETATM   30  C   UNL     1      -8.796   6.393  69.227  1.00  0.00    -0.128 C  
BRANCH  30  31
HETATM   31  C   UNL     1      -9.309   4.998  69.207  1.00  0.00    -0.178 C  
HETATM   32  C   UNL     1      -8.456   3.970  69.290  1.00  0.00    -0.101 C  
ENDBRANCH  30  31
ENDBRANCH   7  27
BRANCH   5  33
HETATM   33  N   UNL     1     -10.272   9.345  70.240  1.00  0.00    -0.228 NA 
HETATM   34  C   UNL     1      -9.564   9.290  71.515  1.00  0.00    -0.092 C  
BRANCH  33  35
HETATM   35  C   UNL     1     -11.743   9.277  70.316  1.00  0.00    -0.051 C  
BRANCH  35  36
HETATM   36  C   UNL     1     -12.386  10.603  69.846  1.00  0.00    -0.235 C  
BRANCH  36  37
HETATM   37  N   UNL     1     -12.161  11.766  70.730  1.00  0.00    -0.327 NA 
HETATM   38  C   UNL     1     -13.240  11.816  71.724  1.00  0.00    -0.329 C  
HETATM   39  C   UNL     1     -12.138  13.022  69.974  1.00  0.00    -0.297 C  
ENDBRANCH  36  37
ENDBRANCH  35  36
ENDBRANCH  33  35
ENDBRANCH   5  33
ENDBRANCH   2   3
TORSDOF 10
ENDMDL
MODEL      278
REMARK 921   NORMALIZED FREE ENERGY PREDICTED BY IDOCK:   -2.83 KCAL/MOL
REMARK 922        TOTAL FREE ENERGY PREDICTED BY IDOCK:   -6.19 KCAL/MOL
REMARK 923 INTER-LIGAND FREE ENERGY PREDICTED BY IDOCK:   -5.72 KCAL/MOL
REMARK 924 INTRA-LIGAND FREE ENERGY PREDICTED BY IDOCK:   -0.48 KCAL/MOL
REMARK 927      BINDING AFFINITY PREDICTED BY RF-SCORE:    0.00 PKD
ROOT
HETATM    1  C   UNL     1      -9.151   5.866  65.266  1.00  0.00     0.130 C  
HETATM    2  O   UNL     1      -8.680   6.963  66.043  1.00  0.00    -0.141 OA 
ENDROOT
BRANCH   2   3
HETATM    3  C   UNL     1      -8.994   6.965  67.381  1.00  0.00    -0.116 A  
HETATM    4  C   UNL     1      -9.963   7.744  68.016  1.00  0.00    -0.175 A  
HETATM    5  C   UNL     1      -8.343   5.927  69.549  1.00  0.00    -0.114 A  
HETATM    6  C   UNL     1     -10.218   7.479  69.367  1.00  0.00    -0.204 A  
HETATM    7  C   UNL     1      -9.398   6.649  70.139  1.00  0.00    -0.158 A  
HETATM    8  C   UNL     1      -8.227   6.059  68.145  1.00  0.00    -0.113 A  
BRANCH   4   9
HETATM    9  N   UNL     1     -10.668   8.773  67.367  1.00  0.00    -0.442 NA 
HETATM   10  H   UNL     1     -11.678   8.798  67.506  1.00  0.00     0.000 HD 
BRANCH   9  11
HETATM   11  C   UNL     1     -10.118   9.765  66.550  1.00  0.00    -0.239 A  
HETATM   12  N   UNL     1      -9.967   9.454  65.258  1.00  0.00    -0.041 NA 
HETATM   13  N   UNL     1      -9.810  10.969  67.066  1.00  0.00    -0.179 NA 
HETATM   14  C   UNL     1      -9.446  11.955  66.232  1.00  0.00    -0.227 A  
HETATM   15  C   UNL     1      -9.308  11.730  64.879  1.00  0.00     0.036 A  
HETATM   16  C   UNL     1      -9.562  10.446  64.451  1.00  0.00    -0.316 A  
BRANCH  14  17
HETATM   17  C   UNL     1      -9.226  13.272  66.842  1.00  0.00    -0.242 A  
HETATM   18  C   UNL     1      -7.473  15.946  68.600  1.00  0.00    -0.158 A  
HETATM   19  C   UNL     1     -10.166  14.292  66.810  1.00  0.00    -0.272 A  
HETATM   20  C   UNL     1      -6.249  15.398  68.989  1.00  0.00    -0.105 A  
HETATM   21  C   UNL     1      -5.946  14.072  68.710  1.00  0.00    -0.085 A  
HETATM   22  N   UNL     1      -9.655  15.384  67.458  1.00  0.00    -0.206 NA 
HETATM   23  C   UNL     1      -8.387  15.124  67.916  1.00  0.00    -0.149 A  
HETATM   24  C   UNL     1     -10.358  16.634  67.649  1.00  0.00    -0.305 C  
HETATM   25  C   UNL     1      -8.098  13.791  67.588  1.00  0.00    -0.181 A  
HETATM   26  C   UNL     1      -6.852  13.267  68.004  1.00  0.00    -0.122 A  
ENDBRANCH  14  17
ENDBRANCH   9  11
ENDBRANCH   4   9
BRANCH   7  27
HETATM   27  N   UNL     1      -9.535   6.727  71.540  1.00  0.00    -0.157 N  
HETATM   28  O   UNL     1     -11.827   6.390  71.704  1.00  0.00    -0.310 OA 
HETATM   29  H   UNL     1      -8.689   6.838  72.098  1.00  0.00     0.000 HD 
HETATM   30  C   UNL     1     -10.741   6.662  72.202  1.00  0.00    -0.218 C  
BRANCH  30  31
HETATM   31  C   UNL     1     -10.589   6.874  73.666  1.00  0.00    -0.371 C  
HETATM   32  C   UNL     1      -9.385   7.150  74.181  1.00  0.00    -0.282 C  
ENDBRANCH  30  31
ENDBRANCH   7  27
BRANCH   5  33
HETATM   33  N   UNL     1      -7.455   5.133  70.276  1.00  0.00    -0.065 NA 
HETATM   34  C   UNL     1      -7.892   4.206  71.315  1.00  0.00    -0.071 C  
BRANCH  33  35
HETATM   35  C   UNL     1      -6.026   5.077  69.921  1.00  0.00    -0.021 C  
BRANCH  35  36
HETATM   36  C   UNL     1      -5.610   3.645  69.512  1.00  0.00    -0.017 C  
BRANCH  36  37
HETATM   37  N   UNL     1      -6.442   3.015  68.465  1.00  0.00    -0.029 NA 
HETATM   38  C   UNL     1      -6.593   1.589  68.779  1.00  0.00    -0.029 C  
HETATM   39  C   UNL     1      -5.839   3.159  67.137  1.00  0.00    -0.023 C  
ENDBRANCH  36  37
ENDBRANCH  35  36
ENDBRANCH  33  35
ENDBRANCH   5  33
ENDBRANCH   2   3
TORSDOF 10
ENDMDL
MODEL      279
REMARK 921   NORMALIZED FREE ENERGY PREDICTED BY IDOCK:   -2.54 KCAL/MOL
REMARK 922        TOTAL FREE ENERGY PREDICTED BY IDOCK:   -5.74 KCAL/MOL
REMARK 923 INTER-LIGAND FREE ENERGY PREDICTED BY IDOCK:   -6.83 KCAL/MOL
REMARK 924 INTRA-LIGAND FREE ENERGY PREDICTED BY IDOCK:    1.08 KCAL/MOL
REMARK 927      BINDING AFFINITY PREDICTED BY RF-SCORE:    0.00 PKD
ROOT
HETATM    1  C   UNL     1     -11.190   7.417  67.103  1.00  0.00     0.269 C  
HETATM    2  O   UNL     1     -10.452   8.519  66.586  1.00  0.00    -0.289 OA 
ENDROOT
BRANCH   2   3
HETATM    3  C   UNL     1     -10.622   9.734  67.204  1.00  0.00    -0.229 A  
HETATM    4  C   UNL     1     -10.333  10.993  66.675  1.00  0.00    -0.240 A  
HETATM    5  C   UNL     1     -11.363  10.755  69.351  1.00  0.00    -0.285 A  
HETATM    6  C   UNL     1     -10.722  12.111  67.425  1.00  0.00    -0.268 A  
HETATM    7  C   UNL     1     -11.162  12.011  68.750  1.00  0.00    -0.263 A  
HETATM    8  C   UNL     1     -11.152   9.637  68.509  1.00  0.00    -0.091 A  
BRANCH   4   9
HETATM    9  N   UNL     1      -9.669  11.180  65.450  1.00  0.00    -0.220 NA 
HETATM   10  H   UNL     1      -9.384  12.131  65.220  1.00  0.00     0.000 HD 
BRANCH   9  11
HETATM   11  C   UNL     1      -9.363  10.185  64.516  1.00  0.00    -0.289 A  
HETATM   12  N   UNL     1      -9.528  10.509  63.229  1.00  0.00    -0.298 NA 
HETATM   13  N   UNL     1      -8.889   8.996  64.930  1.00  0.00    -0.179 NA 
HETATM   14  C   UNL     1      -8.443   8.124  64.013  1.00  0.00     0.095 A  
HETATM   15  C   UNL     1      -8.535   8.397  62.664  1.00  0.00    -0.101 A  
HETATM   16  C   UNL     1      -9.110   9.603  62.331  1.00  0.00    -0.271 A  
BRANCH  14  17
HETATM   17  C   UNL     1      -7.842   6.889  64.531  1.00  0.00    -0.115 A  
HETATM   18  C   UNL     1      -5.811   4.744  66.674  1.00  0.00    -0.022 A  
HETATM   19  C   UNL     1      -8.129   5.631  64.022  1.00  0.00    -0.123 A  
HETATM   20  C   UNL     1      -5.127   5.611  67.529  1.00  0.00    -0.004 A  
HETATM   21  C   UNL     1      -5.283   6.986  67.418  1.00  0.00    -0.012 A  
HETATM   22  N   UNL     1      -7.415   4.697  64.723  1.00  0.00    -0.071 NA 
HETATM   23  C   UNL     1      -6.663   5.299  65.702  1.00  0.00    -0.052 A  
HETATM   24  C   UNL     1      -7.437   3.275  64.461  1.00  0.00    -0.075 C  
HETATM   25  C   UNL     1      -6.870   6.682  65.585  1.00  0.00    -0.048 A  
HETATM   26  C   UNL     1      -6.155   7.529  66.462  1.00  0.00    -0.044 A  
ENDBRANCH  14  17
ENDBRANCH   9  11
ENDBRANCH   4   9
BRANCH   7  27
HETATM   27  N   UNL     1     -11.191  13.198  69.511  1.00  0.00    -0.453 N  
HETATM   28  O   UNL     1     -12.138  14.620  67.938  1.00  0.00    -0.304 OA 
HETATM   29  H   UNL     1     -10.885  13.151  70.483  1.00  0.00     0.000 HD 
HETATM   30  C   UNL     1     -11.609  14.417  69.025  1.00  0.00    -0.296 C  
BRANCH  30  31
HETATM   31  C   UNL     1     -11.435  15.507  70.021  1.00  0.00    -0.344 C  
HETATM   32  C   UNL     1     -10.743  16.606  69.697  1.00  0.00    -0.286 C  
ENDBRANCH  30  31
ENDBRANCH   7  27
BRANCH   5  33
HETATM   33  N   UNL     1     -11.740  10.593  70.684  1.00  0.00    -0.342 NA 
HETATM   34  C   UNL     1     -12.954  11.184  71.240  1.00  0.00    -0.357 C  
BRANCH  33  35
HETATM   35  C   UNL     1     -11.003   9.678  71.573  1.00  0.00    -0.196 C  
BRANCH  35  36
HETATM   36  C   UNL     1     -11.807   8.382  71.830  1.00  0.00    -0.336 C  
BRANCH  36  37
HETATM   37  N   UNL     1     -11.103   7.123  71.506  1.00  0.00    -0.236 NA 
HETATM   38  C   UNL     1     -11.608   6.063  72.387  1.00  0.00    -0.300 C  
HETATM   39  C   UNL     1      -9.654   7.253  71.685  1.00  0.00    -0.151 C  
ENDBRANCH  36  37
ENDBRANCH  35  36
ENDBRANCH  33  35
ENDBRANCH   5  33
ENDBRANCH   2   3
TORSDOF 10
ENDMDL
MODEL      280
REMARK 921   NORMALIZED FREE ENERGY PREDICTED BY IDOCK:   -2.31 KCAL/MOL
REMARK 922        TOTAL FREE ENERGY PREDICTED BY IDOCK:   -5.38 KCAL/MOL
REMARK 923 INTER-LIGAND FREE ENERGY PREDICTED BY IDOCK:   -5.34 KCAL/MOL
REMARK 924 INTRA-LIGAND FREE ENERGY PREDICTED BY IDOCK:   -0.04 KCAL/MOL
REMARK 927      BINDING AFFINITY PREDICTED BY RF-SCORE:    0.00 PKD
ROOT
HETATM    1  C   UNL     1      -7.674   6.586  66.451  1.00  0.00    -0.099 C  
HETATM    2  O   UNL     1      -7.135   7.172  67.632  1.00  0.00    -0.083 OA 
ENDROOT
BRANCH   2   3
HETATM    3  C   UNL     1      -7.123   8.544  67.701  1.00  0.00    -0.080 A  
HETATM    4  C   UNL     1      -6.563   9.330  68.711  1.00  0.00    -0.052 A  
HETATM    5  C   UNL     1      -7.905  10.576  66.493  1.00  0.00    -0.134 A  
HETATM    6  C   UNL     1      -6.535  10.715  68.508  1.00  0.00    -0.054 A  
HETATM    7  C   UNL     1      -7.239  11.338  67.471  1.00  0.00    -0.100 A  
HETATM    8  C   UNL     1      -7.754   9.174  66.607  1.00  0.00    -0.097 A  
BRANCH   4   9
HETATM    9  N   UNL     1      -6.047   8.795  69.905  1.00  0.00    -0.034 NA 
HETATM   10  H   UNL     1      -5.044   8.894  70.059  1.00  0.00     0.000 HD 
BRANCH   9  11
HETATM   11  C   UNL     1      -6.778   8.140  70.900  1.00  0.00    -0.038 A  
HETATM   12  N   UNL     1      -7.159   8.885  71.944  1.00  0.00    -0.290 NA 
HETATM   13  N   UNL     1      -7.098   6.841  70.758  1.00  0.00    -0.067 NA 
HETATM   14  C   UNL     1      -7.942   6.283  71.639  1.00  0.00    -0.102 A  
HETATM   15  C   UNL     1      -8.417   6.994  72.720  1.00  0.00    -0.129 A  
HETATM   16  C   UNL     1      -7.970   8.292  72.833  1.00  0.00    -0.141 A  
BRANCH  14  17
HETATM   17  C   UNL     1      -8.335   4.895  71.369  1.00  0.00    -0.116 A  
HETATM   18  C   UNL     1     -10.081   1.719  71.794  1.00  0.00    -0.195 A  
HETATM   19  C   UNL     1      -7.858   4.165  70.290  1.00  0.00    -0.051 A  
HETATM   20  C   UNL     1     -10.828   1.858  72.967  1.00  0.00    -0.247 A  
HETATM   21  C   UNL     1     -10.767   3.028  73.712  1.00  0.00    -0.287 A  
HETATM   22  N   UNL     1      -8.418   2.917  70.318  1.00  0.00    -0.051 NA 
HETATM   23  C   UNL     1      -9.271   2.794  71.387  1.00  0.00    -0.119 A  
HETATM   24  C   UNL     1      -8.138   1.865  69.365  1.00  0.00    -0.044 C  
HETATM   25  C   UNL     1      -9.213   4.003  72.099  1.00  0.00    -0.168 A  
HETATM   26  C   UNL     1      -9.976   4.104  73.284  1.00  0.00    -0.185 A  
ENDBRANCH  14  17
ENDBRANCH   9  11
ENDBRANCH   4   9
BRANCH   7  27
HETATM   27  N   UNL     1      -7.427  12.733  67.564  1.00  0.00    -0.145 N  
HETATM   28  O   UNL     1      -6.468  13.094  69.648  1.00  0.00    -0.111 OA 
HETATM   29  H   UNL     1      -7.836  13.214  66.763  1.00  0.00     0.000 HD 
HETATM   30  C   UNL     1      -7.092  13.484  68.668  1.00  0.00    -0.106 C  
BRANCH  30  31
HETATM   31  C   UNL     1      -7.498  14.907  68.521  1.00  0.00    -0.118 C  
HETATM   32  C   UNL     1      -7.326  15.535  67.351  1.00  0.00    -0.241 C  
ENDBRANCH  30  31
ENDBRANCH   7  27
BRANCH   5  33
HETATM   33  N   UNL     1      -8.673  11.139  65.473  1.00  0.00    -0.144 NA 
HETATM   34  C   UNL     1      -8.542  10.743  64.074  1.00  0.00    -0.028 C  
BRANCH  33  35
HETATM   35  C   UNL     1      -9.778  12.065  65.781  1.00  0.00    -0.235 C  
BRANCH  35  36
HETATM   36  C   UNL     1     -10.566  12.436  64.503  1.00  0.00    -0.322 C  
BRANCH  36  37
HETATM   37  N   UNL     1     -12.034  12.514  64.662  1.00  0.00    -0.382 NA 
HETATM   38  C   UNL     1     -12.602  13.160  63.473  1.00  0.00    -0.125 C  
HETATM   39  C   UNL     1     -12.408  13.278  65.856  1.00  0.00    -0.418 C  
ENDBRANCH  36  37
ENDBRANCH  35  36
ENDBRANCH  33  35
ENDBRANCH   5  33
ENDBRANCH   2   3
TORSDOF 10
ENDMDL
MODEL      281
REMARK 921   NORMALIZED FREE ENERGY PREDICTED BY IDOCK:   -2.27 KCAL/MOL
REMARK 922        TOTAL FREE ENERGY PREDICTED BY IDOCK:   -5.32 KCAL/MOL
REMARK 923 INTER-LIGAND FREE ENERGY PREDICTED BY IDOCK:   -4.68 KCAL/MOL
REMARK 924 INTRA-LIGAND FREE ENERGY PREDICTED BY IDOCK:   -0.64 KCAL/MOL
REMARK 927      BINDING AFFINITY PREDICTED BY RF-SCORE:    0.00 PKD
ROOT
HETATM    1  C   UNL     1     -10.866  20.142  65.594  1.00  0.00    -0.045 C  
HETATM    2  O   UNL     1     -10.978  18.799  65.137  1.00  0.00    -0.514 OA 
ENDROOT
BRANCH   2   3
HETATM    3  C   UNL     1     -10.278  17.840  65.830  1.00  0.00    -0.136 A  
HETATM    4  C   UNL     1     -10.233  16.471  65.557  1.00  0.00    -0.234 A  
HETATM    5  C   UNL     1      -8.786  17.541  67.801  1.00  0.00    -0.241 A  
HETATM    6  C   UNL     1      -9.337  15.695  66.302  1.00  0.00    -0.358 A  
HETATM    7  C   UNL     1      -8.678  16.187  67.435  1.00  0.00    -0.180 A  
HETATM    8  C   UNL     1      -9.540  18.351  66.919  1.00  0.00    -0.305 A  
BRANCH   4   9
HETATM    9  N   UNL     1     -11.046  15.852  64.590  1.00  0.00    -0.753 NA 
HETATM   10  H   UNL     1     -11.514  16.463  63.922  1.00  0.00     0.000 HD 
BRANCH   9  11
HETATM   11  C   UNL     1     -11.274  14.479  64.460  1.00  0.00    -0.294 A  
HETATM   12  N   UNL     1     -12.183  14.112  63.550  1.00  0.00    -0.614 NA 
HETATM   13  N   UNL     1     -10.566  13.605  65.198  1.00  0.00    -0.340 NA 
HETATM   14  C   UNL     1     -10.681  12.295  64.933  1.00  0.00    -0.297 A  
HETATM   15  C   UNL     1     -11.562  11.834  63.979  1.00  0.00    -0.428 A  
HETATM   16  C   UNL     1     -12.307  12.794  63.332  1.00  0.00    -0.437 A  
BRANCH  14  17
HETATM   17  C   UNL     1      -9.804  11.400  65.700  1.00  0.00    -0.274 A  
HETATM   18  C   UNL     1      -6.851   9.416  66.507  1.00  0.00    -0.083 A  
HETATM   19  C   UNL     1     -10.130  10.911  66.957  1.00  0.00    -0.205 A  
HETATM   20  C   UNL     1      -6.022   9.506  65.386  1.00  0.00    -0.064 A  
HETATM   21  C   UNL     1      -6.423  10.221  64.265  1.00  0.00    -0.083 A  
HETATM   22  N   UNL     1      -9.107  10.116  67.400  1.00  0.00    -0.137 NA 
HETATM   23  C   UNL     1      -8.095  10.070  66.473  1.00  0.00    -0.119 A  
HETATM   24  C   UNL     1      -9.099   9.410  68.663  1.00  0.00    -0.132 C  
HETATM   25  C   UNL     1      -8.515  10.829  65.370  1.00  0.00    -0.132 A  
HETATM   26  C   UNL     1      -7.655  10.891  64.250  1.00  0.00     0.480 A  
ENDBRANCH  14  17
ENDBRANCH   9  11
ENDBRANCH   4   9
BRANCH   7  27
HETATM   27  N   UNL     1      -8.085  15.242  68.298  1.00  0.00    -0.134 N  
HETATM   28  O   UNL     1      -6.699  14.171  66.774  1.00  0.00     0.449 OA 
HETATM   29  H   UNL     1      -8.326  15.282  69.288  1.00  0.00     0.000 HD 
HETATM   30  C   UNL     1      -7.201  14.270  67.887  1.00  0.00    -0.158 C  
BRANCH  30  31
HETATM   31  C   UNL     1      -6.820  13.355  68.995  1.00  0.00    -0.103 C  
HETATM   32  C   UNL     1      -6.784  13.806  70.255  1.00  0.00     0.252 C  
ENDBRANCH  30  31
ENDBRANCH   7  27
BRANCH   5  33
HETATM   33  N   UNL     1      -8.204  18.075  68.952  1.00  0.00    -0.205 NA 
HETATM   34  C   UNL     1      -8.975  18.407  70.146  1.00  0.00     2.224 C  
BRANCH  33  35
HETATM   35  C   UNL     1      -6.740  18.188  69.076  1.00  0.00    -0.254 C  
BRANCH  35  36
HETATM   36  C   UNL     1      -6.084  18.459  67.702  1.00  0.00    -0.176 C  
BRANCH  36  37
HETATM   37  N   UNL     1      -5.569  19.831  67.504  1.00  0.00    -0.171 NA 
HETATM   38  C   UNL     1      -6.224  20.722  68.469  1.00  0.00    -0.302 C  
HETATM   39  C   UNL     1      -5.827  20.313  66.144  1.00  0.00    -0.177 C  
ENDBRANCH  36  37
ENDBRANCH  35  36
ENDBRANCH  33  35
ENDBRANCH   5  33
ENDBRANCH   2   3
TORSDOF 10
ENDMDL
MODEL      282
REMARK 921   NORMALIZED FREE ENERGY PREDICTED BY IDOCK:   -2.22 KCAL/MOL
REMARK 922        TOTAL FREE ENERGY PREDICTED BY IDOCK:   -5.24 KCAL/MOL
REMARK 923 INTER-LIGAND FREE ENERGY PREDICTED BY IDOCK:   -4.18 KCAL/MOL
REMARK 924 INTRA-LIGAND FREE ENERGY PREDICTED BY IDOCK:   -1.06 KCAL/MOL
REMARK 927      BINDING AFFINITY PREDICTED BY RF-SCORE:    0.00 PKD
ROOT
HETATM    1  C   UNL     1      -8.919   5.863  68.222  1.00  0.00    -0.112 C  
HETATM    2  O   UNL     1      -7.725   6.391  67.653  1.00  0.00    -0.099 OA 
ENDROOT
BRANCH   2   3
HETATM    3  C   UNL     1      -7.611   7.759  67.592  1.00  0.00    -0.113 A  
HETATM    4  C   UNL     1      -6.629   8.549  68.194  1.00  0.00    -0.061 A  
HETATM    5  C   UNL     1      -8.727   9.780  66.658  1.00  0.00    -0.131 A  
HETATM    6  C   UNL     1      -6.617   9.913  67.878  1.00  0.00    -0.064 A  
HETATM    7  C   UNL     1      -7.665  10.535  67.189  1.00  0.00    -0.101 A  
HETATM    8  C   UNL     1      -8.617   8.378  66.819  1.00  0.00    -0.123 A  
BRANCH   4   9
HETATM    9  N   UNL     1      -5.679   8.040  69.097  1.00  0.00    -0.033 NA 
HETATM   10  H   UNL     1      -4.724   7.942  68.755  1.00  0.00     0.000 HD 
BRANCH   9  11
HETATM   11  C   UNL     1      -5.920   7.654  70.419  1.00  0.00    -0.030 A  
HETATM   12  N   UNL     1      -5.177   8.253  71.357  1.00  0.00    -0.033 NA 
HETATM   13  N   UNL     1      -6.885   6.758  70.695  1.00  0.00    -0.057 NA 
HETATM   14  C   UNL     1      -7.211   6.534  71.977  1.00  0.00    -0.086 A  
HETATM   15  C   UNL     1      -6.525   7.144  73.005  1.00  0.00    -0.064 A  
HETATM   16  C   UNL     1      -5.497   7.982  72.631  1.00  0.00    -0.037 A  
BRANCH  14  17
HETATM   17  C   UNL     1      -8.341   5.626  72.209  1.00  0.00    -0.119 A  
HETATM   18  C   UNL     1     -10.198   2.488  72.348  1.00  0.00    -0.218 A  
HETATM   19  C   UNL     1      -9.559   6.043  72.724  1.00  0.00    -0.155 A  
HETATM   20  C   UNL     1      -9.341   1.522  71.816  1.00  0.00    -0.155 A  
HETATM   21  C   UNL     1      -8.083   1.874  71.344  1.00  0.00    -0.051 A  
HETATM   22  N   UNL     1     -10.391   4.961  72.823  1.00  0.00    -0.182 NA 
HETATM   23  C   UNL     1      -9.755   3.822  72.396  1.00  0.00    -0.151 A  
HETATM   24  C   UNL     1     -11.757   5.012  73.298  1.00  0.00    -0.048 C  
HETATM   25  C   UNL     1      -8.478   4.205  71.959  1.00  0.00    -0.111 A  
HETATM   26  C   UNL     1      -7.640   3.203  71.420  1.00  0.00    -0.044 A  
ENDBRANCH  14  17
ENDBRANCH   9  11
ENDBRANCH   4   9
BRANCH   7  27
HETATM   27  N   UNL     1      -7.719  11.944  67.231  1.00  0.00    -0.156 N  
HETATM   28  O   UNL     1      -6.335  12.310  69.059  1.00  0.00    -0.074 OA 
HETATM   29  H   UNL     1      -8.242  12.424  66.499  1.00  0.00     0.000 HD 
HETATM   30  C   UNL     1      -7.111  12.711  68.199  1.00  0.00    -0.102 C  
BRANCH  30  31
HETATM   31  C   UNL     1      -7.424  14.156  68.047  1.00  0.00    -0.141 C  
HETATM   32  C   UNL     1      -8.166  14.782  68.970  1.00  0.00    -0.141 C  
ENDBRANCH  30  31
ENDBRANCH   7  27
BRANCH   5  33
HETATM   33  N   UNL     1      -9.828  10.349  66.017  1.00  0.00    -0.219 NA 
HETATM   34  C   UNL     1     -10.060  10.220  64.582  1.00  0.00    -0.247 C  
BRANCH  33  35
HETATM   35  C   UNL     1     -10.908  10.988  66.790  1.00  0.00    -0.251 C  
BRANCH  35  36
HETATM   36  C   UNL     1     -11.396  10.064  67.931  1.00  0.00     0.051 C  
BRANCH  36  37
HETATM   37  N   UNL     1     -11.085  10.527  69.300  1.00  0.00    -0.230 NA 
HETATM   38  C   UNL     1     -10.773  11.961  69.252  1.00  0.00    -0.045 C  
HETATM   39  C   UNL     1      -9.946   9.801  69.870  1.00  0.00    -0.245 C  
ENDBRANCH  36  37
ENDBRANCH  35  36
ENDBRANCH  33  35
ENDBRANCH   5  33
ENDBRANCH   2   3
TORSDOF 10
ENDMDL
MODEL      283
REMARK 921   NORMALIZED FREE ENERGY PREDICTED BY IDOCK:   -2.22 KCAL/MOL
REMARK 922        TOTAL FREE ENERGY PREDICTED BY IDOCK:   -5.23 KCAL/MOL
REMARK 923 INTER-LIGAND FREE ENERGY PREDICTED BY IDOCK:   -5.01 KCAL/MOL
REMARK 924 INTRA-LIGAND FREE ENERGY PREDICTED BY IDOCK:   -0.22 KCAL/MOL
REMARK 927      BINDING AFFINITY PREDICTED BY RF-SCORE:    0.00 PKD
ROOT
HETATM    1  C   UNL     1     -11.775  18.158  67.926  1.00  0.00     1.755 C  
HETATM    2  O   UNL     1     -11.775  16.784  67.550  1.00  0.00     0.404 OA 
ENDROOT
BRANCH   2   3
HETATM    3  C   UNL     1     -10.573  16.121  67.596  1.00  0.00    -0.315 A  
HETATM    4  C   UNL     1     -10.288  14.861  67.065  1.00  0.00    -0.264 A  
HETATM    5  C   UNL     1      -8.249  16.330  68.465  1.00  0.00    -0.195 A  
HETATM    6  C   UNL     1      -8.954  14.437  67.096  1.00  0.00    -0.245 A  
HETATM    7  C   UNL     1      -7.968  15.108  67.828  1.00  0.00    -0.143 A  
HETATM    8  C   UNL     1      -9.553  16.839  68.256  1.00  0.00    -0.244 A  
BRANCH   4   9
HETATM    9  N   UNL     1     -11.271  14.013  66.524  1.00  0.00    -0.314 NA 
HETATM   10  H   UNL     1     -12.240  14.221  66.762  1.00  0.00     0.000 HD 
BRANCH   9  11
HETATM   11  C   UNL     1     -11.046  12.912  65.693  1.00  0.00    -0.279 A  
HETATM   12  N   UNL     1     -11.156  13.129  64.377  1.00  0.00    -0.362 NA 
HETATM   13  N   UNL     1     -10.696  11.727  66.224  1.00  0.00    -0.260 NA 
HETATM   14  C   UNL     1     -10.320  10.736  65.401  1.00  0.00    -0.247 A  
HETATM   15  C   UNL     1     -10.362  10.891  64.032  1.00  0.00    -0.417 A  
HETATM   16  C   UNL     1     -10.812  12.109  63.576  1.00  0.00    -0.458 A  
BRANCH  14  17
HETATM   17  C   UNL     1      -9.850   9.503  66.045  1.00  0.00    -0.353 A  
HETATM   18  C   UNL     1      -7.958   6.414  66.485  1.00  0.00    -0.109 A  
HETATM   19  C   UNL     1     -10.259   9.101  67.309  1.00  0.00    -0.254 A  
HETATM   20  C   UNL     1      -7.253   6.235  65.293  1.00  0.00    -0.070 A  
HETATM   21  C   UNL     1      -7.395   7.134  64.244  1.00  0.00    -0.086 A  
HETATM   22  N   UNL     1      -9.638   7.922  67.619  1.00  0.00    -0.147 NA 
HETATM   23  C   UNL     1      -8.810   7.527  66.597  1.00  0.00    -0.146 A  
HETATM   24  C   UNL     1      -9.836   7.184  68.848  1.00  0.00    -0.156 C  
HETATM   25  C   UNL     1      -8.950   8.473  65.569  1.00  0.00    -0.182 A  
HETATM   26  C   UNL     1      -8.227   8.255  64.375  1.00  0.00    -0.130 A  
ENDBRANCH  14  17
ENDBRANCH   9  11
ENDBRANCH   4   9
BRANCH   7  27
HETATM   27  N   UNL     1      -6.763  14.416  68.074  1.00  0.00    -0.130 N  
HETATM   28  O   UNL     1      -7.325  12.361  67.152  1.00  0.00    -0.139 OA 
HETATM   29  H   UNL     1      -5.992  14.935  68.494  1.00  0.00     0.000 HD 
HETATM   30  C   UNL     1      -6.563  13.086  67.782  1.00  0.00    -0.146 C  
BRANCH  30  31
HETATM   31  C   UNL     1      -5.235  12.604  68.243  1.00  0.00    -0.065 C  
HETATM   32  C   UNL     1      -5.153  11.735  69.258  1.00  0.00    -0.052 C  
ENDBRANCH  30  31
ENDBRANCH   7  27
BRANCH   5  33
HETATM   33  N   UNL     1      -7.327  17.013  69.259  1.00  0.00    -0.181 NA 
HETATM   34  C   UNL     1      -6.416  16.333  70.175  1.00  0.00     0.140 C  
BRANCH  33  35
HETATM   35  C   UNL     1      -7.116  18.463  69.097  1.00  0.00    -0.200 C  
BRANCH  35  36
HETATM   36  C   UNL     1      -6.049  18.753  68.017  1.00  0.00    -0.196 C  
BRANCH  36  37
HETATM   37  N   UNL     1      -5.402  20.080  68.103  1.00  0.00    -0.188 NA 
HETATM   38  C   UNL     1      -5.426  20.524  69.502  1.00  0.00    -0.337 C  
HETATM   39  C   UNL     1      -6.088  21.070  67.268  1.00  0.00    -0.302 C  
ENDBRANCH  36  37
ENDBRANCH  35  36
ENDBRANCH  33  35
ENDBRANCH   5  33
ENDBRANCH   2   3
TORSDOF 10
ENDMDL
MODEL      284
REMARK 921   NORMALIZED FREE ENERGY PREDICTED BY IDOCK:   -2.07 KCAL/MOL
REMARK 922        TOTAL FREE ENERGY PREDICTED BY IDOCK:   -4.99 KCAL/MOL
REMARK 923 INTER-LIGAND FREE ENERGY PREDICTED BY IDOCK:   -4.85 KCAL/MOL
REMARK 924 INTRA-LIGAND FREE ENERGY PREDICTED BY IDOCK:   -0.15 KCAL/MOL
REMARK 927      BINDING AFFINITY PREDICTED BY RF-SCORE:    0.00 PKD
ROOT
HETATM    1  C   UNL     1      -8.712   9.742  66.379  1.00  0.00    -0.131 C  
HETATM    2  O   UNL     1      -9.095  11.098  66.586  1.00  0.00    -0.162 OA 
ENDROOT
BRANCH   2   3
HETATM    3  C   UNL     1      -8.195  11.913  67.229  1.00  0.00    -0.170 A  
HETATM    4  C   UNL     1      -7.217  11.526  68.147  1.00  0.00    -0.080 A  
HETATM    5  C   UNL     1      -7.526  14.301  67.456  1.00  0.00    -0.182 A  
HETATM    6  C   UNL     1      -6.307  12.503  68.570  1.00  0.00    -0.069 A  
HETATM    7  C   UNL     1      -6.484  13.864  68.295  1.00  0.00    -0.111 A  
HETATM    8  C   UNL     1      -8.314  13.276  66.881  1.00  0.00    -0.018 A  
BRANCH   4   9
HETATM    9  N   UNL     1      -7.120  10.221  68.664  1.00  0.00    -0.073 NA 
HETATM   10  H   UNL     1      -6.322   9.664  68.361  1.00  0.00     0.000 HD 
BRANCH   9  11
HETATM   11  C   UNL     1      -8.014   9.616  69.553  1.00  0.00    -0.125 A  
HETATM   12  N   UNL     1      -9.198  10.219  69.706  1.00  0.00    -0.140 NA 
HETATM   13  N   UNL     1      -7.679   8.467  70.167  1.00  0.00    -0.083 NA 
HETATM   14  C   UNL     1      -8.613   7.819  70.879  1.00  0.00    -0.128 A  
HETATM   15  C   UNL     1      -9.874   8.349  71.051  1.00  0.00    -0.232 A  
HETATM   16  C   UNL     1     -10.102   9.570  70.456  1.00  0.00    -0.285 A  
BRANCH  14  17
HETATM   17  C   UNL     1      -8.217   6.520  71.437  1.00  0.00    -0.120 A  
HETATM   18  C   UNL     1      -8.122   2.897  71.861  1.00  0.00    -0.058 A  
HETATM   19  C   UNL     1      -7.263   6.379  72.433  1.00  0.00    -0.083 A  
HETATM   20  C   UNL     1      -9.085   2.393  70.985  1.00  0.00    -0.174 A  
HETATM   21  C   UNL     1      -9.857   3.249  70.211  1.00  0.00     0.035 A  
HETATM   22  N   UNL     1      -7.121   5.050  72.724  1.00  0.00    -0.081 NA 
HETATM   23  C   UNL     1      -7.951   4.291  71.937  1.00  0.00    -0.088 A  
HETATM   24  C   UNL     1      -6.231   4.516  73.733  1.00  0.00    -0.045 C  
HETATM   25  C   UNL     1      -8.690   5.183  71.144  1.00  0.00    -0.139 A  
HETATM   26  C   UNL     1      -9.662   4.637  70.274  1.00  0.00    -0.295 A  
ENDBRANCH  14  17
ENDBRANCH   9  11
ENDBRANCH   4   9
BRANCH   7  27
HETATM   27  N   UNL     1      -5.720  14.780  69.048  1.00  0.00    -0.091 N  
HETATM   28  O   UNL     1      -7.068  14.919  70.933  1.00  0.00     0.482 OA 
HETATM   29  H   UNL     1      -4.826  15.086  68.664  1.00  0.00     0.000 HD 
HETATM   30  C   UNL     1      -6.106  15.285  70.269  1.00  0.00    -0.111 C  
BRANCH  30  31
HETATM   31  C   UNL     1      -5.152  16.305  70.780  1.00  0.00    -0.195 C  
HETATM   32  C   UNL     1      -5.453  17.607  70.693  1.00  0.00    -0.203 C  
ENDBRANCH  30  31
ENDBRANCH   7  27
BRANCH   5  33
HETATM   33  N   UNL     1      -7.789  15.646  67.195  1.00  0.00    -0.198 NA 
HETATM   34  C   UNL     1      -6.822  16.530  66.552  1.00  0.00    -0.007 C  
BRANCH  33  35
HETATM   35  C   UNL     1      -9.131  16.212  67.420  1.00  0.00    -0.195 C  
BRANCH  35  36
HETATM   36  C   UNL     1      -9.085  17.361  68.454  1.00  0.00    -0.274 C  
BRANCH  36  37
HETATM   37  N   UNL     1     -10.164  18.365  68.336  1.00  0.00    -0.384 NA 
HETATM   38  C   UNL     1     -10.722  18.298  66.980  1.00  0.00    -0.276 C  
HETATM   39  C   UNL     1      -9.671  19.721  68.593  1.00  0.00    -0.357 C  
ENDBRANCH  36  37
ENDBRANCH  35  36
ENDBRANCH  33  35
ENDBRANCH   5  33
ENDBRANCH   2   3
TORSDOF 10
ENDMDL
MODEL      285
REMARK 921   NORMALIZED FREE ENERGY PREDICTED BY IDOCK:   -2.01 KCAL/MOL
REMARK 922        TOTAL FREE ENERGY PREDICTED BY IDOCK:   -4.89 KCAL/MOL
REMARK 923 INTER-LIGAND FREE ENERGY PREDICTED BY IDOCK:   -3.75 KCAL/MOL
REMARK 924 INTRA-LIGAND FREE ENERGY PREDICTED BY IDOCK:   -1.15 KCAL/MOL
REMARK 927      BINDING AFFINITY PREDICTED BY RF-SCORE:    0.00 PKD
ROOT
HETATM    1  C   UNL     1      -6.212  16.289  67.407  1.00  0.00    -0.172 C  
HETATM    2  O   UNL     1      -6.215  14.894  67.691  1.00  0.00    -0.212 OA 
ENDROOT
BRANCH   2   3
HETATM    3  C   UNL     1      -7.353  14.371  68.256  1.00  0.00    -0.122 A  
HETATM    4  C   UNL     1      -7.520  13.085  68.772  1.00  0.00    -0.049 A  
HETATM    5  C   UNL     1      -9.719  14.941  68.789  1.00  0.00    -0.225 A  
HETATM    6  C   UNL     1      -8.722  12.809  69.436  1.00  0.00     1.252 A  
HETATM    7  C   UNL     1      -9.820  13.675  69.395  1.00  0.00     0.611 A  
HETATM    8  C   UNL     1      -8.435  15.277  68.297  1.00  0.00    -0.154 A  
BRANCH   4   9
HETATM    9  N   UNL     1      -6.554  12.072  68.642  1.00  0.00    -0.069 NA 
HETATM   10  H   UNL     1      -5.917  12.141  67.849  1.00  0.00     0.000 HD 
BRANCH   9  11
HETATM   11  C   UNL     1      -6.382  10.979  69.497  1.00  0.00    -0.095 A  
HETATM   12  N   UNL     1      -5.409  11.085  70.409  1.00  0.00    -0.081 NA 
HETATM   13  N   UNL     1      -7.201   9.915  69.404  1.00  0.00    -0.073 NA 
HETATM   14  C   UNL     1      -7.126   8.959  70.342  1.00  0.00    -0.054 A  
HETATM   15  C   UNL     1      -6.181   9.013  71.343  1.00  0.00    -0.071 A  
HETATM   16  C   UNL     1      -5.330  10.096  71.312  1.00  0.00    -0.081 A  
BRANCH  14  17
HETATM   17  C   UNL     1      -8.116   7.878  70.244  1.00  0.00    -0.115 A  
HETATM   18  C   UNL     1     -11.199   6.033  70.881  1.00  0.00    -0.335 A  
HETATM   19  C   UNL     1      -7.965   6.783  69.406  1.00  0.00    -0.115 A  
HETATM   20  C   UNL     1     -11.875   6.763  71.861  1.00  0.00    -0.366 A  
HETATM   21  C   UNL     1     -11.318   7.917  72.397  1.00  0.00    -0.427 A  
HETATM   22  N   UNL     1      -9.056   5.968  69.545  1.00  0.00    -0.136 NA 
HETATM   23  C   UNL     1      -9.943   6.497  70.449  1.00  0.00    -0.179 A  
HETATM   24  C   UNL     1      -9.243   4.714  68.847  1.00  0.00    -0.129 C  
HETATM   25  C   UNL     1      -9.367   7.677  70.946  1.00  0.00    -0.158 A  
HETATM   26  C   UNL     1     -10.077   8.385  71.942  1.00  0.00    -0.337 A  
ENDBRANCH  14  17
ENDBRANCH   9  11
ENDBRANCH   4   9
BRANCH   7  27
HETATM   27  N   UNL     1     -11.070  13.154  69.791  1.00  0.00    -0.471 N  
HETATM   28  O   UNL     1     -10.947  11.079  68.754  1.00  0.00    -0.188 OA 
HETATM   29  H   UNL     1     -11.645  13.715  70.419  1.00  0.00     0.000 HD 
HETATM   30  C   UNL     1     -11.561  11.933  69.384  1.00  0.00    -0.325 C  
BRANCH  30  31
HETATM   31  C   UNL     1     -12.943  11.693  69.877  1.00  0.00     0.547 C  
HETATM   32  C   UNL     1     -13.139  11.158  71.088  1.00  0.00    -0.284 C  
ENDBRANCH  30  31
ENDBRANCH   7  27
BRANCH   5  33
HETATM   33  N   UNL     1     -10.794  15.821  68.663  1.00  0.00    -0.262 NA 
HETATM   34  C   UNL     1     -11.942  15.549  67.803  1.00  0.00     0.200 C  
BRANCH  33  35
HETATM   35  C   UNL     1     -10.898  17.015  69.521  1.00  0.00    -0.039 C  
BRANCH  35  36
HETATM   36  C   UNL     1      -9.958  18.139  69.027  1.00  0.00    -0.280 C  
BRANCH  36  37
HETATM   37  N   UNL     1     -10.444  18.906  67.860  1.00  0.00    -0.398 NA 
HETATM   38  C   UNL     1      -9.579  18.612  66.711  1.00  0.00    -0.318 C  
HETATM   39  C   UNL     1     -10.432  20.349  68.120  1.00  0.00    -0.038 C  
ENDBRANCH  36  37
ENDBRANCH  35  36
ENDBRANCH  33  35
ENDBRANCH   5  33
ENDBRANCH   2   3
TORSDOF 10
ENDMDL
MODEL      286
REMARK 921   NORMALIZED FREE ENERGY PREDICTED BY IDOCK:   -1.94 KCAL/MOL
REMARK 922        TOTAL FREE ENERGY PREDICTED BY IDOCK:   -4.78 KCAL/MOL
REMARK 923 INTER-LIGAND FREE ENERGY PREDICTED BY IDOCK:   -4.11 KCAL/MOL
REMARK 924 INTRA-LIGAND FREE ENERGY PREDICTED BY IDOCK:   -0.67 KCAL/MOL
REMARK 927      BINDING AFFINITY PREDICTED BY RF-SCORE:    0.00 PKD
ROOT
HETATM    1  C   UNL     1      -8.919   5.863  68.222  1.00  0.00    -0.112 C  
HETATM    2  O   UNL     1      -7.725   6.391  67.653  1.00  0.00    -0.099 OA 
ENDROOT
BRANCH   2   3
HETATM    3  C   UNL     1      -7.611   7.759  67.592  1.00  0.00    -0.113 A  
HETATM    4  C   UNL     1      -6.629   8.549  68.194  1.00  0.00    -0.061 A  
HETATM    5  C   UNL     1      -8.727   9.780  66.658  1.00  0.00    -0.131 A  
HETATM    6  C   UNL     1      -6.617   9.913  67.878  1.00  0.00    -0.064 A  
HETATM    7  C   UNL     1      -7.665  10.535  67.189  1.00  0.00    -0.101 A  
HETATM    8  C   UNL     1      -8.617   8.378  66.819  1.00  0.00    -0.123 A  
BRANCH   4   9
HETATM    9  N   UNL     1      -5.679   8.040  69.097  1.00  0.00    -0.033 NA 
HETATM   10  H   UNL     1      -4.724   7.942  68.755  1.00  0.00     0.000 HD 
BRANCH   9  11
HETATM   11  C   UNL     1      -5.920   7.654  70.419  1.00  0.00    -0.030 A  
HETATM   12  N   UNL     1      -5.177   8.253  71.357  1.00  0.00    -0.033 NA 
HETATM   13  N   UNL     1      -6.885   6.758  70.695  1.00  0.00    -0.057 NA 
HETATM   14  C   UNL     1      -7.211   6.534  71.977  1.00  0.00    -0.086 A  
HETATM   15  C   UNL     1      -6.525   7.144  73.005  1.00  0.00    -0.064 A  
HETATM   16  C   UNL     1      -5.497   7.982  72.631  1.00  0.00    -0.037 A  
BRANCH  14  17
HETATM   17  C   UNL     1      -8.341   5.626  72.209  1.00  0.00    -0.119 A  
HETATM   18  C   UNL     1     -10.198   2.488  72.348  1.00  0.00    -0.218 A  
HETATM   19  C   UNL     1      -9.559   6.043  72.724  1.00  0.00    -0.155 A  
HETATM   20  C   UNL     1      -9.341   1.522  71.816  1.00  0.00    -0.155 A  
HETATM   21  C   UNL     1      -8.083   1.874  71.344  1.00  0.00    -0.051 A  
HETATM   22  N   UNL     1     -10.391   4.961  72.823  1.00  0.00    -0.182 NA 
HETATM   23  C   UNL     1      -9.755   3.822  72.396  1.00  0.00    -0.151 A  
HETATM   24  C   UNL     1     -11.757   5.012  73.298  1.00  0.00    -0.048 C  
HETATM   25  C   UNL     1      -8.478   4.205  71.959  1.00  0.00    -0.111 A  
HETATM   26  C   UNL     1      -7.640   3.203  71.420  1.00  0.00    -0.044 A  
ENDBRANCH  14  17
ENDBRANCH   9  11
ENDBRANCH   4   9
BRANCH   7  27
HETATM   27  N   UNL     1      -7.719  11.944  67.231  1.00  0.00    -0.156 N  
HETATM   28  O   UNL     1      -6.335  12.310  69.059  1.00  0.00    -0.074 OA 
HETATM   29  H   UNL     1      -8.242  12.424  66.499  1.00  0.00     0.000 HD 
HETATM   30  C   UNL     1      -7.111  12.711  68.199  1.00  0.00    -0.102 C  
BRANCH  30  31
HETATM   31  C   UNL     1      -7.424  14.156  68.047  1.00  0.00    -0.141 C  
HETATM   32  C   UNL     1      -8.166  14.782  68.970  1.00  0.00    -0.141 C  
ENDBRANCH  30  31
ENDBRANCH   7  27
BRANCH   5  33
HETATM   33  N   UNL     1      -9.828  10.349  66.017  1.00  0.00    -0.219 NA 
HETATM   34  C   UNL     1     -10.871  11.077  66.732  1.00  0.00    -0.251 C  
BRANCH  33  35
HETATM   35  C   UNL     1      -9.915  10.377  64.546  1.00  0.00    -0.331 C  
BRANCH  35  36
HETATM   36  C   UNL     1      -8.612  10.930  63.921  1.00  0.00     0.051 C  
BRANCH  36  37
HETATM   37  N   UNL     1      -7.806   9.950  63.162  1.00  0.00    -0.138 NA 
HETATM   38  C   UNL     1      -8.659   8.803  62.823  1.00  0.00    -0.130 C  
HETATM   39  C   UNL     1      -6.652   9.485  63.936  1.00  0.00    -0.101 C  
ENDBRANCH  36  37
ENDBRANCH  35  36
ENDBRANCH  33  35
ENDBRANCH   5  33
ENDBRANCH   2   3
TORSDOF 10
ENDMDL
MODEL      287
REMARK 921   NORMALIZED FREE ENERGY PREDICTED BY IDOCK:   -1.89 KCAL/MOL
REMARK 922        TOTAL FREE ENERGY PREDICTED BY IDOCK:   -4.71 KCAL/MOL
REMARK 923 INTER-LIGAND FREE ENERGY PREDICTED BY IDOCK:   -4.13 KCAL/MOL
REMARK 924 INTRA-LIGAND FREE ENERGY PREDICTED BY IDOCK:   -0.59 KCAL/MOL
REMARK 927      BINDING AFFINITY PREDICTED BY RF-SCORE:    0.00 PKD
ROOT
HETATM    1  C   UNL     1      -5.425  17.843  65.477  1.00  0.00    -0.106 C  
HETATM    2  O   UNL     1      -5.711  16.600  66.110  1.00  0.00    -0.106 OA 
ENDROOT
BRANCH   2   3
HETATM    3  C   UNL     1      -6.761  16.574  66.996  1.00  0.00    -0.205 A  
HETATM    4  C   UNL     1      -7.522  15.463  67.364  1.00  0.00    -0.209 A  
HETATM    5  C   UNL     1      -8.121  18.051  68.469  1.00  0.00    -0.298 A  
HETATM    6  C   UNL     1      -8.452  15.634  68.398  1.00  0.00    -0.164 A  
HETATM    7  C   UNL     1      -8.799  16.894  68.897  1.00  0.00    -0.216 A  
HETATM    8  C   UNL     1      -7.051  17.831  67.569  1.00  0.00    -0.198 A  
BRANCH   4   9
HETATM    9  N   UNL     1      -7.404  14.208  66.741  1.00  0.00    -0.123 NA 
HETATM   10  H   UNL     1      -7.604  14.169  65.742  1.00  0.00     0.000 HD 
BRANCH   9  11
HETATM   11  C   UNL     1      -7.039  13.009  67.361  1.00  0.00    -0.117 A  
HETATM   12  N   UNL     1      -6.254  13.113  68.439  1.00  0.00    -0.076 NA 
HETATM   13  N   UNL     1      -7.509  11.838  66.893  1.00  0.00    -0.134 NA 
HETATM   14  C   UNL     1      -7.286  10.723  67.603  1.00  0.00    -0.092 A  
HETATM   15  C   UNL     1      -6.523  10.748  68.751  1.00  0.00    -0.048 A  
HETATM   16  C   UNL     1      -6.013  11.976  69.109  1.00  0.00    -0.074 A  
BRANCH  14  17
HETATM   17  C   UNL     1      -7.913   9.496  67.096  1.00  0.00    -0.102 A  
HETATM   18  C   UNL     1     -10.188   6.645  66.983  1.00  0.00    -0.288 A  
HETATM   19  C   UNL     1      -7.563   8.905  65.890  1.00  0.00    -0.093 A  
HETATM   20  C   UNL     1     -10.906   6.693  68.180  1.00  0.00    -0.334 A  
HETATM   21  C   UNL     1     -10.646   7.678  69.123  1.00  0.00    -0.195 A  
HETATM   22  N   UNL     1      -8.332   7.788  65.706  1.00  0.00    -0.131 NA 
HETATM   23  C   UNL     1      -9.200   7.620  66.757  1.00  0.00    -0.160 A  
HETATM   24  C   UNL     1      -8.234   6.897  64.570  1.00  0.00    -0.001 C  
HETATM   25  C   UNL     1      -8.936   8.650  67.674  1.00  0.00    -0.141 A  
HETATM   26  C   UNL     1      -9.677   8.662  68.878  1.00  0.00    -0.171 A  
ENDBRANCH  14  17
ENDBRANCH   9  11
ENDBRANCH   4   9
BRANCH   7  27
HETATM   27  N   UNL     1      -9.974  16.982  69.672  1.00  0.00     0.035 N  
HETATM   28  O   UNL     1     -10.139  14.763  70.339  1.00  0.00     0.238 OA 
HETATM   29  H   UNL     1     -10.397  17.901  69.798  1.00  0.00     0.000 HD 
HETATM   30  C   UNL     1     -10.586  15.902  70.270  1.00  0.00    -0.250 C  
BRANCH  30  31
HETATM   31  C   UNL     1     -11.860  16.279  70.936  1.00  0.00    -0.191 C  
HETATM   32  C   UNL     1     -12.970  15.564  70.713  1.00  0.00    -0.490 C  
ENDBRANCH  30  31
ENDBRANCH   7  27
BRANCH   5  33
HETATM   33  N   UNL     1      -8.463  19.339  68.883  1.00  0.00    -0.343 NA 
HETATM   34  C   UNL     1      -7.918  19.952  70.090  1.00  0.00     0.956 C  
BRANCH  33  35
HETATM   35  C   UNL     1      -9.284  20.215  68.028  1.00  0.00    -0.220 C  
BRANCH  35  36
HETATM   36  C   UNL     1      -9.295  19.714  66.565  1.00  0.00    -0.384 C  
BRANCH  36  37
HETATM   37  N   UNL     1     -10.605  19.246  66.064  1.00  0.00    -0.479 NA 
HETATM   38  C   UNL     1     -10.497  17.823  65.722  1.00  0.00    -0.198 C  
HETATM   39  C   UNL     1     -11.031  19.999  64.880  1.00  0.00     0.983 C  
ENDBRANCH  36  37
ENDBRANCH  35  36
ENDBRANCH  33  35
ENDBRANCH   5  33
ENDBRANCH   2   3
TORSDOF 10
ENDMDL
MODEL      288
REMARK 921   NORMALIZED FREE ENERGY PREDICTED BY IDOCK:   -1.22 KCAL/MOL
REMARK 922        TOTAL FREE ENERGY PREDICTED BY IDOCK:   -3.64 KCAL/MOL
REMARK 923 INTER-LIGAND FREE ENERGY PREDICTED BY IDOCK:   -3.52 KCAL/MOL
REMARK 924 INTRA-LIGAND FREE ENERGY PREDICTED BY IDOCK:   -0.12 KCAL/MOL
REMARK 927      BINDING AFFINITY PREDICTED BY RF-SCORE:    0.00 PKD
ROOT
HETATM    1  C   UNL     1      -5.814   3.864  72.850  1.00  0.00    -0.011 C  
HETATM    2  O   UNL     1      -5.357   4.312  71.578  1.00  0.00     0.000 OA 
ENDROOT
BRANCH   2   3
HETATM    3  C   UNL     1      -6.284   4.381  70.566  1.00  0.00    -0.018 A  
HETATM    4  C   UNL     1      -7.612   4.799  70.671  1.00  0.00    -0.058 A  
HETATM    5  C   UNL     1      -6.573   3.921  68.136  1.00  0.00    -0.042 A  
HETATM    6  C   UNL     1      -8.341   4.931  69.482  1.00  0.00    -0.085 A  
HETATM    7  C   UNL     1      -7.872   4.447  68.255  1.00  0.00    -0.079 A  
HETATM    8  C   UNL     1      -5.783   3.979  69.309  1.00  0.00    -0.018 A  
BRANCH   4   9
HETATM    9  N   UNL     1      -8.238   5.074  71.900  1.00  0.00    -0.114 NA 
HETATM   10  H   UNL     1      -8.348   4.294  72.546  1.00  0.00     0.000 HD 
BRANCH   9  11
HETATM   11  C   UNL     1      -8.724   6.316  72.319  1.00  0.00    -0.132 A  
HETATM   12  N   UNL     1      -8.460   6.660  73.585  1.00  0.00    -0.120 NA 
HETATM   13  N   UNL     1      -9.379   7.111  71.454  1.00  0.00    -0.155 NA 
HETATM   14  C   UNL     1      -9.684   8.362  71.829  1.00  0.00    -0.237 A  
HETATM   15  C   UNL     1      -9.407   8.813  73.102  1.00  0.00     0.436 A  
HETATM   16  C   UNL     1      -8.811   7.904  73.948  1.00  0.00    -0.254 A  
BRANCH  14  17
HETATM   17  C   UNL     1     -10.303   9.213  70.805  1.00  0.00    -0.323 A  
HETATM   18  C   UNL     1     -10.777  10.825  67.566  1.00  0.00    -0.312 A  
HETATM   19  C   UNL     1     -11.482   9.914  71.011  1.00  0.00    -0.388 A  
HETATM   20  C   UNL     1      -9.668  10.458  66.800  1.00  0.00    -0.224 A  
HETATM   21  C   UNL     1      -8.666   9.662  67.340  1.00  0.00    -0.130 A  
HETATM   22  N   UNL     1     -11.793  10.600  69.868  1.00  0.00    -0.296 NA 
HETATM   23  C   UNL     1     -10.854  10.367  68.894  1.00  0.00    -0.236 A  
HETATM   24  C   UNL     1     -12.942  11.465  69.712  1.00  0.00     0.554 C  
HETATM   25  C   UNL     1      -9.876   9.534  69.459  1.00  0.00    -0.205 A  
HETATM   26  C   UNL     1      -8.764   9.189  68.657  1.00  0.00    -0.129 A  
ENDBRANCH  14  17
ENDBRANCH   9  11
ENDBRANCH   4   9
BRANCH   7  27
HETATM   27  N   UNL     1      -8.812   4.317  67.211  1.00  0.00    -0.109 N  
HETATM   28  O   UNL     1     -10.139   6.164  67.678  1.00  0.00    -0.131 OA 
HETATM   29  H   UNL     1      -8.673   3.566  66.535  1.00  0.00     0.000 HD 
HETATM   30  C   UNL     1      -9.904   5.139  67.048  1.00  0.00    -0.177 C  
BRANCH  30  31
HETATM   31  C   UNL     1     -10.772   4.702  65.924  1.00  0.00    -0.171 C  
HETATM   32  C   UNL     1     -10.223   4.246  64.791  1.00  0.00    -0.163 C  
ENDBRANCH  30  31
ENDBRANCH   7  27
BRANCH   5  33
HETATM   33  N   UNL     1      -6.073   3.369  66.956  1.00  0.00    -0.024 NA 
HETATM   34  C   UNL     1      -5.153   2.236  66.941  1.00  0.00    -0.005 C  
BRANCH  33  35
HETATM   35  C   UNL     1      -6.576   3.809  65.643  1.00  0.00    -0.037 C  
BRANCH  35  36
HETATM   36  C   UNL     1      -5.643   4.872  65.017  1.00  0.00    -0.014 C  
BRANCH  36  37
HETATM   37  N   UNL     1      -6.212   6.232  64.908  1.00  0.00    -0.030 NA 
HETATM   38  C   UNL     1      -7.281   6.215  63.901  1.00  0.00    -0.061 C  
HETATM   39  C   UNL     1      -5.195   7.214  64.521  1.00  0.00    -0.028 C  
ENDBRANCH  36  37
ENDBRANCH  35  36
ENDBRANCH  33  35
ENDBRANCH   5  33
ENDBRANCH   2   3
TORSDOF 10
ENDMDL
MODEL      289
REMARK 921   NORMALIZED FREE ENERGY PREDICTED BY IDOCK:    0.48 KCAL/MOL
REMARK 922        TOTAL FREE ENERGY PREDICTED BY IDOCK:   -0.96 KCAL/MOL
REMARK 923 INTER-LIGAND FREE ENERGY PREDICTED BY IDOCK:   -2.48 KCAL/MOL
REMARK 924 INTRA-LIGAND FREE ENERGY PREDICTED BY IDOCK:    1.53 KCAL/MOL
REMARK 927      BINDING AFFINITY PREDICTED BY RF-SCORE:    0.00 PKD
ROOT
HETATM    1  C   UNL     1      -8.197  10.223  66.967  1.00  0.00    -0.122 C  
HETATM    2  O   UNL     1      -8.170  11.547  66.444  1.00  0.00    -0.161 OA 
ENDROOT
BRANCH   2   3
HETATM    3  C   UNL     1      -7.680  12.535  67.263  1.00  0.00    -0.146 A  
HETATM    4  C   UNL     1      -7.276  12.401  68.593  1.00  0.00    -0.104 A  
HETATM    5  C   UNL     1      -7.164  14.971  67.305  1.00  0.00    -0.140 A  
HETATM    6  C   UNL     1      -6.668  13.510  69.196  1.00  0.00    -0.103 A  
HETATM    7  C   UNL     1      -6.667  14.779  68.607  1.00  0.00    -0.088 A  
HETATM    8  C   UNL     1      -7.593  13.798  66.639  1.00  0.00     1.042 A  
BRANCH   4   9
HETATM    9  N   UNL     1      -7.463  11.224  69.339  1.00  0.00    -0.322 NA 
HETATM   10  H   UNL     1      -6.624  10.754  69.677  1.00  0.00     0.000 HD 
BRANCH   9  11
HETATM   11  C   UNL     1      -8.690  10.637  69.662  1.00  0.00     0.157 A  
HETATM   12  N   UNL     1      -9.764  11.432  69.597  1.00  0.00     0.571 NA 
HETATM   13  N   UNL     1      -8.750   9.330  69.974  1.00  0.00    -0.176 NA 
HETATM   14  C   UNL     1      -9.954   8.754  70.112  1.00  0.00    -0.184 A  
HETATM   15  C   UNL     1     -11.114   9.492  70.017  1.00  0.00    -0.268 A  
HETATM   16  C   UNL     1     -10.954  10.839  69.779  1.00  0.00    -0.252 A  
BRANCH  14  17
HETATM   17  C   UNL     1      -9.955   7.304  70.348  1.00  0.00    -0.192 A  
HETATM   18  C   UNL     1      -9.651   3.746  69.601  1.00  0.00    -0.242 A  
HETATM   19  C   UNL     1     -10.164   6.737  71.596  1.00  0.00    -0.191 A  
HETATM   20  C   UNL     1      -9.438   3.670  68.223  1.00  0.00    -0.214 A  
HETATM   21  C   UNL     1      -9.414   4.820  67.445  1.00  0.00    -0.166 A  
HETATM   22  N   UNL     1     -10.097   5.375  71.479  1.00  0.00    -0.188 NA 
HETATM   23  C   UNL     1      -9.836   5.014  70.181  1.00  0.00    -0.233 A  
HETATM   24  C   UNL     1     -10.290   4.443  72.569  1.00  0.00    -0.188 C  
HETATM   25  C   UNL     1      -9.784   6.198  69.429  1.00  0.00    -0.172 A  
HETATM   26  C   UNL     1      -9.574   6.082  68.036  1.00  0.00    -0.120 A  
ENDBRANCH  14  17
ENDBRANCH   9  11
ENDBRANCH   4   9
BRANCH   7  27
HETATM   27  N   UNL     1      -6.347  15.875  69.435  1.00  0.00    -0.150 N  
HETATM   28  O   UNL     1      -8.403  16.954  69.424  1.00  0.00    -0.023 OA 
HETATM   29  H   UNL     1      -5.416  15.906  69.850  1.00  0.00     0.000 HD 
HETATM   30  C   UNL     1      -7.215  16.906  69.719  1.00  0.00     0.432 C  
BRANCH  30  31
HETATM   31  C   UNL     1      -6.573  17.971  70.534  1.00  0.00     1.148 C  
HETATM   32  C   UNL     1      -5.266  18.225  70.394  1.00  0.00    -0.252 C  
ENDBRANCH  30  31
ENDBRANCH   7  27
BRANCH   5  33
HETATM   33  N   UNL     1      -7.246  16.221  66.690  1.00  0.00    -0.186 NA 
HETATM   34  C   UNL     1      -6.078  17.064  66.455  1.00  0.00    -0.156 C  
BRANCH  33  35
HETATM   35  C   UNL     1      -8.511  16.693  66.100  1.00  0.00    -0.273 C  
BRANCH  35  36
HETATM   36  C   UNL     1      -8.744  18.191  66.407  1.00  0.00    -0.231 C  
BRANCH  36  37
HETATM   37  N   UNL     1     -10.084  18.530  66.934  1.00  0.00    -0.349 NA 
HETATM   38  C   UNL     1     -11.014  17.451  66.580  1.00  0.00     0.223 C  
HETATM   39  C   UNL     1     -10.575  19.796  66.384  1.00  0.00    -0.464 C  
ENDBRANCH  36  37
ENDBRANCH  35  36
ENDBRANCH  33  35
ENDBRANCH   5  33
ENDBRANCH   2   3
TORSDOF 10
ENDMDL
MODEL      290
REMARK 921   NORMALIZED FREE ENERGY PREDICTED BY IDOCK:    0.96 KCAL/MOL
REMARK 922        TOTAL FREE ENERGY PREDICTED BY IDOCK:   -0.20 KCAL/MOL
REMARK 923 INTER-LIGAND FREE ENERGY PREDICTED BY IDOCK:   -0.52 KCAL/MOL
REMARK 924 INTRA-LIGAND FREE ENERGY PREDICTED BY IDOCK:    0.32 KCAL/MOL
REMARK 927      BINDING AFFINITY PREDICTED BY RF-SCORE:    0.00 PKD
ROOT
HETATM    1  C   UNL     1      -5.816   3.868  72.850  1.00  0.00    -0.011 C  
HETATM    2  O   UNL     1      -5.357   4.333  71.586  1.00  0.00     0.000 OA 
ENDROOT
BRANCH   2   3
HETATM    3  C   UNL     1      -6.282   4.415  70.573  1.00  0.00    -0.018 A  
HETATM    4  C   UNL     1      -7.609   4.837  70.679  1.00  0.00    -0.058 A  
HETATM    5  C   UNL     1      -6.567   3.979  68.138  1.00  0.00    -0.042 A  
HETATM    6  C   UNL     1      -8.334   4.983  69.490  1.00  0.00    -0.088 A  
HETATM    7  C   UNL     1      -7.865   4.509  68.259  1.00  0.00    -0.080 A  
HETATM    8  C   UNL     1      -5.780   4.023  69.313  1.00  0.00    -0.018 A  
BRANCH   4   9
HETATM    9  N   UNL     1      -8.236   5.103  71.909  1.00  0.00    -0.115 NA 
HETATM   10  H   UNL     1      -8.342   4.319  72.552  1.00  0.00     0.000 HD 
BRANCH   9  11
HETATM   11  C   UNL     1      -8.729   6.341  72.334  1.00  0.00    -0.121 A  
HETATM   12  N   UNL     1      -8.793   6.531  73.656  1.00  0.00    -0.123 NA 
HETATM   13  N   UNL     1      -9.069   7.277  71.430  1.00  0.00    -0.142 NA 
HETATM   14  C   UNL     1      -9.375   8.510  71.862  1.00  0.00    -0.267 A  
HETATM   15  C   UNL     1      -9.421   8.804  73.208  1.00  0.00     0.657 A  
HETATM   16  C   UNL     1      -9.141   7.762  74.063  1.00  0.00    -0.167 A  
BRANCH  14  17
HETATM   17  C   UNL     1      -9.634   9.514  70.822  1.00  0.00    -0.261 A  
HETATM   18  C   UNL     1     -11.514  11.912  68.814  1.00  0.00    -0.347 A  
HETATM   19  C   UNL     1      -8.648  10.010  69.981  1.00  0.00    -0.090 A  
HETATM   20  C   UNL     1     -12.835  11.814  69.256  1.00  0.00     1.032 A  
HETATM   21  C   UNL     1     -13.187  10.904  70.244  1.00  0.00     0.216 A  
HETATM   22  N   UNL     1      -9.209  10.929  69.136  1.00  0.00    -0.118 NA 
HETATM   23  C   UNL     1     -10.550  11.071  69.398  1.00  0.00    -0.174 A  
HETATM   24  C   UNL     1      -8.495  11.641  68.099  1.00  0.00    -0.156 C  
HETATM   25  C   UNL     1     -10.865  10.165  70.423  1.00  0.00    -0.365 A  
HETATM   26  C   UNL     1     -12.213  10.087  70.839  1.00  0.00    -0.441 A  
ENDBRANCH  14  17
ENDBRANCH   9  11
ENDBRANCH   4   9
BRANCH   7  27
HETATM   27  N   UNL     1      -8.803   4.391  67.212  1.00  0.00    -0.105 N  
HETATM   28  O   UNL     1     -10.126   6.237  67.696  1.00  0.00    -0.129 OA 
HETATM   29  H   UNL     1      -8.665   3.648  66.528  1.00  0.00     0.000 HD 
HETATM   30  C   UNL     1      -9.893   5.218  67.056  1.00  0.00    -0.167 C  
BRANCH  30  31
HETATM   31  C   UNL     1     -10.760   4.795  65.925  1.00  0.00    -0.225 C  
HETATM   32  C   UNL     1     -10.841   3.501  65.591  1.00  0.00     1.545 C  
ENDBRANCH  30  31
ENDBRANCH   7  27
BRANCH   5  33
HETATM   33  N   UNL     1      -6.067   3.436  66.954  1.00  0.00    -0.024 NA 
HETATM   34  C   UNL     1      -5.150   2.301  66.930  1.00  0.00    -0.005 C  
BRANCH  33  35
HETATM   35  C   UNL     1      -6.567   3.889  65.644  1.00  0.00    -0.041 C  
BRANCH  35  36
HETATM   36  C   UNL     1      -6.746   2.698  64.673  1.00  0.00    -0.039 C  
BRANCH  36  37
HETATM   37  N   UNL     1      -5.816   2.670  63.524  1.00  0.00    -0.009 NA 
HETATM   38  C   UNL     1      -5.510   4.052  63.134  1.00  0.00    -0.012 C  
HETATM   39  C   UNL     1      -6.393   1.958  62.380  1.00  0.00    -0.009 C  
ENDBRANCH  36  37
ENDBRANCH  35  36
ENDBRANCH  33  35
ENDBRANCH   5  33
ENDBRANCH   2   3
TORSDOF 10
ENDMDL
MODEL      291
REMARK 921   NORMALIZED FREE ENERGY PREDICTED BY IDOCK:    0.98 KCAL/MOL
REMARK 922        TOTAL FREE ENERGY PREDICTED BY IDOCK:   -0.16 KCAL/MOL
REMARK 923 INTER-LIGAND FREE ENERGY PREDICTED BY IDOCK:    1.16 KCAL/MOL
REMARK 924 INTRA-LIGAND FREE ENERGY PREDICTED BY IDOCK:   -1.32 KCAL/MOL
REMARK 927      BINDING AFFINITY PREDICTED BY RF-SCORE:    0.00 PKD
ROOT
HETATM    1  C   UNL     1     -12.257  16.267  70.163  1.00  0.00     0.376 C  
HETATM    2  O   UNL     1     -11.111  15.690  70.780  1.00  0.00    -0.320 OA 
ENDROOT
BRANCH   2   3
HETATM    3  C   UNL     1     -10.457  14.700  70.087  1.00  0.00     0.213 A  
HETATM    4  C   UNL     1      -9.090  14.418  70.113  1.00  0.00     1.453 A  
HETATM    5  C   UNL     1     -10.849  12.869  68.445  1.00  0.00    -0.254 A  
HETATM    6  C   UNL     1      -8.657  13.268  69.442  1.00  0.00     1.068 A  
HETATM    7  C   UNL     1      -9.486  12.545  68.576  1.00  0.00    -0.097 A  
HETATM    8  C   UNL     1     -11.309  13.912  69.283  1.00  0.00    -0.321 A  
BRANCH   4   9
HETATM    9  N   UNL     1      -8.148  15.235  70.763  1.00  0.00     0.960 NA 
HETATM   10  H   UNL     1      -8.093  15.158  71.778  1.00  0.00     0.000 HD 
BRANCH   9  11
HETATM   11  C   UNL     1      -7.280  16.144  70.150  1.00  0.00     0.720 A  
HETATM   12  N   UNL     1      -6.002  16.099  70.540  1.00  0.00    -0.003 NA 
HETATM   13  N   UNL     1      -7.738  16.973  69.194  1.00  0.00    -0.176 NA 
HETATM   14  C   UNL     1      -6.856  17.712  68.504  1.00  0.00    -0.223 A  
HETATM   15  C   UNL     1      -5.512  17.692  68.812  1.00  0.00    -0.160 A  
HETATM   16  C   UNL     1      -5.146  16.878  69.861  1.00  0.00    -0.171 A  
BRANCH  14  17
HETATM   17  C   UNL     1      -7.404  18.516  67.405  1.00  0.00    -0.222 A  
HETATM   18  C   UNL     1      -9.873  20.377  65.467  1.00  0.00     0.140 A  
HETATM   19  C   UNL     1      -6.638  18.979  66.345  1.00  0.00    -0.194 A  
HETATM   20  C   UNL     1     -11.083  20.210  66.144  1.00  0.00     0.299 A  
HETATM   21  C   UNL     1     -11.152  19.428  67.290  1.00  0.00    -0.293 A  
HETATM   22  N   UNL     1      -7.441  19.697  65.500  1.00  0.00    -0.409 NA 
HETATM   23  C   UNL     1      -8.728  19.737  65.975  1.00  0.00    -0.265 A  
HETATM   24  C   UNL     1      -6.999  20.314  64.269  1.00  0.00     0.429 C  
HETATM   25  C   UNL     1      -8.756  18.968  67.149  1.00  0.00    -0.305 A  
HETATM   26  C   UNL     1     -10.000  18.815  67.804  1.00  0.00    -0.396 A  
ENDBRANCH  14  17
ENDBRANCH   9  11
ENDBRANCH   4   9
BRANCH   7  27
HETATM   27  N   UNL     1      -8.865  11.632  67.699  1.00  0.00    -0.154 N  
HETATM   28  O   UNL     1      -8.439   9.912  69.200  1.00  0.00    -0.126 OA 
HETATM   29  H   UNL     1      -8.807  11.881  66.712  1.00  0.00     0.000 HD 
HETATM   30  C   UNL     1      -8.331  10.425  68.092  1.00  0.00    -0.117 C  
BRANCH  30  31
HETATM   31  C   UNL     1      -7.652   9.721  66.973  1.00  0.00    -0.092 C  
HETATM   32  C   UNL     1      -8.374   9.044  66.071  1.00  0.00    -0.126 C  
ENDBRANCH  30  31
ENDBRANCH   7  27
BRANCH   5  33
HETATM   33  N   UNL     1     -11.709  12.225  67.554  1.00  0.00    -0.459 NA 
HETATM   34  C   UNL     1     -12.612  11.154  67.962  1.00  0.00     2.072 C  
BRANCH  33  35
HETATM   35  C   UNL     1     -11.861  12.706  66.170  1.00  0.00    -0.418 C  
BRANCH  35  36
HETATM   36  C   UNL     1     -12.181  14.219  66.138  1.00  0.00    -0.410 C  
BRANCH  36  37
HETATM   37  N   UNL     1     -11.122  15.080  65.569  1.00  0.00    -0.346 NA 
HETATM   38  C   UNL     1     -10.523  15.866  66.654  1.00  0.00    -0.306 C  
HETATM   39  C   UNL     1     -11.654  15.987  64.548  1.00  0.00    -0.205 C  
ENDBRANCH  36  37
ENDBRANCH  35  36
ENDBRANCH  33  35
ENDBRANCH   5  33
ENDBRANCH   2   3
TORSDOF 10
ENDMDL
MODEL      292
REMARK 921   NORMALIZED FREE ENERGY PREDICTED BY IDOCK:    1.12 KCAL/MOL
REMARK 922        TOTAL FREE ENERGY PREDICTED BY IDOCK:    0.06 KCAL/MOL
REMARK 923 INTER-LIGAND FREE ENERGY PREDICTED BY IDOCK:   -3.89 KCAL/MOL
REMARK 924 INTRA-LIGAND FREE ENERGY PREDICTED BY IDOCK:    3.95 KCAL/MOL
REMARK 927      BINDING AFFINITY PREDICTED BY RF-SCORE:    0.00 PKD
ROOT
HETATM    1  C   UNL     1      -9.357  15.103  66.167  1.00  0.00    -0.311 C  
HETATM    2  O   UNL     1      -9.107  13.779  65.708  1.00  0.00     0.177 OA 
ENDROOT
BRANCH   2   3
HETATM    3  C   UNL     1      -9.292  12.757  66.608  1.00  0.00    -0.242 A  
HETATM    4  C   UNL     1     -10.361  12.600  67.492  1.00  0.00    -0.218 A  
HETATM    5  C   UNL     1      -8.220  10.678  67.463  1.00  0.00    -0.111 A  
HETATM    6  C   UNL     1     -10.424  11.405  68.220  1.00  0.00    -0.221 A  
HETATM    7  C   UNL     1      -9.362  10.495  68.265  1.00  0.00    -0.156 A  
HETATM    8  C   UNL     1      -8.265  11.790  66.588  1.00  0.00    -0.117 A  
BRANCH   4   9
HETATM    9  N   UNL     1     -11.350  13.581  67.687  1.00  0.00    -0.282 NA 
HETATM   10  H   UNL     1     -12.302  13.336  67.415  1.00  0.00     0.000 HD 
BRANCH   9  11
HETATM   11  C   UNL     1     -11.152  14.860  68.216  1.00  0.00    -0.282 A  
HETATM   12  N   UNL     1     -12.176  15.384  68.900  1.00  0.00    -0.170 NA 
HETATM   13  N   UNL     1      -9.967  15.477  68.062  1.00  0.00    -0.214 NA 
HETATM   14  C   UNL     1      -9.746  16.624  68.722  1.00  0.00    -0.254 A  
HETATM   15  C   UNL     1     -10.733  17.211  69.485  1.00  0.00    -0.017 A  
HETATM   16  C   UNL     1     -11.942  16.551  69.518  1.00  0.00     0.541 A  
BRANCH  14  17
HETATM   17  C   UNL     1      -8.398  17.194  68.596  1.00  0.00    -0.257 A  
HETATM   18  C   UNL     1      -5.543  18.838  67.029  1.00  0.00    -0.151 A  
HETATM   19  C   UNL     1      -7.498  17.257  69.650  1.00  0.00     0.483 A  
HETATM   20  C   UNL     1      -5.906  19.025  65.693  1.00  0.00    -0.214 A  
HETATM   21  C   UNL     1      -7.134  18.577  65.223  1.00  0.00     0.211 A  
HETATM   22  N   UNL     1      -6.344  17.846  69.209  1.00  0.00    -0.238 NA 
HETATM   23  C   UNL     1      -6.452  18.190  67.884  1.00  0.00    -0.187 A  
HETATM   24  C   UNL     1      -5.166  18.061  70.021  1.00  0.00    -0.219 C  
HETATM   25  C   UNL     1      -7.714  17.757  67.450  1.00  0.00    -0.214 A  
HETATM   26  C   UNL     1      -8.045  17.955  66.090  1.00  0.00    -0.208 A  
ENDBRANCH  14  17
ENDBRANCH   9  11
ENDBRANCH   4   9
BRANCH   7  27
HETATM   27  N   UNL     1      -9.390   9.520  69.284  1.00  0.00    -0.161 N  
HETATM   28  O   UNL     1     -11.232   8.298  68.573  1.00  0.00     0.283 OA 
HETATM   29  H   UNL     1      -8.646   9.535  69.981  1.00  0.00     0.000 HD 
HETATM   30  C   UNL     1     -10.358   8.547  69.395  1.00  0.00    -0.215 C  
BRANCH  30  31
HETATM   31  C   UNL     1     -10.188   7.725  70.621  1.00  0.00    -0.199 C  
HETATM   32  C   UNL     1      -9.843   6.435  70.521  1.00  0.00    -0.207 C  
ENDBRANCH  30  31
ENDBRANCH   7  27
BRANCH   5  33
HETATM   33  N   UNL     1      -7.106   9.840  67.511  1.00  0.00    -0.087 NA 
HETATM   34  C   UNL     1      -6.121   9.895  68.586  1.00  0.00    -0.041 C  
BRANCH  33  35
HETATM   35  C   UNL     1      -6.946   8.739  66.545  1.00  0.00    -0.079 C  
BRANCH  35  36
HETATM   36  C   UNL     1      -7.448   7.401  67.139  1.00  0.00    -0.106 C  
BRANCH  36  37
HETATM   37  N   UNL     1      -6.974   6.183  66.448  1.00  0.00    -0.065 NA 
HETATM   38  C   UNL     1      -6.657   6.525  65.056  1.00  0.00    -0.042 C  
HETATM   39  C   UNL     1      -7.986   5.122  66.470  1.00  0.00    -0.104 C  
ENDBRANCH  36  37
ENDBRANCH  35  36
ENDBRANCH  33  35
ENDBRANCH   5  33
ENDBRANCH   2   3
TORSDOF 10
ENDMDL
MODEL      293
REMARK 921   NORMALIZED FREE ENERGY PREDICTED BY IDOCK:    4.82 KCAL/MOL
REMARK 922        TOTAL FREE ENERGY PREDICTED BY IDOCK:    5.92 KCAL/MOL
REMARK 923 INTER-LIGAND FREE ENERGY PREDICTED BY IDOCK:    3.84 KCAL/MOL
REMARK 924 INTRA-LIGAND FREE ENERGY PREDICTED BY IDOCK:    2.08 KCAL/MOL
REMARK 927      BINDING AFFINITY PREDICTED BY RF-SCORE:    0.00 PKD
ROOT
HETATM    1  C   UNL     1     -13.571  14.854  68.691  1.00  0.00     4.756 C  
HETATM    2  O   UNL     1     -12.638  14.140  67.887  1.00  0.00     0.064 OA 
ENDROOT
BRANCH   2   3
HETATM    3  C   UNL     1     -11.359  14.637  67.820  1.00  0.00    -0.322 A  
HETATM    4  C   UNL     1     -10.197  13.926  67.513  1.00  0.00    -0.245 A  
HETATM    5  C   UNL     1     -10.049  16.732  68.130  1.00  0.00    -0.282 A  
HETATM    6  C   UNL     1      -9.015  14.662  67.355  1.00  0.00    -0.202 A  
HETATM    7  C   UNL     1      -8.915  16.010  67.714  1.00  0.00    -0.188 A  
HETATM    8  C   UNL     1     -11.271  16.019  68.093  1.00  0.00    -0.325 A  
BRANCH   4   9
HETATM    9  N   UNL     1     -10.164  12.527  67.373  1.00  0.00    -0.212 NA 
HETATM   10  H   UNL     1     -11.045  12.066  67.148  1.00  0.00     0.000 HD 
BRANCH   9  11
HETATM   11  C   UNL     1      -9.039  11.709  67.513  1.00  0.00    -0.172 A  
HETATM   12  N   UNL     1      -7.850  12.307  67.386  1.00  0.00    -0.162 NA 
HETATM   13  N   UNL     1      -9.188  10.403  67.803  1.00  0.00    -0.141 NA 
HETATM   14  C   UNL     1      -8.098   9.680  68.101  1.00  0.00    -0.105 A  
HETATM   15  C   UNL     1      -6.836  10.231  68.037  1.00  0.00    -0.070 A  
HETATM   16  C   UNL     1      -6.773  11.552  67.650  1.00  0.00    -0.079 A  
BRANCH  14  17
HETATM   17  C   UNL     1      -8.335   8.290  68.511  1.00  0.00    -0.129 A  
HETATM   18  C   UNL     1      -8.230   5.308  70.610  1.00  0.00    -0.109 A  
HETATM   19  C   UNL     1      -9.071   7.389  67.755  1.00  0.00    -0.129 A  
HETATM   20  C   UNL     1      -7.442   5.653  71.711  1.00  0.00    -0.094 A  
HETATM   21  C   UNL     1      -6.865   6.912  71.801  1.00  0.00    -0.065 A  
HETATM   22  N   UNL     1      -9.110   6.190  68.413  1.00  0.00    -0.114 NA 
HETATM   23  C   UNL     1      -8.427   6.268  69.601  1.00  0.00    -0.129 A  
HETATM   24  C   UNL     1      -9.768   4.999  67.919  1.00  0.00    -0.153 C  
HETATM   25  C   UNL     1      -7.886   7.561  69.679  1.00  0.00    -0.119 A  
HETATM   26  C   UNL     1      -7.088   7.872  70.803  1.00  0.00    -0.052 A  
ENDBRANCH  14  17
ENDBRANCH   9  11
ENDBRANCH   4   9
BRANCH   7  27
HETATM   27  N   UNL     1      -7.618  16.550  67.844  1.00  0.00    -0.149 N  
HETATM   28  O   UNL     1      -6.981  16.512  65.611  1.00  0.00     0.818 OA 
HETATM   29  H   UNL     1      -7.317  16.855  68.769  1.00  0.00     0.000 HD 
HETATM   30  C   UNL     1      -6.734  16.692  66.798  1.00  0.00    -0.206 C  
BRANCH  30  31
HETATM   31  C   UNL     1      -5.409  17.194  67.249  1.00  0.00    -0.167 C  
HETATM   32  C   UNL     1      -5.168  17.369  68.554  1.00  0.00    -0.139 C  
ENDBRANCH  30  31
ENDBRANCH   7  27
BRANCH   5  33
HETATM   33  N   UNL     1     -10.001  18.059  68.558  1.00  0.00    -0.371 NA 
HETATM   34  C   UNL     1      -9.364  19.118  67.782  1.00  0.00    -0.305 C  
BRANCH  33  35
HETATM   35  C   UNL     1     -10.735  18.493  69.760  1.00  0.00     1.524 C  
BRANCH  35  36
HETATM   36  C   UNL     1     -10.591  17.461  70.903  1.00  0.00     1.770 C  
BRANCH  36  37
HETATM   37  N   UNL     1     -11.425  16.246  70.770  1.00  0.00    -0.377 NA 
HETATM   38  C   UNL     1     -12.491  16.296  71.777  1.00  0.00    -0.077 C  
HETATM   39  C   UNL     1     -10.635  15.026  70.958  1.00  0.00     0.293 C  
ENDBRANCH  36  37
ENDBRANCH  35  36
ENDBRANCH  33  35
ENDBRANCH   5  33
ENDBRANCH   2   3
TORSDOF 10
ENDMDL
MODEL      294
REMARK 921   NORMALIZED FREE ENERGY PREDICTED BY IDOCK:    8.71 KCAL/MOL
REMARK 922        TOTAL FREE ENERGY PREDICTED BY IDOCK:   12.09 KCAL/MOL
REMARK 923 INTER-LIGAND FREE ENERGY PREDICTED BY IDOCK:   -4.04 KCAL/MOL
REMARK 924 INTRA-LIGAND FREE ENERGY PREDICTED BY IDOCK:   16.12 KCAL/MOL
REMARK 927      BINDING AFFINITY PREDICTED BY RF-SCORE:    0.00 PKD
ROOT
HETATM    1  C   UNL     1      -8.704  15.276  66.369  1.00  0.00    -0.230 C  
HETATM    2  O   UNL     1      -8.413  13.932  66.001  1.00  0.00     0.727 OA 
ENDROOT
BRANCH   2   3
HETATM    3  C   UNL     1      -8.670  12.956  66.933  1.00  0.00    -0.161 A  
HETATM    4  C   UNL     1      -9.862  12.756  67.633  1.00  0.00    -0.214 A  
HETATM    5  C   UNL     1      -7.601  11.043  68.117  1.00  0.00    -0.095 A  
HETATM    6  C   UNL     1      -9.955  11.608  68.430  1.00  0.00    -0.201 A  
HETATM    7  C   UNL     1      -8.847  10.805  68.725  1.00  0.00    -0.163 A  
HETATM    8  C   UNL     1      -7.581  12.089  67.163  1.00  0.00    -0.146 A  
BRANCH   4   9
HETATM    9  N   UNL     1     -10.945  13.651  67.581  1.00  0.00    -0.263 NA 
HETATM   10  H   UNL     1     -11.860  13.255  67.365  1.00  0.00     0.000 HD 
BRANCH   9  11
HETATM   11  C   UNL     1     -10.888  15.031  67.796  1.00  0.00    -0.284 A  
HETATM   12  N   UNL     1     -11.945  15.582  68.402  1.00  0.00    -0.216 NA 
HETATM   13  N   UNL     1      -9.792  15.724  67.436  1.00  0.00    -0.231 NA 
HETATM   14  C   UNL     1      -9.691  17.010  67.807  1.00  0.00    -0.258 A  
HETATM   15  C   UNL     1     -10.717  17.643  68.474  1.00  0.00    -0.193 A  
HETATM   16  C   UNL     1     -11.835  16.879  68.726  1.00  0.00     0.847 A  
BRANCH  14  17
HETATM   17  C   UNL     1      -8.427  17.681  67.477  1.00  0.00    -0.220 A  
HETATM   18  C   UNL     1      -5.240  19.370  68.024  1.00  0.00    -0.172 A  
HETATM   19  C   UNL     1      -7.977  17.859  66.177  1.00  0.00    -0.201 A  
HETATM   20  C   UNL     1      -5.139  19.540  69.407  1.00  0.00    -0.192 A  
HETATM   21  C   UNL     1      -6.161  19.120  70.249  1.00  0.00    -0.107 A  
HETATM   22  N   UNL     1      -6.773  18.509  66.212  1.00  0.00    -0.208 NA 
HETATM   23  C   UNL     1      -6.398  18.762  67.508  1.00  0.00    -0.192 A  
HETATM   24  C   UNL     1      -6.009  18.891  65.044  1.00  0.00    -0.278 C  
HETATM   25  C   UNL     1      -7.433  18.296  68.333  1.00  0.00    -0.292 A  
HETATM   26  C   UNL     1      -7.301  18.492  69.726  1.00  0.00     0.448 A  
ENDBRANCH  14  17
ENDBRANCH   9  11
ENDBRANCH   4   9
BRANCH   7  27
HETATM   27  N   UNL     1      -8.974   9.897  69.797  1.00  0.00    -0.231 N  
HETATM   28  O   UNL     1     -10.803   8.685  69.037  1.00  0.00    -0.153 OA 
HETATM   29  H   UNL     1      -8.279   9.936  70.542  1.00  0.00     0.000 HD 
HETATM   30  C   UNL     1      -9.979   8.961  69.901  1.00  0.00    -0.188 C  
BRANCH  30  31
HETATM   31  C   UNL     1      -9.918   8.213  71.184  1.00  0.00    -0.218 C  
HETATM   32  C   UNL     1     -10.170   8.842  72.338  1.00  0.00    -0.227 C  
ENDBRANCH  30  31
ENDBRANCH   7  27
BRANCH   5  33
HETATM   33  N   UNL     1      -6.448  10.317  68.417  1.00  0.00    -0.049 NA 
HETATM   34  C   UNL     1      -5.673  10.533  69.635  1.00  0.00    -0.041 C  
BRANCH  33  35
HETATM   35  C   UNL     1      -6.035   9.175  67.583  1.00  0.00    -0.050 C  
BRANCH  35  36
HETATM   36  C   UNL     1      -7.100   8.053  67.610  1.00  0.00    -0.083 C  
BRANCH  36  37
HETATM   37  N   UNL     1      -7.809   7.881  68.896  1.00  0.00    -0.115 NA 
HETATM   38  C   UNL     1      -7.002   7.017  69.766  1.00  0.00    -0.059 C  
HETATM   39  C   UNL     1      -9.133   7.280  68.706  1.00  0.00    -0.127 C  
ENDBRANCH  36  37
ENDBRANCH  35  36
ENDBRANCH  33  35
ENDBRANCH   5  33
ENDBRANCH   2   3
TORSDOF 10
ENDMDL
MODEL      295
REMARK 921   NORMALIZED FREE ENERGY PREDICTED BY IDOCK:   14.14 KCAL/MOL
REMARK 922        TOTAL FREE ENERGY PREDICTED BY IDOCK:   20.70 KCAL/MOL
REMARK 923 INTER-LIGAND FREE ENERGY PREDICTED BY IDOCK:    9.43 KCAL/MOL
REMARK 924 INTRA-LIGAND FREE ENERGY PREDICTED BY IDOCK:   11.27 KCAL/MOL
REMARK 927      BINDING AFFINITY PREDICTED BY RF-SCORE:    0.00 PKD
ROOT
HETATM    1  C   UNL     1     -13.139  15.841  66.019  1.00  0.00     3.242 C  
HETATM    2  O   UNL     1     -12.724  14.639  66.660  1.00  0.00     0.076 OA 
ENDROOT
BRANCH   2   3
HETATM    3  C   UNL     1     -11.390  14.520  66.966  1.00  0.00    -0.349 A  
HETATM    4  C   UNL     1     -10.499  13.559  66.484  1.00  0.00    -0.284 A  
HETATM    5  C   UNL     1      -9.599  15.546  68.359  1.00  0.00    -0.199 A  
HETATM    6  C   UNL     1      -9.147  13.712  66.813  1.00  0.00    -0.230 A  
HETATM    7  C   UNL     1      -8.705  14.630  67.773  1.00  0.00    -0.171 A  
HETATM    8  C   UNL     1     -10.924  15.503  67.865  1.00  0.00    -0.316 A  
BRANCH   4   9
HETATM    9  N   UNL     1     -10.901  12.459  65.706  1.00  0.00    -0.268 NA 
HETATM   10  H   UNL     1     -11.237  12.658  64.764  1.00  0.00     0.000 HD 
BRANCH   9  11
HETATM   11  C   UNL     1     -10.885  11.117  66.101  1.00  0.00    -0.185 A  
HETATM   12  N   UNL     1     -11.656  10.282  65.396  1.00  0.00     1.833 NA 
HETATM   13  N   UNL     1     -10.091  10.722  67.113  1.00  0.00    -0.197 NA 
HETATM   14  C   UNL     1      -9.965   9.410  67.360  1.00  0.00    -0.199 A  
HETATM   15  C   UNL     1     -10.690   8.477  66.650  1.00  0.00     0.058 A  
HETATM   16  C   UNL     1     -11.541   8.977  65.690  1.00  0.00     6.358 A  
BRANCH  14  17
HETATM   17  C   UNL     1      -9.004   9.037  68.406  1.00  0.00    -0.133 A  
HETATM   18  C   UNL     1      -6.278   9.421  70.801  1.00  0.00    -0.072 A  
HETATM   19  C   UNL     1      -8.981   7.787  69.007  1.00  0.00    -0.145 A  
HETATM   20  C   UNL     1      -5.782  10.711  70.599  1.00  0.00    -0.111 A  
HETATM   21  C   UNL     1      -6.318  11.530  69.614  1.00  0.00    -0.133 A  
HETATM   22  N   UNL     1      -7.978   7.764  69.938  1.00  0.00    -0.108 NA 
HETATM   23  C   UNL     1      -7.334   8.975  69.985  1.00  0.00    -0.060 A  
HETATM   24  C   UNL     1      -7.634   6.617  70.751  1.00  0.00    -0.092 C  
HETATM   25  C   UNL     1      -7.921   9.790  69.004  1.00  0.00    -0.096 A  
HETATM   26  C   UNL     1      -7.388  11.086  68.823  1.00  0.00    -0.111 A  
ENDBRANCH  14  17
ENDBRANCH   9  11
ENDBRANCH   4   9
BRANCH   7  27
HETATM   27  N   UNL     1      -7.398  14.462  68.274  1.00  0.00    -0.111 N  
HETATM   28  O   UNL     1      -7.853  12.973  69.997  1.00  0.00     1.551 OA 
HETATM   29  H   UNL     1      -6.634  14.929  67.785  1.00  0.00     0.000 HD 
HETATM   30  C   UNL     1      -7.087  13.707  69.383  1.00  0.00     0.080 C  
BRANCH  30  31
HETATM   31  C   UNL     1      -5.646  13.796  69.736  1.00  0.00    -0.101 C  
HETATM   32  C   UNL     1      -5.172  13.124  70.792  1.00  0.00    -0.144 C  
ENDBRANCH  30  31
ENDBRANCH   7  27
BRANCH   5  33
HETATM   33  N   UNL     1      -9.231  16.441  69.364  1.00  0.00    -0.147 NA 
HETATM   34  C   UNL     1     -10.173  16.944  70.359  1.00  0.00     0.994 C  
BRANCH  33  35
HETATM   35  C   UNL     1      -7.819  16.810  69.568  1.00  0.00     0.281 C  
BRANCH  35  36
HETATM   36  C   UNL     1      -7.336  17.792  68.475  1.00  0.00    -0.266 C  
BRANCH  36  37
HETATM   37  N   UNL     1      -8.131  19.032  68.340  1.00  0.00    -0.332 NA 
HETATM   38  C   UNL     1      -8.927  18.948  67.109  1.00  0.00    -0.284 C  
HETATM   39  C   UNL     1      -7.273  20.219  68.283  1.00  0.00    -0.201 C  
ENDBRANCH  36  37
ENDBRANCH  35  36
ENDBRANCH  33  35
ENDBRANCH   5  33
ENDBRANCH   2   3
TORSDOF 10
ENDMDL
MODEL      296
REMARK 921   NORMALIZED FREE ENERGY PREDICTED BY IDOCK:   16.70 KCAL/MOL
REMARK 922        TOTAL FREE ENERGY PREDICTED BY IDOCK:   24.75 KCAL/MOL
REMARK 923 INTER-LIGAND FREE ENERGY PREDICTED BY IDOCK:   22.27 KCAL/MOL
REMARK 924 INTRA-LIGAND FREE ENERGY PREDICTED BY IDOCK:    2.48 KCAL/MOL
REMARK 927      BINDING AFFINITY PREDICTED BY RF-SCORE:    0.00 PKD
ROOT
HETATM    1  C   UNL     1     -11.072  18.328  69.052  1.00  0.00     1.384 C  
HETATM    2  O   UNL     1     -10.175  17.597  69.881  1.00  0.00     0.186 OA 
ENDROOT
BRANCH   2   3
HETATM    3  C   UNL     1      -9.856  16.320  69.487  1.00  0.00    -0.159 A  
HETATM    4  C   UNL     1      -8.576  15.787  69.320  1.00  0.00    -0.259 A  
HETATM    5  C   UNL     1     -10.893  14.168  68.783  1.00  0.00    -0.258 A  
HETATM    6  C   UNL     1      -8.480  14.415  69.054  1.00  0.00    -0.001 A  
HETATM    7  C   UNL     1      -9.593  13.632  68.727  1.00  0.00    -0.011 A  
HETATM    8  C   UNL     1     -10.981  15.503  69.246  1.00  0.00    -0.268 A  
BRANCH   4   9
HETATM    9  N   UNL     1      -7.404  16.561  69.393  1.00  0.00    -0.196 NA 
HETATM   10  H   UNL     1      -6.799  16.405  70.198  1.00  0.00     0.000 HD 
BRANCH   9  11
HETATM   11  C   UNL     1      -6.991  17.524  68.468  1.00  0.00    -0.214 A  
HETATM   12  N   UNL     1      -5.671  17.700  68.343  1.00  0.00    -0.156 NA 
HETATM   13  N   UNL     1      -7.902  18.187  67.733  1.00  0.00    -0.232 NA 
HETATM   14  C   UNL     1      -7.476  18.977  66.736  1.00  0.00    -0.219 A  
HETATM   15  C   UNL     1      -6.132  19.179  66.510  1.00  0.00    -0.179 A  
HETATM   16  C   UNL     1      -5.272  18.527  67.366  1.00  0.00    -0.144 A  
BRANCH  14  17
HETATM   17  C   UNL     1      -8.520  19.589  65.903  1.00  0.00    -0.115 A  
HETATM   18  C   UNL     1     -11.851  20.699  64.910  1.00  0.00     3.196 A  
HETATM   19  C   UNL     1      -8.257  20.217  64.695  1.00  0.00     2.068 A  
HETATM   20  C   UNL     1     -12.712  20.232  65.906  1.00  0.00     6.611 A  
HETATM   21  C   UNL     1     -12.227  19.480  66.968  1.00  0.00     3.011 A  
HETATM   22  N   UNL     1      -9.435  20.683  64.175  1.00  0.00     2.925 NA 
HETATM   23  C   UNL     1     -10.482  20.392  65.013  1.00  0.00     0.785 A  
HETATM   24  C   UNL     1      -9.561  21.373  62.909  1.00  0.00     5.900 C  
HETATM   25  C   UNL     1      -9.954  19.665  66.091  1.00  0.00    -0.554 A  
HETATM   26  C   UNL     1     -10.857  19.202  67.075  1.00  0.00    -0.479 A  
ENDBRANCH  14  17
ENDBRANCH   9  11
ENDBRANCH   4   9
BRANCH   7  27
HETATM   27  N   UNL     1      -9.347  12.371  68.145  1.00  0.00    -0.206 N  
HETATM   28  O   UNL     1      -7.190  12.739  67.368  1.00  0.00    -0.146 OA 
HETATM   29  H   UNL     1     -10.064  11.652  68.242  1.00  0.00     0.000 HD 
HETATM   30  C   UNL     1      -8.200  12.050  67.455  1.00  0.00    -0.168 C  
BRANCH  30  31
HETATM   31  C   UNL     1      -8.263  10.686  66.868  1.00  0.00    -0.123 C  
HETATM   32  C   UNL     1      -7.766  10.459  65.645  1.00  0.00    -0.150 C  
ENDBRANCH  30  31
ENDBRANCH   7  27
BRANCH   5  33
HETATM   33  N   UNL     1     -12.034  13.456  68.410  1.00  0.00    -0.353 NA 
HETATM   34  C   UNL     1     -12.962  12.885  69.380  1.00  0.00     1.360 C  
BRANCH  33  35
HETATM   35  C   UNL     1     -12.446  13.376  66.997  1.00  0.00    -0.017 C  
BRANCH  35  36
HETATM   36  C   UNL     1     -12.643  14.786  66.394  1.00  0.00     0.396 C  
BRANCH  36  37
HETATM   37  N   UNL     1     -11.726  15.137  65.288  1.00  0.00    -0.204 NA 
HETATM   38  C   UNL     1     -11.151  13.901  64.744  1.00  0.00    -0.383 C  
HETATM   39  C   UNL     1     -10.645  16.017  65.741  1.00  0.00    -0.353 C  
ENDBRANCH  36  37
ENDBRANCH  35  36
ENDBRANCH  33  35
ENDBRANCH   5  33
ENDBRANCH   2   3
TORSDOF 10
ENDMDL
MODEL      297
REMARK 921   NORMALIZED FREE ENERGY PREDICTED BY IDOCK:   18.79 KCAL/MOL
REMARK 922        TOTAL FREE ENERGY PREDICTED BY IDOCK:   28.06 KCAL/MOL
REMARK 923 INTER-LIGAND FREE ENERGY PREDICTED BY IDOCK:   22.54 KCAL/MOL
REMARK 924 INTRA-LIGAND FREE ENERGY PREDICTED BY IDOCK:    5.52 KCAL/MOL
REMARK 927      BINDING AFFINITY PREDICTED BY RF-SCORE:    0.00 PKD
ROOT
HETATM    1  C   UNL     1     -10.648  13.349  74.059  1.00  0.00    10.740 C  
HETATM    2  O   UNL     1     -11.252  12.601  73.009  1.00  0.00     7.491 OA 
ENDROOT
BRANCH   2   3
HETATM    3  C   UNL     1     -11.440  13.243  71.809  1.00  0.00     2.846 A  
HETATM    4  C   UNL     1     -12.183  12.786  70.718  1.00  0.00    -0.248 A  
HETATM    5  C   UNL     1     -10.811  15.310  70.570  1.00  0.00    -0.257 A  
HETATM    6  C   UNL     1     -12.364  13.670  69.647  1.00  0.00    -0.257 A  
HETATM    7  C   UNL     1     -11.652  14.869  69.532  1.00  0.00    -0.303 A  
HETATM    8  C   UNL     1     -10.796  14.496  71.728  1.00  0.00     1.522 A  
BRANCH   4   9
HETATM    9  N   UNL     1     -12.734  11.494  70.650  1.00  0.00    -0.222 NA 
HETATM   10  H   UNL     1     -13.645  11.358  71.088  1.00  0.00     0.000 HD 
BRANCH   9  11
HETATM   11  C   UNL     1     -12.153  10.379  70.039  1.00  0.00    -0.222 A  
HETATM   12  N   UNL     1     -12.064  10.412  68.704  1.00  0.00    -0.128 NA 
HETATM   13  N   UNL     1     -11.682   9.368  70.791  1.00  0.00    -0.283 NA 
HETATM   14  C   UNL     1     -10.978   8.394  70.195  1.00  0.00    -0.215 A  
HETATM   15  C   UNL     1     -10.801   8.375  68.828  1.00  0.00     0.013 A  
HETATM   16  C   UNL     1     -11.390   9.405  68.129  1.00  0.00     0.408 A  
BRANCH  14  17
HETATM   17  C   UNL     1     -10.401   7.376  71.082  1.00  0.00    -0.209 A  
HETATM   18  C   UNL     1      -8.468   4.446  72.079  1.00  0.00    -0.115 A  
HETATM   19  C   UNL     1     -10.574   7.381  72.458  1.00  0.00    -0.261 A  
HETATM   20  C   UNL     1      -7.993   3.889  70.889  1.00  0.00    -0.058 A  
HETATM   21  C   UNL     1      -8.321   4.452  69.663  1.00  0.00    -0.074 A  
HETATM   22  N   UNL     1      -9.909   6.309  72.991  1.00  0.00    -0.166 NA 
HETATM   23  C   UNL     1      -9.283   5.590  72.003  1.00  0.00    -0.140 A  
HETATM   24  C   UNL     1      -9.882   5.971  74.397  1.00  0.00    -0.264 C  
HETATM   25  C   UNL     1      -9.605   6.203  70.783  1.00  0.00    -0.191 A  
HETATM   26  C   UNL     1      -9.113   5.608  69.599  1.00  0.00    -0.148 A  
ENDBRANCH  14  17
ENDBRANCH   9  11
ENDBRANCH   4   9
BRANCH   7  27
HETATM   27  N   UNL     1     -11.648  15.500  68.271  1.00  0.00    -0.359 N  
HETATM   28  O   UNL     1     -12.455  13.746  66.980  1.00  0.00    -0.315 OA 
HETATM   29  H   UNL     1     -11.382  16.484  68.229  1.00  0.00     0.000 HD 
HETATM   30  C   UNL     1     -11.980  14.871  67.092  1.00  0.00    -0.114 C  
BRANCH  30  31
HETATM   31  C   UNL     1     -11.787  15.753  65.912  1.00  0.00     0.719 C  
HETATM   32  C   UNL     1     -10.800  15.504  65.043  1.00  0.00    -0.468 C  
ENDBRANCH  30  31
ENDBRANCH   7  27
BRANCH   5  33
HETATM   33  N   UNL     1     -10.029  16.463  70.488  1.00  0.00     0.927 NA 
HETATM   34  C   UNL     1      -8.674  16.463  69.948  1.00  0.00     0.900 C  
BRANCH  33  35
HETATM   35  C   UNL     1     -10.598  17.786  70.805  1.00  0.00     1.989 C  
BRANCH  35  36
HETATM   36  C   UNL     1     -10.588  18.707  69.563  1.00  0.00     0.970 C  
BRANCH  36  37
HETATM   37  N   UNL     1     -10.141  18.073  68.304  1.00  0.00    -0.364 NA 
HETATM   38  C   UNL     1      -8.926  17.295  68.576  1.00  0.00    -0.273 C  
HETATM   39  C   UNL     1      -9.859  19.069  67.267  1.00  0.00    -0.326 C  
ENDBRANCH  36  37
ENDBRANCH  35  36
ENDBRANCH  33  35
ENDBRANCH   5  33
ENDBRANCH   2   3
TORSDOF 10
ENDMDL
MODEL      298
REMARK 921   NORMALIZED FREE ENERGY PREDICTED BY IDOCK:   29.97 KCAL/MOL
REMARK 922        TOTAL FREE ENERGY PREDICTED BY IDOCK:   45.78 KCAL/MOL
REMARK 923 INTER-LIGAND FREE ENERGY PREDICTED BY IDOCK:    0.77 KCAL/MOL
REMARK 924 INTRA-LIGAND FREE ENERGY PREDICTED BY IDOCK:   45.01 KCAL/MOL
REMARK 927      BINDING AFFINITY PREDICTED BY RF-SCORE:    0.00 PKD
ROOT
HETATM    1  C   UNL     1     -12.766  13.341  69.570  1.00  0.00     0.499 C  
HETATM    2  O   UNL     1     -12.025  12.325  70.238  1.00  0.00    -0.344 OA 
ENDROOT
BRANCH   2   3
HETATM    3  C   UNL     1     -11.105  11.627  69.493  1.00  0.00    -0.164 A  
HETATM    4  C   UNL     1     -10.204  10.666  69.956  1.00  0.00     0.155 A  
HETATM    5  C   UNL     1     -10.227  11.398  67.174  1.00  0.00    -0.202 A  
HETATM    6  C   UNL     1      -9.455   9.971  68.998  1.00  0.00    -0.190 A  
HETATM    7  C   UNL     1      -9.407  10.360  67.654  1.00  0.00    -0.148 A  
HETATM    8  C   UNL     1     -11.120  11.954  68.120  1.00  0.00    -0.294 A  
BRANCH   4   9
HETATM    9  N   UNL     1     -10.014  10.382  71.320  1.00  0.00     0.976 NA 
HETATM   10  H   UNL     1      -9.876  11.179  71.941  1.00  0.00     0.000 HD 
BRANCH   9  11
HETATM   11  C   UNL     1      -9.997   9.113  71.905  1.00  0.00    -0.094 A  
HETATM   12  N   UNL     1     -10.750   8.953  73.000  1.00  0.00     0.893 NA 
HETATM   13  N   UNL     1      -9.283   8.121  71.343  1.00  0.00    -0.144 NA 
HETATM   14  C   UNL     1      -9.418   6.875  71.823  1.00  0.00    -0.153 A  
HETATM   15  C   UNL     1     -10.209   6.616  72.922  1.00  0.00    -0.215 A  
HETATM   16  C   UNL     1     -10.836   7.705  73.484  1.00  0.00    -0.059 A  
BRANCH  14  17
HETATM   17  C   UNL     1      -8.695   5.821  71.101  1.00  0.00    -0.135 A  
HETATM   18  C   UNL     1      -7.897   2.473  69.890  1.00  0.00    -0.049 A  
HETATM   19  C   UNL     1      -7.600   6.071  70.286  1.00  0.00    -0.095 A  
HETATM   20  C   UNL     1      -8.808   1.621  70.519  1.00  0.00    -0.120 A  
HETATM   21  C   UNL     1      -9.737   2.120  71.423  1.00  0.00    -0.212 A  
HETATM   22  N   UNL     1      -7.163   4.886  69.758  1.00  0.00    -0.054 NA 
HETATM   23  C   UNL     1      -7.947   3.846  70.191  1.00  0.00    -0.047 A  
HETATM   24  C   UNL     1      -6.023   4.746  68.878  1.00  0.00    -0.025 C  
HETATM   25  C   UNL     1      -8.895   4.387  71.074  1.00  0.00    -0.146 A  
HETATM   26  C   UNL     1      -9.796   3.494  71.698  1.00  0.00    -0.227 A  
ENDBRANCH  14  17
ENDBRANCH   9  11
ENDBRANCH   4   9
BRANCH   7  27
HETATM   27  N   UNL     1      -8.372   9.821  66.862  1.00  0.00    -0.120 N  
HETATM   28  O   UNL     1      -7.511  11.795  65.993  1.00  0.00     0.287 OA 
HETATM   29  H   UNL     1      -8.217   8.814  66.897  1.00  0.00     0.000 HD 
HETATM   30  C   UNL     1      -7.556  10.571  66.045  1.00  0.00    -0.140 C  
BRANCH  30  31
HETATM   31  C   UNL     1      -6.624   9.725  65.254  1.00  0.00    -0.098 C  
HETATM   32  C   UNL     1      -5.451   9.350  65.779  1.00  0.00    -0.040 C  
ENDBRANCH  30  31
ENDBRANCH   7  27
BRANCH   5  33
HETATM   33  N   UNL     1     -10.179  11.870  65.862  1.00  0.00    -0.228 NA 
HETATM   34  C   UNL     1     -11.355  12.370  65.158  1.00  0.00    -0.323 C  
BRANCH  33  35
HETATM   35  C   UNL     1      -8.891  12.033  65.163  1.00  0.00     0.627 C  
BRANCH  35  36
HETATM   36  C   UNL     1      -8.633  10.857  64.191  1.00  0.00     0.057 C  
BRANCH  36  37
HETATM   37  N   UNL     1      -7.221  10.436  64.066  1.00  0.00    -0.044 NA 
HETATM   38  C   UNL     1      -6.627  10.380  65.407  1.00  0.00    -0.109 C  
HETATM   39  C   UNL     1      -6.452  11.365  63.233  1.00  0.00     1.499 C  
ENDBRANCH  36  37
ENDBRANCH  35  36
ENDBRANCH  33  35
ENDBRANCH   5  33
ENDBRANCH   2   3
TORSDOF 10
ENDMDL
MODEL      299
REMARK 921   NORMALIZED FREE ENERGY PREDICTED BY IDOCK:   47.06 KCAL/MOL
REMARK 922        TOTAL FREE ENERGY PREDICTED BY IDOCK:   72.86 KCAL/MOL
REMARK 923 INTER-LIGAND FREE ENERGY PREDICTED BY IDOCK:   47.33 KCAL/MOL
REMARK 924 INTRA-LIGAND FREE ENERGY PREDICTED BY IDOCK:   25.53 KCAL/MOL
REMARK 927      BINDING AFFINITY PREDICTED BY RF-SCORE:    0.00 PKD
ROOT
HETATM    1  C   UNL     1     -13.927  15.039  70.508  1.00  0.00     0.423 C  
HETATM    2  O   UNL     1     -12.737  14.725  69.792  1.00  0.00    -0.188 OA 
ENDROOT
BRANCH   2   3
HETATM    3  C   UNL     1     -11.675  15.584  69.932  1.00  0.00    -0.352 A  
HETATM    4  C   UNL     1     -10.454  15.529  69.256  1.00  0.00    -0.245 A  
HETATM    5  C   UNL     1     -10.927  17.587  71.209  1.00  0.00     1.939 A  
HETATM    6  C   UNL     1      -9.565  16.594  69.444  1.00  0.00    -0.057 A  
HETATM    7  C   UNL     1      -9.752  17.564  70.436  1.00  0.00     2.323 A  
HETATM    8  C   UNL     1     -11.899  16.617  70.867  1.00  0.00     0.509 A  
BRANCH   4   9
HETATM    9  N   UNL     1     -10.084  14.459  68.422  1.00  0.00    -0.237 NA 
HETATM   10  H   UNL     1     -10.707  14.245  67.643  1.00  0.00     0.000 HD 
BRANCH   9  11
HETATM   11  C   UNL     1      -8.945  13.660  68.558  1.00  0.00    -0.102 A  
HETATM   12  N   UNL     1      -8.116  13.975  69.559  1.00  0.00     0.429 NA 
HETATM   13  N   UNL     1      -8.752  12.614  67.734  1.00  0.00    -0.168 NA 
HETATM   14  C   UNL     1      -7.747  11.765  67.992  1.00  0.00    -0.123 A  
HETATM   15  C   UNL     1      -6.871  11.991  69.032  1.00  0.00    -0.105 A  
HETATM   16  C   UNL     1      -7.094  13.131  69.772  1.00  0.00     0.487 A  
BRANCH  14  17
HETATM   17  C   UNL     1      -7.653  10.587  67.120  1.00  0.00    -0.097 A  
HETATM   18  C   UNL     1      -7.122   7.106  66.165  1.00  0.00    -0.073 A  
HETATM   19  C   UNL     1      -7.933  10.623  65.761  1.00  0.00    -0.152 A  
HETATM   20  C   UNL     1      -6.703   6.459  67.330  1.00  0.00    -0.060 A  
HETATM   21  C   UNL     1      -6.541   7.166  68.514  1.00  0.00    -0.048 A  
HETATM   22  N   UNL     1      -7.758   9.369  65.242  1.00  0.00    -0.105 NA 
HETATM   23  C   UNL     1      -7.379   8.488  66.223  1.00  0.00    -0.079 A  
HETATM   24  C   UNL     1      -7.934   9.022  63.848  1.00  0.00    -0.146 C  
HETATM   25  C   UNL     1      -7.258   9.225  67.412  1.00  0.00    -0.080 A  
HETATM   26  C   UNL     1      -6.824   8.539  68.569  1.00  0.00    -0.064 A  
ENDBRANCH  14  17
ENDBRANCH   9  11
ENDBRANCH   4   9
BRANCH   7  27
HETATM   27  N   UNL     1      -8.644  18.372  70.766  1.00  0.00     4.508 N  
HETATM   28  O   UNL     1      -9.406  20.399  69.926  1.00  0.00     0.646 OA 
HETATM   29  H   UNL     1      -7.881  17.946  71.291  1.00  0.00     0.000 HD 
HETATM   30  C   UNL     1      -8.530  19.701  70.424  1.00  0.00     1.594 C  
BRANCH  30  31
HETATM   31  C   UNL     1      -7.213  20.269  70.815  1.00  0.00     0.847 C  
HETATM   32  C   UNL     1      -6.261  19.472  71.315  1.00  0.00     0.155 C  
ENDBRANCH  30  31
ENDBRANCH   7  27
BRANCH   5  33
HETATM   33  N   UNL     1     -11.143  18.489  72.252  1.00  0.00     2.743 NA 
HETATM   34  C   UNL     1     -11.623  19.850  72.032  1.00  0.00    10.920 C  
BRANCH  33  35
HETATM   35  C   UNL     1     -11.042  18.059  73.657  1.00  0.00     1.954 C  
BRANCH  35  36
HETATM   36  C   UNL     1     -10.289  16.713  73.775  1.00  0.00     7.772 C  
BRANCH  36  37
HETATM   37  N   UNL     1     -10.455  15.791  72.631  1.00  0.00     2.353 NA 
HETATM   38  C   UNL     1      -9.489  14.694  72.768  1.00  0.00     7.414 C  
HETATM   39  C   UNL     1     -10.238  16.472  71.352  1.00  0.00     2.794 C  
ENDBRANCH  36  37
ENDBRANCH  35  36
ENDBRANCH  33  35
ENDBRANCH   5  33
ENDBRANCH   2   3
TORSDOF 10
ENDMDL
