MODEL        1
REMARK 921   NORMALIZED FREE ENERGY PREDICTED BY IDOCK:   -6.80 KCAL/MOL
REMARK 922        TOTAL FREE ENERGY PREDICTED BY IDOCK:  -11.30 KCAL/MOL
REMARK 923 INTER-LIGAND FREE ENERGY PREDICTED BY IDOCK:   -9.58 KCAL/MOL
REMARK 924 INTRA-LIGAND FREE ENERGY PREDICTED BY IDOCK:   -1.72 KCAL/MOL
REMARK 927      BINDING AFFINITY PREDICTED BY RF-SCORE:    0.00 PKD
ROOT
HETATM    1  O   UNL     1      -9.381  20.944  66.963  1.00  0.00    -0.651 OA 
HETATM    2  C   UNL     1      -9.385  19.817  66.091  1.00  0.00    -0.363 C  
HETATM    3  H   UNL     1     -10.107  21.521  66.756  1.00  0.00     0.000 HD 
ENDROOT
BRANCH   2   4
HETATM    4  C   UNL     1      -8.217  18.886  66.425  1.00  0.00    -0.294 C  
BRANCH   4   5
HETATM    5  O   UNL     1      -8.538  17.546  66.037  1.00  0.00    -0.497 OA 
BRANCH   5   6
HETATM    6  C   UNL     1      -9.328  16.821  66.893  1.00  0.00    -0.236 A  
HETATM    7  C   UNL     1     -10.585  16.299  66.600  1.00  0.00    -0.252 A  
HETATM    8  C   UNL     1     -11.273  15.528  67.553  1.00  0.00    -0.272 A  
HETATM    9  C   UNL     1     -10.711  15.255  68.810  1.00  0.00    -0.241 A  
HETATM   10  C   UNL     1      -8.789  16.597  68.166  1.00  0.00    -0.206 A  
HETATM   11  C   UNL     1      -9.473  15.823  69.120  1.00  0.00    -0.255 A  
BRANCH   9  12
HETATM   12  C   UNL     1     -11.426  14.320  69.739  1.00  0.00    -0.317 C  
HETATM   13  C   UNL     1     -11.501  12.992  69.422  1.00  0.00    -0.323 C  
BRANCH  12  14
HETATM   14  C   UNL     1     -12.129  14.842  70.949  1.00  0.00    -0.377 A  
HETATM   15  C   UNL     1     -13.531  14.904  70.986  1.00  0.00    -0.428 A  
HETATM   16  C   UNL     1     -13.472  15.834  73.223  1.00  0.00    -0.580 A  
HETATM   17  C   UNL     1     -11.413  15.272  72.076  1.00  0.00    -0.500 A  
HETATM   18  C   UNL     1     -12.080  15.773  73.202  1.00  0.00    -0.603 A  
HETATM   19  C   UNL     1     -14.197  15.395  72.116  1.00  0.00    -0.660 A  
ENDBRANCH  12  14
BRANCH  13  20
HETATM   20  C   UNL     1     -12.410  11.964  70.095  1.00  0.00    -0.247 C  
HETATM   21  C   UNL     1     -11.694  10.798  70.766  1.00  0.00    -0.298 C  
HETATM   22 CL   UNL     1     -12.895   9.593  71.323  1.00  0.00    -0.420 Cl 
ENDBRANCH  13  20
BRANCH  13  23
HETATM   23  C   UNL     1     -10.781  12.417  68.249  1.00  0.00    -0.250 A  
HETATM   24  C   UNL     1      -9.420  11.304  66.057  1.00  0.00    -0.240 A  
HETATM   25  C   UNL     1     -11.483  12.020  67.101  1.00  0.00    -0.401 A  
HETATM   26  C   UNL     1     -10.805  11.465  66.012  1.00  0.00    -0.306 A  
HETATM   27  C   UNL     1      -8.713  11.715  67.183  1.00  0.00    -0.164 A  
HETATM   28  C   UNL     1      -9.387  12.272  68.272  1.00  0.00    -0.199 A  
ENDBRANCH  13  23
ENDBRANCH   9  12
ENDBRANCH   5   6
ENDBRANCH   4   5
ENDBRANCH   2   4
TORSDOF 7
ENDMDL
MODEL        2
REMARK 921   NORMALIZED FREE ENERGY PREDICTED BY IDOCK:   -6.67 KCAL/MOL
REMARK 922        TOTAL FREE ENERGY PREDICTED BY IDOCK:  -11.11 KCAL/MOL
REMARK 923 INTER-LIGAND FREE ENERGY PREDICTED BY IDOCK:   -9.32 KCAL/MOL
REMARK 924 INTRA-LIGAND FREE ENERGY PREDICTED BY IDOCK:   -1.80 KCAL/MOL
REMARK 927      BINDING AFFINITY PREDICTED BY RF-SCORE:    0.00 PKD
ROOT
HETATM    1  O   UNL     1      -9.568  20.379  66.027  1.00  0.00    -0.653 OA 
HETATM    2  C   UNL     1      -9.186  19.529  67.104  1.00  0.00    -0.316 C  
HETATM    3  H   UNL     1     -10.176  21.042  66.331  1.00  0.00     0.000 HD 
ENDROOT
BRANCH   2   4
HETATM    4  C   UNL     1      -8.206  18.461  66.614  1.00  0.00    -0.266 C  
BRANCH   4   5
HETATM    5  O   UNL     1      -8.929  17.347  66.079  1.00  0.00    -0.493 OA 
BRANCH   5   6
HETATM    6  C   UNL     1      -9.462  16.459  66.979  1.00  0.00    -0.230 A  
HETATM    7  C   UNL     1      -8.812  15.934  68.092  1.00  0.00    -0.176 A  
HETATM    8  C   UNL     1      -9.489  15.067  68.966  1.00  0.00    -0.210 A  
HETATM    9  C   UNL     1     -10.832  14.719  68.751  1.00  0.00    -0.259 A  
HETATM   10  C   UNL     1     -10.784  16.069  66.729  1.00  0.00    -0.259 A  
HETATM   11  C   UNL     1     -11.465  15.204  67.604  1.00  0.00    -0.319 A  
BRANCH   9  12
HETATM   12  C   UNL     1     -11.546  13.899  69.782  1.00  0.00    -0.335 C  
HETATM   13  C   UNL     1     -11.615  12.542  69.626  1.00  0.00    -0.323 C  
BRANCH  12  14
HETATM   14  C   UNL     1     -12.255  14.558  70.919  1.00  0.00    -0.409 A  
HETATM   15  C   UNL     1     -13.658  14.584  70.964  1.00  0.00    -0.294 A  
HETATM   16  C   UNL     1     -13.609  15.808  73.055  1.00  0.00    -0.638 A  
HETATM   17  C   UNL     1     -11.544  15.156  71.970  1.00  0.00    -0.496 A  
HETATM   18  C   UNL     1     -12.217  15.785  73.026  1.00  0.00    -0.593 A  
HETATM   19  C   UNL     1     -14.330  15.204  72.026  1.00  0.00    -0.682 A  
ENDBRANCH  12  14
BRANCH  13  20
HETATM   20  C   UNL     1     -12.522  11.598  70.414  1.00  0.00    -0.304 C  
HETATM   21  C   UNL     1     -11.806  10.500  71.190  1.00  0.00    -0.295 C  
HETATM   22 CL   UNL     1     -13.009   9.370  71.886  1.00  0.00    -0.457 Cl 
ENDBRANCH  13  20
BRANCH  13  23
HETATM   23  C   UNL     1     -10.889  11.834  68.531  1.00  0.00    -0.261 A  
HETATM   24  C   UNL     1      -9.522  10.529  66.453  1.00  0.00    -0.208 A  
HETATM   25  C   UNL     1      -9.560  11.420  68.702  1.00  0.00    -0.179 A  
HETATM   26  C   UNL     1      -8.880  10.773  67.666  1.00  0.00    -0.132 A  
HETATM   27  C   UNL     1     -10.847  10.915  66.282  1.00  0.00    -0.191 A  
HETATM   28  C   UNL     1     -11.530  11.561  67.316  1.00  0.00    -0.338 A  
ENDBRANCH  13  23
ENDBRANCH   9  12
ENDBRANCH   5   6
ENDBRANCH   4   5
ENDBRANCH   2   4
TORSDOF 7
ENDMDL
MODEL        3
REMARK 921   NORMALIZED FREE ENERGY PREDICTED BY IDOCK:   -6.58 KCAL/MOL
REMARK 922        TOTAL FREE ENERGY PREDICTED BY IDOCK:  -10.99 KCAL/MOL
REMARK 923 INTER-LIGAND FREE ENERGY PREDICTED BY IDOCK:  -10.29 KCAL/MOL
REMARK 924 INTRA-LIGAND FREE ENERGY PREDICTED BY IDOCK:   -0.70 KCAL/MOL
REMARK 927      BINDING AFFINITY PREDICTED BY RF-SCORE:    0.00 PKD
ROOT
HETATM    1  O   UNL     1     -12.892   6.596  72.151  1.00  0.00    -0.544 OA 
HETATM    2  C   UNL     1     -14.011   7.134  71.453  1.00  0.00    -0.255 C  
HETATM    3  H   UNL     1     -12.646   5.756  71.779  1.00  0.00     0.000 HD 
ENDROOT
BRANCH   2   4
HETATM    4  C   UNL     1     -14.408   8.485  72.050  1.00  0.00    -0.447 C  
BRANCH   4   5
HETATM    5  O   UNL     1     -13.241   9.172  72.513  1.00  0.00    -0.444 OA 
BRANCH   5   6
HETATM    6  C   UNL     1     -12.748  10.174  71.715  1.00  0.00    -0.434 A  
HETATM    7  C   UNL     1     -11.684  10.059  70.824  1.00  0.00    -0.437 A  
HETATM    8  C   UNL     1     -11.308  11.152  70.024  1.00  0.00    -0.326 A  
HETATM    9  C   UNL     1     -11.997  12.374  70.091  1.00  0.00    -0.376 A  
HETATM   10  C   UNL     1     -13.401  11.408  71.825  1.00  0.00    -0.368 A  
HETATM   11  C   UNL     1     -13.029  12.501  71.023  1.00  0.00    -0.154 A  
BRANCH   9  12
HETATM   12  C   UNL     1     -11.642  13.463  69.125  1.00  0.00    -0.365 C  
HETATM   13  C   UNL     1     -11.851  14.766  69.481  1.00  0.00    -0.366 C  
BRANCH  12  14
HETATM   14  C   UNL     1     -11.153  13.131  67.753  1.00  0.00    -0.287 A  
HETATM   15  C   UNL     1      -9.807  13.334  67.409  1.00  0.00    -0.227 A  
HETATM   16  C   UNL     1     -10.215  12.517  65.164  1.00  0.00    -0.299 A  
HETATM   17  C   UNL     1     -12.016  12.601  66.782  1.00  0.00    -0.362 A  
HETATM   18  C   UNL     1     -11.551  12.305  65.494  1.00  0.00    -0.422 A  
HETATM   19  C   UNL     1      -9.342  13.028  66.123  1.00  0.00    -0.092 A  
ENDBRANCH  12  14
BRANCH  13  20
HETATM   20  C   UNL     1     -11.811  15.967  68.537  1.00  0.00    -0.126 C  
HETATM   21  C   UNL     1     -10.500  16.745  68.523  1.00  0.00    -0.335 C  
HETATM   22 CL   UNL     1     -10.685  18.223  67.530  1.00  0.00    -0.426 Cl 
ENDBRANCH  13  20
BRANCH  13  23
HETATM   23  C   UNL     1     -12.298  15.150  70.852  1.00  0.00    -0.412 A  
HETATM   24  C   UNL     1     -13.153  15.841  73.438  1.00  0.00    -0.690 A  
HETATM   25  C   UNL     1     -11.370  15.305  71.892  1.00  0.00    -0.447 A  
HETATM   26  C   UNL     1     -11.796  15.647  73.178  1.00  0.00    -0.540 A  
HETATM   27  C   UNL     1     -14.079  15.711  72.407  1.00  0.00    -0.575 A  
HETATM   28  C   UNL     1     -13.655  15.372  71.120  1.00  0.00    -0.536 A  
ENDBRANCH  13  23
ENDBRANCH   9  12
ENDBRANCH   5   6
ENDBRANCH   4   5
ENDBRANCH   2   4
TORSDOF 7
ENDMDL
MODEL        4
REMARK 921   NORMALIZED FREE ENERGY PREDICTED BY IDOCK:   -6.40 KCAL/MOL
REMARK 922        TOTAL FREE ENERGY PREDICTED BY IDOCK:  -10.74 KCAL/MOL
REMARK 923 INTER-LIGAND FREE ENERGY PREDICTED BY IDOCK:   -9.73 KCAL/MOL
REMARK 924 INTRA-LIGAND FREE ENERGY PREDICTED BY IDOCK:   -1.01 KCAL/MOL
REMARK 927      BINDING AFFINITY PREDICTED BY RF-SCORE:    0.00 PKD
ROOT
HETATM    1  O   UNL     1     -11.683   6.541  67.551  1.00  0.00    -0.596 OA 
HETATM    2  C   UNL     1     -11.051   6.336  68.811  1.00  0.00    -0.346 C  
HETATM    3  H   UNL     1     -12.161   5.762  67.293  1.00  0.00     0.000 HD 
ENDROOT
BRANCH   2   4
HETATM    4  C   UNL     1     -10.281   7.590  69.227  1.00  0.00    -0.201 C  
BRANCH   4   5
HETATM    5  O   UNL     1     -10.932   8.213  70.340  1.00  0.00    -0.246 OA 
BRANCH   5   6
HETATM    6  C   UNL     1     -11.299   9.527  70.192  1.00  0.00    -0.199 A  
HETATM    7  C   UNL     1     -12.422  10.130  70.754  1.00  0.00    -0.417 A  
HETATM    8  C   UNL     1     -12.659  11.502  70.565  1.00  0.00    -0.286 A  
HETATM    9  C   UNL     1     -11.772  12.299  69.825  1.00  0.00    -0.368 A  
HETATM   10  C   UNL     1     -10.443  10.307  69.405  1.00  0.00    -0.259 A  
HETATM   11  C   UNL     1     -10.675  11.681  69.219  1.00  0.00    -0.144 A  
BRANCH   9  12
HETATM   12  C   UNL     1     -12.000  13.779  69.765  1.00  0.00    -0.406 C  
HETATM   13  C   UNL     1     -11.750  14.447  68.599  1.00  0.00    -0.367 C  
BRANCH  12  14
HETATM   14  C   UNL     1     -12.406  14.534  70.988  1.00  0.00    -0.417 A  
HETATM   15  C   UNL     1     -13.763  14.755  71.271  1.00  0.00    -0.476 A  
HETATM   16  C   UNL     1     -13.188  15.966  73.290  1.00  0.00    -0.698 A  
HETATM   17  C   UNL     1     -11.449  15.030  71.887  1.00  0.00    -0.368 A  
HETATM   18  C   UNL     1     -11.839  15.749  73.025  1.00  0.00    -0.551 A  
HETATM   19  C   UNL     1     -14.151  15.465  72.415  1.00  0.00    -0.645 A  
ENDBRANCH  12  14
BRANCH  13  20
HETATM   20  C   UNL     1     -11.659  15.965  68.441  1.00  0.00    -0.317 C  
HETATM   21  C   UNL     1     -10.285  16.569  68.706  1.00  0.00    -0.267 C  
HETATM   22 CL   UNL     1     -10.396  18.356  68.678  1.00  0.00    -0.352 Cl 
ENDBRANCH  13  20
BRANCH  13  23
HETATM   23  C   UNL     1     -11.383  13.733  67.341  1.00  0.00    -0.348 A  
HETATM   24  C   UNL     1     -10.679  12.363  64.991  1.00  0.00    -0.329 A  
HETATM   25  C   UNL     1     -12.370  13.148  66.535  1.00  0.00    -0.252 A  
HETATM   26  C   UNL     1     -12.019  12.465  65.367  1.00  0.00    -0.457 A  
HETATM   27  C   UNL     1      -9.695  12.960  65.773  1.00  0.00    -0.155 A  
HETATM   28  C   UNL     1     -10.043  13.645  66.940  1.00  0.00    -0.260 A  
ENDBRANCH  13  23
ENDBRANCH   9  12
ENDBRANCH   5   6
ENDBRANCH   4   5
ENDBRANCH   2   4
TORSDOF 7
ENDMDL
MODEL        5
REMARK 921   NORMALIZED FREE ENERGY PREDICTED BY IDOCK:   -6.32 KCAL/MOL
REMARK 922        TOTAL FREE ENERGY PREDICTED BY IDOCK:  -10.62 KCAL/MOL
REMARK 923 INTER-LIGAND FREE ENERGY PREDICTED BY IDOCK:   -9.00 KCAL/MOL
REMARK 924 INTRA-LIGAND FREE ENERGY PREDICTED BY IDOCK:   -1.63 KCAL/MOL
REMARK 927      BINDING AFFINITY PREDICTED BY RF-SCORE:    0.00 PKD
ROOT
HETATM    1  O   UNL     1     -10.355  10.673  62.461  1.00  0.00    -0.751 OA 
HETATM    2  C   UNL     1      -8.995  10.288  62.638  1.00  0.00    -0.261 C  
HETATM    3  H   UNL     1     -10.470  11.095  61.618  1.00  0.00     0.000 HD 
ENDROOT
BRANCH   2   4
HETATM    4  C   UNL     1      -8.810   9.608  63.995  1.00  0.00    -0.227 C  
BRANCH   4   5
HETATM    5  O   UNL     1      -8.214  10.524  64.920  1.00  0.00    -0.168 OA 
BRANCH   5   6
HETATM    6  C   UNL     1      -8.878  10.737  66.102  1.00  0.00    -0.177 A  
HETATM    7  C   UNL     1      -8.349  11.345  67.238  1.00  0.00    -0.149 A  
HETATM    8  C   UNL     1      -9.154  11.548  68.373  1.00  0.00    -0.185 A  
HETATM    9  C   UNL     1     -10.503  11.161  68.388  1.00  0.00    -0.211 A  
HETATM   10  C   UNL     1     -10.207  10.297  66.134  1.00  0.00    -0.285 A  
HETATM   11  C   UNL     1     -11.015  10.504  67.266  1.00  0.00    -0.325 A  
BRANCH   9  12
HETATM   12  C   UNL     1     -11.350  11.519  69.571  1.00  0.00    -0.342 C  
HETATM   13  C   UNL     1     -11.663  12.831  69.795  1.00  0.00    -0.352 C  
BRANCH  12  14
HETATM   14  C   UNL     1     -11.771  10.472  70.548  1.00  0.00    -0.443 A  
HETATM   15  C   UNL     1     -13.115  10.360  70.937  1.00  0.00    -0.412 A  
HETATM   16  C   UNL     1     -12.582   8.503  72.400  1.00  0.00    -0.409 A  
HETATM   17  C   UNL     1     -10.844   9.570  71.092  1.00  0.00    -0.425 A  
HETATM   18  C   UNL     1     -11.246   8.599  72.019  1.00  0.00    -0.434 A  
HETATM   19  C   UNL     1     -13.518   9.382  71.855  1.00  0.00    -0.500 A  
ENDBRANCH  12  14
BRANCH  13  20
HETATM   20  C   UNL     1     -12.268  13.398  71.078  1.00  0.00    -0.312 C  
HETATM   21  C   UNL     1     -13.382  14.419  70.881  1.00  0.00    -0.238 C  
HETATM   22 CL   UNL     1     -13.837  15.128  72.461  1.00  0.00    -0.581 Cl 
ENDBRANCH  13  20
BRANCH  13  23
HETATM   23  C   UNL     1     -11.301  13.907  68.827  1.00  0.00    -0.310 A  
HETATM   24  C   UNL     1     -10.589  15.920  66.999  1.00  0.00    -0.306 A  
HETATM   25  C   UNL     1     -11.890  13.956  67.554  1.00  0.00    -0.431 A  
HETATM   26  C   UNL     1     -11.534  14.956  66.646  1.00  0.00    -0.297 A  
HETATM   27  C   UNL     1     -10.016  15.893  68.267  1.00  0.00    -0.222 A  
HETATM   28  C   UNL     1     -10.372  14.895  69.178  1.00  0.00    -0.246 A  
ENDBRANCH  13  23
ENDBRANCH   9  12
ENDBRANCH   5   6
ENDBRANCH   4   5
ENDBRANCH   2   4
TORSDOF 7
ENDMDL
MODEL        6
REMARK 921   NORMALIZED FREE ENERGY PREDICTED BY IDOCK:   -6.30 KCAL/MOL
REMARK 922        TOTAL FREE ENERGY PREDICTED BY IDOCK:  -10.60 KCAL/MOL
REMARK 923 INTER-LIGAND FREE ENERGY PREDICTED BY IDOCK:   -9.09 KCAL/MOL
REMARK 924 INTRA-LIGAND FREE ENERGY PREDICTED BY IDOCK:   -1.51 KCAL/MOL
REMARK 927      BINDING AFFINITY PREDICTED BY RF-SCORE:    0.00 PKD
ROOT
HETATM    1  O   UNL     1     -11.588  16.562  63.802  1.00  0.00    -1.617 OA 
HETATM    2  C   UNL     1     -10.977  15.734  64.787  1.00  0.00    -0.393 C  
HETATM    3  H   UNL     1     -12.052  16.029  63.167  1.00  0.00     0.000 HD 
ENDROOT
BRANCH   2   4
HETATM    4  C   UNL     1     -10.231  16.591  65.810  1.00  0.00    -0.329 C  
BRANCH   4   5
HETATM    5  O   UNL     1     -10.648  16.241  67.134  1.00  0.00    -0.312 OA 
BRANCH   5   6
HETATM    6  C   UNL     1     -10.663  14.905  67.451  1.00  0.00    -0.292 A  
HETATM    7  C   UNL     1     -11.797  14.139  67.707  1.00  0.00    -0.414 A  
HETATM    8  C   UNL     1     -11.679  12.764  67.973  1.00  0.00    -0.405 A  
HETATM    9  C   UNL     1     -10.428  12.128  67.973  1.00  0.00    -0.227 A  
HETATM   10  C   UNL     1      -9.409  14.286  67.507  1.00  0.00    -0.199 A  
HETATM   11  C   UNL     1      -9.288  12.909  67.767  1.00  0.00    -0.203 A  
BRANCH   9  12
HETATM   12  C   UNL     1     -10.369  10.639  68.130  1.00  0.00    -0.203 C  
HETATM   13  C   UNL     1     -10.238   9.855  67.018  1.00  0.00    -0.294 C  
BRANCH  12  14
HETATM   14  C   UNL     1     -10.544  10.009  69.473  1.00  0.00    -0.267 A  
HETATM   15  C   UNL     1     -11.816   9.932  70.062  1.00  0.00    -0.131 A  
HETATM   16  C   UNL     1     -10.891   8.831  72.013  1.00  0.00    -0.428 A  
HETATM   17  C   UNL     1      -9.453   9.472  70.172  1.00  0.00    -0.287 A  
HETATM   18  C   UNL     1      -9.625   8.896  71.438  1.00  0.00    -0.359 A  
HETATM   19  C   UNL     1     -11.988   9.346  71.323  1.00  0.00    -0.430 A  
ENDBRANCH  12  14
BRANCH  13  20
HETATM   20  C   UNL     1     -10.438   8.341  66.964  1.00  0.00    -0.384 C  
HETATM   21  C   UNL     1      -9.165   7.509  67.058  1.00  0.00    -0.138 C  
HETATM   22 CL   UNL     1      -9.549   5.783  66.779  1.00  0.00    -0.151 Cl 
ENDBRANCH  13  20
BRANCH  13  23
HETATM   23  C   UNL     1     -10.018  10.436  65.661  1.00  0.00    -0.337 A  
HETATM   24  C   UNL     1      -9.602  11.562  63.121  1.00  0.00    -0.381 A  
HETATM   25  C   UNL     1      -8.797  10.259  64.994  1.00  0.00    -0.209 A  
HETATM   26  C   UNL     1      -8.591  10.822  63.731  1.00  0.00    -0.036 A  
HETATM   27  C   UNL     1     -10.825  11.724  63.765  1.00  0.00    -0.490 A  
HETATM   28  C   UNL     1     -11.035  11.162  65.027  1.00  0.00    -0.174 A  
ENDBRANCH  13  23
ENDBRANCH   9  12
ENDBRANCH   5   6
ENDBRANCH   4   5
ENDBRANCH   2   4
TORSDOF 7
ENDMDL
MODEL        7
REMARK 921   NORMALIZED FREE ENERGY PREDICTED BY IDOCK:   -6.28 KCAL/MOL
REMARK 922        TOTAL FREE ENERGY PREDICTED BY IDOCK:  -10.56 KCAL/MOL
REMARK 923 INTER-LIGAND FREE ENERGY PREDICTED BY IDOCK:   -9.08 KCAL/MOL
REMARK 924 INTRA-LIGAND FREE ENERGY PREDICTED BY IDOCK:   -1.49 KCAL/MOL
REMARK 927      BINDING AFFINITY PREDICTED BY RF-SCORE:    0.00 PKD
ROOT
HETATM    1  O   UNL     1      -8.261  20.207  66.008  1.00  0.00    -0.502 OA 
HETATM    2  C   UNL     1      -7.729  18.967  66.467  1.00  0.00    -0.259 C  
HETATM    3  H   UNL     1      -8.248  20.238  65.058  1.00  0.00     0.000 HD 
ENDROOT
BRANCH   2   4
HETATM    4  C   UNL     1      -7.752  18.916  67.996  1.00  0.00    -0.271 C  
BRANCH   4   5
HETATM    5  O   UNL     1      -9.105  18.922  68.463  1.00  0.00    -0.330 OA 
BRANCH   5   6
HETATM    6  C   UNL     1      -9.713  17.703  68.629  1.00  0.00    -0.332 A  
HETATM    7  C   UNL     1     -11.018  17.384  68.262  1.00  0.00    -0.148 A  
HETATM    8  C   UNL     1     -11.506  16.079  68.443  1.00  0.00    -0.331 A  
HETATM    9  C   UNL     1     -10.696  15.066  68.981  1.00  0.00    -0.239 A  
HETATM   10  C   UNL     1      -8.921  16.711  69.219  1.00  0.00    -0.052 A  
HETATM   11  C   UNL     1      -9.406  15.403  69.397  1.00  0.00    -0.266 A  
BRANCH   9  12
HETATM   12  C   UNL     1     -11.221  13.663  69.030  1.00  0.00    -0.316 C  
HETATM   13  C   UNL     1     -12.002  13.279  70.084  1.00  0.00    -0.388 C  
BRANCH  12  14
HETATM   14  C   UNL     1     -10.822  12.667  67.991  1.00  0.00    -0.249 A  
HETATM   15  C   UNL     1     -11.627  12.458  66.860  1.00  0.00    -0.437 A  
HETATM   16  C   UNL     1     -10.087  10.784  66.024  1.00  0.00    -0.305 A  
HETATM   17  C   UNL     1      -9.636  11.928  68.111  1.00  0.00    -0.195 A  
HETATM   18  C   UNL     1      -9.276  10.986  67.138  1.00  0.00    -0.162 A  
HETATM   19  C   UNL     1     -11.260  11.523  65.883  1.00  0.00    -0.239 A  
ENDBRANCH  12  14
BRANCH  13  20
HETATM   20  C   UNL     1     -12.384  11.841  70.434  1.00  0.00    -0.362 C  
HETATM   21  C   UNL     1     -12.985  11.643  71.821  1.00  0.00    -0.377 C  
HETATM   22 CL   UNL     1     -13.186   9.895  72.148  1.00  0.00    -0.536 Cl 
ENDBRANCH  13  20
BRANCH  13  23
HETATM   23  C   UNL     1     -12.460  14.246  71.123  1.00  0.00    -0.433 A  
HETATM   24  C   UNL     1     -13.341  16.043  73.096  1.00  0.00    -0.624 A  
HETATM   25  C   UNL     1     -11.560  14.772  72.062  1.00  0.00    -0.178 A  
HETATM   26  C   UNL     1     -12.000  15.664  73.044  1.00  0.00    -0.590 A  
HETATM   27  C   UNL     1     -14.237  15.544  72.156  1.00  0.00    -0.617 A  
HETATM   28  C   UNL     1     -13.800  14.653  71.172  1.00  0.00    -0.340 A  
ENDBRANCH  13  23
ENDBRANCH   9  12
ENDBRANCH   5   6
ENDBRANCH   4   5
ENDBRANCH   2   4
TORSDOF 7
ENDMDL
MODEL        8
REMARK 921   NORMALIZED FREE ENERGY PREDICTED BY IDOCK:   -6.27 KCAL/MOL
REMARK 922        TOTAL FREE ENERGY PREDICTED BY IDOCK:  -10.56 KCAL/MOL
REMARK 923 INTER-LIGAND FREE ENERGY PREDICTED BY IDOCK:   -9.61 KCAL/MOL
REMARK 924 INTRA-LIGAND FREE ENERGY PREDICTED BY IDOCK:   -0.95 KCAL/MOL
REMARK 927      BINDING AFFINITY PREDICTED BY RF-SCORE:    0.00 PKD
ROOT
HETATM    1  O   UNL     1      -8.659   8.600  73.088  1.00  0.00    -0.393 OA 
HETATM    2  C   UNL     1      -9.818   7.850  72.737  1.00  0.00    -0.270 C  
HETATM    3  H   UNL     1      -8.571   8.645  74.033  1.00  0.00     0.000 HD 
ENDROOT
BRANCH   2   4
HETATM    4  C   UNL     1      -9.960   7.776  71.216  1.00  0.00    -0.175 C  
BRANCH   4   5
HETATM    5  O   UNL     1     -11.305   8.087  70.837  1.00  0.00    -0.271 OA 
BRANCH   5   6
HETATM    6  C   UNL     1     -11.597   9.407  70.601  1.00  0.00    -0.269 A  
HETATM    7  C   UNL     1     -12.727  10.086  71.049  1.00  0.00    -0.455 A  
HETATM    8  C   UNL     1     -12.884  11.457  70.779  1.00  0.00    -0.255 A  
HETATM    9  C   UNL     1     -11.909  12.175  70.068  1.00  0.00    -0.383 A  
HETATM   10  C   UNL     1     -10.650  10.107  69.843  1.00  0.00    -0.331 A  
HETATM   11  C   UNL     1     -10.803  11.479  69.575  1.00  0.00    -0.121 A  
BRANCH   9  12
HETATM   12  C   UNL     1     -12.061  13.659  69.922  1.00  0.00    -0.406 C  
HETATM   13  C   UNL     1     -11.706  14.253  68.743  1.00  0.00    -0.378 C  
BRANCH  12  14
HETATM   14  C   UNL     1     -12.506  14.493  71.077  1.00  0.00    -0.412 A  
HETATM   15  C   UNL     1     -11.571  14.985  72.002  1.00  0.00    -0.419 A  
HETATM   16  C   UNL     1     -13.331  16.065  73.270  1.00  0.00    -0.625 A  
HETATM   17  C   UNL     1     -13.859  14.816  71.263  1.00  0.00    -0.460 A  
HETATM   18  C   UNL     1     -14.269  15.589  72.358  1.00  0.00    -0.571 A  
HETATM   19  C   UNL     1     -11.981  15.767  73.090  1.00  0.00    -0.574 A  
ENDBRANCH  12  14
BRANCH  13  20
HETATM   20  C   UNL     1     -11.533  15.755  68.517  1.00  0.00    -0.381 C  
HETATM   21  C   UNL     1     -10.173  16.322  68.906  1.00  0.00    -0.256 C  
HETATM   22 CL   UNL     1     -10.203  18.107  68.773  1.00  0.00    -0.383 Cl 
ENDBRANCH  13  20
BRANCH  13  23
HETATM   23  C   UNL     1     -11.297  13.459  67.548  1.00  0.00    -0.327 A  
HETATM   24  C   UNL     1     -10.532  11.990  65.278  1.00  0.00    -0.323 A  
HETATM   25  C   UNL     1      -9.948  13.146  67.322  1.00  0.00    -0.230 A  
HETATM   26  C   UNL     1      -9.569  12.417  66.192  1.00  0.00    -0.238 A  
HETATM   27  C   UNL     1     -11.875  12.276  65.505  1.00  0.00    -0.420 A  
HETATM   28  C   UNL     1     -12.257  13.003  66.635  1.00  0.00    -0.285 A  
ENDBRANCH  13  23
ENDBRANCH   9  12
ENDBRANCH   5   6
ENDBRANCH   4   5
ENDBRANCH   2   4
TORSDOF 7
ENDMDL
MODEL        9
REMARK 921   NORMALIZED FREE ENERGY PREDICTED BY IDOCK:   -6.25 KCAL/MOL
REMARK 922        TOTAL FREE ENERGY PREDICTED BY IDOCK:  -10.52 KCAL/MOL
REMARK 923 INTER-LIGAND FREE ENERGY PREDICTED BY IDOCK:   -9.79 KCAL/MOL
REMARK 924 INTRA-LIGAND FREE ENERGY PREDICTED BY IDOCK:   -0.73 KCAL/MOL
REMARK 927      BINDING AFFINITY PREDICTED BY RF-SCORE:    0.00 PKD
ROOT
HETATM    1  O   UNL     1     -12.078   5.326  73.109  1.00  0.00    -0.532 OA 
HETATM    2  C   UNL     1     -11.266   6.128  72.256  1.00  0.00    -0.289 C  
HETATM    3  H   UNL     1     -11.595   4.560  73.396  1.00  0.00     0.000 HD 
ENDROOT
BRANCH   2   4
HETATM    4  C   UNL     1     -12.042   7.361  71.793  1.00  0.00    -0.312 C  
BRANCH   4   5
HETATM    5  O   UNL     1     -11.338   8.007  70.727  1.00  0.00    -0.272 OA 
BRANCH   5   6
HETATM    6  C   UNL     1     -11.624   9.330  70.501  1.00  0.00    -0.217 A  
HETATM    7  C   UNL     1     -12.738  10.018  70.976  1.00  0.00    -0.455 A  
HETATM    8  C   UNL     1     -12.889  11.390  70.713  1.00  0.00    -0.255 A  
HETATM    9  C   UNL     1     -11.925  12.102  69.983  1.00  0.00    -0.391 A  
HETATM   10  C   UNL     1     -10.689  10.024  69.723  1.00  0.00    -0.304 A  
HETATM   11  C   UNL     1     -10.836  11.398  69.463  1.00  0.00    -0.165 A  
BRANCH   9  12
HETATM   12  C   UNL     1     -12.067  13.587  69.844  1.00  0.00    -0.408 C  
HETATM   13  C   UNL     1     -11.710  14.186  68.668  1.00  0.00    -0.385 C  
BRANCH  12  14
HETATM   14  C   UNL     1     -12.506  14.419  71.004  1.00  0.00    -0.425 A  
HETATM   15  C   UNL     1     -13.856  14.774  71.155  1.00  0.00    -0.388 A  
HETATM   16  C   UNL     1     -13.350  15.997  73.185  1.00  0.00    -0.624 A  
HETATM   17  C   UNL     1     -11.590  14.856  71.973  1.00  0.00    -0.314 A  
HETATM   18  C   UNL     1     -12.008  15.648  73.051  1.00  0.00    -0.590 A  
HETATM   19  C   UNL     1     -14.275  15.557  72.239  1.00  0.00    -0.617 A  
ENDBRANCH  12  14
BRANCH  13  20
HETATM   20  C   UNL     1     -11.527  15.687  68.450  1.00  0.00    -0.374 C  
HETATM   21  C   UNL     1     -10.107  16.208  68.641  1.00  0.00    -0.231 C  
HETATM   22 CL   UNL     1     -10.103  17.996  68.550  1.00  0.00    -0.378 Cl 
ENDBRANCH  13  20
BRANCH  13  23
HETATM   23  C   UNL     1     -11.306  13.395  67.469  1.00  0.00    -0.327 A  
HETATM   24  C   UNL     1     -10.539  11.879  65.231  1.00  0.00    -0.320 A  
HETATM   25  C   UNL     1     -12.261  12.973  66.532  1.00  0.00    -0.316 A  
HETATM   26  C   UNL     1     -11.878  12.217  65.420  1.00  0.00    -0.418 A  
HETATM   27  C   UNL     1      -9.581  12.312  66.143  1.00  0.00    -0.248 A  
HETATM   28  C   UNL     1      -9.960  13.069  67.254  1.00  0.00    -0.232 A  
ENDBRANCH  13  23
ENDBRANCH   9  12
ENDBRANCH   5   6
ENDBRANCH   4   5
ENDBRANCH   2   4
TORSDOF 7
ENDMDL
MODEL       10
REMARK 921   NORMALIZED FREE ENERGY PREDICTED BY IDOCK:   -6.21 KCAL/MOL
REMARK 922        TOTAL FREE ENERGY PREDICTED BY IDOCK:  -10.47 KCAL/MOL
REMARK 923 INTER-LIGAND FREE ENERGY PREDICTED BY IDOCK:   -9.05 KCAL/MOL
REMARK 924 INTRA-LIGAND FREE ENERGY PREDICTED BY IDOCK:   -1.42 KCAL/MOL
REMARK 927      BINDING AFFINITY PREDICTED BY RF-SCORE:    0.00 PKD
ROOT
HETATM    1  O   UNL     1      -8.165  20.581  66.722  1.00  0.00    -0.493 OA 
HETATM    2  C   UNL     1      -9.328  19.760  66.654  1.00  0.00    -0.387 C  
HETATM    3  H   UNL     1      -7.725  20.597  65.880  1.00  0.00     0.000 HD 
ENDROOT
BRANCH   2   4
HETATM    4  C   UNL     1     -10.038  19.735  68.008  1.00  0.00    -0.446 C  
BRANCH   4   5
HETATM    5  O   UNL     1      -9.351  18.851  68.900  1.00  0.00    -0.341 OA 
BRANCH   5   6
HETATM    6  C   UNL     1      -9.700  17.525  68.856  1.00  0.00    -0.259 A  
HETATM    7  C   UNL     1      -8.865  16.450  69.151  1.00  0.00    -0.186 A  
HETATM    8  C   UNL     1      -9.362  15.136  69.115  1.00  0.00    -0.215 A  
HETATM    9  C   UNL     1     -10.703  14.873  68.796  1.00  0.00    -0.252 A  
HETATM   10  C   UNL     1     -11.023  17.262  68.482  1.00  0.00    -0.146 A  
HETATM   11  C   UNL     1     -11.524  15.949  68.449  1.00  0.00    -0.348 A  
BRANCH   9  12
HETATM   12  C   UNL     1     -11.214  13.468  68.901  1.00  0.00    -0.316 C  
HETATM   13  C   UNL     1     -11.987  13.116  69.972  1.00  0.00    -0.391 C  
BRANCH  12  14
HETATM   14  C   UNL     1     -10.811  12.437  67.898  1.00  0.00    -0.253 A  
HETATM   15  C   UNL     1     -11.437  12.381  66.643  1.00  0.00    -0.429 A  
HETATM   16  C   UNL     1     -10.066  10.490  65.997  1.00  0.00    -0.317 A  
HETATM   17  C   UNL     1      -9.795  11.510  68.177  1.00  0.00    -0.197 A  
HETATM   18  C   UNL     1      -9.432  10.538  67.236  1.00  0.00    -0.179 A  
HETATM   19  C   UNL     1     -11.065  11.415  65.699  1.00  0.00    -0.207 A  
ENDBRANCH  12  14
BRANCH  13  20
HETATM   20  C   UNL     1     -12.354  11.690  70.378  1.00  0.00    -0.373 C  
HETATM   21  C   UNL     1     -13.059  11.553  71.723  1.00  0.00    -0.398 C  
HETATM   22 CL   UNL     1     -13.235   9.821  72.139  1.00  0.00    -0.538 Cl 
ENDBRANCH  13  20
BRANCH  13  23
HETATM   23  C   UNL     1     -12.450  14.118  70.976  1.00  0.00    -0.438 A  
HETATM   24  C   UNL     1     -13.305  16.029  72.851  1.00  0.00    -0.537 A  
HETATM   25  C   UNL     1     -13.771  14.589  70.962  1.00  0.00    -0.241 A  
HETATM   26  C   UNL     1     -14.195  15.541  71.894  1.00  0.00    -0.586 A  
HETATM   27  C   UNL     1     -11.998  15.551  72.886  1.00  0.00    -0.575 A  
HETATM   28  C   UNL     1     -11.573  14.598  71.958  1.00  0.00    -0.004 A  
ENDBRANCH  13  23
ENDBRANCH   9  12
ENDBRANCH   5   6
ENDBRANCH   4   5
ENDBRANCH   2   4
TORSDOF 7
ENDMDL
MODEL       11
REMARK 921   NORMALIZED FREE ENERGY PREDICTED BY IDOCK:   -6.17 KCAL/MOL
REMARK 922        TOTAL FREE ENERGY PREDICTED BY IDOCK:  -10.42 KCAL/MOL
REMARK 923 INTER-LIGAND FREE ENERGY PREDICTED BY IDOCK:   -8.85 KCAL/MOL
REMARK 924 INTRA-LIGAND FREE ENERGY PREDICTED BY IDOCK:   -1.57 KCAL/MOL
REMARK 927      BINDING AFFINITY PREDICTED BY RF-SCORE:    0.00 PKD
ROOT
HETATM    1  O   UNL     1      -8.117  11.498  62.431  1.00  0.00    -0.617 OA 
HETATM    2  C   UNL     1      -9.258  10.686  62.690  1.00  0.00    -0.309 C  
HETATM    3  H   UNL     1      -8.282  12.070  61.691  1.00  0.00     0.000 HD 
ENDROOT
BRANCH   2   4
HETATM    4  C   UNL     1      -8.993   9.765  63.882  1.00  0.00    -0.243 C  
BRANCH   4   5
HETATM    5  O   UNL     1      -8.273  10.477  64.895  1.00  0.00    -0.168 OA 
BRANCH   5   6
HETATM    6  C   UNL     1      -8.930  10.715  66.077  1.00  0.00    -0.172 A  
HETATM    7  C   UNL     1      -8.389  11.333  67.201  1.00  0.00    -0.151 A  
HETATM    8  C   UNL     1      -9.186  11.562  68.336  1.00  0.00    -0.190 A  
HETATM    9  C   UNL     1     -10.540  11.189  68.363  1.00  0.00    -0.223 A  
HETATM   10  C   UNL     1     -10.263  10.291  66.120  1.00  0.00    -0.285 A  
HETATM   11  C   UNL     1     -11.064  10.522  67.253  1.00  0.00    -0.284 A  
BRANCH   9  12
HETATM   12  C   UNL     1     -11.377  11.575  69.544  1.00  0.00    -0.342 C  
HETATM   13  C   UNL     1     -11.676  12.893  69.749  1.00  0.00    -0.351 C  
BRANCH  12  14
HETATM   14  C   UNL     1     -11.805  10.546  70.539  1.00  0.00    -0.442 A  
HETATM   15  C   UNL     1     -10.874   9.642  71.073  1.00  0.00    -0.412 A  
HETATM   16  C   UNL     1     -12.599   8.592  72.413  1.00  0.00    -0.426 A  
HETATM   17  C   UNL     1     -13.137  10.464  70.972  1.00  0.00    -0.450 A  
HETATM   18  C   UNL     1     -13.532   9.487  71.896  1.00  0.00    -0.502 A  
HETATM   19  C   UNL     1     -11.268   8.673  72.004  1.00  0.00    -0.434 A  
ENDBRANCH  12  14
BRANCH  13  20
HETATM   20  C   UNL     1     -12.269  13.485  71.027  1.00  0.00    -0.348 C  
HETATM   21  C   UNL     1     -13.376  14.512  70.820  1.00  0.00    -0.189 C  
HETATM   22 CL   UNL     1     -13.816  15.250  72.390  1.00  0.00    -0.593 Cl 
ENDBRANCH  13  20
BRANCH  13  23
HETATM   23  C   UNL     1     -11.307  13.951  68.764  1.00  0.00    -0.310 A  
HETATM   24  C   UNL     1     -10.643  15.957  66.912  1.00  0.00    -0.309 A  
HETATM   25  C   UNL     1     -10.340  14.917  69.077  1.00  0.00    -0.245 A  
HETATM   26  C   UNL     1     -10.012  15.916  68.156  1.00  0.00    -0.222 A  
HETATM   27  C   UNL     1     -11.587  14.989  66.585  1.00  0.00    -0.201 A  
HETATM   28  C   UNL     1     -11.916  13.988  67.502  1.00  0.00    -0.430 A  
ENDBRANCH  13  23
ENDBRANCH   9  12
ENDBRANCH   5   6
ENDBRANCH   4   5
ENDBRANCH   2   4
TORSDOF 7
ENDMDL
MODEL       12
REMARK 921   NORMALIZED FREE ENERGY PREDICTED BY IDOCK:   -6.03 KCAL/MOL
REMARK 922        TOTAL FREE ENERGY PREDICTED BY IDOCK:  -10.22 KCAL/MOL
REMARK 923 INTER-LIGAND FREE ENERGY PREDICTED BY IDOCK:   -8.59 KCAL/MOL
REMARK 924 INTRA-LIGAND FREE ENERGY PREDICTED BY IDOCK:   -1.63 KCAL/MOL
REMARK 927      BINDING AFFINITY PREDICTED BY RF-SCORE:    0.00 PKD
ROOT
HETATM    1  O   UNL     1     -10.184  10.531  62.614  1.00  0.00    -0.736 OA 
HETATM    2  C   UNL     1      -8.806  10.244  62.830  1.00  0.00    -0.236 C  
HETATM    3  H   UNL     1     -10.287  11.102  61.862  1.00  0.00     0.000 HD 
ENDROOT
BRANCH   2   4
HETATM    4  C   UNL     1      -8.640   9.325  64.041  1.00  0.00    -0.186 C  
BRANCH   4   5
HETATM    5  O   UNL     1      -8.086  10.060  65.137  1.00  0.00    -0.131 OA 
BRANCH   5   6
HETATM    6  C   UNL     1      -8.953  10.462  66.121  1.00  0.00    -0.157 A  
HETATM    7  C   UNL     1     -10.316  10.178  66.176  1.00  0.00    -0.237 A  
HETATM    8  C   UNL     1     -11.087  10.609  67.269  1.00  0.00    -0.313 A  
HETATM    9  C   UNL     1     -10.509  11.319  68.333  1.00  0.00    -0.219 A  
HETATM   10  C   UNL     1      -8.385  11.220  67.153  1.00  0.00    -0.151 A  
HETATM   11  C   UNL     1      -9.154  11.648  68.249  1.00  0.00    -0.187 A  
BRANCH   9  12
HETATM   12  C   UNL     1     -11.345  11.640  69.534  1.00  0.00    -0.328 C  
HETATM   13  C   UNL     1     -11.654  12.944  69.805  1.00  0.00    -0.288 C  
BRANCH  12  14
HETATM   14  C   UNL     1     -11.762  10.560  70.478  1.00  0.00    -0.443 A  
HETATM   15  C   UNL     1     -10.809   9.686  71.025  1.00  0.00    -0.412 A  
HETATM   16  C   UNL     1     -12.534   8.511  72.257  1.00  0.00    -0.448 A  
HETATM   17  C   UNL     1     -13.105  10.398  70.850  1.00  0.00    -0.412 A  
HETATM   18  C   UNL     1     -13.489   9.374  71.727  1.00  0.00    -0.485 A  
HETATM   19  C   UNL     1     -11.193   8.669  71.910  1.00  0.00    -0.413 A  
ENDBRANCH  12  14
BRANCH  13  20
HETATM   20  C   UNL     1     -12.247  13.468  71.112  1.00  0.00    -0.283 C  
HETATM   21  C   UNL     1     -13.279  14.580  70.962  1.00  0.00    -0.354 C  
HETATM   22 CL   UNL     1     -13.720  15.215  72.577  1.00  0.00    -0.558 Cl 
ENDBRANCH  13  20
BRANCH  13  23
HETATM   23  C   UNL     1     -11.297  14.051  68.871  1.00  0.00    -0.314 A  
HETATM   24  C   UNL     1     -10.654  16.152  67.119  1.00  0.00    -0.294 A  
HETATM   25  C   UNL     1     -10.330  15.005  69.225  1.00  0.00    -0.249 A  
HETATM   26  C   UNL     1     -10.013  16.050  68.353  1.00  0.00    -0.220 A  
HETATM   27  C   UNL     1     -11.598  15.198  66.750  1.00  0.00    -0.136 A  
HETATM   28  C   UNL     1     -11.916  14.151  67.618  1.00  0.00    -0.405 A  
ENDBRANCH  13  23
ENDBRANCH   9  12
ENDBRANCH   5   6
ENDBRANCH   4   5
ENDBRANCH   2   4
TORSDOF 7
ENDMDL
MODEL       13
REMARK 921   NORMALIZED FREE ENERGY PREDICTED BY IDOCK:   -6.01 KCAL/MOL
REMARK 922        TOTAL FREE ENERGY PREDICTED BY IDOCK:  -10.19 KCAL/MOL
REMARK 923 INTER-LIGAND FREE ENERGY PREDICTED BY IDOCK:   -8.44 KCAL/MOL
REMARK 924 INTRA-LIGAND FREE ENERGY PREDICTED BY IDOCK:   -1.74 KCAL/MOL
REMARK 927      BINDING AFFINITY PREDICTED BY RF-SCORE:    0.00 PKD
ROOT
HETATM    1  O   UNL     1     -14.137  16.101  73.384  1.00  0.00    -0.761 OA 
HETATM    2  C   UNL     1     -12.782  15.711  73.593  1.00  0.00    -0.596 C  
HETATM    3  H   UNL     1     -14.691  15.741  74.067  1.00  0.00     0.000 HD 
ENDROOT
BRANCH   2   4
HETATM    4  C   UNL     1     -11.890  16.290  72.494  1.00  0.00    -0.510 C  
BRANCH   4   5
HETATM    5  O   UNL     1     -12.480  16.051  71.212  1.00  0.00    -0.438 OA 
BRANCH   5   6
HETATM    6  C   UNL     1     -11.894  15.093  70.424  1.00  0.00    -0.307 A  
HETATM    7  C   UNL     1     -10.760  15.266  69.635  1.00  0.00    -0.289 A  
HETATM    8  C   UNL     1     -10.230  14.185  68.909  1.00  0.00    -0.181 A  
HETATM    9  C   UNL     1     -10.815  12.910  68.970  1.00  0.00    -0.188 A  
HETATM   10  C   UNL     1     -12.514  13.837  70.441  1.00  0.00    -0.384 A  
HETATM   11  C   UNL     1     -11.983  12.754  69.720  1.00  0.00    -0.362 A  
BRANCH   9  12
HETATM   12  C   UNL     1     -10.135  11.764  68.284  1.00  0.00    -0.199 C  
HETATM   13  C   UNL     1     -10.237  11.643  66.926  1.00  0.00    -0.244 C  
BRANCH  12  14
HETATM   14  C   UNL     1      -9.432  10.714  69.079  1.00  0.00    -0.202 A  
HETATM   15  C   UNL     1     -10.162   9.720  69.749  1.00  0.00    -0.271 A  
HETATM   16  C   UNL     1      -8.118   8.727  70.592  1.00  0.00    -0.145 A  
HETATM   17  C   UNL     1      -8.032  10.685  69.168  1.00  0.00    -0.139 A  
HETATM   18  C   UNL     1      -7.381   9.704  69.927  1.00  0.00    -0.120 A  
HETATM   19  C   UNL     1      -9.510   8.733  70.499  1.00  0.00    -0.219 A  
ENDBRANCH  12  14
BRANCH  13  20
HETATM   20  C   UNL     1      -9.852  10.410  66.109  1.00  0.00    -0.278 C  
HETATM   21  C   UNL     1      -8.674  10.596  65.160  1.00  0.00    -0.186 C  
HETATM   22 CL   UNL     1      -8.484   9.137  64.141  1.00  0.00    -0.192 Cl 
ENDBRANCH  13  20
BRANCH  13  23
HETATM   23  C   UNL     1     -10.892  12.687  66.085  1.00  0.00    -0.301 A  
HETATM   24  C   UNL     1     -12.111  14.640  64.475  1.00  0.00    -0.490 A  
HETATM   25  C   UNL     1     -12.263  12.620  65.798  1.00  0.00    -0.427 A  
HETATM   26  C   UNL     1     -12.868  13.591  64.995  1.00  0.00    -0.330 A  
HETATM   27  C   UNL     1     -10.754  14.727  64.772  1.00  0.00    -0.380 A  
HETATM   28  C   UNL     1     -10.147  13.759  65.576  1.00  0.00    -0.303 A  
ENDBRANCH  13  23
ENDBRANCH   9  12
ENDBRANCH   5   6
ENDBRANCH   4   5
ENDBRANCH   2   4
TORSDOF 7
ENDMDL
MODEL       14
REMARK 921   NORMALIZED FREE ENERGY PREDICTED BY IDOCK:   -5.97 KCAL/MOL
REMARK 922        TOTAL FREE ENERGY PREDICTED BY IDOCK:  -10.13 KCAL/MOL
REMARK 923 INTER-LIGAND FREE ENERGY PREDICTED BY IDOCK:   -8.43 KCAL/MOL
REMARK 924 INTRA-LIGAND FREE ENERGY PREDICTED BY IDOCK:   -1.69 KCAL/MOL
REMARK 927      BINDING AFFINITY PREDICTED BY RF-SCORE:    0.00 PKD
ROOT
HETATM    1  O   UNL     1     -11.640  16.577  63.940  1.00  0.00    -1.598 OA 
HETATM    2  C   UNL     1     -10.965  15.587  64.710  1.00  0.00    -0.399 C  
HETATM    3  H   UNL     1     -12.029  16.183  63.168  1.00  0.00     0.000 HD 
ENDROOT
BRANCH   2   4
HETATM    4  C   UNL     1     -10.338  16.221  65.953  1.00  0.00    -0.365 C  
BRANCH   4   5
HETATM    5  O   UNL     1     -10.859  15.596  67.131  1.00  0.00    -0.312 OA 
BRANCH   5   6
HETATM    6  C   UNL     1     -10.516  14.285  67.346  1.00  0.00    -0.264 A  
HETATM    7  C   UNL     1      -9.236  13.809  67.619  1.00  0.00    -0.207 A  
HETATM    8  C   UNL     1      -9.027  12.442  67.869  1.00  0.00    -0.184 A  
HETATM    9  C   UNL     1     -10.093  11.529  67.864  1.00  0.00    -0.202 A  
HETATM   10  C   UNL     1     -11.573  13.369  67.284  1.00  0.00    -0.400 A  
HETATM   11  C   UNL     1     -11.367  12.001  67.539  1.00  0.00    -0.387 A  
BRANCH   9  12
HETATM   12  C   UNL     1      -9.837  10.108  68.267  1.00  0.00    -0.162 C  
HETATM   13  C   UNL     1      -9.373   9.223  67.334  1.00  0.00    -0.153 C  
BRANCH  12  14
HETATM   14  C   UNL     1     -10.171   9.638  69.645  1.00  0.00    -0.239 A  
HETATM   15  C   UNL     1      -9.156   9.227  70.522  1.00  0.00    -0.307 A  
HETATM   16  C   UNL     1     -10.786   8.739  72.247  1.00  0.00    -0.328 A  
HETATM   17  C   UNL     1     -11.498   9.605  70.100  1.00  0.00    -0.238 A  
HETATM   18  C   UNL     1     -11.804   9.150  71.389  1.00  0.00    -0.415 A  
HETATM   19  C   UNL     1      -9.461   8.782  71.815  1.00  0.00    -0.363 A  
ENDBRANCH  12  14
BRANCH  13  20
HETATM   20  C   UNL     1      -9.323   7.704  67.493  1.00  0.00    -0.159 C  
HETATM   21  C   UNL     1     -10.580   6.960  67.056  1.00  0.00    -0.333 C  
HETATM   22 CL   UNL     1     -10.438   5.229  67.491  1.00  0.00    -0.221 Cl 
ENDBRANCH  13  20
BRANCH  13  23
HETATM   23  C   UNL     1      -8.986   9.653  65.959  1.00  0.00    -0.195 A  
HETATM   24  C   UNL     1      -8.266  10.495  63.377  1.00  0.00    -0.098 A  
HETATM   25  C   UNL     1      -7.638   9.699  65.575  1.00  0.00    -0.109 A  
HETATM   26  C   UNL     1      -7.281  10.120  64.290  1.00  0.00    -0.108 A  
HETATM   27  C   UNL     1      -9.607  10.431  63.742  1.00  0.00    -0.366 A  
HETATM   28  C   UNL     1      -9.967  10.009  65.024  1.00  0.00    -0.320 A  
ENDBRANCH  13  23
ENDBRANCH   9  12
ENDBRANCH   5   6
ENDBRANCH   4   5
ENDBRANCH   2   4
TORSDOF 7
ENDMDL
MODEL       15
REMARK 921   NORMALIZED FREE ENERGY PREDICTED BY IDOCK:   -5.96 KCAL/MOL
REMARK 922        TOTAL FREE ENERGY PREDICTED BY IDOCK:  -10.12 KCAL/MOL
REMARK 923 INTER-LIGAND FREE ENERGY PREDICTED BY IDOCK:   -8.54 KCAL/MOL
REMARK 924 INTRA-LIGAND FREE ENERGY PREDICTED BY IDOCK:   -1.58 KCAL/MOL
REMARK 927      BINDING AFFINITY PREDICTED BY RF-SCORE:    0.00 PKD
ROOT
HETATM    1  O   UNL     1     -10.194  18.909  69.188  1.00  0.00    -0.526 OA 
HETATM    2  C   UNL     1     -10.083  18.711  67.781  1.00  0.00    -0.371 C  
HETATM    3  H   UNL     1      -9.996  19.811  69.409  1.00  0.00     0.000 HD 
ENDROOT
BRANCH   2   4
HETATM    4  C   UNL     1     -10.402  17.258  67.424  1.00  0.00    -0.338 C  
BRANCH   4   5
HETATM    5  O   UNL     1     -11.043  16.616  68.531  1.00  0.00    -0.349 OA 
BRANCH   5   6
HETATM    6  C   UNL     1     -10.926  15.251  68.614  1.00  0.00    -0.257 A  
HETATM    7  C   UNL     1     -11.896  14.375  69.095  1.00  0.00    -0.359 A  
HETATM    8  C   UNL     1     -11.669  12.988  69.080  1.00  0.00    -0.378 A  
HETATM    9  C   UNL     1     -10.474  12.452  68.574  1.00  0.00    -0.244 A  
HETATM   10  C   UNL     1      -9.711  14.723  68.162  1.00  0.00    -0.217 A  
HETATM   11  C   UNL     1      -9.483  13.336  68.143  1.00  0.00    -0.222 A  
BRANCH   9  12
HETATM   12  C   UNL     1     -10.336  10.964  68.460  1.00  0.00    -0.203 C  
HETATM   13  C   UNL     1     -10.541  10.366  67.247  1.00  0.00    -0.322 C  
BRANCH  12  14
HETATM   14  C   UNL     1     -10.070  10.131  69.670  1.00  0.00    -0.265 A  
HETATM   15  C   UNL     1     -11.118   9.777  70.535  1.00  0.00    -0.384 A  
HETATM   16  C   UNL     1      -9.584   8.564  71.966  1.00  0.00    -0.371 A  
HETATM   17  C   UNL     1      -8.778   9.673  69.968  1.00  0.00    -0.256 A  
HETATM   18  C   UNL     1      -8.535   8.903  71.114  1.00  0.00    -0.250 A  
HETATM   19  C   UNL     1     -10.876   8.998  71.674  1.00  0.00    -0.437 A  
ENDBRANCH  12  14
BRANCH  13  20
HETATM   20  C   UNL     1     -10.714   8.866  67.010  1.00  0.00    -0.180 C  
HETATM   21  C   UNL     1      -9.421   8.078  66.834  1.00  0.00    -0.191 C  
HETATM   22 CL   UNL     1      -9.801   6.392  66.367  1.00  0.00    -0.163 Cl 
ENDBRANCH  13  20
BRANCH  13  23
HETATM   23  C   UNL     1     -10.767  11.157  66.003  1.00  0.00    -0.272 A  
HETATM   24  C   UNL     1     -11.187  12.675  63.676  1.00  0.00    -0.525 A  
HETATM   25  C   UNL     1      -9.856  11.096  64.938  1.00  0.00    -0.316 A  
HETATM   26  C   UNL     1     -10.065  11.854  63.782  1.00  0.00    -0.423 A  
HETATM   27  C   UNL     1     -12.108  12.725  64.718  1.00  0.00    -0.488 A  
HETATM   28  C   UNL     1     -11.903  11.968  65.874  1.00  0.00    -0.232 A  
ENDBRANCH  13  23
ENDBRANCH   9  12
ENDBRANCH   5   6
ENDBRANCH   4   5
ENDBRANCH   2   4
TORSDOF 7
ENDMDL
MODEL       16
REMARK 921   NORMALIZED FREE ENERGY PREDICTED BY IDOCK:   -5.95 KCAL/MOL
REMARK 922        TOTAL FREE ENERGY PREDICTED BY IDOCK:  -10.11 KCAL/MOL
REMARK 923 INTER-LIGAND FREE ENERGY PREDICTED BY IDOCK:   -8.19 KCAL/MOL
REMARK 924 INTRA-LIGAND FREE ENERGY PREDICTED BY IDOCK:   -1.92 KCAL/MOL
REMARK 927      BINDING AFFINITY PREDICTED BY RF-SCORE:    0.00 PKD
ROOT
HETATM    1  O   UNL     1     -13.397  16.175  74.087  1.00  0.00    -0.908 OA 
HETATM    2  C   UNL     1     -13.422  15.735  72.732  1.00  0.00    -0.574 C  
HETATM    3  H   UNL     1     -14.234  16.004  74.503  1.00  0.00     0.000 HD 
ENDROOT
BRANCH   2   4
HETATM    4  C   UNL     1     -12.075  16.009  72.062  1.00  0.00    -0.525 C  
BRANCH   4   5
HETATM    5  O   UNL     1     -12.210  15.911  70.640  1.00  0.00    -0.393 OA 
BRANCH   5   6
HETATM    6  C   UNL     1     -11.668  14.804  70.037  1.00  0.00    -0.295 A  
HETATM    7  C   UNL     1     -12.234  13.532  70.002  1.00  0.00    -0.381 A  
HETATM    8  C   UNL     1     -11.597  12.491  69.305  1.00  0.00    -0.378 A  
HETATM    9  C   UNL     1     -10.391  12.705  68.620  1.00  0.00    -0.192 A  
HETATM   10  C   UNL     1     -10.436  15.007  69.402  1.00  0.00    -0.254 A  
HETATM   11  C   UNL     1      -9.799  13.968  68.701  1.00  0.00    -0.191 A  
BRANCH   9  12
HETATM   12  C   UNL     1      -9.823  11.598  67.784  1.00  0.00    -0.186 C  
HETATM   13  C   UNL     1     -10.074  11.580  66.440  1.00  0.00    -0.250 C  
BRANCH  12  14
HETATM   14  C   UNL     1      -9.069  10.477  68.420  1.00  0.00    -0.148 A  
HETATM   15  C   UNL     1      -9.749   9.357  68.924  1.00  0.00    -0.166 A  
HETATM   16  C   UNL     1      -7.660   8.355  69.632  1.00  0.00    -0.089 A  
HETATM   17  C   UNL     1      -7.670  10.507  68.522  1.00  0.00    -0.104 A  
HETATM   18  C   UNL     1      -6.971   9.457  69.132  1.00  0.00    -0.058 A  
HETATM   19  C   UNL     1      -9.049   8.303  69.524  1.00  0.00    -0.154 A  
ENDBRANCH  12  14
BRANCH  13  20
HETATM   20  C   UNL     1      -9.816  10.403  65.500  1.00  0.00    -0.332 C  
HETATM   21  C   UNL     1      -8.662  10.588  64.522  1.00  0.00    -0.180 C  
HETATM   22 CL   UNL     1      -8.623   9.219  63.369  1.00  0.00    -0.210 Cl 
ENDBRANCH  13  20
BRANCH  13  23
HETATM   23  C   UNL     1     -10.785  12.697  65.753  1.00  0.00    -0.295 A  
HETATM   24  C   UNL     1     -12.141  14.808  64.488  1.00  0.00    -0.460 A  
HETATM   25  C   UNL     1     -10.094  13.849  65.352  1.00  0.00    -0.328 A  
HETATM   26  C   UNL     1     -10.770  14.900  64.725  1.00  0.00    -0.365 A  
HETATM   27  C   UNL     1     -12.831  13.659  64.862  1.00  0.00    -0.256 A  
HETATM   28  C   UNL     1     -12.158  12.607  65.487  1.00  0.00    -0.515 A  
ENDBRANCH  13  23
ENDBRANCH   9  12
ENDBRANCH   5   6
ENDBRANCH   4   5
ENDBRANCH   2   4
TORSDOF 7
ENDMDL
MODEL       17
REMARK 921   NORMALIZED FREE ENERGY PREDICTED BY IDOCK:   -5.93 KCAL/MOL
REMARK 922        TOTAL FREE ENERGY PREDICTED BY IDOCK:  -10.08 KCAL/MOL
REMARK 923 INTER-LIGAND FREE ENERGY PREDICTED BY IDOCK:   -8.22 KCAL/MOL
REMARK 924 INTRA-LIGAND FREE ENERGY PREDICTED BY IDOCK:   -1.86 KCAL/MOL
REMARK 927      BINDING AFFINITY PREDICTED BY RF-SCORE:    0.00 PKD
ROOT
HETATM    1  O   UNL     1     -11.156  17.507  64.689  1.00  0.00    -0.978 OA 
HETATM    2  C   UNL     1     -10.642  18.251  65.790  1.00  0.00    -0.186 C  
HETATM    3  H   UNL     1     -11.550  18.093  64.053  1.00  0.00     0.000 HD 
ENDROOT
BRANCH   2   4
HETATM    4  C   UNL     1     -10.007  17.309  66.814  1.00  0.00    -0.301 C  
BRANCH   4   5
HETATM    5  O   UNL     1      -9.383  16.210  66.142  1.00  0.00    -0.286 OA 
BRANCH   5   6
HETATM    6  C   UNL     1      -9.728  14.948  66.557  1.00  0.00    -0.276 A  
HETATM    7  C   UNL     1     -11.002  14.389  66.499  1.00  0.00    -0.316 A  
HETATM    8  C   UNL     1     -11.213  13.062  66.913  1.00  0.00    -0.331 A  
HETATM    9  C   UNL     1     -10.154  12.267  67.378  1.00  0.00    -0.207 A  
HETATM   10  C   UNL     1      -8.680  14.177  67.074  1.00  0.00    -0.222 A  
HETATM   11  C   UNL     1      -8.888  12.848  67.485  1.00  0.00    -0.192 A  
BRANCH   9  12
HETATM   12  C   UNL     1     -10.408  10.822  67.681  1.00  0.00    -0.236 C  
HETATM   13  C   UNL     1     -10.293   9.899  66.678  1.00  0.00    -0.275 C  
BRANCH  12  14
HETATM   14  C   UNL     1     -10.870  10.400  69.037  1.00  0.00    -0.273 A  
HETATM   15  C   UNL     1     -10.022   9.668  69.883  1.00  0.00    -0.273 A  
HETATM   16  C   UNL     1     -11.732   9.589  71.598  1.00  0.00    -0.460 A  
HETATM   17  C   UNL     1     -12.151  10.730  69.503  1.00  0.00    -0.344 A  
HETATM   18  C   UNL     1     -12.582  10.319  70.772  1.00  0.00    -0.442 A  
HETATM   19  C   UNL     1     -10.449   9.267  71.155  1.00  0.00    -0.401 A  
ENDBRANCH  12  14
BRANCH  13  20
HETATM   20  C   UNL     1     -10.778   8.451  66.739  1.00  0.00    -0.071 C  
HETATM   21  C   UNL     1      -9.686   7.404  66.924  1.00  0.00    -0.205 C  
HETATM   22 CL   UNL     1     -10.389   5.765  66.771  1.00  0.00    -0.276 Cl 
ENDBRANCH  13  20
BRANCH  13  23
HETATM   23  C   UNL     1      -9.795  10.265  65.320  1.00  0.00    -0.372 A  
HETATM   24  C   UNL     1      -8.856  10.920  62.754  1.00  0.00    -0.304 A  
HETATM   25  C   UNL     1     -10.642  10.879  64.387  1.00  0.00    -0.343 A  
HETATM   26  C   UNL     1     -10.175  11.203  63.110  1.00  0.00    -0.347 A  
HETATM   27  C   UNL     1      -8.002  10.331  63.681  1.00  0.00    -0.139 A  
HETATM   28  C   UNL     1      -8.466  10.008  64.959  1.00  0.00    -0.167 A  
ENDBRANCH  13  23
ENDBRANCH   9  12
ENDBRANCH   5   6
ENDBRANCH   4   5
ENDBRANCH   2   4
TORSDOF 7
ENDMDL
MODEL       18
REMARK 921   NORMALIZED FREE ENERGY PREDICTED BY IDOCK:   -5.86 KCAL/MOL
REMARK 922        TOTAL FREE ENERGY PREDICTED BY IDOCK:   -9.98 KCAL/MOL
REMARK 923 INTER-LIGAND FREE ENERGY PREDICTED BY IDOCK:   -8.16 KCAL/MOL
REMARK 924 INTRA-LIGAND FREE ENERGY PREDICTED BY IDOCK:   -1.82 KCAL/MOL
REMARK 927      BINDING AFFINITY PREDICTED BY RF-SCORE:    0.00 PKD
ROOT
HETATM    1  O   UNL     1     -11.668  16.357  63.827  1.00  0.00    -1.553 OA 
HETATM    2  C   UNL     1     -10.911  15.933  64.958  1.00  0.00    -0.412 C  
HETATM    3  H   UNL     1     -11.172  16.988  63.318  1.00  0.00     0.000 HD 
ENDROOT
BRANCH   2   4
HETATM    4  C   UNL     1     -11.709  14.918  65.777  1.00  0.00    -0.179 C  
BRANCH   4   5
HETATM    5  O   UNL     1     -11.184  14.847  67.107  1.00  0.00    -0.328 OA 
BRANCH   5   6
HETATM    6  C   UNL     1     -10.951  13.596  67.621  1.00  0.00    -0.267 A  
HETATM    7  C   UNL     1     -11.909  12.607  67.830  1.00  0.00    -0.381 A  
HETATM    8  C   UNL     1     -11.530  11.345  68.318  1.00  0.00    -0.369 A  
HETATM    9  C   UNL     1     -10.187  11.043  68.593  1.00  0.00    -0.211 A  
HETATM   10  C   UNL     1      -9.618  13.318  67.948  1.00  0.00    -0.217 A  
HETATM   11  C   UNL     1      -9.236  12.054  68.432  1.00  0.00    -0.160 A  
BRANCH   9  12
HETATM   12  C   UNL     1      -9.820   9.644  68.984  1.00  0.00    -0.183 C  
HETATM   13  C   UNL     1      -9.255   8.817  68.054  1.00  0.00    -0.147 C  
BRANCH  12  14
HETATM   14  C   UNL     1     -10.152   9.125  70.345  1.00  0.00    -0.264 A  
HETATM   15  C   UNL     1      -9.138   8.915  71.293  1.00  0.00    -0.323 A  
HETATM   16  C   UNL     1     -10.760   8.137  72.916  1.00  0.00    -0.317 A  
HETATM   17  C   UNL     1     -11.476   8.846  70.714  1.00  0.00    -0.319 A  
HETATM   18  C   UNL     1     -11.777   8.346  71.988  1.00  0.00    -0.417 A  
HETATM   19  C   UNL     1      -9.441   8.426  72.570  1.00  0.00    -0.360 A  
ENDBRANCH  12  14
BRANCH  13  20
HETATM   20  C   UNL     1      -9.078   7.305  68.194  1.00  0.00    -0.134 C  
HETATM   21  C   UNL     1     -10.296   6.468  67.822  1.00  0.00    -0.192 C  
HETATM   22 CL   UNL     1      -9.996   4.751  68.231  1.00  0.00    -0.189 Cl 
ENDBRANCH  13  20
BRANCH  13  23
HETATM   23  C   UNL     1      -8.867   9.300  66.697  1.00  0.00    -0.146 A  
HETATM   24  C   UNL     1      -8.125  10.180  64.133  1.00  0.00    -0.158 A  
HETATM   25  C   UNL     1      -9.843   9.577  65.728  1.00  0.00    -0.363 A  
HETATM   26  C   UNL     1      -9.472  10.012  64.452  1.00  0.00    -0.349 A  
HETATM   27  C   UNL     1      -7.151   9.930  65.095  1.00  0.00    -0.129 A  
HETATM   28  C   UNL     1      -7.518   9.497  66.372  1.00  0.00    -0.097 A  
ENDBRANCH  13  23
ENDBRANCH   9  12
ENDBRANCH   5   6
ENDBRANCH   4   5
ENDBRANCH   2   4
TORSDOF 7
ENDMDL
MODEL       19
REMARK 921   NORMALIZED FREE ENERGY PREDICTED BY IDOCK:   -5.86 KCAL/MOL
REMARK 922        TOTAL FREE ENERGY PREDICTED BY IDOCK:   -9.98 KCAL/MOL
REMARK 923 INTER-LIGAND FREE ENERGY PREDICTED BY IDOCK:   -8.64 KCAL/MOL
REMARK 924 INTRA-LIGAND FREE ENERGY PREDICTED BY IDOCK:   -1.33 KCAL/MOL
REMARK 927      BINDING AFFINITY PREDICTED BY RF-SCORE:    0.00 PKD
ROOT
HETATM    1  O   UNL     1      -9.492   9.578  63.134  1.00  0.00    -0.514 OA 
HETATM    2  C   UNL     1      -9.291  10.967  62.889  1.00  0.00    -0.349 C  
HETATM    3  H   UNL     1      -8.710   9.088  62.905  1.00  0.00     0.000 HD 
ENDROOT
BRANCH   2   4
HETATM    4  C   UNL     1     -10.549  11.756  63.257  1.00  0.00    -0.368 C  
BRANCH   4   5
HETATM    5  O   UNL     1     -10.182  12.979  63.905  1.00  0.00    -0.378 OA 
BRANCH   5   6
HETATM    6  C   UNL     1     -10.424  13.068  65.253  1.00  0.00    -0.304 A  
HETATM    7  C   UNL     1      -9.458  13.094  66.256  1.00  0.00    -0.194 A  
HETATM    8  C   UNL     1      -9.837  13.238  67.601  1.00  0.00    -0.230 A  
HETATM    9  C   UNL     1     -11.185  13.374  67.967  1.00  0.00    -0.298 A  
HETATM   10  C   UNL     1     -11.773  13.146  65.619  1.00  0.00    -0.402 A  
HETATM   11  C   UNL     1     -12.154  13.295  66.964  1.00  0.00    -0.375 A  
BRANCH   9  12
HETATM   12  C   UNL     1     -11.526  13.657  69.399  1.00  0.00    -0.343 C  
HETATM   13  C   UNL     1     -11.208  14.876  69.932  1.00  0.00    -0.307 C  
BRANCH  12  14
HETATM   14  C   UNL     1     -12.120  12.594  70.263  1.00  0.00    -0.372 A  
HETATM   15  C   UNL     1     -11.732  11.254  70.111  1.00  0.00    -0.429 A  
HETATM   16  C   UNL     1     -13.239  10.572  71.882  1.00  0.00    -0.526 A  
HETATM   17  C   UNL     1     -13.067  12.905  71.251  1.00  0.00    -0.253 A  
HETATM   18  C   UNL     1     -13.629  11.899  72.048  1.00  0.00    -0.190 A  
HETATM   19  C   UNL     1     -12.287  10.250  70.916  1.00  0.00    -0.471 A  
ENDBRANCH  12  14
BRANCH  13  20
HETATM   20  C   UNL     1     -11.226  15.232  71.418  1.00  0.00    -0.364 C  
HETATM   21  C   UNL     1     -12.371  16.136  71.860  1.00  0.00    -0.380 C  
HETATM   22 CL   UNL     1     -12.135  16.619  73.567  1.00  0.00    -0.491 Cl 
ENDBRANCH  13  20
BRANCH  13  23
HETATM   23  C   UNL     1     -10.653  15.983  69.100  1.00  0.00    -0.260 A  
HETATM   24  C   UNL     1      -9.590  18.045  67.515  1.00  0.00    -0.273 A  
HETATM   25  C   UNL     1     -11.474  16.697  68.215  1.00  0.00     0.008 A  
HETATM   26  C   UNL     1     -10.944  17.721  67.425  1.00  0.00    -0.074 A  
HETATM   27  C   UNL     1      -8.773  17.357  68.406  1.00  0.00    -0.271 A  
HETATM   28  C   UNL     1      -9.300  16.334  69.198  1.00  0.00    -0.236 A  
ENDBRANCH  13  23
ENDBRANCH   9  12
ENDBRANCH   5   6
ENDBRANCH   4   5
ENDBRANCH   2   4
TORSDOF 7
ENDMDL
MODEL       20
REMARK 921   NORMALIZED FREE ENERGY PREDICTED BY IDOCK:   -5.80 KCAL/MOL
REMARK 922        TOTAL FREE ENERGY PREDICTED BY IDOCK:   -9.89 KCAL/MOL
REMARK 923 INTER-LIGAND FREE ENERGY PREDICTED BY IDOCK:   -7.99 KCAL/MOL
REMARK 924 INTRA-LIGAND FREE ENERGY PREDICTED BY IDOCK:   -1.90 KCAL/MOL
REMARK 927      BINDING AFFINITY PREDICTED BY RF-SCORE:    0.00 PKD
ROOT
HETATM    1  O   UNL     1     -12.483   5.873  72.634  1.00  0.00    -0.537 OA 
HETATM    2  C   UNL     1     -11.070   5.838  72.812  1.00  0.00    -0.284 C  
HETATM    3  H   UNL     1     -12.808   5.006  72.417  1.00  0.00     0.000 HD 
ENDROOT
BRANCH   2   4
HETATM    4  C   UNL     1     -10.546   7.232  73.160  1.00  0.00    -0.355 C  
BRANCH   4   5
HETATM    5  O   UNL     1     -11.475   8.226  72.713  1.00  0.00    -0.391 OA 
BRANCH   5   6
HETATM    6  C   UNL     1     -11.136   8.937  71.590  1.00  0.00    -0.350 A  
HETATM    7  C   UNL     1      -9.849   9.104  71.087  1.00  0.00    -0.371 A  
HETATM    8  C   UNL     1      -9.640   9.819  69.894  1.00  0.00    -0.269 A  
HETATM    9  C   UNL     1     -10.715  10.367  69.177  1.00  0.00    -0.266 A  
HETATM   10  C   UNL     1     -12.205   9.532  70.908  1.00  0.00    -0.332 A  
HETATM   11  C   UNL     1     -12.000  10.243  69.713  1.00  0.00    -0.176 A  
BRANCH   9  12
HETATM   12  C   UNL     1     -10.453  11.004  67.846  1.00  0.00    -0.223 C  
HETATM   13  C   UNL     1      -9.913  10.251  66.840  1.00  0.00    -0.259 C  
BRANCH  12  14
HETATM   14  C   UNL     1     -10.689  12.465  67.644  1.00  0.00    -0.248 A  
HETATM   15  C   UNL     1     -11.828  12.913  66.956  1.00  0.00    -0.437 A  
HETATM   16  C   UNL     1     -11.146  15.220  67.246  1.00  0.00    -0.325 A  
HETATM   17  C   UNL     1      -9.792  13.422  68.141  1.00  0.00    -0.234 A  
HETATM   18  C   UNL     1     -10.015  14.790  67.935  1.00  0.00    -0.213 A  
HETATM   19  C   UNL     1     -12.055  14.281  66.760  1.00  0.00    -0.446 A  
ENDBRANCH  12  14
BRANCH  13  20
HETATM   20  C   UNL     1      -9.331  10.791  65.535  1.00  0.00    -0.242 C  
HETATM   21  C   UNL     1     -10.274  10.763  64.338  1.00  0.00    -0.364 C  
HETATM   22 CL   UNL     1      -9.384  11.235  62.857  1.00  0.00    -0.370 Cl 
ENDBRANCH  13  20
BRANCH  13  23
HETATM   23  C   UNL     1      -9.699   8.781  66.980  1.00  0.00    -0.258 A  
HETATM   24  C   UNL     1      -9.285   6.018  67.277  1.00  0.00    -0.114 A  
HETATM   25  C   UNL     1     -10.785   7.894  66.984  1.00  0.00    -0.289 A  
HETATM   26  C   UNL     1     -10.579   6.520  67.133  1.00  0.00    -0.398 A  
HETATM   27  C   UNL     1      -8.200   6.888  67.253  1.00  0.00    -0.118 A  
HETATM   28  C   UNL     1      -8.403   8.262  67.101  1.00  0.00    -0.123 A  
ENDBRANCH  13  23
ENDBRANCH   9  12
ENDBRANCH   5   6
ENDBRANCH   4   5
ENDBRANCH   2   4
TORSDOF 7
ENDMDL
MODEL       21
REMARK 921   NORMALIZED FREE ENERGY PREDICTED BY IDOCK:   -5.79 KCAL/MOL
REMARK 922        TOTAL FREE ENERGY PREDICTED BY IDOCK:   -9.88 KCAL/MOL
REMARK 923 INTER-LIGAND FREE ENERGY PREDICTED BY IDOCK:   -8.66 KCAL/MOL
REMARK 924 INTRA-LIGAND FREE ENERGY PREDICTED BY IDOCK:   -1.22 KCAL/MOL
REMARK 927      BINDING AFFINITY PREDICTED BY RF-SCORE:    0.00 PKD
ROOT
HETATM    1  O   UNL     1     -11.593  16.590  63.718  1.00  0.00    -1.617 OA 
HETATM    2  C   UNL     1     -11.181  15.654  64.710  1.00  0.00    -0.382 C  
HETATM    3  H   UNL     1     -11.057  17.374  63.765  1.00  0.00     0.000 HD 
ENDROOT
BRANCH   2   4
HETATM    4  C   UNL     1     -12.042  14.392  64.636  1.00  0.00    -0.471 C  
BRANCH   4   5
HETATM    5  O   UNL     1     -12.711  14.186  65.885  1.00  0.00    -0.487 OA 
BRANCH   5   6
HETATM    6  C   UNL     1     -12.097  13.361  66.793  1.00  0.00    -0.365 A  
HETATM    7  C   UNL     1     -11.774  13.688  68.107  1.00  0.00    -0.392 A  
HETATM    8  C   UNL     1     -11.189  12.730  68.953  1.00  0.00    -0.332 A  
HETATM    9  C   UNL     1     -10.927  11.426  68.505  1.00  0.00    -0.267 A  
HETATM   10  C   UNL     1     -11.785  12.078  66.326  1.00  0.00    -0.319 A  
HETATM   11  C   UNL     1     -11.203  11.117  67.171  1.00  0.00    -0.320 A  
BRANCH   9  12
HETATM   12  C   UNL     1     -10.426  10.407  69.484  1.00  0.00    -0.274 C  
HETATM   13  C   UNL     1      -9.094  10.097  69.501  1.00  0.00    -0.213 C  
BRANCH  12  14
HETATM   14  C   UNL     1     -11.378   9.671  70.367  1.00  0.00    -0.337 A  
HETATM   15  C   UNL     1     -12.304  10.371  71.156  1.00  0.00    -0.505 A  
HETATM   16  C   UNL     1     -13.177   8.294  72.048  1.00  0.00    -0.342 A  
HETATM   17  C   UNL     1     -11.380   8.269  70.424  1.00  0.00    -0.177 A  
HETATM   18  C   UNL     1     -12.268   7.586  71.266  1.00  0.00    -0.357 A  
HETATM   19  C   UNL     1     -13.198   9.687  71.990  1.00  0.00    -0.546 A  
ENDBRANCH  12  14
BRANCH  13  20
HETATM   20  C   UNL     1      -8.465   8.906  70.222  1.00  0.00    -0.168 C  
HETATM   21  C   UNL     1      -8.066   7.737  69.329  1.00  0.00    -0.127 C  
HETATM   22 CL   UNL     1      -7.538   6.357  70.340  1.00  0.00    -0.094 Cl 
ENDBRANCH  13  20
BRANCH  13  23
HETATM   23  C   UNL     1      -8.099  10.833  68.668  1.00  0.00    -0.136 A  
HETATM   24  C   UNL     1      -6.200  12.208  67.118  1.00  0.00    -0.143 A  
HETATM   25  C   UNL     1      -7.847  10.448  67.343  1.00  0.00    -0.103 A  
HETATM   26  C   UNL     1      -6.901  11.131  66.574  1.00  0.00    -0.126 A  
HETATM   27  C   UNL     1      -6.460  12.611  68.424  1.00  0.00    -0.078 A  
HETATM   28  C   UNL     1      -7.407  11.932  69.195  1.00  0.00     0.022 A  
ENDBRANCH  13  23
ENDBRANCH   9  12
ENDBRANCH   5   6
ENDBRANCH   4   5
ENDBRANCH   2   4
TORSDOF 7
ENDMDL
MODEL       22
REMARK 921   NORMALIZED FREE ENERGY PREDICTED BY IDOCK:   -5.72 KCAL/MOL
REMARK 922        TOTAL FREE ENERGY PREDICTED BY IDOCK:   -9.78 KCAL/MOL
REMARK 923 INTER-LIGAND FREE ENERGY PREDICTED BY IDOCK:   -8.30 KCAL/MOL
REMARK 924 INTRA-LIGAND FREE ENERGY PREDICTED BY IDOCK:   -1.47 KCAL/MOL
REMARK 927      BINDING AFFINITY PREDICTED BY RF-SCORE:    0.00 PKD
ROOT
HETATM    1  O   UNL     1     -11.397   4.385  64.928  1.00  0.00    -1.015 OA 
HETATM    2  C   UNL     1     -10.023   4.101  65.173  1.00  0.00    -0.210 C  
HETATM    3  H   UNL     1     -11.715   3.866  64.199  1.00  0.00     0.000 HD 
ENDROOT
BRANCH   2   4
HETATM    4  C   UNL     1      -9.510   4.937  66.347  1.00  0.00    -0.155 C  
BRANCH   4   5
HETATM    5  O   UNL     1      -8.743   6.042  65.858  1.00  0.00    -0.148 OA 
BRANCH   5   6
HETATM    6  C   UNL     1      -9.114   7.294  66.278  1.00  0.00    -0.149 A  
HETATM    7  C   UNL     1      -8.356   8.456  66.155  1.00  0.00    -0.127 A  
HETATM    8  C   UNL     1      -8.874   9.690  66.583  1.00  0.00    -0.153 A  
HETATM    9  C   UNL     1     -10.163   9.787  67.131  1.00  0.00    -0.288 A  
HETATM   10  C   UNL     1     -10.377   7.379  66.876  1.00  0.00    -0.367 A  
HETATM   11  C   UNL     1     -10.900   8.612  67.302  1.00  0.00    -0.077 A  
BRANCH   9  12
HETATM   12  C   UNL     1     -10.718  11.142  67.449  1.00  0.00    -0.294 C  
HETATM   13  C   UNL     1     -11.151  11.405  68.719  1.00  0.00    -0.290 C  
BRANCH  12  14
HETATM   14  C   UNL     1     -10.885  12.166  66.374  1.00  0.00    -0.306 A  
HETATM   15  C   UNL     1      -9.944  13.197  66.221  1.00  0.00    -0.285 A  
HETATM   16  C   UNL     1     -11.189  14.112  64.354  1.00  0.00    -0.290 A  
HETATM   17  C   UNL     1     -11.971  12.119  65.487  1.00  0.00    -0.290 A  
HETATM   18  C   UNL     1     -12.126  13.091  64.490  1.00  0.00    -0.468 A  
HETATM   19  C   UNL     1     -10.095  14.162  65.217  1.00  0.00    -0.364 A  
ENDBRANCH  12  14
BRANCH  13  20
HETATM   20  C   UNL     1     -11.986  12.612  69.145  1.00  0.00    -0.293 C  
HETATM   21  C   UNL     1     -11.192  13.862  69.507  1.00  0.00    -0.184 C  
HETATM   22 CL   UNL     1     -12.294  15.106  70.172  1.00  0.00    -0.381 Cl 
ENDBRANCH  13  20
BRANCH  13  23
HETATM   23  C   UNL     1     -10.969  10.432  69.834  1.00  0.00    -0.364 A  
HETATM   24  C   UNL     1     -10.640   8.574  71.917  1.00  0.00    -0.392 A  
HETATM   25  C   UNL     1      -9.696   9.935  70.152  1.00  0.00    -0.255 A  
HETATM   26  C   UNL     1      -9.534   9.009  71.187  1.00  0.00    -0.348 A  
HETATM   27  C   UNL     1     -11.903   9.078  71.624  1.00  0.00    -0.431 A  
HETATM   28  C   UNL     1     -12.068  10.005  70.591  1.00  0.00    -0.381 A  
ENDBRANCH  13  23
ENDBRANCH   9  12
ENDBRANCH   5   6
ENDBRANCH   4   5
ENDBRANCH   2   4
TORSDOF 7
ENDMDL
MODEL       23
REMARK 921   NORMALIZED FREE ENERGY PREDICTED BY IDOCK:   -5.71 KCAL/MOL
REMARK 922        TOTAL FREE ENERGY PREDICTED BY IDOCK:   -9.76 KCAL/MOL
REMARK 923 INTER-LIGAND FREE ENERGY PREDICTED BY IDOCK:   -8.40 KCAL/MOL
REMARK 924 INTRA-LIGAND FREE ENERGY PREDICTED BY IDOCK:   -1.37 KCAL/MOL
REMARK 927      BINDING AFFINITY PREDICTED BY RF-SCORE:    0.00 PKD
ROOT
HETATM    1  O   UNL     1      -8.547   7.121  63.558  1.00  0.00    -0.325 OA 
HETATM    2  C   UNL     1      -8.032   8.087  62.647  1.00  0.00    -0.151 C  
HETATM    3  H   UNL     1      -8.192   6.262  63.361  1.00  0.00     0.000 HD 
ENDROOT
BRANCH   2   4
HETATM    4  C   UNL     1      -8.601   9.471  62.965  1.00  0.00    -0.217 C  
BRANCH   4   5
HETATM    5  O   UNL     1      -7.857  10.068  64.032  1.00  0.00    -0.143 OA 
BRANCH   5   6
HETATM    6  C   UNL     1      -8.560  10.444  65.149  1.00  0.00    -0.180 A  
HETATM    7  C   UNL     1      -8.038  11.096  66.263  1.00  0.00    -0.142 A  
HETATM    8  C   UNL     1      -8.879  11.471  67.325  1.00  0.00    -0.160 A  
HETATM    9  C   UNL     1     -10.258  11.212  67.287  1.00  0.00    -0.227 A  
HETATM   10  C   UNL     1      -9.926  10.133  65.134  1.00  0.00    -0.379 A  
HETATM   11  C   UNL     1     -10.770  10.510  66.193  1.00  0.00    -0.115 A  
BRANCH   9  12
HETATM   12  C   UNL     1     -11.129  11.749  68.383  1.00  0.00    -0.286 C  
HETATM   13  C   UNL     1     -11.597  13.030  68.296  1.00  0.00    -0.375 C  
BRANCH  12  14
HETATM   14  C   UNL     1     -11.410  10.929  69.599  1.00  0.00    -0.362 A  
HETATM   15  C   UNL     1     -10.435  10.057  70.111  1.00  0.00    -0.338 A  
HETATM   16  C   UNL     1     -11.927   9.369  71.892  1.00  0.00    -0.416 A  
HETATM   17  C   UNL     1     -12.641  11.016  70.266  1.00  0.00    -0.321 A  
HETATM   18  C   UNL     1     -12.901  10.234  71.399  1.00  0.00    -0.544 A  
HETATM   19  C   UNL     1     -10.692   9.284  71.250  1.00  0.00    -0.422 A  
ENDBRANCH  12  14
BRANCH  13  20
HETATM   20  C   UNL     1     -12.251  13.819  69.429  1.00  0.00    -0.325 C  
HETATM   21  C   UNL     1     -11.342  14.812  70.145  1.00  0.00    -0.247 C  
HETATM   22 CL   UNL     1     -12.195  15.499  71.561  1.00  0.00    -0.409 Cl 
ENDBRANCH  13  20
BRANCH  13  23
HETATM   23  C   UNL     1     -11.378  13.872  67.084  1.00  0.00    -0.346 A  
HETATM   24  C   UNL     1     -10.992  15.479  64.812  1.00  0.00    -0.416 A  
HETATM   25  C   UNL     1     -10.219  14.650  66.950  1.00  0.00    -0.262 A  
HETATM   26  C   UNL     1     -10.029  15.451  65.820  1.00  0.00    -0.393 A  
HETATM   27  C   UNL     1     -12.135  14.694  64.926  1.00  0.00    -0.386 A  
HETATM   28  C   UNL     1     -12.327  13.891  66.053  1.00  0.00    -0.511 A  
ENDBRANCH  13  23
ENDBRANCH   9  12
ENDBRANCH   5   6
ENDBRANCH   4   5
ENDBRANCH   2   4
TORSDOF 7
ENDMDL
MODEL       24
REMARK 921   NORMALIZED FREE ENERGY PREDICTED BY IDOCK:   -5.62 KCAL/MOL
REMARK 922        TOTAL FREE ENERGY PREDICTED BY IDOCK:   -9.64 KCAL/MOL
REMARK 923 INTER-LIGAND FREE ENERGY PREDICTED BY IDOCK:   -8.49 KCAL/MOL
REMARK 924 INTRA-LIGAND FREE ENERGY PREDICTED BY IDOCK:   -1.15 KCAL/MOL
REMARK 927      BINDING AFFINITY PREDICTED BY RF-SCORE:    0.00 PKD
ROOT
HETATM    1  O   UNL     1      -8.531   7.429  63.327  1.00  0.00    -0.372 OA 
HETATM    2  C   UNL     1      -8.204   8.398  62.334  1.00  0.00    -0.181 C  
HETATM    3  H   UNL     1      -8.336   6.555  63.008  1.00  0.00     0.000 HD 
ENDROOT
BRANCH   2   4
HETATM    4  C   UNL     1      -8.517   9.805  62.846  1.00  0.00    -0.177 C  
BRANCH   4   5
HETATM    5  O   UNL     1      -7.777  10.062  64.044  1.00  0.00    -0.138 OA 
BRANCH   5   6
HETATM    6  C   UNL     1      -8.496  10.416  65.158  1.00  0.00    -0.173 A  
HETATM    7  C   UNL     1      -7.978  10.988  66.317  1.00  0.00    -0.148 A  
HETATM    8  C   UNL     1      -8.833  11.350  67.372  1.00  0.00    -0.150 A  
HETATM    9  C   UNL     1     -10.221  11.160  67.282  1.00  0.00    -0.227 A  
HETATM   10  C   UNL     1      -9.873  10.172  65.088  1.00  0.00    -0.394 A  
HETATM   11  C   UNL     1     -10.731  10.538  66.140  1.00  0.00    -0.115 A  
BRANCH   9  12
HETATM   12  C   UNL     1     -11.100  11.684  68.377  1.00  0.00    -0.285 C  
HETATM   13  C   UNL     1     -11.581  12.961  68.294  1.00  0.00    -0.374 C  
BRANCH  12  14
HETATM   14  C   UNL     1     -11.374  10.858  69.591  1.00  0.00    -0.362 A  
HETATM   15  C   UNL     1     -12.653  10.845  70.169  1.00  0.00    -0.304 A  
HETATM   16  C   UNL     1     -11.906   9.311  71.889  1.00  0.00    -0.426 A  
HETATM   17  C   UNL     1     -10.371  10.071  70.176  1.00  0.00    -0.321 A  
HETATM   18  C   UNL     1     -10.634   9.309  71.323  1.00  0.00    -0.417 A  
HETATM   19  C   UNL     1     -12.917  10.076  71.310  1.00  0.00    -0.495 A  
ENDBRANCH  12  14
BRANCH  13  20
HETATM   20  C   UNL     1     -12.246  13.740  69.428  1.00  0.00    -0.325 C  
HETATM   21  C   UNL     1     -11.738  15.163  69.630  1.00  0.00    -0.327 C  
HETATM   22 CL   UNL     1     -12.466  15.860  71.109  1.00  0.00    -0.472 Cl 
ENDBRANCH  13  20
BRANCH  13  23
HETATM   23  C   UNL     1     -11.370  13.809  67.085  1.00  0.00    -0.344 A  
HETATM   24  C   UNL     1     -10.946  15.385  64.798  1.00  0.00    -0.411 A  
HETATM   25  C   UNL     1     -12.297  13.802  66.032  1.00  0.00    -0.499 A  
HETATM   26  C   UNL     1     -12.084  14.585  64.894  1.00  0.00    -0.421 A  
HETATM   27  C   UNL     1     -10.032  15.416  65.846  1.00  0.00    -0.374 A  
HETATM   28  C   UNL     1     -10.243  14.636  66.986  1.00  0.00    -0.261 A  
ENDBRANCH  13  23
ENDBRANCH   9  12
ENDBRANCH   5   6
ENDBRANCH   4   5
ENDBRANCH   2   4
TORSDOF 7
ENDMDL
MODEL       25
REMARK 921   NORMALIZED FREE ENERGY PREDICTED BY IDOCK:   -5.62 KCAL/MOL
REMARK 922        TOTAL FREE ENERGY PREDICTED BY IDOCK:   -9.64 KCAL/MOL
REMARK 923 INTER-LIGAND FREE ENERGY PREDICTED BY IDOCK:   -7.87 KCAL/MOL
REMARK 924 INTRA-LIGAND FREE ENERGY PREDICTED BY IDOCK:   -1.76 KCAL/MOL
REMARK 927      BINDING AFFINITY PREDICTED BY RF-SCORE:    0.00 PKD
ROOT
HETATM    1  O   UNL     1     -10.658  18.696  65.629  1.00  0.00    -0.610 OA 
HETATM    2  C   UNL     1      -9.502  18.358  66.390  1.00  0.00    -0.295 C  
HETATM    3  H   UNL     1     -10.724  19.639  65.535  1.00  0.00     0.000 HD 
ENDROOT
BRANCH   2   4
HETATM    4  C   UNL     1      -9.395  16.839  66.541  1.00  0.00    -0.264 C  
BRANCH   4   5
HETATM    5  O   UNL     1     -10.680  16.290  66.851  1.00  0.00    -0.300 OA 
BRANCH   5   6
HETATM    6  C   UNL     1     -10.724  14.961  67.191  1.00  0.00    -0.296 A  
HETATM    7  C   UNL     1     -11.866  14.165  67.228  1.00  0.00    -0.452 A  
HETATM    8  C   UNL     1     -11.769  12.799  67.546  1.00  0.00    -0.422 A  
HETATM    9  C   UNL     1     -10.528  12.202  67.820  1.00  0.00    -0.222 A  
HETATM   10  C   UNL     1      -9.493  14.382  67.520  1.00  0.00    -0.207 A  
HETATM   11  C   UNL     1      -9.392  13.015  67.834  1.00  0.00    -0.212 A  
BRANCH   9  12
HETATM   12  C   UNL     1     -10.464  10.719  68.022  1.00  0.00    -0.225 C  
HETATM   13  C   UNL     1     -10.318   9.902  66.936  1.00  0.00    -0.300 C  
BRANCH  12  14
HETATM   14  C   UNL     1     -10.649  10.130  69.382  1.00  0.00    -0.261 A  
HETATM   15  C   UNL     1     -11.907  10.158  70.004  1.00  0.00    -0.253 A  
HETATM   16  C   UNL     1     -11.014   9.029  71.954  1.00  0.00    -0.423 A  
HETATM   17  C   UNL     1      -9.582   9.527  70.065  1.00  0.00    -0.272 A  
HETATM   18  C   UNL     1      -9.762   8.989  71.346  1.00  0.00    -0.369 A  
HETATM   19  C   UNL     1     -12.088   9.610  71.281  1.00  0.00    -0.457 A  
ENDBRANCH  12  14
BRANCH  13  20
HETATM   20  C   UNL     1     -10.510   8.386  66.926  1.00  0.00    -0.359 C  
HETATM   21  C   UNL     1      -9.228   7.564  66.982  1.00  0.00    -0.138 C  
HETATM   22 CL   UNL     1      -9.613   5.830  66.760  1.00  0.00    -0.151 Cl 
ENDBRANCH  13  20
BRANCH  13  23
HETATM   23  C   UNL     1     -10.088  10.443  65.565  1.00  0.00    -0.352 A  
HETATM   24  C   UNL     1      -9.658  11.494  62.994  1.00  0.00    -0.371 A  
HETATM   25  C   UNL     1      -8.811  10.409  64.985  1.00  0.00    -0.209 A  
HETATM   26  C   UNL     1      -8.598  10.934  63.707  1.00  0.00     0.039 A  
HETATM   27  C   UNL     1     -10.932  11.512  63.552  1.00  0.00    -0.453 A  
HETATM   28  C   UNL     1     -11.149  10.986  64.828  1.00  0.00    -0.036 A  
ENDBRANCH  13  23
ENDBRANCH   9  12
ENDBRANCH   5   6
ENDBRANCH   4   5
ENDBRANCH   2   4
TORSDOF 7
ENDMDL
MODEL       26
REMARK 921   NORMALIZED FREE ENERGY PREDICTED BY IDOCK:   -5.57 KCAL/MOL
REMARK 922        TOTAL FREE ENERGY PREDICTED BY IDOCK:   -9.57 KCAL/MOL
REMARK 923 INTER-LIGAND FREE ENERGY PREDICTED BY IDOCK:   -8.31 KCAL/MOL
REMARK 924 INTRA-LIGAND FREE ENERGY PREDICTED BY IDOCK:   -1.25 KCAL/MOL
REMARK 927      BINDING AFFINITY PREDICTED BY RF-SCORE:    0.00 PKD
ROOT
HETATM    1  O   UNL     1     -13.864  15.513  70.606  1.00  0.00    -0.864 OA 
HETATM    2  C   UNL     1     -12.574  15.092  71.042  1.00  0.00    -0.377 C  
HETATM    3  H   UNL     1     -14.536  14.959  70.988  1.00  0.00     0.000 HD 
ENDROOT
BRANCH   2   4
HETATM    4  C   UNL     1     -11.493  15.983  70.429  1.00  0.00    -0.377 C  
BRANCH   4   5
HETATM    5  O   UNL     1     -11.538  15.890  69.001  1.00  0.00    -0.370 OA 
BRANCH   5   6
HETATM    6  C   UNL     1     -11.093  14.721  68.438  1.00  0.00    -0.263 A  
HETATM    7  C   UNL     1      -9.863  14.115  68.677  1.00  0.00    -0.206 A  
HETATM    8  C   UNL     1      -9.547  12.886  68.071  1.00  0.00    -0.221 A  
HETATM    9  C   UNL     1     -10.460  12.236  67.226  1.00  0.00    -0.236 A  
HETATM   10  C   UNL     1     -11.983  14.103  67.551  1.00  0.00    -0.419 A  
HETATM   11  C   UNL     1     -11.672  12.872  66.947  1.00  0.00    -0.445 A  
BRANCH   9  12
HETATM   12  C   UNL     1     -10.128  10.868  66.712  1.00  0.00    -0.259 C  
HETATM   13  C   UNL     1     -10.254   9.792  67.547  1.00  0.00    -0.271 C  
BRANCH  12  14
HETATM   14  C   UNL     1      -9.578  10.687  65.336  1.00  0.00    -0.282 A  
HETATM   15  C   UNL     1      -8.259  10.245  65.148  1.00  0.00    -0.161 A  
HETATM   16  C   UNL     1      -8.522  10.348  62.741  1.00  0.00    -0.194 A  
HETATM   17  C   UNL     1     -10.363  10.940  64.200  1.00  0.00    -0.432 A  
HETATM   18  C   UNL     1      -9.835  10.781  62.912  1.00  0.00    -0.294 A  
HETATM   19  C   UNL     1      -7.735  10.076  63.860  1.00  0.00    -0.145 A  
ENDBRANCH  12  14
BRANCH  13  20
HETATM   20  C   UNL     1      -9.704   8.390  67.285  1.00  0.00    -0.240 C  
HETATM   21  C   UNL     1     -10.754   7.304  67.084  1.00  0.00    -0.343 C  
HETATM   22 CL   UNL     1      -9.956   5.704  66.993  1.00  0.00    -0.168 Cl 
ENDBRANCH  13  20
BRANCH  13  23
HETATM   23  C   UNL     1     -10.836   9.916  68.915  1.00  0.00    -0.239 A  
HETATM   24  C   UNL     1     -11.911  10.172  71.498  1.00  0.00    -0.404 A  
HETATM   25  C   UNL     1     -12.081  10.532  69.111  1.00  0.00    -0.059 A  
HETATM   26  C   UNL     1     -12.614  10.660  70.397  1.00  0.00    -0.395 A  
HETATM   27  C   UNL     1     -10.686   9.540  71.311  1.00  0.00    -0.386 A  
HETATM   28  C   UNL     1     -10.152   9.408  70.027  1.00  0.00    -0.259 A  
ENDBRANCH  13  23
ENDBRANCH   9  12
ENDBRANCH   5   6
ENDBRANCH   4   5
ENDBRANCH   2   4
TORSDOF 7
ENDMDL
MODEL       27
REMARK 921   NORMALIZED FREE ENERGY PREDICTED BY IDOCK:   -5.52 KCAL/MOL
REMARK 922        TOTAL FREE ENERGY PREDICTED BY IDOCK:   -9.50 KCAL/MOL
REMARK 923 INTER-LIGAND FREE ENERGY PREDICTED BY IDOCK:   -9.06 KCAL/MOL
REMARK 924 INTRA-LIGAND FREE ENERGY PREDICTED BY IDOCK:   -0.44 KCAL/MOL
REMARK 927      BINDING AFFINITY PREDICTED BY RF-SCORE:    0.00 PKD
ROOT
HETATM    1  O   UNL     1     -13.801  16.239  73.824  1.00  0.00    -0.842 OA 
HETATM    2  C   UNL     1     -13.492  15.571  72.603  1.00  0.00    -0.547 C  
HETATM    3  H   UNL     1     -14.737  16.387  73.889  1.00  0.00     0.000 HD 
ENDROOT
BRANCH   2   4
HETATM    4  C   UNL     1     -11.985  15.331  72.498  1.00  0.00    -0.424 C  
BRANCH   4   5
HETATM    5  O   UNL     1     -11.546  15.583  71.159  1.00  0.00    -0.323 OA 
BRANCH   5   6
HETATM    6  C   UNL     1     -11.411  14.497  70.331  1.00  0.00    -0.203 A  
HETATM    7  C   UNL     1     -12.253  13.388  70.295  1.00  0.00    -0.405 A  
HETATM    8  C   UNL     1     -12.032  12.360  69.362  1.00  0.00    -0.319 A  
HETATM    9  C   UNL     1     -10.975  12.428  68.441  1.00  0.00    -0.272 A  
HETATM   10  C   UNL     1     -10.323  14.541  69.452  1.00  0.00    -0.095 A  
HETATM   11  C   UNL     1     -10.102  13.516  68.515  1.00  0.00    -0.215 A  
BRANCH   9  12
HETATM   12  C   UNL     1     -10.863  11.373  67.383  1.00  0.00    -0.301 C  
HETATM   13  C   UNL     1     -10.468  10.113  67.735  1.00  0.00    -0.277 C  
BRANCH  12  14
HETATM   14  C   UNL     1     -11.090  11.712  65.946  1.00  0.00    -0.320 A  
HETATM   15  C   UNL     1     -12.120  12.591  65.576  1.00  0.00    -0.481 A  
HETATM   16  C   UNL     1     -11.536  12.355  63.235  1.00  0.00    -0.426 A  
HETATM   17  C   UNL     1     -10.279  11.173  64.935  1.00  0.00    -0.361 A  
HETATM   18  C   UNL     1     -10.507  11.486  63.589  1.00  0.00    -0.483 A  
HETATM   19  C   UNL     1     -12.340  12.912  64.230  1.00  0.00    -0.458 A  
ENDBRANCH  12  14
BRANCH  13  20
HETATM   20  C   UNL     1     -10.038   9.009  66.770  1.00  0.00    -0.344 C  
HETATM   21  C   UNL     1     -10.232   7.585  67.277  1.00  0.00    -0.267 C  
HETATM   22 CL   UNL     1      -9.499   6.428  66.123  1.00  0.00    -0.129 Cl 
ENDBRANCH  13  20
BRANCH  13  23
HETATM   23  C   UNL     1     -10.271   9.715  69.160  1.00  0.00    -0.212 A  
HETATM   24  C   UNL     1      -9.908   8.935  71.835  1.00  0.00    -0.364 A  
HETATM   25  C   UNL     1      -8.984   9.647  69.714  1.00  0.00    -0.226 A  
HETATM   26  C   UNL     1      -8.805   9.257  71.044  1.00  0.00    -0.205 A  
HETATM   27  C   UNL     1     -11.189   9.021  71.300  1.00  0.00    -0.385 A  
HETATM   28  C   UNL     1     -11.372   9.413  69.972  1.00  0.00    -0.172 A  
ENDBRANCH  13  23
ENDBRANCH   9  12
ENDBRANCH   5   6
ENDBRANCH   4   5
ENDBRANCH   2   4
TORSDOF 7
ENDMDL
MODEL       28
REMARK 921   NORMALIZED FREE ENERGY PREDICTED BY IDOCK:   -5.49 KCAL/MOL
REMARK 922        TOTAL FREE ENERGY PREDICTED BY IDOCK:   -9.45 KCAL/MOL
REMARK 923 INTER-LIGAND FREE ENERGY PREDICTED BY IDOCK:   -7.82 KCAL/MOL
REMARK 924 INTRA-LIGAND FREE ENERGY PREDICTED BY IDOCK:   -1.63 KCAL/MOL
REMARK 927      BINDING AFFINITY PREDICTED BY RF-SCORE:    0.00 PKD
ROOT
HETATM    1  O   UNL     1     -11.412   4.211  64.822  1.00  0.00    -0.923 OA 
HETATM    2  C   UNL     1     -10.056   4.000  65.206  1.00  0.00    -0.167 C  
HETATM    3  H   UNL     1     -11.519   4.045  63.892  1.00  0.00     0.000 HD 
ENDROOT
BRANCH   2   4
HETATM    4  C   UNL     1      -9.884   4.267  66.703  1.00  0.00    -0.214 C  
BRANCH   4   5
HETATM    5  O   UNL     1      -8.906   5.294  66.903  1.00  0.00    -0.112 OA 
BRANCH   5   6
HETATM    6  C   UNL     1      -9.370   6.545  67.220  1.00  0.00    -0.121 A  
HETATM    7  C   UNL     1     -10.650   7.031  66.963  1.00  0.00    -0.412 A  
HETATM    8  C   UNL     1     -11.016   8.321  67.385  1.00  0.00     0.082 A  
HETATM    9  C   UNL     1     -10.117   9.142  68.083  1.00  0.00    -0.225 A  
HETATM   10  C   UNL     1      -8.452   7.383  67.866  1.00  0.00    -0.122 A  
HETATM   11  C   UNL     1      -8.818   8.671  68.293  1.00  0.00    -0.142 A  
BRANCH   9  12
HETATM   12  C   UNL     1     -10.599  10.453  68.625  1.00  0.00    -0.234 C  
HETATM   13  C   UNL     1     -11.165  10.493  69.869  1.00  0.00    -0.374 C  
BRANCH  12  14
HETATM   14  C   UNL     1     -10.548  11.687  67.785  1.00  0.00    -0.227 A  
HETATM   15  C   UNL     1     -11.495  11.896  66.770  1.00  0.00    -0.384 A  
HETATM   16  C   UNL     1     -10.461  14.008  66.184  1.00  0.00    -0.297 A  
HETATM   17  C   UNL     1      -9.568  12.668  67.994  1.00  0.00    -0.213 A  
HETATM   18  C   UNL     1      -9.519  13.816  67.192  1.00  0.00    -0.244 A  
HETATM   19  C   UNL     1     -11.452  13.049  65.976  1.00  0.00    -0.374 A  
ENDBRANCH  12  14
BRANCH  13  20
HETATM   20  C   UNL     1     -11.949  11.667  70.455  1.00  0.00    -0.448 C  
HETATM   21  C   UNL     1     -12.764  11.351  71.704  1.00  0.00    -0.322 C  
HETATM   22 CL   UNL     1     -13.772  12.764  72.141  1.00  0.00    -0.537 Cl 
ENDBRANCH  13  20
BRANCH  13  23
HETATM   23  C   UNL     1     -11.201   9.298  70.761  1.00  0.00    -0.351 A  
HETATM   24  C   UNL     1     -11.273   7.067  72.468  1.00  0.00    -0.312 A  
HETATM   25  C   UNL     1     -12.281   8.405  70.721  1.00  0.00    -0.006 A  
HETATM   26  C   UNL     1     -12.317   7.296  71.572  1.00  0.00    -0.397 A  
HETATM   27  C   UNL     1     -10.187   7.936  72.500  1.00  0.00    -0.342 A  
HETATM   28  C   UNL     1     -10.147   9.043  71.649  1.00  0.00    -0.405 A  
ENDBRANCH  13  23
ENDBRANCH   9  12
ENDBRANCH   5   6
ENDBRANCH   4   5
ENDBRANCH   2   4
TORSDOF 7
ENDMDL
MODEL       29
REMARK 921   NORMALIZED FREE ENERGY PREDICTED BY IDOCK:   -5.48 KCAL/MOL
REMARK 922        TOTAL FREE ENERGY PREDICTED BY IDOCK:   -9.45 KCAL/MOL
REMARK 923 INTER-LIGAND FREE ENERGY PREDICTED BY IDOCK:   -7.63 KCAL/MOL
REMARK 924 INTRA-LIGAND FREE ENERGY PREDICTED BY IDOCK:   -1.81 KCAL/MOL
REMARK 927      BINDING AFFINITY PREDICTED BY RF-SCORE:    0.00 PKD
ROOT
HETATM    1  O   UNL     1     -12.261  11.450  62.949  1.00  0.00    -0.940 OA 
HETATM    2  C   UNL     1     -11.843  12.714  63.457  1.00  0.00    -0.541 C  
HETATM    3  H   UNL     1     -13.092  11.536  62.497  1.00  0.00     0.000 HD 
ENDROOT
BRANCH   2   4
HETATM    4  C   UNL     1     -10.505  12.575  64.185  1.00  0.00    -0.403 C  
BRANCH   4   5
HETATM    5  O   UNL     1     -10.202  11.191  64.387  1.00  0.00    -0.279 OA 
BRANCH   5   6
HETATM    6  C   UNL     1     -10.267  10.719  65.674  1.00  0.00    -0.257 A  
HETATM    7  C   UNL     1     -10.141   9.388  66.063  1.00  0.00    -0.302 A  
HETATM    8  C   UNL     1     -10.177   9.041  67.425  1.00  0.00    -0.308 A  
HETATM    9  C   UNL     1     -10.326  10.019  68.421  1.00  0.00    -0.218 A  
HETATM   10  C   UNL     1     -10.472  11.690  66.661  1.00  0.00    -0.268 A  
HETATM   11  C   UNL     1     -10.504  11.346  68.024  1.00  0.00    -0.215 A  
BRANCH   9  12
HETATM   12  C   UNL     1     -10.225   9.612  69.860  1.00  0.00    -0.279 C  
HETATM   13  C   UNL     1      -8.991   9.385  70.405  1.00  0.00    -0.294 C  
BRANCH  12  14
HETATM   14  C   UNL     1     -11.457   9.366  70.668  1.00  0.00    -0.344 A  
HETATM   15  C   UNL     1     -12.162  10.440  71.234  1.00  0.00    -0.491 A  
HETATM   16  C   UNL     1     -13.781   8.918  72.202  1.00  0.00    -0.527 A  
HETATM   17  C   UNL     1     -11.945   8.067  70.871  1.00  0.00    -0.201 A  
HETATM   18  C   UNL     1     -13.094   7.844  71.641  1.00  0.00    -0.361 A  
HETATM   19  C   UNL     1     -13.318  10.217  71.995  1.00  0.00    -0.492 A  
ENDBRANCH  12  14
BRANCH  13  20
HETATM   20  C   UNL     1      -8.720   8.707  71.747  1.00  0.00    -0.266 C  
HETATM   21  C   UNL     1      -8.700   7.183  71.718  1.00  0.00    -0.117 C  
HETATM   22 CL   UNL     1      -8.574   6.549  73.388  1.00  0.00    -0.127 Cl 
ENDBRANCH  13  20
BRANCH  13  23
HETATM   23  C   UNL     1      -7.732   9.656  69.653  1.00  0.00    -0.124 A  
HETATM   24  C   UNL     1      -5.377  10.163  68.207  1.00  0.00    -0.035 A  
HETATM   25  C   UNL     1      -7.192  10.950  69.600  1.00  0.00    -0.098 A  
HETATM   26  C   UNL     1      -6.021  11.201  68.879  1.00  0.00    -0.040 A  
HETATM   27  C   UNL     1      -5.893   8.873  68.272  1.00  0.00    -0.042 A  
HETATM   28  C   UNL     1      -7.061   8.618  68.993  1.00  0.00    -0.065 A  
ENDBRANCH  13  23
ENDBRANCH   9  12
ENDBRANCH   5   6
ENDBRANCH   4   5
ENDBRANCH   2   4
TORSDOF 7
ENDMDL
MODEL       30
REMARK 921   NORMALIZED FREE ENERGY PREDICTED BY IDOCK:   -5.44 KCAL/MOL
REMARK 922        TOTAL FREE ENERGY PREDICTED BY IDOCK:   -9.38 KCAL/MOL
REMARK 923 INTER-LIGAND FREE ENERGY PREDICTED BY IDOCK:   -8.62 KCAL/MOL
REMARK 924 INTRA-LIGAND FREE ENERGY PREDICTED BY IDOCK:   -0.76 KCAL/MOL
REMARK 927      BINDING AFFINITY PREDICTED BY RF-SCORE:    0.00 PKD
ROOT
HETATM    1  O   UNL     1     -10.259  10.356  62.730  1.00  0.00    -0.649 OA 
HETATM    2  C   UNL     1      -9.613  11.505  63.270  1.00  0.00    -0.346 C  
HETATM    3  H   UNL     1      -9.649   9.630  62.681  1.00  0.00     0.000 HD 
ENDROOT
BRANCH   2   4
HETATM    4  C   UNL     1     -10.594  12.676  63.349  1.00  0.00    -0.123 C  
BRANCH   4   5
HETATM    5  O   UNL     1     -10.198  13.572  64.393  1.00  0.00    -0.399 OA 
BRANCH   5   6
HETATM    6  C   UNL     1     -10.433  13.170  65.684  1.00  0.00    -0.282 A  
HETATM    7  C   UNL     1      -9.501  13.159  66.718  1.00  0.00    -0.252 A  
HETATM    8  C   UNL     1      -9.883  12.769  68.013  1.00  0.00    -0.226 A  
HETATM    9  C   UNL     1     -11.206  12.395  68.300  1.00  0.00    -0.309 A  
HETATM   10  C   UNL     1     -11.739  12.744  65.953  1.00  0.00    -0.464 A  
HETATM   11  C   UNL     1     -12.125  12.357  67.249  1.00  0.00    -0.069 A  
BRANCH   9  12
HETATM   12  C   UNL     1     -11.591  12.116  69.721  1.00  0.00    -0.334 C  
HETATM   13  C   UNL     1     -11.353  10.876  70.246  1.00  0.00    -0.342 C  
BRANCH  12  14
HETATM   14  C   UNL     1     -12.310  13.145  70.529  1.00  0.00    -0.380 A  
HETATM   15  C   UNL     1     -13.123  12.763  71.608  1.00  0.00    -0.428 A  
HETATM   16  C   UNL     1     -13.682  15.078  72.060  1.00  0.00    -0.550 A  
HETATM   17  C   UNL     1     -12.186  14.513  70.241  1.00  0.00    -0.391 A  
HETATM   18  C   UNL     1     -12.875  15.471  70.995  1.00  0.00    -0.543 A  
HETATM   19  C   UNL     1     -13.803  13.723  72.369  1.00  0.00    -0.681 A  
ENDBRANCH  12  14
BRANCH  13  20
HETATM   20  C   UNL     1     -11.921  10.338  71.558  1.00  0.00    -0.357 C  
HETATM   21  C   UNL     1     -12.964   9.235  71.416  1.00  0.00    -0.326 C  
HETATM   22 CL   UNL     1     -13.670   8.862  73.018  1.00  0.00    -0.130 Cl 
ENDBRANCH  13  20
BRANCH  13  23
HETATM   23  C   UNL     1     -10.601   9.829  69.494  1.00  0.00    -0.253 A  
HETATM   24  C   UNL     1      -9.194   7.835  68.101  1.00  0.00    -0.138 A  
HETATM   25  C   UNL     1     -11.102   9.311  68.291  1.00  0.00     0.058 A  
HETATM   26  C   UNL     1     -10.402   8.318  67.600  1.00  0.00    -0.313 A  
HETATM   27  C   UNL     1      -8.678   8.359  69.283  1.00  0.00    -0.138 A  
HETATM   28  C   UNL     1      -9.374   9.353  69.974  1.00  0.00    -0.253 A  
ENDBRANCH  13  23
ENDBRANCH   9  12
ENDBRANCH   5   6
ENDBRANCH   4   5
ENDBRANCH   2   4
TORSDOF 7
ENDMDL
MODEL       31
REMARK 921   NORMALIZED FREE ENERGY PREDICTED BY IDOCK:   -5.41 KCAL/MOL
REMARK 922        TOTAL FREE ENERGY PREDICTED BY IDOCK:   -9.34 KCAL/MOL
REMARK 923 INTER-LIGAND FREE ENERGY PREDICTED BY IDOCK:   -7.70 KCAL/MOL
REMARK 924 INTRA-LIGAND FREE ENERGY PREDICTED BY IDOCK:   -1.64 KCAL/MOL
REMARK 927      BINDING AFFINITY PREDICTED BY RF-SCORE:    0.00 PKD
ROOT
HETATM    1  O   UNL     1     -13.042  15.949  69.996  1.00  0.00    -0.627 OA 
HETATM    2  C   UNL     1     -11.633  15.882  70.196  1.00  0.00    -0.351 C  
HETATM    3  H   UNL     1     -13.498  15.605  70.755  1.00  0.00     0.000 HD 
ENDROOT
BRANCH   2   4
HETATM    4  C   UNL     1     -10.898  16.435  68.975  1.00  0.00    -0.331 C  
BRANCH   4   5
HETATM    5  O   UNL     1     -11.167  15.615  67.833  1.00  0.00    -0.336 OA 
BRANCH   5   6
HETATM    6  C   UNL     1     -10.790  14.298  67.908  1.00  0.00    -0.253 A  
HETATM    7  C   UNL     1      -9.484  13.827  68.019  1.00  0.00    -0.207 A  
HETATM    8  C   UNL     1      -9.235  12.449  68.137  1.00  0.00    -0.205 A  
HETATM    9  C   UNL     1     -10.286  11.518  68.161  1.00  0.00    -0.211 A  
HETATM   10  C   UNL     1     -11.837  13.369  67.873  1.00  0.00    -0.392 A  
HETATM   11  C   UNL     1     -11.591  11.990  67.996  1.00  0.00    -0.407 A  
BRANCH   9  12
HETATM   12  C   UNL     1      -9.975  10.076  68.422  1.00  0.00    -0.178 C  
HETATM   13  C   UNL     1      -9.633   9.266  67.374  1.00  0.00    -0.190 C  
BRANCH  12  14
HETATM   14  C   UNL     1     -10.126   9.503  69.793  1.00  0.00    -0.238 A  
HETATM   15  C   UNL     1     -11.401   9.228  70.313  1.00  0.00    -0.238 A  
HETATM   16  C   UNL     1     -10.429   8.429  72.384  1.00  0.00    -0.402 A  
HETATM   17  C   UNL     1      -9.007   9.216  70.588  1.00  0.00    -0.292 A  
HETATM   18  C   UNL     1      -9.158   8.691  71.878  1.00  0.00    -0.326 A  
HETATM   19  C   UNL     1     -11.550   8.693  71.599  1.00  0.00    -0.379 A  
ENDBRANCH  12  14
BRANCH  13  20
HETATM   20  C   UNL     1      -9.559   7.740  67.413  1.00  0.00    -0.192 C  
HETATM   21  C   UNL     1     -10.841   7.013  67.025  1.00  0.00    -0.343 C  
HETATM   22 CL   UNL     1     -10.650   5.257  67.316  1.00  0.00    -0.240 Cl 
ENDBRANCH  13  20
BRANCH  13  23
HETATM   23  C   UNL     1      -9.430   9.799  65.996  1.00  0.00    -0.269 A  
HETATM   24  C   UNL     1      -9.048  10.835  63.412  1.00  0.00    -0.244 A  
HETATM   25  C   UNL     1      -8.173   9.728  65.377  1.00  0.00    -0.131 A  
HETATM   26  C   UNL     1      -7.984  10.245  64.093  1.00  0.00    -0.126 A  
HETATM   27  C   UNL     1     -10.304  10.891  64.009  1.00  0.00    -0.417 A  
HETATM   28  C   UNL     1     -10.497  10.373  65.292  1.00  0.00    -0.178 A  
ENDBRANCH  13  23
ENDBRANCH   9  12
ENDBRANCH   5   6
ENDBRANCH   4   5
ENDBRANCH   2   4
TORSDOF 7
ENDMDL
MODEL       32
REMARK 921   NORMALIZED FREE ENERGY PREDICTED BY IDOCK:   -5.37 KCAL/MOL
REMARK 922        TOTAL FREE ENERGY PREDICTED BY IDOCK:   -9.28 KCAL/MOL
REMARK 923 INTER-LIGAND FREE ENERGY PREDICTED BY IDOCK:   -7.87 KCAL/MOL
REMARK 924 INTRA-LIGAND FREE ENERGY PREDICTED BY IDOCK:   -1.41 KCAL/MOL
REMARK 927      BINDING AFFINITY PREDICTED BY RF-SCORE:    0.00 PKD
ROOT
HETATM    1  O   UNL     1     -11.524   4.155  64.732  1.00  0.00    -0.923 OA 
HETATM    2  C   UNL     1     -10.125   3.914  64.854  1.00  0.00    -0.182 C  
HETATM    3  H   UNL     1     -11.805   4.009  63.836  1.00  0.00     0.000 HD 
ENDROOT
BRANCH   2   4
HETATM    4  C   UNL     1      -9.672   4.149  66.296  1.00  0.00    -0.206 C  
BRANCH   4   5
HETATM    5  O   UNL     1      -8.672   5.173  66.330  1.00  0.00    -0.112 OA 
BRANCH   5   6
HETATM    6  C   UNL     1      -9.110   6.471  66.399  1.00  0.00    -0.155 A  
HETATM    7  C   UNL     1     -10.353   6.891  66.867  1.00  0.00    -0.332 A  
HETATM    8  C   UNL     1     -10.661   8.260  66.931  1.00  0.00    -0.302 A  
HETATM    9  C   UNL     1      -9.728   9.235  66.544  1.00  0.00    -0.305 A  
HETATM   10  C   UNL     1      -8.199   7.439  65.958  1.00  0.00    -0.130 A  
HETATM   11  C   UNL     1      -8.503   8.810  66.026  1.00  0.00    -0.144 A  
BRANCH   9  12
HETATM   12  C   UNL     1     -10.057  10.682  66.757  1.00  0.00    -0.272 C  
HETATM   13  C   UNL     1      -9.835  11.244  67.983  1.00  0.00    -0.186 C  
BRANCH  12  14
HETATM   14  C   UNL     1     -10.705  11.481  65.674  1.00  0.00    -0.323 A  
HETATM   15  C   UNL     1     -10.104  11.586  64.410  1.00  0.00    -0.328 A  
HETATM   16  C   UNL     1     -11.913  12.992  63.621  1.00  0.00    -0.608 A  
HETATM   17  C   UNL     1     -11.929  12.133  65.886  1.00  0.00    -0.252 A  
HETATM   18  C   UNL     1     -12.524  12.891  64.868  1.00  0.00    -0.540 A  
HETATM   19  C   UNL     1     -10.705  12.335  63.390  1.00  0.00    -0.438 A  
ENDBRANCH  12  14
BRANCH  13  20
HETATM   20  C   UNL     1     -10.359  12.600  68.452  1.00  0.00    -0.241 C  
HETATM   21  C   UNL     1     -11.690  12.565  69.194  1.00  0.00    -0.321 C  
HETATM   22 CL   UNL     1     -12.259  14.236  69.493  1.00  0.00    -0.361 Cl 
ENDBRANCH  13  20
BRANCH  13  23
HETATM   23  C   UNL     1      -9.152  10.500  69.082  1.00  0.00    -0.177 A  
HETATM   24  C   UNL     1      -7.861   9.129  71.167  1.00  0.00    -0.119 A  
HETATM   25  C   UNL     1      -9.885   9.696  69.968  1.00  0.00    -0.286 A  
HETATM   26  C   UNL     1      -9.242   9.016  71.006  1.00  0.00    -0.331 A  
HETATM   27  C   UNL     1      -7.123   9.906  70.280  1.00  0.00    -0.155 A  
HETATM   28  C   UNL     1      -7.762  10.585  69.240  1.00  0.00    -0.144 A  
ENDBRANCH  13  23
ENDBRANCH   9  12
ENDBRANCH   5   6
ENDBRANCH   4   5
ENDBRANCH   2   4
TORSDOF 7
ENDMDL
MODEL       33
REMARK 921   NORMALIZED FREE ENERGY PREDICTED BY IDOCK:   -5.34 KCAL/MOL
REMARK 922        TOTAL FREE ENERGY PREDICTED BY IDOCK:   -9.25 KCAL/MOL
REMARK 923 INTER-LIGAND FREE ENERGY PREDICTED BY IDOCK:   -7.15 KCAL/MOL
REMARK 924 INTRA-LIGAND FREE ENERGY PREDICTED BY IDOCK:   -2.09 KCAL/MOL
REMARK 927      BINDING AFFINITY PREDICTED BY RF-SCORE:    0.00 PKD
ROOT
HETATM    1  O   UNL     1     -12.514  14.054  63.296  1.00  0.00    -1.139 OA 
HETATM    2  C   UNL     1     -12.048  14.748  64.449  1.00  0.00    -0.440 C  
HETATM    3  H   UNL     1     -12.217  14.492  62.507  1.00  0.00     0.000 HD 
ENDROOT
BRANCH   2   4
HETATM    4  C   UNL     1     -12.526  14.043  65.720  1.00  0.00    -0.494 C  
BRANCH   4   5
HETATM    5  O   UNL     1     -11.553  14.200  66.758  1.00  0.00    -0.353 OA 
BRANCH   5   6
HETATM    6  C   UNL     1     -10.931  13.063  67.208  1.00  0.00    -0.264 A  
HETATM    7  C   UNL     1      -9.747  13.014  67.941  1.00  0.00    -0.218 A  
HETATM    8  C   UNL     1      -9.239  11.782  68.385  1.00  0.00    -0.175 A  
HETATM    9  C   UNL     1      -9.909  10.578  68.117  1.00  0.00    -0.169 A  
HETATM   10  C   UNL     1     -11.572  11.860  66.889  1.00  0.00    -0.358 A  
HETATM   11  C   UNL     1     -11.067  10.626  67.336  1.00  0.00    -0.341 A  
BRANCH   9  12
HETATM   12  C   UNL     1      -9.396   9.308  68.725  1.00  0.00    -0.139 C  
HETATM   13  C   UNL     1      -8.577   8.498  67.989  1.00  0.00    -0.134 C  
BRANCH  12  14
HETATM   14  C   UNL     1      -9.846   8.881  70.083  1.00  0.00    -0.199 A  
HETATM   15  C   UNL     1     -11.140   8.371  70.277  1.00  0.00    -0.216 A  
HETATM   16  C   UNL     1     -10.714   8.079  72.645  1.00  0.00    -0.426 A  
HETATM   17  C   UNL     1      -8.992   8.968  71.193  1.00  0.00    -0.303 A  
HETATM   18  C   UNL     1      -9.427   8.578  72.466  1.00  0.00    -0.328 A  
HETATM   19  C   UNL     1     -11.570   7.971  71.549  1.00  0.00    -0.313 A  
ENDBRANCH  12  14
BRANCH  13  20
HETATM   20  C   UNL     1      -8.195   7.061  68.338  1.00  0.00    -0.124 C  
HETATM   21  C   UNL     1      -9.254   6.009  68.030  1.00  0.00    -0.115 C  
HETATM   22 CL   UNL     1      -8.737   4.423  68.678  1.00  0.00    -0.109 Cl 
ENDBRANCH  13  20
BRANCH  13  23
HETATM   23  C   UNL     1      -8.067   8.900  66.645  1.00  0.00    -0.107 A  
HETATM   24  C   UNL     1      -7.083   9.633  64.118  1.00  0.00    -0.119 A  
HETATM   25  C   UNL     1      -8.776   8.569  65.480  1.00  0.00    -0.208 A  
HETATM   26  C   UNL     1      -8.284   8.932  64.224  1.00  0.00    -0.169 A  
HETATM   27  C   UNL     1      -6.384   9.986  65.268  1.00  0.00    -0.107 A  
HETATM   28  C   UNL     1      -6.874   9.625  66.526  1.00  0.00    -0.084 A  
ENDBRANCH  13  23
ENDBRANCH   9  12
ENDBRANCH   5   6
ENDBRANCH   4   5
ENDBRANCH   2   4
TORSDOF 7
ENDMDL
MODEL       34
REMARK 921   NORMALIZED FREE ENERGY PREDICTED BY IDOCK:   -5.28 KCAL/MOL
REMARK 922        TOTAL FREE ENERGY PREDICTED BY IDOCK:   -9.16 KCAL/MOL
REMARK 923 INTER-LIGAND FREE ENERGY PREDICTED BY IDOCK:   -8.14 KCAL/MOL
REMARK 924 INTRA-LIGAND FREE ENERGY PREDICTED BY IDOCK:   -1.02 KCAL/MOL
REMARK 927      BINDING AFFINITY PREDICTED BY RF-SCORE:    0.00 PKD
ROOT
HETATM    1  O   UNL     1      -9.780   4.247  71.248  1.00  0.00    -0.164 OA 
HETATM    2  C   UNL     1      -9.820   4.183  72.671  1.00  0.00    -0.150 C  
HETATM    3  H   UNL     1      -9.073   3.707  70.915  1.00  0.00     0.000 HD 
ENDROOT
BRANCH   2   4
HETATM    4  C   UNL     1     -10.958   5.052  73.208  1.00  0.00    -0.318 C  
BRANCH   4   5
HETATM    5  O   UNL     1     -10.469   6.363  73.507  1.00  0.00    -0.239 OA 
BRANCH   5   6
HETATM    6  C   UNL     1     -10.743   7.354  72.597  1.00  0.00    -0.288 A  
HETATM    7  C   UNL     1     -11.959   7.555  71.950  1.00  0.00    -0.335 A  
HETATM    8  C   UNL     1     -12.125   8.642  71.074  1.00  0.00    -0.247 A  
HETATM    9  C   UNL     1     -11.083   9.553  70.840  1.00  0.00    -0.406 A  
HETATM   10  C   UNL     1      -9.684   8.228  72.322  1.00  0.00    -0.362 A  
HETATM   11  C   UNL     1      -9.849   9.318  71.449  1.00  0.00    -0.296 A  
BRANCH   9  12
HETATM   12  C   UNL     1     -11.353  10.766  70.002  1.00  0.00    -0.397 C  
HETATM   13  C   UNL     1     -10.858  10.822  68.728  1.00  0.00    -0.262 C  
BRANCH  12  14
HETATM   14  C   UNL     1     -12.072  11.942  70.578  1.00  0.00    -0.422 A  
HETATM   15  C   UNL     1     -12.918  11.785  71.687  1.00  0.00    -0.467 A  
HETATM   16  C   UNL     1     -13.444  14.151  71.672  1.00  0.00    -0.448 A  
HETATM   17  C   UNL     1     -11.914  13.227  70.037  1.00  0.00    -0.399 A  
HETATM   18  C   UNL     1     -12.603  14.322  70.575  1.00  0.00    -0.418 A  
HETATM   19  C   UNL     1     -13.598  12.883  72.231  1.00  0.00    -0.611 A  
ENDBRANCH  12  14
BRANCH  13  20
HETATM   20  C   UNL     1     -10.798  12.070  67.848  1.00  0.00    -0.254 C  
HETATM   21  C   UNL     1     -11.637  12.015  66.577  1.00  0.00    -0.314 C  
HETATM   22 CL   UNL     1     -11.300  13.455  65.568  1.00  0.00    -0.305 Cl 
ENDBRANCH  13  20
BRANCH  13  23
HETATM   23  C   UNL     1     -10.171   9.659  68.095  1.00  0.00    -0.225 A  
HETATM   24  C   UNL     1      -8.866   7.458  66.934  1.00  0.00    -0.140 A  
HETATM   25  C   UNL     1     -10.910   8.612  67.525  1.00  0.00    -0.087 A  
HETATM   26  C   UNL     1     -10.260   7.517  66.949  1.00  0.00    -0.359 A  
HETATM   27  C   UNL     1      -8.125   8.502  67.477  1.00  0.00    -0.107 A  
HETATM   28  C   UNL     1      -8.772   9.599  68.052  1.00  0.00    -0.119 A  
ENDBRANCH  13  23
ENDBRANCH   9  12
ENDBRANCH   5   6
ENDBRANCH   4   5
ENDBRANCH   2   4
TORSDOF 7
ENDMDL
MODEL       35
REMARK 921   NORMALIZED FREE ENERGY PREDICTED BY IDOCK:   -5.27 KCAL/MOL
REMARK 922        TOTAL FREE ENERGY PREDICTED BY IDOCK:   -9.14 KCAL/MOL
REMARK 923 INTER-LIGAND FREE ENERGY PREDICTED BY IDOCK:   -7.71 KCAL/MOL
REMARK 924 INTRA-LIGAND FREE ENERGY PREDICTED BY IDOCK:   -1.44 KCAL/MOL
REMARK 927      BINDING AFFINITY PREDICTED BY RF-SCORE:    0.00 PKD
ROOT
HETATM    1  O   UNL     1     -12.749  15.170  73.269  1.00  0.00    -0.426 OA 
HETATM    2  C   UNL     1     -12.876  15.961  72.090  1.00  0.00    -0.423 C  
HETATM    3  H   UNL     1     -12.763  15.725  74.040  1.00  0.00     0.000 HD 
ENDROOT
BRANCH   2   4
HETATM    4  C   UNL     1     -12.854  15.068  70.849  1.00  0.00    -0.391 C  
BRANCH   4   5
HETATM    5  O   UNL     1     -12.621  13.709  71.232  1.00  0.00    -0.346 OA 
BRANCH   5   6
HETATM    6  C   UNL     1     -12.051  12.885  70.294  1.00  0.00    -0.302 A  
HETATM    7  C   UNL     1     -12.393  11.555  70.059  1.00  0.00    -0.287 A  
HETATM    8  C   UNL     1     -11.764  10.833  69.031  1.00  0.00    -0.357 A  
HETATM    9  C   UNL     1     -10.794  11.429  68.210  1.00  0.00    -0.253 A  
HETATM   10  C   UNL     1     -11.044  13.466  69.515  1.00  0.00    -0.100 A  
HETATM   11  C   UNL     1     -10.416  12.747  68.482  1.00  0.00    -0.252 A  
BRANCH   9  12
HETATM   12  C   UNL     1     -10.251  10.658  67.045  1.00  0.00    -0.267 C  
HETATM   13  C   UNL     1     -10.382  11.171  65.785  1.00  0.00    -0.316 C  
BRANCH  12  14
HETATM   14  C   UNL     1      -9.657   9.302  67.244  1.00  0.00    -0.200 A  
HETATM   15  C   UNL     1     -10.439   8.149  67.066  1.00  0.00    -0.396 A  
HETATM   16  C   UNL     1      -8.553   6.734  67.623  1.00  0.00    -0.121 A  
HETATM   17  C   UNL     1      -8.309   9.144  67.600  1.00  0.00    -0.116 A  
HETATM   18  C   UNL     1      -7.764   7.868  67.797  1.00  0.00    -0.121 A  
HETATM   19  C   UNL     1      -9.890   6.874  67.253  1.00  0.00    -0.196 A  
ENDBRANCH  12  14
BRANCH  13  20
HETATM   20  C   UNL     1     -10.144  10.409  64.482  1.00  0.00    -0.365 C  
HETATM   21  C   UNL     1      -8.716  10.450  63.952  1.00  0.00    -0.196 C  
HETATM   22 CL   UNL     1      -8.651   9.689  62.333  1.00  0.00    -0.189 Cl 
ENDBRANCH  13  20
BRANCH  13  23
HETATM   23  C   UNL     1     -10.929  12.537  65.540  1.00  0.00    -0.322 A  
HETATM   24  C   UNL     1     -11.951  15.108  65.046  1.00  0.00    -0.111 A  
HETATM   25  C   UNL     1     -12.314  12.762  65.516  1.00  0.00    -0.495 A  
HETATM   26  C   UNL     1     -12.820  14.040  65.268  1.00  0.00    -0.418 A  
HETATM   27  C   UNL     1     -10.576  14.899  65.089  1.00  0.00    -0.450 A  
HETATM   28  C   UNL     1     -10.066  13.622  65.339  1.00  0.00    -0.291 A  
ENDBRANCH  13  23
ENDBRANCH   9  12
ENDBRANCH   5   6
ENDBRANCH   4   5
ENDBRANCH   2   4
TORSDOF 7
ENDMDL
MODEL       36
REMARK 921   NORMALIZED FREE ENERGY PREDICTED BY IDOCK:   -5.23 KCAL/MOL
REMARK 922        TOTAL FREE ENERGY PREDICTED BY IDOCK:   -9.09 KCAL/MOL
REMARK 923 INTER-LIGAND FREE ENERGY PREDICTED BY IDOCK:   -8.40 KCAL/MOL
REMARK 924 INTRA-LIGAND FREE ENERGY PREDICTED BY IDOCK:   -0.70 KCAL/MOL
REMARK 927      BINDING AFFINITY PREDICTED BY RF-SCORE:    0.00 PKD
ROOT
HETATM    1  O   UNL     1     -10.341  19.887  67.572  1.00  0.00    -0.409 OA 
HETATM    2  C   UNL     1     -10.653  18.550  67.193  1.00  0.00    -0.398 C  
HETATM    3  H   UNL     1     -11.039  20.249  68.104  1.00  0.00     0.000 HD 
ENDROOT
BRANCH   2   4
HETATM    4  C   UNL     1      -9.528  17.967  66.336  1.00  0.00    -0.267 C  
BRANCH   4   5
HETATM    5  O   UNL     1     -10.019  16.855  65.579  1.00  0.00    -0.572 OA 
BRANCH   5   6
HETATM    6  C   UNL     1     -10.142  15.658  66.237  1.00  0.00    -0.299 A  
HETATM    7  C   UNL     1      -9.201  15.098  67.097  1.00  0.00    -0.226 A  
HETATM    8  C   UNL     1      -9.471  13.883  67.750  1.00  0.00    -0.214 A  
HETATM    9  C   UNL     1     -10.690  13.212  67.565  1.00  0.00    -0.248 A  
HETATM   10  C   UNL     1     -11.336  14.963  66.006  1.00  0.00    -0.306 A  
HETATM   11  C   UNL     1     -11.610  13.750  66.661  1.00  0.00    -0.392 A  
BRANCH   9  12
HETATM   12  C   UNL     1     -10.981  11.992  68.384  1.00  0.00    -0.276 C  
HETATM   13  C   UNL     1     -10.580  10.768  67.925  1.00  0.00    -0.258 C  
BRANCH  12  14
HETATM   14  C   UNL     1     -11.779  12.094  69.642  1.00  0.00    -0.396 A  
HETATM   15  C   UNL     1     -12.118  13.350  70.170  1.00  0.00    -0.415 A  
HETATM   16  C   UNL     1     -13.280  12.305  72.022  1.00  0.00    -0.508 A  
HETATM   17  C   UNL     1     -12.219  10.947  70.320  1.00  0.00    -0.432 A  
HETATM   18  C   UNL     1     -12.957  11.053  71.507  1.00  0.00    -0.553 A  
HETATM   19  C   UNL     1     -12.864  13.455  71.351  1.00  0.00    -0.420 A  
ENDBRANCH  12  14
BRANCH  13  20
HETATM   20  C   UNL     1     -11.028   9.416  68.479  1.00  0.00    -0.076 C  
HETATM   21  C   UNL     1     -10.094   8.789  69.507  1.00  0.00    -0.202 C  
HETATM   22 CL   UNL     1     -10.653   7.134  69.900  1.00  0.00    -0.236 Cl 
ENDBRANCH  13  20
BRANCH  13  23
HETATM   23  C   UNL     1      -9.746  10.618  66.697  1.00  0.00    -0.225 A  
HETATM   24  C   UNL     1      -8.164  10.306  64.396  1.00  0.00    -0.159 A  
HETATM   25  C   UNL     1     -10.343  10.436  65.441  1.00  0.00    -0.270 A  
HETATM   26  C   UNL     1      -9.555  10.278  64.297  1.00  0.00    -0.375 A  
HETATM   27  C   UNL     1      -7.563  10.508  65.634  1.00  0.00    -0.134 A  
HETATM   28  C   UNL     1      -8.348  10.668  66.779  1.00  0.00    -0.132 A  
ENDBRANCH  13  23
ENDBRANCH   9  12
ENDBRANCH   5   6
ENDBRANCH   4   5
ENDBRANCH   2   4
TORSDOF 7
ENDMDL
MODEL       37
REMARK 921   NORMALIZED FREE ENERGY PREDICTED BY IDOCK:   -5.19 KCAL/MOL
REMARK 922        TOTAL FREE ENERGY PREDICTED BY IDOCK:   -9.03 KCAL/MOL
REMARK 923 INTER-LIGAND FREE ENERGY PREDICTED BY IDOCK:   -7.75 KCAL/MOL
REMARK 924 INTRA-LIGAND FREE ENERGY PREDICTED BY IDOCK:   -1.28 KCAL/MOL
REMARK 927      BINDING AFFINITY PREDICTED BY RF-SCORE:    0.00 PKD
ROOT
HETATM    1  O   UNL     1     -10.126  20.213  65.801  1.00  0.00    -0.521 OA 
HETATM    2  C   UNL     1      -9.704  19.070  66.538  1.00  0.00    -0.357 C  
HETATM    3  H   UNL     1      -9.614  20.973  66.052  1.00  0.00     0.000 HD 
ENDROOT
BRANCH   2   4
HETATM    4  C   UNL     1     -10.528  17.846  66.134  1.00  0.00    -0.321 C  
BRANCH   4   5
HETATM    5  O   UNL     1      -9.710  16.672  66.180  1.00  0.00    -0.286 OA 
BRANCH   5   6
HETATM    6  C   UNL     1     -10.176  15.614  66.919  1.00  0.00    -0.281 A  
HETATM    7  C   UNL     1     -11.476  15.114  66.899  1.00  0.00    -0.215 A  
HETATM    8  C   UNL     1     -11.814  13.989  67.671  1.00  0.00    -0.430 A  
HETATM    9  C   UNL     1     -10.858  13.336  68.464  1.00  0.00    -0.286 A  
HETATM   10  C   UNL     1      -9.234  15.000  67.753  1.00  0.00    -0.181 A  
HETATM   11  C   UNL     1      -9.569  13.872  68.522  1.00  0.00    -0.185 A  
BRANCH   9  12
HETATM   12  C   UNL     1     -11.237  12.066  69.163  1.00  0.00    -0.305 C  
HETATM   13  C   UNL     1     -11.931  12.131  70.339  1.00  0.00    -0.360 C  
BRANCH  12  14
HETATM   14  C   UNL     1     -10.784  10.745  68.633  1.00  0.00    -0.242 A  
HETATM   15  C   UNL     1      -9.979   9.902  69.416  1.00  0.00    -0.227 A  
HETATM   16  C   UNL     1      -9.913   8.250  67.644  1.00  0.00    -0.245 A  
HETATM   17  C   UNL     1     -11.156  10.308  67.353  1.00  0.00    -0.261 A  
HETATM   18  C   UNL     1     -10.716   9.073  66.859  1.00  0.00    -0.150 A  
HETATM   19  C   UNL     1      -9.548   8.663  68.925  1.00  0.00    -0.159 A  
ENDBRANCH  12  14
BRANCH  13  20
HETATM   20  C   UNL     1     -12.152  10.972  71.310  1.00  0.00    -0.280 C  
HETATM   21  C   UNL     1     -13.434  10.177  71.098  1.00  0.00    -0.201 C  
HETATM   22 CL   UNL     1     -13.641   8.997  72.429  1.00  0.00    -0.509 Cl 
ENDBRANCH  13  20
BRANCH  13  23
HETATM   23  C   UNL     1     -12.441  13.422  70.886  1.00  0.00    -0.439 A  
HETATM   24  C   UNL     1     -13.411  15.837  71.944  1.00  0.00    -0.428 A  
HETATM   25  C   UNL     1     -11.553  14.420  71.314  1.00  0.00    -0.061 A  
HETATM   26  C   UNL     1     -12.037  15.621  71.842  1.00  0.00    -0.513 A  
HETATM   27  C   UNL     1     -14.299  14.862  71.501  1.00  0.00    -0.631 A  
HETATM   28  C   UNL     1     -13.819  13.662  70.971  1.00  0.00     0.321 A  
ENDBRANCH  13  23
ENDBRANCH   9  12
ENDBRANCH   5   6
ENDBRANCH   4   5
ENDBRANCH   2   4
TORSDOF 7
ENDMDL
MODEL       38
REMARK 921   NORMALIZED FREE ENERGY PREDICTED BY IDOCK:   -5.15 KCAL/MOL
REMARK 922        TOTAL FREE ENERGY PREDICTED BY IDOCK:   -8.97 KCAL/MOL
REMARK 923 INTER-LIGAND FREE ENERGY PREDICTED BY IDOCK:   -7.52 KCAL/MOL
REMARK 924 INTRA-LIGAND FREE ENERGY PREDICTED BY IDOCK:   -1.45 KCAL/MOL
REMARK 927      BINDING AFFINITY PREDICTED BY RF-SCORE:    0.00 PKD
ROOT
HETATM    1  O   UNL     1      -9.202  19.832  66.441  1.00  0.00    -0.356 OA 
HETATM    2  C   UNL     1     -10.526  19.307  66.486  1.00  0.00    -0.462 C  
HETATM    3  H   UNL     1      -9.225  20.782  66.460  1.00  0.00     0.000 HD 
ENDROOT
BRANCH   2   4
HETATM    4  C   UNL     1     -10.490  17.779  66.455  1.00  0.00    -0.297 C  
BRANCH   4   5
HETATM    5  O   UNL     1     -10.176  17.274  67.758  1.00  0.00    -0.303 OA 
BRANCH   5   6
HETATM    6  C   UNL     1     -10.036  15.915  67.884  1.00  0.00    -0.235 A  
HETATM    7  C   UNL     1     -10.823  15.083  68.676  1.00  0.00    -0.249 A  
HETATM    8  C   UNL     1     -10.607  13.694  68.678  1.00  0.00    -0.260 A  
HETATM    9  C   UNL     1      -9.611  13.111  67.879  1.00  0.00    -0.218 A  
HETATM   10  C   UNL     1      -9.005  15.343  67.129  1.00  0.00    -0.236 A  
HETATM   11  C   UNL     1      -8.790  13.953  67.126  1.00  0.00    -0.236 A  
BRANCH   9  12
HETATM   12  C   UNL     1      -9.510  11.617  67.818  1.00  0.00    -0.178 C  
HETATM   13  C   UNL     1     -10.135  10.946  66.804  1.00  0.00    -0.259 C  
BRANCH  12  14
HETATM   14  C   UNL     1      -8.814  10.858  68.899  1.00  0.00    -0.143 A  
HETATM   15  C   UNL     1      -9.520   9.940  69.693  1.00  0.00    -0.252 A  
HETATM   16  C   UNL     1      -7.515   9.423  70.952  1.00  0.00    -0.097 A  
HETATM   17  C   UNL     1      -7.443  11.032  69.143  1.00  0.00    -0.121 A  
HETATM   18  C   UNL     1      -6.801  10.326  70.169  1.00  0.00    -0.152 A  
HETATM   19  C   UNL     1      -8.874   9.227  70.711  1.00  0.00    -0.282 A  
ENDBRANCH  12  14
BRANCH  13  20
HETATM   20  C   UNL     1     -10.368   9.437  66.742  1.00  0.00    -0.303 C  
HETATM   21  C   UNL     1      -9.170   8.608  66.295  1.00  0.00    -0.202 C  
HETATM   22 CL   UNL     1      -9.663   6.901  66.082  1.00  0.00    -0.037 Cl 
ENDBRANCH  13  20
BRANCH  13  23
HETATM   23  C   UNL     1     -10.807  11.661  65.679  1.00  0.00    -0.330 A  
HETATM   24  C   UNL     1     -12.080  12.976  63.547  1.00  0.00    -0.617 A  
HETATM   25  C   UNL     1     -12.014  12.345  65.883  1.00  0.00    -0.434 A  
HETATM   26  C   UNL     1     -12.647  12.998  64.821  1.00  0.00    -0.460 A  
HETATM   27  C   UNL     1     -10.871  12.318  63.340  1.00  0.00    -0.457 A  
HETATM   28  C   UNL     1     -10.235  11.667  64.400  1.00  0.00    -0.346 A  
ENDBRANCH  13  23
ENDBRANCH   9  12
ENDBRANCH   5   6
ENDBRANCH   4   5
ENDBRANCH   2   4
TORSDOF 7
ENDMDL
MODEL       39
REMARK 921   NORMALIZED FREE ENERGY PREDICTED BY IDOCK:   -5.14 KCAL/MOL
REMARK 922        TOTAL FREE ENERGY PREDICTED BY IDOCK:   -8.96 KCAL/MOL
REMARK 923 INTER-LIGAND FREE ENERGY PREDICTED BY IDOCK:   -7.71 KCAL/MOL
REMARK 924 INTRA-LIGAND FREE ENERGY PREDICTED BY IDOCK:   -1.25 KCAL/MOL
REMARK 927      BINDING AFFINITY PREDICTED BY RF-SCORE:    0.00 PKD
ROOT
HETATM    1  O   UNL     1     -13.750   6.798  72.175  1.00  0.00    -0.540 OA 
HETATM    2  C   UNL     1     -12.510   7.272  71.659  1.00  0.00    -0.359 C  
HETATM    3  H   UNL     1     -13.977   5.967  71.773  1.00  0.00     0.000 HD 
ENDROOT
BRANCH   2   4
HETATM    4  C   UNL     1     -12.144   8.609  72.306  1.00  0.00    -0.373 C  
BRANCH   4   5
HETATM    5  O   UNL     1     -10.942   9.120  71.720  1.00  0.00    -0.353 OA 
BRANCH   5   6
HETATM    6  C   UNL     1     -11.078   9.913  70.609  1.00  0.00    -0.340 A  
HETATM    7  C   UNL     1     -12.268  10.463  70.138  1.00  0.00    -0.305 A  
HETATM    8  C   UNL     1     -12.264  11.303  69.011  1.00  0.00    -0.211 A  
HETATM    9  C   UNL     1     -11.071  11.619  68.343  1.00  0.00    -0.285 A  
HETATM   10  C   UNL     1      -9.894  10.180  69.911  1.00  0.00    -0.223 A  
HETATM   11  C   UNL     1      -9.887  11.023  68.786  1.00  0.00    -0.206 A  
BRANCH   9  12
HETATM   12  C   UNL     1     -11.103  12.622  67.230  1.00  0.00    -0.320 C  
HETATM   13  C   UNL     1     -11.332  13.938  67.523  1.00  0.00    -0.342 C  
BRANCH  12  14
HETATM   14  C   UNL     1     -10.980  12.183  65.808  1.00  0.00    -0.338 A  
HETATM   15  C   UNL     1      -9.787  11.610  65.340  1.00  0.00    -0.268 A  
HETATM   16  C   UNL     1     -10.729  11.355  63.123  1.00  0.00    -0.231 A  
HETATM   17  C   UNL     1     -12.050  12.319  64.910  1.00  0.00    -0.422 A  
HETATM   18  C   UNL     1     -11.921  11.916  63.574  1.00  0.00    -0.567 A  
HETATM   19  C   UNL     1      -9.663  11.198  64.007  1.00  0.00    -0.323 A  
ENDBRANCH  12  14
BRANCH  13  20
HETATM   20  C   UNL     1     -11.671  15.032  66.512  1.00  0.00    -0.126 C  
HETATM   21  C   UNL     1     -10.488  15.861  66.025  1.00  0.00    -0.345 C  
HETATM   22 CL   UNL     1     -11.076  17.215  65.013  1.00  0.00    -0.056 Cl 
ENDBRANCH  13  20
BRANCH  13  23
HETATM   23  C   UNL     1     -11.420  14.431  68.928  1.00  0.00    -0.319 A  
HETATM   24  C   UNL     1     -11.582  15.392  71.564  1.00  0.00    -0.475 A  
HETATM   25  C   UNL     1     -12.630  14.371  69.636  1.00  0.00    -0.102 A  
HETATM   26  C   UNL     1     -12.710  14.852  70.946  1.00  0.00    -0.420 A  
HETATM   27  C   UNL     1     -10.373  15.436  70.878  1.00  0.00     0.311 A  
HETATM   28  C   UNL     1     -10.289  14.955  69.569  1.00  0.00    -0.168 A  
ENDBRANCH  13  23
ENDBRANCH   9  12
ENDBRANCH   5   6
ENDBRANCH   4   5
ENDBRANCH   2   4
TORSDOF 7
ENDMDL
MODEL       40
REMARK 921   NORMALIZED FREE ENERGY PREDICTED BY IDOCK:   -5.13 KCAL/MOL
REMARK 922        TOTAL FREE ENERGY PREDICTED BY IDOCK:   -8.94 KCAL/MOL
REMARK 923 INTER-LIGAND FREE ENERGY PREDICTED BY IDOCK:   -7.28 KCAL/MOL
REMARK 924 INTRA-LIGAND FREE ENERGY PREDICTED BY IDOCK:   -1.66 KCAL/MOL
REMARK 927      BINDING AFFINITY PREDICTED BY RF-SCORE:    0.00 PKD
ROOT
HETATM    1  O   UNL     1      -8.458   6.953  63.937  1.00  0.00    -0.346 OA 
HETATM    2  C   UNL     1      -7.598   6.856  65.069  1.00  0.00    -0.104 C  
HETATM    3  H   UNL     1      -8.018   7.406  63.228  1.00  0.00     0.000 HD 
ENDROOT
BRANCH   2   4
HETATM    4  C   UNL     1      -8.306   6.125  66.211  1.00  0.00    -0.124 C  
BRANCH   4   5
HETATM    5  O   UNL     1      -8.061   6.804  67.448  1.00  0.00    -0.116 OA 
BRANCH   5   6
HETATM    6  C   UNL     1      -8.834   7.904  67.720  1.00  0.00    -0.122 A  
HETATM    7  C   UNL     1     -10.197   8.029  67.462  1.00  0.00    -0.311 A  
HETATM    8  C   UNL     1     -10.885   9.196  67.836  1.00  0.00    -0.147 A  
HETATM    9  C   UNL     1     -10.228  10.252  68.486  1.00  0.00    -0.192 A  
HETATM   10  C   UNL     1      -8.163   8.979  68.316  1.00  0.00    -0.116 A  
HETATM   11  C   UNL     1      -8.851  10.145  68.696  1.00  0.00    -0.136 A  
BRANCH   9  12
HETATM   12  C   UNL     1     -11.032  11.415  68.982  1.00  0.00    -0.288 C  
HETATM   13  C   UNL     1     -11.791  11.270  70.110  1.00  0.00    -0.449 C  
BRANCH  12  14
HETATM   14  C   UNL     1     -11.081  12.690  68.205  1.00  0.00    -0.295 A  
HETATM   15  C   UNL     1     -10.291  13.786  68.586  1.00  0.00    -0.225 A  
HETATM   16  C   UNL     1     -11.169  15.108  66.754  1.00  0.00    -0.285 A  
HETATM   17  C   UNL     1     -11.904  12.822  67.076  1.00  0.00    -0.428 A  
HETATM   18  C   UNL     1     -11.954  14.026  66.361  1.00  0.00    -0.462 A  
HETATM   19  C   UNL     1     -10.334  14.986  67.864  1.00  0.00    -0.241 A  
ENDBRANCH  12  14
BRANCH  13  20
HETATM   20  C   UNL     1     -12.869  12.240  70.591  1.00  0.00    -0.014 C  
HETATM   21  C   UNL     1     -12.427  13.230  71.662  1.00  0.00    -0.053 C  
HETATM   22 CL   UNL     1     -13.844  14.150  72.256  1.00  0.00    -0.592 Cl 
ENDBRANCH  13  20
BRANCH  13  23
HETATM   23  C   UNL     1     -11.744  10.033  70.941  1.00  0.00    -0.462 A  
HETATM   24  C   UNL     1     -11.647   7.721  72.535  1.00  0.00    -0.422 A  
HETATM   25  C   UNL     1     -12.916   9.322  71.239  1.00  0.00    -0.342 A  
HETATM   26  C   UNL     1     -12.867   8.173  72.034  1.00  0.00    -0.346 A  
HETATM   27  C   UNL     1     -10.476   8.406  72.227  1.00  0.00    -0.407 A  
HETATM   28  C   UNL     1     -10.521   9.553  71.432  1.00  0.00    -0.258 A  
ENDBRANCH  13  23
ENDBRANCH   9  12
ENDBRANCH   5   6
ENDBRANCH   4   5
ENDBRANCH   2   4
TORSDOF 7
ENDMDL
MODEL       41
REMARK 921   NORMALIZED FREE ENERGY PREDICTED BY IDOCK:   -5.07 KCAL/MOL
REMARK 922        TOTAL FREE ENERGY PREDICTED BY IDOCK:   -8.87 KCAL/MOL
REMARK 923 INTER-LIGAND FREE ENERGY PREDICTED BY IDOCK:   -8.28 KCAL/MOL
REMARK 924 INTRA-LIGAND FREE ENERGY PREDICTED BY IDOCK:   -0.58 KCAL/MOL
REMARK 927      BINDING AFFINITY PREDICTED BY RF-SCORE:    0.00 PKD
ROOT
HETATM    1  O   UNL     1     -10.311   5.139  70.330  1.00  0.00    -0.266 OA 
HETATM    2  C   UNL     1     -10.233   5.071  71.751  1.00  0.00    -0.207 C  
HETATM    3  H   UNL     1      -9.516   4.792  69.941  1.00  0.00     0.000 HD 
ENDROOT
BRANCH   2   4
HETATM    4  C   UNL     1     -11.512   5.629  72.378  1.00  0.00    -0.251 C  
BRANCH   4   5
HETATM    5  O   UNL     1     -11.243   6.897  72.986  1.00  0.00    -0.257 OA 
BRANCH   5   6
HETATM    6  C   UNL     1     -11.436   8.014  72.212  1.00  0.00    -0.360 A  
HETATM    7  C   UNL     1     -12.664   8.497  71.767  1.00  0.00    -0.385 A  
HETATM    8  C   UNL     1     -12.729   9.685  71.018  1.00  0.00    -0.354 A  
HETATM    9  C   UNL     1     -11.572  10.418  70.714  1.00  0.00    -0.450 A  
HETATM   10  C   UNL     1     -10.274   8.711  71.861  1.00  0.00    -0.404 A  
HETATM   11  C   UNL     1     -10.337   9.902  71.117  1.00  0.00     0.118 A  
BRANCH   9  12
HETATM   12  C   UNL     1     -11.709  11.744  70.029  1.00  0.00    -0.386 C  
HETATM   13  C   UNL     1     -11.128  11.927  68.805  1.00  0.00    -0.296 C  
BRANCH  12  14
HETATM   14  C   UNL     1     -12.392  12.883  70.711  1.00  0.00    -0.385 A  
HETATM   15  C   UNL     1     -12.122  14.207  70.330  1.00  0.00    -0.417 A  
HETATM   16  C   UNL     1     -13.669  15.046  71.996  1.00  0.00    -0.550 A  
HETATM   17  C   UNL     1     -13.325  12.663  71.736  1.00  0.00    -0.405 A  
HETATM   18  C   UNL     1     -13.951  13.738  72.380  1.00  0.00    -0.651 A  
HETATM   19  C   UNL     1     -12.757  15.281  70.968  1.00  0.00    -0.487 A  
ENDBRANCH  12  14
BRANCH  13  20
HETATM   20  C   UNL     1     -10.931  13.269  68.103  1.00  0.00    -0.278 C  
HETATM   21  C   UNL     1     -11.621  13.407  66.750  1.00  0.00    -0.365 C  
HETATM   22 CL   UNL     1     -11.130  14.944  65.976  1.00  0.00    -0.333 Cl 
ENDBRANCH  13  20
BRANCH  13  23
HETATM   23  C   UNL     1     -10.471  10.810  68.066  1.00  0.00    -0.225 A  
HETATM   24  C   UNL     1      -9.221   8.694  66.703  1.00  0.00    -0.227 A  
HETATM   25  C   UNL     1     -11.226   9.738  67.566  1.00  0.00     0.080 A  
HETATM   26  C   UNL     1     -10.603   8.686  66.890  1.00  0.00    -0.270 A  
HETATM   27  C   UNL     1      -8.466   9.763  67.176  1.00  0.00    -0.125 A  
HETATM   28  C   UNL     1      -9.087  10.818  67.850  1.00  0.00    -0.150 A  
ENDBRANCH  13  23
ENDBRANCH   9  12
ENDBRANCH   5   6
ENDBRANCH   4   5
ENDBRANCH   2   4
TORSDOF 7
ENDMDL
MODEL       42
REMARK 921   NORMALIZED FREE ENERGY PREDICTED BY IDOCK:   -5.06 KCAL/MOL
REMARK 922        TOTAL FREE ENERGY PREDICTED BY IDOCK:   -8.85 KCAL/MOL
REMARK 923 INTER-LIGAND FREE ENERGY PREDICTED BY IDOCK:   -7.28 KCAL/MOL
REMARK 924 INTRA-LIGAND FREE ENERGY PREDICTED BY IDOCK:   -1.58 KCAL/MOL
REMARK 927      BINDING AFFINITY PREDICTED BY RF-SCORE:    0.00 PKD
ROOT
HETATM    1  O   UNL     1      -9.454  19.913  68.672  1.00  0.00    -0.302 OA 
HETATM    2  C   UNL     1      -8.167  19.307  68.744  1.00  0.00    -0.355 C  
HETATM    3  H   UNL     1      -9.858  19.928  69.531  1.00  0.00     0.000 HD 
ENDROOT
BRANCH   2   4
HETATM    4  C   UNL     1      -7.515  19.282  67.360  1.00  0.00    -0.229 C  
BRANCH   4   5
HETATM    5  O   UNL     1      -8.487  18.924  66.372  1.00  0.00    -0.294 OA 
BRANCH   5   6
HETATM    6  C   UNL     1      -8.894  17.614  66.343  1.00  0.00    -0.236 A  
HETATM    7  C   UNL     1      -8.070  16.499  66.471  1.00  0.00    -0.341 A  
HETATM    8  C   UNL     1      -8.621  15.206  66.474  1.00  0.00    -0.226 A  
HETATM    9  C   UNL     1     -10.006  15.005  66.363  1.00  0.00    -0.295 A  
HETATM   10  C   UNL     1     -10.270  17.415  66.175  1.00  0.00    -0.334 A  
HETATM   11  C   UNL     1     -10.824  16.122  66.182  1.00  0.00    -0.138 A  
BRANCH   9  12
HETATM   12  C   UNL     1     -10.553  13.617  66.505  1.00  0.00    -0.282 C  
HETATM   13  C   UNL     1     -11.110  13.237  67.695  1.00  0.00    -0.292 C  
BRANCH  12  14
HETATM   14  C   UNL     1     -10.411  12.628  65.396  1.00  0.00    -0.311 A  
HETATM   15  C   UNL     1     -11.275  12.670  64.290  1.00  0.00    -0.410 A  
HETATM   16  C   UNL     1     -10.161  10.761  63.295  1.00  0.00    -0.314 A  
HETATM   17  C   UNL     1      -9.411  11.644  65.422  1.00  0.00    -0.143 A  
HETATM   18  C   UNL     1      -9.293  10.712  64.383  1.00  0.00    -0.291 A  
HETATM   19  C   UNL     1     -11.149  11.743  63.246  1.00  0.00    -0.370 A  
ENDBRANCH  12  14
BRANCH  13  20
HETATM   20  C   UNL     1     -11.456  11.805  68.101  1.00  0.00    -0.382 C  
HETATM   21  C   UNL     1     -10.466  11.137  69.048  1.00  0.00    -0.206 C  
HETATM   22 CL   UNL     1     -10.905   9.414  69.262  1.00  0.00    -0.221 Cl 
ENDBRANCH  13  20
BRANCH  13  23
HETATM   23  C   UNL     1     -11.311  14.199  68.817  1.00  0.00    -0.308 A  
HETATM   24  C   UNL     1     -11.684  16.037  70.910  1.00  0.00    -0.438 A  
HETATM   25  C   UNL     1     -12.597  14.469  69.309  1.00  0.00     0.090 A  
HETATM   26  C   UNL     1     -12.781  15.385  70.348  1.00  0.00    -0.407 A  
HETATM   27  C   UNL     1     -10.403  15.760  70.443  1.00  0.00    -0.061 A  
HETATM   28  C   UNL     1     -10.215  14.843  69.406  1.00  0.00    -0.180 A  
ENDBRANCH  13  23
ENDBRANCH   9  12
ENDBRANCH   5   6
ENDBRANCH   4   5
ENDBRANCH   2   4
TORSDOF 7
ENDMDL
MODEL       43
REMARK 921   NORMALIZED FREE ENERGY PREDICTED BY IDOCK:   -5.06 KCAL/MOL
REMARK 922        TOTAL FREE ENERGY PREDICTED BY IDOCK:   -8.84 KCAL/MOL
REMARK 923 INTER-LIGAND FREE ENERGY PREDICTED BY IDOCK:   -7.21 KCAL/MOL
REMARK 924 INTRA-LIGAND FREE ENERGY PREDICTED BY IDOCK:   -1.63 KCAL/MOL
REMARK 927      BINDING AFFINITY PREDICTED BY RF-SCORE:    0.00 PKD
ROOT
HETATM    1  O   UNL     1      -9.613   4.552  63.653  1.00  0.00    -0.315 OA 
HETATM    2  C   UNL     1      -8.858   4.144  64.790  1.00  0.00    -0.135 C  
HETATM    3  H   UNL     1      -9.054   4.595  62.886  1.00  0.00     0.000 HD 
ENDROOT
BRANCH   2   4
HETATM    4  C   UNL     1      -9.759   4.073  66.025  1.00  0.00    -0.187 C  
BRANCH   4   5
HETATM    5  O   UNL     1      -9.115   4.711  67.133  1.00  0.00    -0.115 OA 
BRANCH   5   6
HETATM    6  C   UNL     1      -9.497   5.998  67.419  1.00  0.00    -0.111 A  
HETATM    7  C   UNL     1     -10.654   6.627  66.967  1.00  0.00    -0.404 A  
HETATM    8  C   UNL     1     -10.954   7.938  67.375  1.00  0.00    -0.016 A  
HETATM    9  C   UNL     1     -10.110   8.639  68.252  1.00  0.00    -0.225 A  
HETATM   10  C   UNL     1      -8.624   6.714  68.248  1.00  0.00    -0.119 A  
HETATM   11  C   UNL     1      -8.924   8.024  68.661  1.00  0.00    -0.134 A  
BRANCH   9  12
HETATM   12  C   UNL     1     -10.542   9.981  68.760  1.00  0.00    -0.241 C  
HETATM   13  C   UNL     1     -11.068  10.081  70.018  1.00  0.00    -0.350 C  
BRANCH  12  14
HETATM   14  C   UNL     1     -10.487  11.181  67.874  1.00  0.00    -0.220 A  
HETATM   15  C   UNL     1      -9.296  11.913  67.739  1.00  0.00    -0.184 A  
HETATM   16  C   UNL     1     -10.369  13.456  66.209  1.00  0.00    -0.291 A  
HETATM   17  C   UNL     1     -11.612  11.601  67.148  1.00  0.00    -0.291 A  
HETATM   18  C   UNL     1     -11.555  12.736  66.328  1.00  0.00    -0.433 A  
HETATM   19  C   UNL     1      -9.238  13.042  66.912  1.00  0.00    -0.236 A  
ENDBRANCH  12  14
BRANCH  13  20
HETATM   20  C   UNL     1     -11.803  11.295  70.584  1.00  0.00    -0.368 C  
HETATM   21  C   UNL     1     -12.809  10.994  71.688  1.00  0.00    -0.435 C  
HETATM   22 CL   UNL     1     -13.722  12.480  72.095  1.00  0.00    -0.463 Cl 
ENDBRANCH  13  20
BRANCH  13  23
HETATM   23  C   UNL     1     -11.105   8.921  70.955  1.00  0.00    -0.328 A  
HETATM   24  C   UNL     1     -11.166   6.715  72.694  1.00  0.00    -0.285 A  
HETATM   25  C   UNL     1     -10.151   8.790  71.974  1.00  0.00    -0.397 A  
HETATM   26  C   UNL     1     -10.181   7.691  72.838  1.00  0.00    -0.356 A  
HETATM   27  C   UNL     1     -12.130   6.847  71.700  1.00  0.00    -0.394 A  
HETATM   28  C   UNL     1     -12.104   7.945  70.837  1.00  0.00    -0.181 A  
ENDBRANCH  13  23
ENDBRANCH   9  12
ENDBRANCH   5   6
ENDBRANCH   4   5
ENDBRANCH   2   4
TORSDOF 7
ENDMDL
MODEL       44
REMARK 921   NORMALIZED FREE ENERGY PREDICTED BY IDOCK:   -5.05 KCAL/MOL
REMARK 922        TOTAL FREE ENERGY PREDICTED BY IDOCK:   -8.84 KCAL/MOL
REMARK 923 INTER-LIGAND FREE ENERGY PREDICTED BY IDOCK:   -6.95 KCAL/MOL
REMARK 924 INTRA-LIGAND FREE ENERGY PREDICTED BY IDOCK:   -1.88 KCAL/MOL
REMARK 927      BINDING AFFINITY PREDICTED BY RF-SCORE:    0.00 PKD
ROOT
HETATM    1  O   UNL     1     -10.848   4.927  66.570  1.00  0.00    -0.383 OA 
HETATM    2  C   UNL     1     -10.684   5.802  67.682  1.00  0.00    -0.229 C  
HETATM    3  H   UNL     1     -11.119   4.066  66.867  1.00  0.00     0.000 HD 
ENDROOT
BRANCH   2   4
HETATM    4  C   UNL     1     -10.250   7.188  67.204  1.00  0.00    -0.257 C  
BRANCH   4   5
HETATM    5  O   UNL     1      -9.731   7.941  68.306  1.00  0.00    -0.153 OA 
BRANCH   5   6
HETATM    6  C   UNL     1     -10.048   9.276  68.354  1.00  0.00    -0.191 A  
HETATM    7  C   UNL     1      -9.147  10.324  68.526  1.00  0.00    -0.138 A  
HETATM    8  C   UNL     1      -9.596  11.655  68.507  1.00  0.00    -0.181 A  
HETATM    9  C   UNL     1     -10.951  11.964  68.304  1.00  0.00    -0.273 A  
HETATM   10  C   UNL     1     -11.407   9.577  68.209  1.00  0.00     0.211 A  
HETATM   11  C   UNL     1     -11.859  10.909  68.186  1.00  0.00    -0.125 A  
BRANCH   9  12
HETATM   12  C   UNL     1     -11.356  13.399  68.161  1.00  0.00    -0.321 C  
HETATM   13  C   UNL     1     -11.491  13.934  66.910  1.00  0.00    -0.370 C  
BRANCH  12  14
HETATM   14  C   UNL     1     -11.522  14.265  69.367  1.00  0.00    -0.337 A  
HETATM   15  C   UNL     1     -10.517  15.173  69.735  1.00  0.00    -0.248 A  
HETATM   16  C   UNL     1     -11.816  15.901  71.647  1.00  0.00    -0.565 A  
HETATM   17  C   UNL     1     -12.683  14.202  70.153  1.00  0.00    -0.227 A  
HETATM   18  C   UNL     1     -12.824  15.009  71.290  1.00  0.00    -0.438 A  
HETATM   19  C   UNL     1     -10.664  15.986  70.866  1.00  0.00     0.135 A  
ENDBRANCH  12  14
BRANCH  13  20
HETATM   20  C   UNL     1     -11.622  15.421  66.584  1.00  0.00     0.062 C  
HETATM   21  C   UNL     1     -10.339  16.104  66.122  1.00  0.00    -0.339 C  
HETATM   22 CL   UNL     1     -10.613  17.867  65.979  1.00  0.00    -0.318 Cl 
ENDBRANCH  13  20
BRANCH  13  23
HETATM   23  C   UNL     1     -11.377  13.101  65.678  1.00  0.00    -0.328 A  
HETATM   24  C   UNL     1     -11.172  11.559  63.338  1.00  0.00    -0.342 A  
HETATM   25  C   UNL     1     -10.121  12.743  65.168  1.00  0.00    -0.246 A  
HETATM   26  C   UNL     1     -10.020  11.977  64.002  1.00  0.00    -0.317 A  
HETATM   27  C   UNL     1     -12.423  11.890  63.849  1.00  0.00    -0.478 A  
HETATM   28  C   UNL     1     -12.527  12.653  65.014  1.00  0.00    -0.556 A  
ENDBRANCH  13  23
ENDBRANCH   9  12
ENDBRANCH   5   6
ENDBRANCH   4   5
ENDBRANCH   2   4
TORSDOF 7
ENDMDL
MODEL       45
REMARK 921   NORMALIZED FREE ENERGY PREDICTED BY IDOCK:   -5.04 KCAL/MOL
REMARK 922        TOTAL FREE ENERGY PREDICTED BY IDOCK:   -8.82 KCAL/MOL
REMARK 923 INTER-LIGAND FREE ENERGY PREDICTED BY IDOCK:   -7.22 KCAL/MOL
REMARK 924 INTRA-LIGAND FREE ENERGY PREDICTED BY IDOCK:   -1.60 KCAL/MOL
REMARK 927      BINDING AFFINITY PREDICTED BY RF-SCORE:    0.00 PKD
ROOT
HETATM    1  O   UNL     1      -7.441  20.782  65.477  1.00  0.00    -0.500 OA 
HETATM    2  C   UNL     1      -6.356  19.858  65.495  1.00  0.00    -0.236 C  
HETATM    3  H   UNL     1      -7.121  21.660  65.303  1.00  0.00     0.000 HD 
ENDROOT
BRANCH   2   4
HETATM    4  C   UNL     1      -6.871  18.445  65.774  1.00  0.00    -0.275 C  
BRANCH   4   5
HETATM    5  O   UNL     1      -8.275  18.484  66.049  1.00  0.00    -0.466 OA 
BRANCH   5   6
HETATM    6  C   UNL     1      -8.890  17.290  66.329  1.00  0.00    -0.215 A  
HETATM    7  C   UNL     1     -10.256  17.035  66.245  1.00  0.00    -0.336 A  
HETATM    8  C   UNL     1     -10.756  15.749  66.512  1.00  0.00    -0.283 A  
HETATM    9  C   UNL     1      -9.898  14.692  66.856  1.00  0.00    -0.252 A  
HETATM   10  C   UNL     1      -8.038  16.253  66.727  1.00  0.00    -0.299 A  
HETATM   11  C   UNL     1      -8.534  14.964  66.991  1.00  0.00    -0.260 A  
BRANCH   9  12
HETATM   12  C   UNL     1     -10.465  13.312  67.001  1.00  0.00    -0.249 C  
HETATM   13  C   UNL     1     -11.133  12.982  68.147  1.00  0.00    -0.285 C  
BRANCH  12  14
HETATM   14  C   UNL     1     -10.226  12.279  65.949  1.00  0.00    -0.274 A  
HETATM   15  C   UNL     1      -9.130  11.406  66.045  1.00  0.00    -0.218 A  
HETATM   16  C   UNL     1      -9.755  10.327  63.967  1.00  0.00    -0.343 A  
HETATM   17  C   UNL     1     -11.089  12.146  64.851  1.00  0.00    -0.367 A  
HETATM   18  C   UNL     1     -10.849  11.182  63.862  1.00  0.00    -0.346 A  
HETATM   19  C   UNL     1      -8.898  10.436  65.061  1.00  0.00    -0.209 A  
ENDBRANCH  12  14
BRANCH  13  20
HETATM   20  C   UNL     1     -11.525  11.569  68.576  1.00  0.00    -0.354 C  
HETATM   21  C   UNL     1     -10.456  10.797  69.341  1.00  0.00    -0.200 C  
HETATM   22 CL   UNL     1     -10.993   9.107  69.589  1.00  0.00    -0.206 Cl 
ENDBRANCH  13  20
BRANCH  13  23
HETATM   23  C   UNL     1     -11.433  13.989  69.206  1.00  0.00    -0.344 A  
HETATM   24  C   UNL     1     -12.008  15.861  71.221  1.00  0.00    -0.493 A  
HETATM   25  C   UNL     1     -10.397  14.641  69.890  1.00  0.00     0.109 A  
HETATM   26  C   UNL     1     -10.684  15.571  70.894  1.00  0.00    -0.140 A  
HETATM   27  C   UNL     1     -13.043  15.236  70.533  1.00  0.00    -0.334 A  
HETATM   28  C   UNL     1     -12.759  14.308  69.528  1.00  0.00     0.158 A  
ENDBRANCH  13  23
ENDBRANCH   9  12
ENDBRANCH   5   6
ENDBRANCH   4   5
ENDBRANCH   2   4
TORSDOF 7
ENDMDL
MODEL       46
REMARK 921   NORMALIZED FREE ENERGY PREDICTED BY IDOCK:   -5.02 KCAL/MOL
REMARK 922        TOTAL FREE ENERGY PREDICTED BY IDOCK:   -8.79 KCAL/MOL
REMARK 923 INTER-LIGAND FREE ENERGY PREDICTED BY IDOCK:   -7.23 KCAL/MOL
REMARK 924 INTRA-LIGAND FREE ENERGY PREDICTED BY IDOCK:   -1.56 KCAL/MOL
REMARK 927      BINDING AFFINITY PREDICTED BY RF-SCORE:    0.00 PKD
ROOT
HETATM    1  O   UNL     1      -9.896   3.916  67.021  1.00  0.00    -0.275 OA 
HETATM    2  C   UNL     1      -8.855   3.942  66.049  1.00  0.00    -0.123 C  
HETATM    3  H   UNL     1     -10.114   3.018  67.244  1.00  0.00     0.000 HD 
ENDROOT
BRANCH   2   4
HETATM    4  C   UNL     1      -8.503   5.387  65.690  1.00  0.00    -0.138 C  
BRANCH   4   5
HETATM    5  O   UNL     1      -8.281   6.144  66.884  1.00  0.00    -0.105 OA 
BRANCH   5   6
HETATM    6  C   UNL     1      -8.943   7.341  66.996  1.00  0.00    -0.130 A  
HETATM    7  C   UNL     1     -10.325   7.512  67.000  1.00  0.00    -0.395 A  
HETATM    8  C   UNL     1     -10.880   8.792  67.172  1.00  0.00    -0.062 A  
HETATM    9  C   UNL     1     -10.066   9.920  67.357  1.00  0.00    -0.254 A  
HETATM   10  C   UNL     1      -8.127   8.471  67.124  1.00  0.00    -0.104 A  
HETATM   11  C   UNL     1      -8.680   9.752  67.301  1.00  0.00    -0.135 A  
BRANCH   9  12
HETATM   12  C   UNL     1     -10.707  11.238  67.669  1.00  0.00    -0.270 C  
HETATM   13  C   UNL     1     -11.255  11.439  68.905  1.00  0.00    -0.310 C  
BRANCH  12  14
HETATM   14  C   UNL     1     -10.833  12.289  66.615  1.00  0.00    -0.296 A  
HETATM   15  C   UNL     1     -11.910  12.270  65.715  1.00  0.00    -0.417 A  
HETATM   16  C   UNL     1     -11.079  14.262  64.613  1.00  0.00    -0.371 A  
HETATM   17  C   UNL     1      -9.890  13.322  66.503  1.00  0.00    -0.281 A  
HETATM   18  C   UNL     1     -10.008  14.296  65.503  1.00  0.00    -0.341 A  
HETATM   19  C   UNL     1     -12.033  13.251  64.723  1.00  0.00    -0.431 A  
ENDBRANCH  12  14
BRANCH  13  20
HETATM   20  C   UNL     1     -12.177  12.593  69.296  1.00  0.00    -0.089 C  
HETATM   21  C   UNL     1     -11.478  13.834  69.839  1.00  0.00    -0.160 C  
HETATM   22 CL   UNL     1     -12.698  15.002  70.434  1.00  0.00    -0.388 Cl 
ENDBRANCH  13  20
BRANCH  13  23
HETATM   23  C   UNL     1     -11.119  10.437  70.003  1.00  0.00    -0.379 A  
HETATM   24  C   UNL     1     -10.850   8.575  72.089  1.00  0.00    -0.427 A  
HETATM   25  C   UNL     1     -12.248   9.970  70.691  1.00  0.00    -0.360 A  
HETATM   26  C   UNL     1     -12.113   9.045  71.730  1.00  0.00    -0.438 A  
HETATM   27  C   UNL     1      -9.726   9.016  71.397  1.00  0.00    -0.369 A  
HETATM   28  C   UNL     1      -9.858   9.939  70.357  1.00  0.00    -0.185 A  
ENDBRANCH  13  23
ENDBRANCH   9  12
ENDBRANCH   5   6
ENDBRANCH   4   5
ENDBRANCH   2   4
TORSDOF 7
ENDMDL
MODEL       47
REMARK 921   NORMALIZED FREE ENERGY PREDICTED BY IDOCK:   -5.00 KCAL/MOL
REMARK 922        TOTAL FREE ENERGY PREDICTED BY IDOCK:   -8.77 KCAL/MOL
REMARK 923 INTER-LIGAND FREE ENERGY PREDICTED BY IDOCK:   -7.29 KCAL/MOL
REMARK 924 INTRA-LIGAND FREE ENERGY PREDICTED BY IDOCK:   -1.48 KCAL/MOL
REMARK 927      BINDING AFFINITY PREDICTED BY RF-SCORE:    0.00 PKD
ROOT
HETATM    1  O   UNL     1     -11.173   2.790  64.003  1.00  0.00    -0.605 OA 
HETATM    2  C   UNL     1     -10.674   4.122  64.086  1.00  0.00    -0.082 C  
HETATM    3  H   UNL     1     -11.898   2.749  63.391  1.00  0.00     0.000 HD 
ENDROOT
BRANCH   2   4
HETATM    4  C   UNL     1      -9.506   4.189  65.071  1.00  0.00    -0.173 C  
BRANCH   4   5
HETATM    5  O   UNL     1      -9.958   4.707  66.327  1.00  0.00    -0.199 OA 
BRANCH   5   6
HETATM    6  C   UNL     1      -9.857   6.063  66.516  1.00  0.00    -0.145 A  
HETATM    7  C   UNL     1      -8.763   6.855  66.178  1.00  0.00    -0.153 A  
HETATM    8  C   UNL     1      -8.805   8.245  66.380  1.00  0.00    -0.180 A  
HETATM    9  C   UNL     1      -9.945   8.870  66.909  1.00  0.00    -0.315 A  
HETATM   10  C   UNL     1     -10.974   6.675  67.097  1.00  0.00    -0.478 A  
HETATM   11  C   UNL     1     -11.020   8.066  67.296  1.00  0.00     0.030 A  
BRANCH   9  12
HETATM   12  C   UNL     1      -9.989  10.366  66.981  1.00  0.00    -0.252 C  
HETATM   13  C   UNL     1      -9.679  10.988  68.158  1.00  0.00    -0.180 C  
BRANCH  12  14
HETATM   14  C   UNL     1     -10.454  11.168  65.810  1.00  0.00    -0.305 A  
HETATM   15  C   UNL     1      -9.753  11.127  64.595  1.00  0.00    -0.308 A  
HETATM   16  C   UNL     1     -11.316  12.684  63.592  1.00  0.00    -0.544 A  
HETATM   17  C   UNL     1     -11.603  11.970  65.889  1.00  0.00    -0.364 A  
HETATM   18  C   UNL     1     -12.025  12.730  64.790  1.00  0.00    -0.455 A  
HETATM   19  C   UNL     1     -10.182  11.879  63.493  1.00  0.00    -0.485 A  
ENDBRANCH  12  14
BRANCH  13  20
HETATM   20  C   UNL     1      -9.936  12.458  68.485  1.00  0.00    -0.175 C  
HETATM   21  C   UNL     1     -11.251  12.749  69.200  1.00  0.00    -0.237 C  
HETATM   22 CL   UNL     1     -11.491  14.518  69.327  1.00  0.00    -0.298 Cl 
ENDBRANCH  13  20
BRANCH  13  23
HETATM   23  C   UNL     1      -9.170  10.234  69.340  1.00  0.00    -0.206 A  
HETATM   24  C   UNL     1      -8.221   8.786  71.554  1.00  0.00    -0.190 A  
HETATM   25  C   UNL     1      -7.792  10.088  69.559  1.00  0.00    -0.155 A  
HETATM   26  C   UNL     1      -7.321   9.366  70.660  1.00  0.00    -0.140 A  
HETATM   27  C   UNL     1      -9.589   8.944  71.357  1.00  0.00    -0.359 A  
HETATM   28  C   UNL     1     -10.063   9.668  70.260  1.00  0.00    -0.331 A  
ENDBRANCH  13  23
ENDBRANCH   9  12
ENDBRANCH   5   6
ENDBRANCH   4   5
ENDBRANCH   2   4
TORSDOF 7
ENDMDL
MODEL       48
REMARK 921   NORMALIZED FREE ENERGY PREDICTED BY IDOCK:   -4.91 KCAL/MOL
REMARK 922        TOTAL FREE ENERGY PREDICTED BY IDOCK:   -8.64 KCAL/MOL
REMARK 923 INTER-LIGAND FREE ENERGY PREDICTED BY IDOCK:   -7.38 KCAL/MOL
REMARK 924 INTRA-LIGAND FREE ENERGY PREDICTED BY IDOCK:   -1.27 KCAL/MOL
REMARK 927      BINDING AFFINITY PREDICTED BY RF-SCORE:    0.00 PKD
ROOT
HETATM    1  O   UNL     1     -13.080  12.099  63.573  1.00  0.00    -0.785 OA 
HETATM    2  C   UNL     1     -11.677  12.013  63.339  1.00  0.00    -0.426 C  
HETATM    3  H   UNL     1     -13.527  12.390  62.786  1.00  0.00     0.000 HD 
ENDROOT
BRANCH   2   4
HETATM    4  C   UNL     1     -10.958  11.546  64.605  1.00  0.00    -0.288 C  
BRANCH   4   5
HETATM    5  O   UNL     1     -11.435  12.284  65.736  1.00  0.00    -0.338 OA 
BRANCH   5   6
HETATM    6  C   UNL     1     -10.658  13.328  66.172  1.00  0.00    -0.287 A  
HETATM    7  C   UNL     1     -10.061  14.294  65.366  1.00  0.00    -0.379 A  
HETATM    8  C   UNL     1      -9.327  15.344  65.944  1.00  0.00    -0.329 A  
HETATM    9  C   UNL     1      -9.189  15.456  67.336  1.00  0.00    -0.204 A  
HETATM   10  C   UNL     1     -10.474  13.404  67.558  1.00  0.00    -0.236 A  
HETATM   11  C   UNL     1      -9.744  14.456  68.138  1.00  0.00    -0.223 A  
BRANCH   9  12
HETATM   12  C   UNL     1      -8.511  16.665  67.906  1.00  0.00    -0.194 C  
HETATM   13  C   UNL     1      -7.382  16.504  68.660  1.00  0.00    -0.194 C  
BRANCH  12  14
HETATM   14  C   UNL     1      -9.108  18.022  67.733  1.00  0.00    -0.262 A  
HETATM   15  C   UNL     1      -8.964  18.715  66.520  1.00  0.00    -0.308 A  
HETATM   16  C   UNL     1     -10.224  20.591  67.392  1.00  0.00    -0.342 A  
HETATM   17  C   UNL     1      -9.835  18.634  68.765  1.00  0.00    -0.422 A  
HETATM   18  C   UNL     1     -10.381  19.913  68.599  1.00  0.00    -0.414 A  
HETATM   19  C   UNL     1      -9.519  19.989  66.351  1.00  0.00    -0.512 A  
ENDBRANCH  12  14
BRANCH  13  20
HETATM   20  C   UNL     1      -6.732  17.576  69.534  1.00  0.00    -0.116 C  
HETATM   21  C   UNL     1      -6.013  18.688  68.778  1.00  0.00    -0.213 C  
HETATM   22 CL   UNL     1      -5.143  19.740  69.936  1.00  0.00    -0.199 Cl 
ENDBRANCH  13  20
BRANCH  13  23
HETATM   23  C   UNL     1      -6.724  15.175  68.827  1.00  0.00    -0.099 A  
HETATM   24  C   UNL     1      -5.516  12.659  69.146  1.00  0.00    -0.070 A  
HETATM   25  C   UNL     1      -6.181  14.500  67.724  1.00  0.00    -0.152 A  
HETATM   26  C   UNL     1      -5.582  13.247  67.884  1.00  0.00    -0.125 A  
HETATM   27  C   UNL     1      -6.032  13.331  70.250  1.00  0.00    -0.134 A  
HETATM   28  C   UNL     1      -6.630  14.584  70.094  1.00  0.00    -0.128 A  
ENDBRANCH  13  23
ENDBRANCH   9  12
ENDBRANCH   5   6
ENDBRANCH   4   5
ENDBRANCH   2   4
TORSDOF 7
ENDMDL
MODEL       49
REMARK 921   NORMALIZED FREE ENERGY PREDICTED BY IDOCK:   -4.91 KCAL/MOL
REMARK 922        TOTAL FREE ENERGY PREDICTED BY IDOCK:   -8.64 KCAL/MOL
REMARK 923 INTER-LIGAND FREE ENERGY PREDICTED BY IDOCK:   -6.99 KCAL/MOL
REMARK 924 INTRA-LIGAND FREE ENERGY PREDICTED BY IDOCK:   -1.65 KCAL/MOL
REMARK 927      BINDING AFFINITY PREDICTED BY RF-SCORE:    0.00 PKD
ROOT
HETATM    1  O   UNL     1     -11.214   5.993  66.466  1.00  0.00    -0.741 OA 
HETATM    2  C   UNL     1     -10.847   7.096  67.290  1.00  0.00    -0.312 C  
HETATM    3  H   UNL     1     -11.738   5.374  66.961  1.00  0.00     0.000 HD 
ENDROOT
BRANCH   2   4
HETATM    4  C   UNL     1     -10.005   8.094  66.494  1.00  0.00    -0.232 C  
BRANCH   4   5
HETATM    5  O   UNL     1      -8.971   8.630  67.326  1.00  0.00    -0.131 OA 
BRANCH   5   6
HETATM    6  C   UNL     1      -8.791   9.990  67.300  1.00  0.00    -0.135 A  
HETATM    7  C   UNL     1      -7.781  10.668  66.623  1.00  0.00    -0.132 A  
HETATM    8  C   UNL     1      -7.738  12.073  66.637  1.00  0.00     0.068 A  
HETATM    9  C   UNL     1      -8.709  12.825  67.316  1.00  0.00    -0.200 A  
HETATM   10  C   UNL     1      -9.728  10.735  68.027  1.00  0.00    -0.174 A  
HETATM   11  C   UNL     1      -9.689  12.140  68.039  1.00  0.00    -0.203 A  
BRANCH   9  12
HETATM   12  C   UNL     1      -8.694  14.318  67.190  1.00  0.00    -0.243 C  
HETATM   13  C   UNL     1      -9.587  14.927  66.353  1.00  0.00    -0.317 C  
BRANCH  12  14
HETATM   14  C   UNL     1      -7.656  15.128  67.896  1.00  0.00    -0.151 A  
HETATM   15  C   UNL     1      -6.700  15.851  67.166  1.00  0.00    -0.168 A  
HETATM   16  C   UNL     1      -5.686  16.657  69.214  1.00  0.00    -0.153 A  
HETATM   17  C   UNL     1      -7.617  15.198  69.296  1.00  0.00    -0.201 A  
HETATM   18  C   UNL     1      -6.632  15.950  69.951  1.00  0.00    -0.086 A  
HETATM   19  C   UNL     1      -5.722  16.612  67.821  1.00  0.00    -0.152 A  
ENDBRANCH  12  14
BRANCH  13  20
HETATM   20  C   UNL     1      -9.532  16.384  65.897  1.00  0.00    -0.289 C  
HETATM   21  C   UNL     1     -10.399  17.352  66.693  1.00  0.00    -0.306 C  
HETATM   22 CL   UNL     1     -10.379  18.963  65.912  1.00  0.00    -0.460 Cl 
ENDBRANCH  13  20
BRANCH  13  23
HETATM   23  C   UNL     1     -10.667  14.166  65.660  1.00  0.00    -0.317 A  
HETATM   24  C   UNL     1     -12.713  12.762  64.342  1.00  0.00    -0.370 A  
HETATM   25  C   UNL     1     -10.381  13.377  64.536  1.00  0.00    -0.394 A  
HETATM   26  C   UNL     1     -11.400  12.680  63.880  1.00  0.00    -0.501 A  
HETATM   27  C   UNL     1     -13.003  13.524  65.470  1.00  0.00    -0.269 A  
HETATM   28  C   UNL     1     -11.986  14.220  66.129  1.00  0.00    -0.422 A  
ENDBRANCH  13  23
ENDBRANCH   9  12
ENDBRANCH   5   6
ENDBRANCH   4   5
ENDBRANCH   2   4
TORSDOF 7
ENDMDL
MODEL       50
REMARK 921   NORMALIZED FREE ENERGY PREDICTED BY IDOCK:   -4.83 KCAL/MOL
REMARK 922        TOTAL FREE ENERGY PREDICTED BY IDOCK:   -8.52 KCAL/MOL
REMARK 923 INTER-LIGAND FREE ENERGY PREDICTED BY IDOCK:   -6.85 KCAL/MOL
REMARK 924 INTRA-LIGAND FREE ENERGY PREDICTED BY IDOCK:   -1.68 KCAL/MOL
REMARK 927      BINDING AFFINITY PREDICTED BY RF-SCORE:    0.00 PKD
ROOT
HETATM    1  O   UNL     1      -8.696   6.741  63.547  1.00  0.00    -0.197 OA 
HETATM    2  C   UNL     1      -7.988   7.835  62.970  1.00  0.00    -0.123 C  
HETATM    3  H   UNL     1      -8.310   5.918  63.270  1.00  0.00     0.000 HD 
ENDROOT
BRANCH   2   4
HETATM    4  C   UNL     1      -8.608   9.160  63.416  1.00  0.00    -0.169 C  
BRANCH   4   5
HETATM    5  O   UNL     1      -7.795   9.760  64.430  1.00  0.00    -0.124 OA 
BRANCH   5   6
HETATM    6  C   UNL     1      -8.385   9.990  65.648  1.00  0.00    -0.145 A  
HETATM    7  C   UNL     1      -7.805  10.656  66.724  1.00  0.00    -0.126 A  
HETATM    8  C   UNL     1      -8.538  10.869  67.905  1.00  0.00    -0.130 A  
HETATM    9  C   UNL     1      -9.866  10.432  68.026  1.00  0.00    -0.170 A  
HETATM   10  C   UNL     1      -9.691   9.502  65.786  1.00  0.00    -0.357 A  
HETATM   11  C   UNL     1     -10.427   9.718  66.964  1.00  0.00    -0.295 A  
BRANCH   9  12
HETATM   12  C   UNL     1     -10.645  10.800  69.253  1.00  0.00    -0.261 C  
HETATM   13  C   UNL     1     -11.209  12.042  69.338  1.00  0.00    -0.263 C  
BRANCH  12  14
HETATM   14  C   UNL     1     -10.727   9.860  70.410  1.00  0.00    -0.379 A  
HETATM   15  C   UNL     1     -11.972   9.400  70.866  1.00  0.00    -0.351 A  
HETATM   16  C   UNL     1     -10.899   8.089  72.600  1.00  0.00    -0.436 A  
HETATM   17  C   UNL     1      -9.570   9.405  71.060  1.00  0.00    -0.272 A  
HETATM   18  C   UNL     1      -9.657   8.533  72.154  1.00  0.00    -0.382 A  
HETATM   19  C   UNL     1     -12.057   8.519  71.953  1.00  0.00    -0.411 A  
ENDBRANCH  12  14
BRANCH  13  20
HETATM   20  C   UNL     1     -11.787  12.676  70.603  1.00  0.00    -0.016 C  
HETATM   21  C   UNL     1     -13.262  12.393  70.861  1.00  0.00     0.339 C  
HETATM   22 CL   UNL     1     -13.828  13.362  72.255  1.00  0.00    -0.668 Cl 
ENDBRANCH  13  20
BRANCH  13  23
HETATM   23  C   UNL     1     -11.190  13.000  68.194  1.00  0.00    -0.305 A  
HETATM   24  C   UNL     1     -11.182  14.819  66.052  1.00  0.00    -0.341 A  
HETATM   25  C   UNL     1     -10.211  14.001  68.112  1.00  0.00    -0.243 A  
HETATM   26  C   UNL     1     -10.210  14.907  67.048  1.00  0.00    -0.256 A  
HETATM   27  C   UNL     1     -12.144  13.815  66.112  1.00  0.00    -0.477 A  
HETATM   28  C   UNL     1     -12.147  12.907  67.174  1.00  0.00    -0.283 A  
ENDBRANCH  13  23
ENDBRANCH   9  12
ENDBRANCH   5   6
ENDBRANCH   4   5
ENDBRANCH   2   4
TORSDOF 7
ENDMDL
MODEL       51
REMARK 921   NORMALIZED FREE ENERGY PREDICTED BY IDOCK:   -4.82 KCAL/MOL
REMARK 922        TOTAL FREE ENERGY PREDICTED BY IDOCK:   -8.51 KCAL/MOL
REMARK 923 INTER-LIGAND FREE ENERGY PREDICTED BY IDOCK:   -6.58 KCAL/MOL
REMARK 924 INTRA-LIGAND FREE ENERGY PREDICTED BY IDOCK:   -1.93 KCAL/MOL
REMARK 927      BINDING AFFINITY PREDICTED BY RF-SCORE:    0.00 PKD
ROOT
HETATM    1  O   UNL     1     -12.572  15.431  69.402  1.00  0.00    -0.596 OA 
HETATM    2  C   UNL     1     -11.522  16.318  69.026  1.00  0.00    -0.268 C  
HETATM    3  H   UNL     1     -13.095  15.816  70.095  1.00  0.00     0.000 HD 
ENDROOT
BRANCH   2   4
HETATM    4  C   UNL     1     -10.680  15.698  67.910  1.00  0.00    -0.294 C  
BRANCH   4   5
HETATM    5  O   UNL     1     -11.356  14.558  67.367  1.00  0.00    -0.325 OA 
BRANCH   5   6
HETATM    6  C   UNL     1     -10.831  13.324  67.657  1.00  0.00    -0.258 A  
HETATM    7  C   UNL     1      -9.526  13.068  68.069  1.00  0.00    -0.217 A  
HETATM    8  C   UNL     1      -9.126  11.758  68.384  1.00  0.00    -0.176 A  
HETATM    9  C   UNL     1     -10.026  10.684  68.306  1.00  0.00    -0.173 A  
HETATM   10  C   UNL     1     -11.716  12.247  67.523  1.00  0.00    -0.402 A  
HETATM   11  C   UNL     1     -11.319  10.936  67.842  1.00  0.00    -0.380 A  
BRANCH   9  12
HETATM   12  C   UNL     1      -9.588   9.331  68.779  1.00  0.00    -0.157 C  
HETATM   13  C   UNL     1      -8.888   8.520  67.928  1.00  0.00    -0.137 C  
BRANCH  12  14
HETATM   14  C   UNL     1      -9.987   8.833  70.129  1.00  0.00    -0.201 A  
HETATM   15  C   UNL     1     -11.252   8.259  70.331  1.00  0.00    -0.222 A  
HETATM   16  C   UNL     1     -10.759   7.894  72.675  1.00  0.00    -0.411 A  
HETATM   17  C   UNL     1      -9.111   8.913  71.222  1.00  0.00    -0.323 A  
HETATM   18  C   UNL     1      -9.498   8.456  72.488  1.00  0.00    -0.360 A  
HETATM   19  C   UNL     1     -11.635   7.792  71.595  1.00  0.00    -0.304 A  
ENDBRANCH  12  14
BRANCH  13  20
HETATM   20  C   UNL     1      -8.610   7.033  68.140  1.00  0.00    -0.128 C  
HETATM   21  C   UNL     1      -9.752   6.094  67.768  1.00  0.00    -0.116 C  
HETATM   22 CL   UNL     1      -9.345   4.422  68.261  1.00  0.00    -0.183 Cl 
ENDBRANCH  13  20
BRANCH  13  23
HETATM   23  C   UNL     1      -8.431   8.988  66.587  1.00  0.00    -0.126 A  
HETATM   24  C   UNL     1      -7.552   9.839  64.058  1.00  0.00    -0.134 A  
HETATM   25  C   UNL     1      -9.323   9.049  65.506  1.00  0.00    -0.255 A  
HETATM   26  C   UNL     1      -8.884   9.471  64.248  1.00  0.00    -0.247 A  
HETATM   27  C   UNL     1      -6.666   9.803  65.129  1.00  0.00    -0.101 A  
HETATM   28  C   UNL     1      -7.102   9.384  66.389  1.00  0.00    -0.088 A  
ENDBRANCH  13  23
ENDBRANCH   9  12
ENDBRANCH   5   6
ENDBRANCH   4   5
ENDBRANCH   2   4
TORSDOF 7
ENDMDL
MODEL       52
REMARK 921   NORMALIZED FREE ENERGY PREDICTED BY IDOCK:   -4.80 KCAL/MOL
REMARK 922        TOTAL FREE ENERGY PREDICTED BY IDOCK:   -8.48 KCAL/MOL
REMARK 923 INTER-LIGAND FREE ENERGY PREDICTED BY IDOCK:   -6.88 KCAL/MOL
REMARK 924 INTRA-LIGAND FREE ENERGY PREDICTED BY IDOCK:   -1.61 KCAL/MOL
REMARK 927      BINDING AFFINITY PREDICTED BY RF-SCORE:    0.00 PKD
ROOT
HETATM    1  O   UNL     1     -12.043  14.657  74.208  1.00  0.00    -0.614 OA 
HETATM    2  C   UNL     1     -13.032  15.333  73.436  1.00  0.00    -0.531 C  
HETATM    3  H   UNL     1     -11.698  15.236  74.878  1.00  0.00     0.000 HD 
ENDROOT
BRANCH   2   4
HETATM    4  C   UNL     1     -13.589  14.402  72.358  1.00  0.00    -0.480 C  
BRANCH   4   5
HETATM    5  O   UNL     1     -12.685  13.313  72.142  1.00  0.00    -0.181 OA 
BRANCH   5   6
HETATM    6  C   UNL     1     -12.281  13.085  70.850  1.00  0.00    -0.220 A  
HETATM    7  C   UNL     1     -11.607  13.988  70.033  1.00  0.00    -0.302 A  
HETATM    8  C   UNL     1     -11.204  13.611  68.740  1.00  0.00    -0.314 A  
HETATM    9  C   UNL     1     -11.456  12.322  68.246  1.00  0.00    -0.367 A  
HETATM   10  C   UNL     1     -12.585  11.817  70.340  1.00  0.00    -0.186 A  
HETATM   11  C   UNL     1     -12.179  11.436  69.048  1.00  0.00    -0.200 A  
BRANCH   9  12
HETATM   12  C   UNL     1     -10.891  11.929  66.915  1.00  0.00    -0.305 C  
HETATM   13  C   UNL     1      -9.822  11.078  66.868  1.00  0.00    -0.222 C  
BRANCH  12  14
HETATM   14  C   UNL     1     -11.426  12.529  65.656  1.00  0.00    -0.400 A  
HETATM   15  C   UNL     1     -12.118  11.736  64.727  1.00  0.00    -0.045 A  
HETATM   16  C   UNL     1     -12.435  13.646  63.270  1.00  0.00     0.082 A  
HETATM   17  C   UNL     1     -11.262  13.894  65.375  1.00  0.00    -0.306 A  
HETATM   18  C   UNL     1     -11.755  14.446  64.185  1.00  0.00    -0.249 A  
HETATM   19  C   UNL     1     -12.620  12.291  63.543  1.00  0.00    -0.589 A  
ENDBRANCH  12  14
BRANCH  13  20
HETATM   20  C   UNL     1      -8.958  10.797  65.640  1.00  0.00    -0.205 C  
HETATM   21  C   UNL     1      -9.094   9.398  65.051  1.00  0.00    -0.215 C  
HETATM   22 CL   UNL     1      -7.879   9.167  63.757  1.00  0.00    -0.126 Cl 
ENDBRANCH  13  20
BRANCH  13  23
HETATM   23  C   UNL     1      -9.280  10.421  68.093  1.00  0.00    -0.145 A  
HETATM   24  C   UNL     1      -8.272   9.208  70.419  1.00  0.00    -0.188 A  
HETATM   25  C   UNL     1      -9.826   9.218  68.564  1.00  0.00    -0.173 A  
HETATM   26  C   UNL     1      -9.325   8.617  69.722  1.00  0.00    -0.165 A  
HETATM   27  C   UNL     1      -7.709  10.390  69.947  1.00  0.00    -0.083 A  
HETATM   28  C   UNL     1      -8.205  10.992  68.789  1.00  0.00    -0.146 A  
ENDBRANCH  13  23
ENDBRANCH   9  12
ENDBRANCH   5   6
ENDBRANCH   4   5
ENDBRANCH   2   4
TORSDOF 7
ENDMDL
MODEL       53
REMARK 921   NORMALIZED FREE ENERGY PREDICTED BY IDOCK:   -4.75 KCAL/MOL
REMARK 922        TOTAL FREE ENERGY PREDICTED BY IDOCK:   -8.42 KCAL/MOL
REMARK 923 INTER-LIGAND FREE ENERGY PREDICTED BY IDOCK:   -6.44 KCAL/MOL
REMARK 924 INTRA-LIGAND FREE ENERGY PREDICTED BY IDOCK:   -1.98 KCAL/MOL
REMARK 927      BINDING AFFINITY PREDICTED BY RF-SCORE:    0.00 PKD
ROOT
HETATM    1  O   UNL     1     -12.706  13.647  71.040  1.00  0.00    -0.338 OA 
HETATM    2  C   UNL     1     -13.059  12.564  71.896  1.00  0.00    -0.368 C  
HETATM    3  H   UNL     1     -12.887  14.476  71.467  1.00  0.00     0.000 HD 
ENDROOT
BRANCH   2   4
HETATM    4  C   UNL     1     -12.767  11.229  71.209  1.00  0.00    -0.405 C  
BRANCH   4   5
HETATM    5  O   UNL     1     -12.801  10.170  72.172  1.00  0.00    -0.383 OA 
BRANCH   5   6
HETATM    6  C   UNL     1     -12.064   9.047  71.891  1.00  0.00    -0.378 A  
HETATM    7  C   UNL     1     -10.678   8.938  71.971  1.00  0.00    -0.389 A  
HETATM    8  C   UNL     1     -10.046   7.711  71.703  1.00  0.00    -0.212 A  
HETATM    9  C   UNL     1     -10.789   6.570  71.361  1.00  0.00    -0.289 A  
HETATM   10  C   UNL     1     -12.803   7.925  71.495  1.00  0.00    -0.340 A  
HETATM   11  C   UNL     1     -12.174   6.696  71.230  1.00  0.00    -0.369 A  
BRANCH   9  12
HETATM   12  C   UNL     1     -10.079   5.258  71.215  1.00  0.00    -0.278 C  
HETATM   13  C   UNL     1      -9.603   4.889  69.987  1.00  0.00    -0.261 C  
BRANCH  12  14
HETATM   14  C   UNL     1      -9.973   4.319  72.371  1.00  0.00    -0.229 A  
HETATM   15  C   UNL     1     -10.909   3.285  72.537  1.00  0.00     0.123 A  
HETATM   16  C   UNL     1      -9.792   2.542  74.556  1.00  0.00    -0.146 A  
HETATM   17  C   UNL     1      -8.938   4.437  73.311  1.00  0.00    -0.114 A  
HETATM   18  C   UNL     1      -8.854   3.560  74.400  1.00  0.00    -0.092 A  
HETATM   19  C   UNL     1     -10.817   2.402  73.621  1.00  0.00    -0.281 A  
ENDBRANCH  12  14
BRANCH  13  20
HETATM   20  C   UNL     1      -9.114   3.494  69.602  1.00  0.00    -0.204 C  
HETATM   21  C   UNL     1      -7.609   3.275  69.714  1.00  0.00    -0.044 C  
HETATM   22 CL   UNL     1      -7.181   1.673  69.040  1.00  0.00    -0.039 Cl 
ENDBRANCH  13  20
BRANCH  13  23
HETATM   23  C   UNL     1      -9.648   5.809  68.813  1.00  0.00    -0.156 A  
HETATM   24  C   UNL     1      -9.755   7.559  66.618  1.00  0.00    -0.273 A  
HETATM   25  C   UNL     1      -8.558   6.637  68.508  1.00  0.00    -0.124 A  
HETATM   26  C   UNL     1      -8.613   7.509  67.417  1.00  0.00    -0.118 A  
HETATM   27  C   UNL     1     -10.833   6.726  66.899  1.00  0.00    -0.402 A  
HETATM   28  C   UNL     1     -10.780   5.851  67.988  1.00  0.00    -0.332 A  
ENDBRANCH  13  23
ENDBRANCH   9  12
ENDBRANCH   5   6
ENDBRANCH   4   5
ENDBRANCH   2   4
TORSDOF 7
ENDMDL
MODEL       54
REMARK 921   NORMALIZED FREE ENERGY PREDICTED BY IDOCK:   -4.75 KCAL/MOL
REMARK 922        TOTAL FREE ENERGY PREDICTED BY IDOCK:   -8.41 KCAL/MOL
REMARK 923 INTER-LIGAND FREE ENERGY PREDICTED BY IDOCK:   -6.42 KCAL/MOL
REMARK 924 INTRA-LIGAND FREE ENERGY PREDICTED BY IDOCK:   -1.99 KCAL/MOL
REMARK 927      BINDING AFFINITY PREDICTED BY RF-SCORE:    0.00 PKD
ROOT
HETATM    1  O   UNL     1      -8.432   9.669  67.710  1.00  0.00    -0.124 OA 
HETATM    2  C   UNL     1      -7.549  10.012  68.774  1.00  0.00    -0.083 C  
HETATM    3  H   UNL     1      -9.156   9.148  68.038  1.00  0.00     0.000 HD 
ENDROOT
BRANCH   2   4
HETATM    4  C   UNL     1      -6.384  10.850  68.246  1.00  0.00    -0.056 C  
BRANCH   4   5
HETATM    5  O   UNL     1      -6.081  11.899  69.172  1.00  0.00    -0.065 OA 
BRANCH   5   6
HETATM    6  C   UNL     1      -6.502  13.163  68.844  1.00  0.00    -0.097 A  
HETATM    7  C   UNL     1      -6.944  13.577  67.590  1.00  0.00    -0.176 A  
HETATM    8  C   UNL     1      -7.397  14.893  67.397  1.00  0.00    -0.222 A  
HETATM    9  C   UNL     1      -7.428  15.815  68.456  1.00  0.00    -0.129 A  
HETATM   10  C   UNL     1      -6.478  14.096  69.888  1.00  0.00    -0.119 A  
HETATM   11  C   UNL     1      -6.934  15.412  69.699  1.00  0.00    -0.184 A  
BRANCH   9  12
HETATM   12  C   UNL     1      -8.042  17.163  68.229  1.00  0.00    -0.239 C  
HETATM   13  C   UNL     1      -9.400  17.266  68.105  1.00  0.00    -0.274 C  
BRANCH  12  14
HETATM   14  C   UNL     1      -7.181  18.369  68.047  1.00  0.00    -0.248 A  
HETATM   15  C   UNL     1      -6.899  19.213  69.133  1.00  0.00    -0.361 A  
HETATM   16  C   UNL     1      -5.561  20.656  67.718  1.00  0.00    -0.275 A  
HETATM   17  C   UNL     1      -6.624  18.683  66.798  1.00  0.00    -0.206 A  
HETATM   18  C   UNL     1      -5.827  19.824  66.633  1.00  0.00    -0.170 A  
HETATM   19  C   UNL     1      -6.093  20.348  68.969  1.00  0.00    -0.376 A  
ENDBRANCH  12  14
BRANCH  13  20
HETATM   20  C   UNL     1     -10.160  18.493  67.602  1.00  0.00    -0.390 C  
HETATM   21  C   UNL     1     -10.276  18.614  66.087  1.00  0.00    -0.416 C  
HETATM   22 CL   UNL     1     -11.008  20.192  65.662  1.00  0.00    -0.206 Cl 
ENDBRANCH  13  20
BRANCH  13  23
HETATM   23  C   UNL     1     -10.305  16.099  68.319  1.00  0.00    -0.266 A  
HETATM   24  C   UNL     1     -12.033  13.923  68.733  1.00  0.00    -0.393 A  
HETATM   25  C   UNL     1     -10.818  15.379  67.230  1.00  0.00    -0.316 A  
HETATM   26  C   UNL     1     -11.679  14.298  67.438  1.00  0.00    -0.422 A  
HETATM   27  C   UNL     1     -11.511  14.617  69.820  1.00  0.00    -0.325 A  
HETATM   28  C   UNL     1     -10.649  15.697  69.617  1.00  0.00    -0.284 A  
ENDBRANCH  13  23
ENDBRANCH   9  12
ENDBRANCH   5   6
ENDBRANCH   4   5
ENDBRANCH   2   4
TORSDOF 7
ENDMDL
MODEL       55
REMARK 921   NORMALIZED FREE ENERGY PREDICTED BY IDOCK:   -4.74 KCAL/MOL
REMARK 922        TOTAL FREE ENERGY PREDICTED BY IDOCK:   -8.39 KCAL/MOL
REMARK 923 INTER-LIGAND FREE ENERGY PREDICTED BY IDOCK:   -6.72 KCAL/MOL
REMARK 924 INTRA-LIGAND FREE ENERGY PREDICTED BY IDOCK:   -1.67 KCAL/MOL
REMARK 927      BINDING AFFINITY PREDICTED BY RF-SCORE:    0.00 PKD
ROOT
HETATM    1  O   UNL     1     -14.117  15.407  70.753  1.00  0.00    -0.836 OA 
HETATM    2  C   UNL     1     -12.949  14.867  71.364  1.00  0.00    -0.354 C  
HETATM    3  H   UNL     1     -14.430  16.155  71.248  1.00  0.00     0.000 HD 
ENDROOT
BRANCH   2   4
HETATM    4  C   UNL     1     -12.443  13.664  70.567  1.00  0.00    -0.324 C  
BRANCH   4   5
HETATM    5  O   UNL     1     -11.799  14.111  69.369  1.00  0.00    -0.288 OA 
BRANCH   5   6
HETATM    6  C   UNL     1     -11.112  13.171  68.642  1.00  0.00    -0.269 A  
HETATM    7  C   UNL     1      -9.751  13.199  68.350  1.00  0.00    -0.196 A  
HETATM    8  C   UNL     1      -9.157  12.145  67.634  1.00  0.00    -0.181 A  
HETATM    9  C   UNL     1      -9.910  11.039  67.209  1.00  0.00    -0.204 A  
HETATM   10  C   UNL     1     -11.877  12.097  68.170  1.00  0.00    -0.362 A  
HETATM   11  C   UNL     1     -11.285  11.039  67.458  1.00  0.00    -0.372 A  
BRANCH   9  12
HETATM   12  C   UNL     1      -9.205   9.882  66.568  1.00  0.00    -0.190 C  
HETATM   13  C   UNL     1      -8.938   8.767  67.312  1.00  0.00    -0.144 C  
BRANCH  12  14
HETATM   14  C   UNL     1      -8.716   9.978  65.160  1.00  0.00    -0.183 A  
HETATM   15  C   UNL     1      -9.626  10.098  64.097  1.00  0.00    -0.336 A  
HETATM   16  C   UNL     1      -7.810  10.151  62.494  1.00  0.00    -0.150 A  
HETATM   17  C   UNL     1      -7.345   9.961  64.864  1.00  0.00    -0.136 A  
HETATM   18  C   UNL     1      -6.896  10.038  63.539  1.00  0.00    -0.133 A  
HETATM   19  C   UNL     1      -9.175  10.186  62.774  1.00  0.00    -0.322 A  
ENDBRANCH  12  14
BRANCH  13  20
HETATM   20  C   UNL     1      -8.000   7.630  66.910  1.00  0.00    -0.115 C  
HETATM   21  C   UNL     1      -8.624   6.544  66.040  1.00  0.00    -0.148 C  
HETATM   22 CL   UNL     1      -7.463   5.198  65.829  1.00  0.00    -0.081 Cl 
ENDBRANCH  13  20
BRANCH  13  23
HETATM   23  C   UNL     1      -9.441   8.607  68.707  1.00  0.00    -0.143 A  
HETATM   24  C   UNL     1     -10.401   8.339  71.334  1.00  0.00    -0.270 A  
HETATM   25  C   UNL     1     -10.527   7.765  68.987  1.00  0.00    -0.215 A  
HETATM   26  C   UNL     1     -11.005   7.634  70.294  1.00  0.00    -0.261 A  
HETATM   27  C   UNL     1      -9.309   9.160  71.070  1.00  0.00    -0.333 A  
HETATM   28  C   UNL     1      -8.828   9.292  69.765  1.00  0.00    -0.174 A  
ENDBRANCH  13  23
ENDBRANCH   9  12
ENDBRANCH   5   6
ENDBRANCH   4   5
ENDBRANCH   2   4
TORSDOF 7
ENDMDL
MODEL       56
REMARK 921   NORMALIZED FREE ENERGY PREDICTED BY IDOCK:   -4.73 KCAL/MOL
REMARK 922        TOTAL FREE ENERGY PREDICTED BY IDOCK:   -8.39 KCAL/MOL
REMARK 923 INTER-LIGAND FREE ENERGY PREDICTED BY IDOCK:   -7.60 KCAL/MOL
REMARK 924 INTRA-LIGAND FREE ENERGY PREDICTED BY IDOCK:   -0.79 KCAL/MOL
REMARK 927      BINDING AFFINITY PREDICTED BY RF-SCORE:    0.00 PKD
ROOT
HETATM    1  O   UNL     1      -9.972   5.835  74.557  1.00  0.00    -0.217 OA 
HETATM    2  C   UNL     1      -8.610   6.162  74.294  1.00  0.00    -0.117 C  
HETATM    3  H   UNL     1     -10.137   5.849  75.492  1.00  0.00     0.000 HD 
ENDROOT
BRANCH   2   4
HETATM    4  C   UNL     1      -8.342   6.141  72.788  1.00  0.00    -0.117 C  
BRANCH   4   5
HETATM    5  O   UNL     1      -9.579   6.233  72.073  1.00  0.00    -0.153 OA 
BRANCH   5   6
HETATM    6  C   UNL     1      -9.920   7.464  71.571  1.00  0.00    -0.181 A  
HETATM    7  C   UNL     1      -9.034   8.489  71.249  1.00  0.00    -0.244 A  
HETATM    8  C   UNL     1      -9.510   9.689  70.694  1.00  0.00    -0.190 A  
HETATM    9  C   UNL     1     -10.876   9.882  70.438  1.00  0.00    -0.380 A  
HETATM   10  C   UNL     1     -11.290   7.674  71.371  1.00  0.00    -0.285 A  
HETATM   11  C   UNL     1     -11.768   8.873  70.812  1.00  0.00    -0.269 A  
BRANCH   9  12
HETATM   12  C   UNL     1     -11.315  11.124  69.725  1.00  0.00    -0.354 C  
HETATM   13  C   UNL     1     -10.953  11.308  68.419  1.00  0.00    -0.268 C  
BRANCH  12  14
HETATM   14  C   UNL     1     -12.061  12.194  70.452  1.00  0.00    -0.395 A  
HETATM   15  C   UNL     1     -11.889  13.543  70.104  1.00  0.00    -0.348 A  
HETATM   16  C   UNL     1     -13.455  14.228  71.823  1.00  0.00    -0.464 A  
HETATM   17  C   UNL     1     -12.954  11.882  71.488  1.00  0.00    -0.427 A  
HETATM   18  C   UNL     1     -13.639  12.894  72.174  1.00  0.00    -0.589 A  
HETATM   19  C   UNL     1     -12.583  14.553  70.784  1.00  0.00    -0.418 A  
ENDBRANCH  12  14
BRANCH  13  20
HETATM   20  C   UNL     1     -11.070  12.614  67.636  1.00  0.00    -0.303 C  
HETATM   21  C   UNL     1     -11.871  12.531  66.341  1.00  0.00    -0.381 C  
HETATM   22 CL   UNL     1     -11.743  14.079  65.451  1.00  0.00    -0.330 Cl 
ENDBRANCH  13  20
BRANCH  13  23
HETATM   23  C   UNL     1     -10.245  10.251  67.639  1.00  0.00    -0.247 A  
HETATM   24  C   UNL     1      -8.933   8.268  66.142  1.00  0.00    -0.222 A  
HETATM   25  C   UNL     1      -8.943  10.462  67.161  1.00  0.00    -0.148 A  
HETATM   26  C   UNL     1      -8.292   9.476  66.415  1.00  0.00    -0.120 A  
HETATM   27  C   UNL     1     -10.216   8.040  66.630  1.00  0.00    -0.315 A  
HETATM   28  C   UNL     1     -10.869   9.024  67.378  1.00  0.00    -0.116 A  
ENDBRANCH  13  23
ENDBRANCH   9  12
ENDBRANCH   5   6
ENDBRANCH   4   5
ENDBRANCH   2   4
TORSDOF 7
ENDMDL
MODEL       57
REMARK 921   NORMALIZED FREE ENERGY PREDICTED BY IDOCK:   -4.73 KCAL/MOL
REMARK 922        TOTAL FREE ENERGY PREDICTED BY IDOCK:   -8.39 KCAL/MOL
REMARK 923 INTER-LIGAND FREE ENERGY PREDICTED BY IDOCK:   -6.88 KCAL/MOL
REMARK 924 INTRA-LIGAND FREE ENERGY PREDICTED BY IDOCK:   -1.51 KCAL/MOL
REMARK 927      BINDING AFFINITY PREDICTED BY RF-SCORE:    0.00 PKD
ROOT
HETATM    1  O   UNL     1      -9.777   3.645  69.647  1.00  0.00    -0.188 OA 
HETATM    2  C   UNL     1      -9.397   2.691  68.659  1.00  0.00    -0.181 C  
HETATM    3  H   UNL     1     -10.186   3.207  70.385  1.00  0.00     0.000 HD 
ENDROOT
BRANCH   2   4
HETATM    4  C   UNL     1      -8.739   3.394  67.471  1.00  0.00    -0.116 C  
BRANCH   4   5
HETATM    5  O   UNL     1      -9.718   4.151  66.751  1.00  0.00    -0.201 OA 
BRANCH   5   6
HETATM    6  C   UNL     1      -9.673   5.516  66.883  1.00  0.00    -0.150 A  
HETATM    7  C   UNL     1      -8.531   6.308  66.804  1.00  0.00    -0.111 A  
HETATM    8  C   UNL     1      -8.628   7.706  66.909  1.00  0.00    -0.123 A  
HETATM    9  C   UNL     1      -9.869   8.338  67.081  1.00  0.00    -0.281 A  
HETATM   10  C   UNL     1     -10.906   6.139  67.112  1.00  0.00    -0.442 A  
HETATM   11  C   UNL     1     -11.007   7.538  67.213  1.00  0.00    -0.178 A  
BRANCH   9  12
HETATM   12  C   UNL     1      -9.933   9.835  67.054  1.00  0.00    -0.259 C  
HETATM   13  C   UNL     1      -9.923  10.526  68.234  1.00  0.00    -0.176 C  
BRANCH  12  14
HETATM   14  C   UNL     1     -10.100  10.564  65.761  1.00  0.00    -0.329 A  
HETATM   15  C   UNL     1      -9.119  10.474  64.761  1.00  0.00    -0.242 A  
HETATM   16  C   UNL     1     -10.396  11.942  63.317  1.00  0.00    -0.432 A  
HETATM   17  C   UNL     1     -11.238  11.345  65.508  1.00  0.00    -0.140 A  
HETATM   18  C   UNL     1     -11.380  12.036  64.298  1.00  0.00    -0.433 A  
HETATM   19  C   UNL     1      -9.267  11.157  63.547  1.00  0.00    -0.195 A  
ENDBRANCH  12  14
BRANCH  13  20
HETATM   20  C   UNL     1     -10.257  12.007  68.404  1.00  0.00    -0.211 C  
HETATM   21  C   UNL     1     -11.717  12.317  68.713  1.00  0.00    -0.340 C  
HETATM   22 CL   UNL     1     -11.978  14.088  68.680  1.00  0.00    -0.397 Cl 
ENDBRANCH  13  20
BRANCH  13  23
HETATM   23  C   UNL     1      -9.717   9.847  69.546  1.00  0.00    -0.238 A  
HETATM   24  C   UNL     1      -9.317   8.597  72.031  1.00  0.00    -0.362 A  
HETATM   25  C   UNL     1     -10.811   9.473  70.340  1.00  0.00    -0.338 A  
HETATM   26  C   UNL     1     -10.611   8.853  71.577  1.00  0.00    -0.399 A  
HETATM   27  C   UNL     1      -8.226   8.944  71.240  1.00  0.00    -0.207 A  
HETATM   28  C   UNL     1      -8.423   9.562  70.002  1.00  0.00    -0.210 A  
ENDBRANCH  13  23
ENDBRANCH   9  12
ENDBRANCH   5   6
ENDBRANCH   4   5
ENDBRANCH   2   4
TORSDOF 7
ENDMDL
MODEL       58
REMARK 921   NORMALIZED FREE ENERGY PREDICTED BY IDOCK:   -4.72 KCAL/MOL
REMARK 922        TOTAL FREE ENERGY PREDICTED BY IDOCK:   -8.37 KCAL/MOL
REMARK 923 INTER-LIGAND FREE ENERGY PREDICTED BY IDOCK:   -6.40 KCAL/MOL
REMARK 924 INTRA-LIGAND FREE ENERGY PREDICTED BY IDOCK:   -1.97 KCAL/MOL
REMARK 927      BINDING AFFINITY PREDICTED BY RF-SCORE:    0.00 PKD
ROOT
HETATM    1  O   UNL     1     -10.979  11.333  63.074  1.00  0.00    -0.804 OA 
HETATM    2  C   UNL     1     -10.292  11.493  64.312  1.00  0.00    -0.323 C  
HETATM    3  H   UNL     1     -11.160  12.182  62.688  1.00  0.00     0.000 HD 
ENDROOT
BRANCH   2   4
HETATM    4  C   UNL     1     -10.000  10.127  64.935  1.00  0.00    -0.288 C  
BRANCH   4   5
HETATM    5  O   UNL     1      -9.680  10.284  66.322  1.00  0.00    -0.189 OA 
BRANCH   5   6
HETATM    6  C   UNL     1      -9.553   9.138  67.066  1.00  0.00    -0.170 A  
HETATM    7  C   UNL     1      -8.468   8.804  67.873  1.00  0.00    -0.126 A  
HETATM    8  C   UNL     1      -8.483   7.617  68.626  1.00  0.00    -0.129 A  
HETATM    9  C   UNL     1      -9.587   6.751  68.598  1.00  0.00    -0.131 A  
HETATM   10  C   UNL     1     -10.631   8.248  66.991  1.00  0.00    -0.328 A  
HETATM   11  C   UNL     1     -10.651   7.063  67.747  1.00  0.00    -0.298 A  
BRANCH   9  12
HETATM   12  C   UNL     1      -9.609   5.569  69.519  1.00  0.00    -0.202 C  
HETATM   13  C   UNL     1     -10.246   5.673  70.724  1.00  0.00    -0.291 C  
BRANCH  12  14
HETATM   14  C   UNL     1      -8.865   4.321  69.170  1.00  0.00    -0.134 A  
HETATM   15  C   UNL     1      -7.493   4.210  69.445  1.00  0.00    -0.054 A  
HETATM   16  C   UNL     1      -7.445   1.975  68.511  1.00  0.00    -0.043 A  
HETATM   17  C   UNL     1      -9.516   3.230  68.574  1.00  0.00    -0.206 A  
HETATM   18  C   UNL     1      -8.808   2.069  68.238  1.00  0.00    -0.148 A  
HETATM   19  C   UNL     1      -6.789   3.044  69.118  1.00  0.00    -0.041 A  
ENDBRANCH  12  14
BRANCH  13  20
HETATM   20  C   UNL     1     -10.132   4.684  71.883  1.00  0.00    -0.266 C  
HETATM   21  C   UNL     1      -9.017   4.972  72.881  1.00  0.00    -0.116 C  
HETATM   22 CL   UNL     1      -8.889   3.623  74.050  1.00  0.00    -0.088 Cl 
ENDBRANCH  13  20
BRANCH  13  23
HETATM   23  C   UNL     1     -11.037   6.882  71.099  1.00  0.00    -0.297 A  
HETATM   24  C   UNL     1     -12.536   9.142  71.833  1.00  0.00    -0.459 A  
HETATM   25  C   UNL     1     -10.397   8.047  71.547  1.00  0.00    -0.258 A  
HETATM   26  C   UNL     1     -11.144   9.170  71.914  1.00  0.00    -0.385 A  
HETATM   27  C   UNL     1     -13.178   7.999  71.369  1.00  0.00    -0.260 A  
HETATM   28  C   UNL     1     -12.434   6.875  70.999  1.00  0.00    -0.364 A  
ENDBRANCH  13  23
ENDBRANCH   9  12
ENDBRANCH   5   6
ENDBRANCH   4   5
ENDBRANCH   2   4
TORSDOF 7
ENDMDL
MODEL       59
REMARK 921   NORMALIZED FREE ENERGY PREDICTED BY IDOCK:   -4.71 KCAL/MOL
REMARK 922        TOTAL FREE ENERGY PREDICTED BY IDOCK:   -8.36 KCAL/MOL
REMARK 923 INTER-LIGAND FREE ENERGY PREDICTED BY IDOCK:   -6.61 KCAL/MOL
REMARK 924 INTRA-LIGAND FREE ENERGY PREDICTED BY IDOCK:   -1.75 KCAL/MOL
REMARK 927      BINDING AFFINITY PREDICTED BY RF-SCORE:    0.00 PKD
ROOT
HETATM    1  O   UNL     1     -12.798  13.777  64.521  1.00  0.00    -0.648 OA 
HETATM    2  C   UNL     1     -12.223  12.514  64.848  1.00  0.00    -0.470 C  
HETATM    3  H   UNL     1     -13.313  13.707  63.726  1.00  0.00     0.000 HD 
ENDROOT
BRANCH   2   4
HETATM    4  C   UNL     1     -11.393  12.626  66.128  1.00  0.00    -0.330 C  
BRANCH   4   5
HETATM    5  O   UNL     1     -12.091  12.008  67.215  1.00  0.00    -0.572 OA 
BRANCH   5   6
HETATM    6  C   UNL     1     -11.387  11.114  67.981  1.00  0.00    -0.312 A  
HETATM    7  C   UNL     1     -10.869  11.357  69.251  1.00  0.00    -0.242 A  
HETATM    8  C   UNL     1     -10.206  10.336  69.953  1.00  0.00    -0.250 A  
HETATM    9  C   UNL     1     -10.061   9.051  69.405  1.00  0.00    -0.198 A  
HETATM   10  C   UNL     1     -11.194   9.851  67.408  1.00  0.00     0.071 A  
HETATM   11  C   UNL     1     -10.535   8.827  68.110  1.00  0.00    -0.243 A  
BRANCH   9  12
HETATM   12  C   UNL     1      -9.465   7.964  70.247  1.00  0.00    -0.163 C  
HETATM   13  C   UNL     1     -10.204   7.425  71.263  1.00  0.00    -0.197 C  
BRANCH  12  14
HETATM   14  C   UNL     1      -8.048   7.537  70.044  1.00  0.00    -0.127 A  
HETATM   15  C   UNL     1      -6.997   8.246  70.645  1.00  0.00    -0.038 A  
HETATM   16  C   UNL     1      -5.367   6.747  69.662  1.00  0.00    -0.014 A  
HETATM   17  C   UNL     1      -7.733   6.416  69.260  1.00  0.00    -0.101 A  
HETATM   18  C   UNL     1      -6.400   6.030  69.063  1.00  0.00    -0.041 A  
HETATM   19  C   UNL     1      -5.666   7.853  70.456  1.00  0.00    -0.029 A  
ENDBRANCH  12  14
BRANCH  13  20
HETATM   20  C   UNL     1      -9.669   6.525  72.376  1.00  0.00    -0.158 C  
HETATM   21  C   UNL     1      -9.795   5.027  72.123  1.00  0.00    -0.170 C  
HETATM   22 CL   UNL     1      -9.314   4.124  73.592  1.00  0.00    -0.107 Cl 
ENDBRANCH  13  20
BRANCH  13  23
HETATM   23  C   UNL     1     -11.635   7.788  71.479  1.00  0.00    -0.303 A  
HETATM   24  C   UNL     1     -14.332   8.447  71.908  1.00  0.00    -0.561 A  
HETATM   25  C   UNL     1     -11.981   8.928  72.220  1.00  0.00    -0.380 A  
HETATM   26  C   UNL     1     -13.324   9.253  72.435  1.00  0.00    -0.521 A  
HETATM   27  C   UNL     1     -13.998   7.327  71.154  1.00  0.00    -0.226 A  
HETATM   28  C   UNL     1     -12.658   7.000  70.936  1.00  0.00    -0.273 A  
ENDBRANCH  13  23
ENDBRANCH   9  12
ENDBRANCH   5   6
ENDBRANCH   4   5
ENDBRANCH   2   4
TORSDOF 7
ENDMDL
MODEL       60
REMARK 921   NORMALIZED FREE ENERGY PREDICTED BY IDOCK:   -4.70 KCAL/MOL
REMARK 922        TOTAL FREE ENERGY PREDICTED BY IDOCK:   -8.34 KCAL/MOL
REMARK 923 INTER-LIGAND FREE ENERGY PREDICTED BY IDOCK:   -6.63 KCAL/MOL
REMARK 924 INTRA-LIGAND FREE ENERGY PREDICTED BY IDOCK:   -1.71 KCAL/MOL
REMARK 927      BINDING AFFINITY PREDICTED BY RF-SCORE:    0.00 PKD
ROOT
HETATM    1  O   UNL     1      -8.165   2.601  67.830  1.00  0.00    -0.068 OA 
HETATM    2  C   UNL     1      -7.107   3.519  68.089  1.00  0.00    -0.051 C  
HETATM    3  H   UNL     1      -8.026   1.795  68.313  1.00  0.00     0.000 HD 
ENDROOT
BRANCH   2   4
HETATM    4  C   UNL     1      -7.330   4.817  67.312  1.00  0.00    -0.077 C  
BRANCH   4   5
HETATM    5  O   UNL     1      -8.733   5.053  67.152  1.00  0.00    -0.106 OA 
BRANCH   5   6
HETATM    6  C   UNL     1      -9.188   6.320  67.419  1.00  0.00    -0.116 A  
HETATM    7  C   UNL     1     -10.423   6.841  67.042  1.00  0.00    -0.369 A  
HETATM    8  C   UNL     1     -10.789   8.143  67.423  1.00  0.00    -0.125 A  
HETATM    9  C   UNL     1      -9.934   8.943  68.197  1.00  0.00    -0.208 A  
HETATM   10  C   UNL     1      -8.309   7.135  68.143  1.00  0.00    -0.124 A  
HETATM   11  C   UNL     1      -8.675   8.437  68.529  1.00  0.00    -0.136 A  
BRANCH   9  12
HETATM   12  C   UNL     1     -10.425  10.271  68.687  1.00  0.00    -0.215 C  
HETATM   13  C   UNL     1     -11.022  10.352  69.914  1.00  0.00    -0.364 C  
BRANCH  12  14
HETATM   14  C   UNL     1     -10.350  11.478  67.810  1.00  0.00    -0.204 A  
HETATM   15  C   UNL     1      -9.225  12.317  67.848  1.00  0.00    -0.190 A  
HETATM   16  C   UNL     1     -10.197  13.766  66.167  1.00  0.00    -0.305 A  
HETATM   17  C   UNL     1     -11.389  11.799  66.924  1.00  0.00    -0.386 A  
HETATM   18  C   UNL     1     -11.317  12.940  66.115  1.00  0.00    -0.356 A  
HETATM   19  C   UNL     1      -9.148  13.452  67.031  1.00  0.00    -0.245 A  
ENDBRANCH  12  14
BRANCH  13  20
HETATM   20  C   UNL     1     -11.816  11.545  70.444  1.00  0.00    -0.413 C  
HETATM   21  C   UNL     1     -12.621  11.283  71.712  1.00  0.00    -0.161 C  
HETATM   22 CL   UNL     1     -13.644  12.706  72.081  1.00  0.00    -0.590 Cl 
ENDBRANCH  13  20
BRANCH  13  23
HETATM   23  C   UNL     1     -11.083   9.185  70.842  1.00  0.00    -0.356 A  
HETATM   24  C   UNL     1     -11.191   6.967  72.564  1.00  0.00    -0.304 A  
HETATM   25  C   UNL     1     -10.073   8.969  71.791  1.00  0.00    -0.373 A  
HETATM   26  C   UNL     1     -10.126   7.864  72.645  1.00  0.00    -0.343 A  
HETATM   27  C   UNL     1     -12.209   7.185  71.641  1.00  0.00    -0.385 A  
HETATM   28  C   UNL     1     -12.159   8.290  70.787  1.00  0.00    -0.065 A  
ENDBRANCH  13  23
ENDBRANCH   9  12
ENDBRANCH   5   6
ENDBRANCH   4   5
ENDBRANCH   2   4
TORSDOF 7
ENDMDL
MODEL       61
REMARK 921   NORMALIZED FREE ENERGY PREDICTED BY IDOCK:   -4.69 KCAL/MOL
REMARK 922        TOTAL FREE ENERGY PREDICTED BY IDOCK:   -8.32 KCAL/MOL
REMARK 923 INTER-LIGAND FREE ENERGY PREDICTED BY IDOCK:   -6.47 KCAL/MOL
REMARK 924 INTRA-LIGAND FREE ENERGY PREDICTED BY IDOCK:   -1.86 KCAL/MOL
REMARK 927      BINDING AFFINITY PREDICTED BY RF-SCORE:    0.00 PKD
ROOT
HETATM    1  O   UNL     1     -12.391  13.793  63.053  1.00  0.00    -1.089 OA 
HETATM    2  C   UNL     1     -12.344  12.466  63.569  1.00  0.00    -0.546 C  
HETATM    3  H   UNL     1     -12.560  13.776  62.118  1.00  0.00     0.000 HD 
ENDROOT
BRANCH   2   4
HETATM    4  C   UNL     1     -12.072  12.493  65.074  1.00  0.00    -0.446 C  
BRANCH   4   5
HETATM    5  O   UNL     1     -10.661  12.458  65.314  1.00  0.00    -0.274 OA 
BRANCH   5   6
HETATM    6  C   UNL     1     -10.202  11.517  66.200  1.00  0.00    -0.232 A  
HETATM    7  C   UNL     1      -9.579  11.777  67.418  1.00  0.00    -0.173 A  
HETATM    8  C   UNL     1      -9.198  10.718  68.260  1.00  0.00    -0.157 A  
HETATM    9  C   UNL     1      -9.444   9.382  67.907  1.00  0.00    -0.150 A  
HETATM   10  C   UNL     1     -10.397  10.184  65.818  1.00  0.00    -0.216 A  
HETATM   11  C   UNL     1     -10.021   9.123  66.661  1.00  0.00    -0.343 A  
BRANCH   9  12
HETATM   12  C   UNL     1      -9.140   8.299  68.897  1.00  0.00    -0.147 C  
HETATM   13  C   UNL     1      -8.040   7.509  68.706  1.00  0.00    -0.128 C  
BRANCH  12  14
HETATM   14  C   UNL     1     -10.073   8.021  70.029  1.00  0.00    -0.196 A  
HETATM   15  C   UNL     1      -9.958   8.729  71.236  1.00  0.00    -0.333 A  
HETATM   16  C   UNL     1     -11.823   7.503  72.180  1.00  0.00    -0.338 A  
HETATM   17  C   UNL     1     -11.089   7.061  69.915  1.00  0.00    -0.301 A  
HETATM   18  C   UNL     1     -11.952   6.797  70.987  1.00  0.00    -0.431 A  
HETATM   19  C   UNL     1     -10.829   8.472  72.304  1.00  0.00    -0.418 A  
ENDBRANCH  12  14
BRANCH  13  20
HETATM   20  C   UNL     1      -7.738   6.206  69.444  1.00  0.00    -0.099 C  
HETATM   21  C   UNL     1      -8.337   4.949  68.823  1.00  0.00    -0.083 C  
HETATM   22 CL   UNL     1      -8.064   3.551  69.908  1.00  0.00    -0.056 Cl 
ENDBRANCH  13  20
BRANCH  13  23
HETATM   23  C   UNL     1      -7.057   7.773  67.615  1.00  0.00    -0.083 A  
HETATM   24  C   UNL     1      -5.229   8.284  65.543  1.00  0.00    -0.031 A  
HETATM   25  C   UNL     1      -6.049   8.735  67.775  1.00  0.00    -0.048 A  
HETATM   26  C   UNL     1      -5.142   8.990  66.742  1.00  0.00    -0.034 A  
HETATM   27  C   UNL     1      -6.212   7.312  65.383  1.00  0.00    -0.038 A  
HETATM   28  C   UNL     1      -7.119   7.053  66.414  1.00  0.00    -0.074 A  
ENDBRANCH  13  23
ENDBRANCH   9  12
ENDBRANCH   5   6
ENDBRANCH   4   5
ENDBRANCH   2   4
TORSDOF 7
ENDMDL
MODEL       62
REMARK 921   NORMALIZED FREE ENERGY PREDICTED BY IDOCK:   -4.64 KCAL/MOL
REMARK 922        TOTAL FREE ENERGY PREDICTED BY IDOCK:   -8.26 KCAL/MOL
REMARK 923 INTER-LIGAND FREE ENERGY PREDICTED BY IDOCK:   -6.29 KCAL/MOL
REMARK 924 INTRA-LIGAND FREE ENERGY PREDICTED BY IDOCK:   -1.97 KCAL/MOL
REMARK 927      BINDING AFFINITY PREDICTED BY RF-SCORE:    0.00 PKD
ROOT
HETATM    1  O   UNL     1     -12.967  12.518  65.016  1.00  0.00    -0.779 OA 
HETATM    2  C   UNL     1     -11.663  12.699  65.563  1.00  0.00    -0.402 C  
HETATM    3  H   UNL     1     -13.051  13.003  64.203  1.00  0.00     0.000 HD 
ENDROOT
BRANCH   2   4
HETATM    4  C   UNL     1     -11.526  11.919  66.872  1.00  0.00    -0.322 C  
BRANCH   4   5
HETATM    5  O   UNL     1     -10.150  11.599  67.104  1.00  0.00    -0.201 OA 
BRANCH   5   6
HETATM    6  C   UNL     1      -9.856  10.293  67.405  1.00  0.00    -0.179 A  
HETATM    7  C   UNL     1      -8.743   9.849  68.115  1.00  0.00    -0.122 A  
HETATM    8  C   UNL     1      -8.583   8.482  68.401  1.00  0.00    -0.139 A  
HETATM    9  C   UNL     1      -9.537   7.537  67.994  1.00  0.00    -0.156 A  
HETATM   10  C   UNL     1     -10.781   9.346  66.948  1.00  0.00    -0.174 A  
HETATM   11  C   UNL     1     -10.625   7.979  67.236  1.00  0.00    -0.360 A  
BRANCH   9  12
HETATM   12  C   UNL     1      -9.387   6.113  68.437  1.00  0.00    -0.116 C  
HETATM   13  C   UNL     1      -9.834   5.749  69.677  1.00  0.00    -0.230 C  
BRANCH  12  14
HETATM   14  C   UNL     1      -8.674   5.122  67.577  1.00  0.00    -0.103 A  
HETATM   15  C   UNL     1      -7.271   5.093  67.536  1.00  0.00    -0.071 A  
HETATM   16  C   UNL     1      -7.314   3.261  65.950  1.00  0.00    -0.072 A  
HETATM   17  C   UNL     1      -9.382   4.192  66.800  1.00  0.00    -0.190 A  
HETATM   18  C   UNL     1      -8.706   3.274  65.985  1.00  0.00    -0.127 A  
HETATM   19  C   UNL     1      -6.596   4.167  66.729  1.00  0.00    -0.046 A  
ENDBRANCH  12  14
BRANCH  13  20
HETATM   20  C   UNL     1      -9.517   4.435  70.389  1.00  0.00    -0.245 C  
HETATM   21  C   UNL     1      -8.246   4.437  71.230  1.00  0.00    -0.083 C  
HETATM   22 CL   UNL     1      -7.913   2.782  71.826  1.00  0.00    -0.056 Cl 
ENDBRANCH  13  20
BRANCH  13  23
HETATM   23  C   UNL     1     -10.587   6.691  70.554  1.00  0.00    -0.270 A  
HETATM   24  C   UNL     1     -11.998   8.491  72.187  1.00  0.00    -0.451 A  
HETATM   25  C   UNL     1     -11.990   6.676  70.585  1.00  0.00    -0.404 A  
HETATM   26  C   UNL     1     -12.690   7.574  71.396  1.00  0.00    -0.382 A  
HETATM   27  C   UNL     1     -10.607   8.498  72.179  1.00  0.00    -0.419 A  
HETATM   28  C   UNL     1      -9.903   7.601  71.371  1.00  0.00    -0.195 A  
ENDBRANCH  13  23
ENDBRANCH   9  12
ENDBRANCH   5   6
ENDBRANCH   4   5
ENDBRANCH   2   4
TORSDOF 7
ENDMDL
MODEL       63
REMARK 921   NORMALIZED FREE ENERGY PREDICTED BY IDOCK:   -4.63 KCAL/MOL
REMARK 922        TOTAL FREE ENERGY PREDICTED BY IDOCK:   -8.25 KCAL/MOL
REMARK 923 INTER-LIGAND FREE ENERGY PREDICTED BY IDOCK:   -8.20 KCAL/MOL
REMARK 924 INTRA-LIGAND FREE ENERGY PREDICTED BY IDOCK:   -0.05 KCAL/MOL
REMARK 927      BINDING AFFINITY PREDICTED BY RF-SCORE:    0.00 PKD
ROOT
HETATM    1  O   UNL     1     -10.562  18.330  65.567  1.00  0.00    -0.632 OA 
HETATM    2  C   UNL     1     -10.023  17.024  65.751  1.00  0.00    -0.153 C  
HETATM    3  H   UNL     1      -9.935  18.986  65.846  1.00  0.00     0.000 HD 
ENDROOT
BRANCH   2   4
HETATM    4  C   UNL     1     -11.033  15.966  65.301  1.00  0.00    -0.324 C  
BRANCH   4   5
HETATM    5  O   UNL     1     -10.356  14.736  65.022  1.00  0.00    -0.400 OA 
BRANCH   5   6
HETATM    6  C   UNL     1     -10.531  13.710  65.916  1.00  0.00    -0.296 A  
HETATM    7  C   UNL     1     -11.665  12.911  66.032  1.00  0.00    -0.456 A  
HETATM    8  C   UNL     1     -11.698  11.857  66.961  1.00  0.00    -0.304 A  
HETATM    9  C   UNL     1     -10.595  11.574  67.781  1.00  0.00    -0.227 A  
HETATM   10  C   UNL     1      -9.450  13.467  66.772  1.00  0.00    -0.272 A  
HETATM   11  C   UNL     1      -9.479  12.411  67.699  1.00  0.00    -0.190 A  
BRANCH   9  12
HETATM   12  C   UNL     1     -10.632  10.360  68.658  1.00  0.00    -0.234 C  
HETATM   13  C   UNL     1     -11.162  10.460  69.914  1.00  0.00    -0.371 C  
BRANCH  12  14
HETATM   14  C   UNL     1     -10.015   9.077  68.206  1.00  0.00    -0.198 A  
HETATM   15  C   UNL     1     -10.770   8.141  67.482  1.00  0.00    -0.227 A  
HETATM   16  C   UNL     1      -8.867   6.646  67.351  1.00  0.00    -0.116 A  
HETATM   17  C   UNL     1      -8.672   8.780  68.479  1.00  0.00    -0.135 A  
HETATM   18  C   UNL     1      -8.105   7.569  68.062  1.00  0.00    -0.124 A  
HETATM   19  C   UNL     1     -10.199   6.934  67.056  1.00  0.00    -0.317 A  
ENDBRANCH  12  14
BRANCH  13  20
HETATM   20  C   UNL     1     -11.031   9.417  71.024  1.00  0.00    -0.409 C  
HETATM   21  C   UNL     1     -11.909   8.181  70.868  1.00  0.00    -0.218 C  
HETATM   22 CL   UNL     1     -11.788   7.165  72.337  1.00  0.00    -0.261 Cl 
ENDBRANCH  13  20
BRANCH  13  23
HETATM   23  C   UNL     1     -11.826  11.706  70.396  1.00  0.00    -0.385 A  
HETATM   24  C   UNL     1     -13.060  14.050  71.332  1.00  0.00    -0.423 A  
HETATM   25  C   UNL     1     -11.501  12.952  69.842  1.00  0.00    -0.147 A  
HETATM   26  C   UNL     1     -12.114  14.118  70.310  1.00  0.00    -0.412 A  
HETATM   27  C   UNL     1     -13.406  12.816  71.873  1.00  0.00    -0.510 A  
HETATM   28  C   UNL     1     -12.796  11.648  71.406  1.00  0.00    -0.461 A  
ENDBRANCH  13  23
ENDBRANCH   9  12
ENDBRANCH   5   6
ENDBRANCH   4   5
ENDBRANCH   2   4
TORSDOF 7
ENDMDL
MODEL       64
REMARK 921   NORMALIZED FREE ENERGY PREDICTED BY IDOCK:   -4.62 KCAL/MOL
REMARK 922        TOTAL FREE ENERGY PREDICTED BY IDOCK:   -8.23 KCAL/MOL
REMARK 923 INTER-LIGAND FREE ENERGY PREDICTED BY IDOCK:   -6.91 KCAL/MOL
REMARK 924 INTRA-LIGAND FREE ENERGY PREDICTED BY IDOCK:   -1.32 KCAL/MOL
REMARK 927      BINDING AFFINITY PREDICTED BY RF-SCORE:    0.00 PKD
ROOT
HETATM    1  O   UNL     1     -12.366   6.299  72.363  1.00  0.00    -0.538 OA 
HETATM    2  C   UNL     1     -11.812   6.594  71.084  1.00  0.00    -0.360 C  
HETATM    3  H   UNL     1     -13.257   5.981  72.269  1.00  0.00     0.000 HD 
ENDROOT
BRANCH   2   4
HETATM    4  C   UNL     1     -10.379   7.106  71.234  1.00  0.00    -0.198 C  
BRANCH   4   5
HETATM    5  O   UNL     1      -9.789   7.287  69.942  1.00  0.00    -0.176 OA 
BRANCH   5   6
HETATM    6  C   UNL     1      -9.959   8.510  69.344  1.00  0.00    -0.194 A  
HETATM    7  C   UNL     1     -10.905   8.818  68.369  1.00  0.00    -0.019 A  
HETATM    8  C   UNL     1     -11.008  10.128  67.871  1.00  0.00    -0.335 A  
HETATM    9  C   UNL     1     -10.179  11.156  68.347  1.00  0.00    -0.200 A  
HETATM   10  C   UNL     1      -9.092   9.519  69.780  1.00  0.00    -0.219 A  
HETATM   11  C   UNL     1      -9.197  10.832  69.287  1.00  0.00    -0.068 A  
BRANCH   9  12
HETATM   12  C   UNL     1     -10.418  12.560  67.881  1.00  0.00    -0.226 C  
HETATM   13  C   UNL     1     -10.125  12.893  66.588  1.00  0.00    -0.247 C  
BRANCH  12  14
HETATM   14  C   UNL     1     -10.884  13.608  68.837  1.00  0.00    -0.264 A  
HETATM   15  C   UNL     1     -10.070  14.713  69.133  1.00  0.00    -0.178 A  
HETATM   16  C   UNL     1     -11.744  15.593  70.648  1.00  0.00    -0.398 A  
HETATM   17  C   UNL     1     -12.142  13.524  69.453  1.00  0.00    -0.340 A  
HETATM   18  C   UNL     1     -12.565  14.506  70.359  1.00  0.00    -0.405 A  
HETATM   19  C   UNL     1     -10.498  15.699  70.031  1.00  0.00    -0.333 A  
ENDBRANCH  12  14
BRANCH  13  20
HETATM   20  C   UNL     1     -10.044  14.313  66.028  1.00  0.00    -0.333 C  
HETATM   21  C   UNL     1     -11.359  14.892  65.520  1.00  0.00    -0.339 C  
HETATM   22 CL   UNL     1     -11.057  16.465  64.720  1.00  0.00    -0.356 Cl 
ENDBRANCH  13  20
BRANCH  13  23
HETATM   23  C   UNL     1      -9.699  11.874  65.585  1.00  0.00    -0.248 A  
HETATM   24  C   UNL     1      -8.899   9.929  63.721  1.00  0.00    -0.254 A  
HETATM   25  C   UNL     1     -10.527  11.540  64.503  1.00  0.00    -0.369 A  
HETATM   26  C   UNL     1     -10.129  10.572  63.578  1.00  0.00    -0.186 A  
HETATM   27  C   UNL     1      -8.061  10.269  64.778  1.00  0.00    -0.151 A  
HETATM   28  C   UNL     1      -8.455  11.239  65.704  1.00  0.00     0.022 A  
ENDBRANCH  13  23
ENDBRANCH   9  12
ENDBRANCH   5   6
ENDBRANCH   4   5
ENDBRANCH   2   4
TORSDOF 7
ENDMDL
MODEL       65
REMARK 921   NORMALIZED FREE ENERGY PREDICTED BY IDOCK:   -4.59 KCAL/MOL
REMARK 922        TOTAL FREE ENERGY PREDICTED BY IDOCK:   -8.18 KCAL/MOL
REMARK 923 INTER-LIGAND FREE ENERGY PREDICTED BY IDOCK:   -6.60 KCAL/MOL
REMARK 924 INTRA-LIGAND FREE ENERGY PREDICTED BY IDOCK:   -1.58 KCAL/MOL
REMARK 927      BINDING AFFINITY PREDICTED BY RF-SCORE:    0.00 PKD
ROOT
HETATM    1  O   UNL     1      -9.584   2.408  67.128  1.00  0.00    -0.407 OA 
HETATM    2  C   UNL     1      -9.097   2.719  65.826  1.00  0.00    -0.125 C  
HETATM    3  H   UNL     1      -9.455   1.486  67.315  1.00  0.00     0.000 HD 
ENDROOT
BRANCH   2   4
HETATM    4  C   UNL     1      -9.303   4.204  65.524  1.00  0.00    -0.162 C  
BRANCH   4   5
HETATM    5  O   UNL     1      -9.220   4.962  66.735  1.00  0.00    -0.116 OA 
BRANCH   5   6
HETATM    6  C   UNL     1      -9.481   6.306  66.649  1.00  0.00    -0.152 A  
HETATM    7  C   UNL     1     -10.653   6.939  67.056  1.00  0.00    -0.403 A  
HETATM    8  C   UNL     1     -10.776   8.336  66.958  1.00  0.00    -0.225 A  
HETATM    9  C   UNL     1      -9.725   9.126  66.466  1.00  0.00    -0.306 A  
HETATM   10  C   UNL     1      -8.453   7.086  66.105  1.00  0.00    -0.136 A  
HETATM   11  C   UNL     1      -8.571   8.484  66.010  1.00  0.00    -0.162 A  
BRANCH   9  12
HETATM   12  C   UNL     1      -9.856  10.618  66.507  1.00  0.00    -0.250 C  
HETATM   13  C   UNL     1      -9.349  11.305  67.575  1.00  0.00    -0.166 C  
BRANCH  12  14
HETATM   14  C   UNL     1     -10.612  11.343  65.442  1.00  0.00    -0.333 A  
HETATM   15  C   UNL     1     -11.779  12.057  65.757  1.00  0.00    -0.313 A  
HETATM   16  C   UNL     1     -12.055  12.711  63.440  1.00  0.00    -0.614 A  
HETATM   17  C   UNL     1     -10.173  11.340  64.109  1.00  0.00    -0.391 A  
HETATM   18  C   UNL     1     -10.896  12.011  63.114  1.00  0.00    -0.275 A  
HETATM   19  C   UNL     1     -12.494  12.737  64.763  1.00  0.00    -0.539 A  
ENDBRANCH  12  14
BRANCH  13  20
HETATM   20  C   UNL     1      -9.634  12.768  67.912  1.00  0.00    -0.211 C  
HETATM   21  C   UNL     1     -10.723  12.999  68.953  1.00  0.00    -0.167 C  
HETATM   22 CL   UNL     1     -11.071  14.750  69.083  1.00  0.00    -0.261 Cl 
ENDBRANCH  13  20
BRANCH  13  23
HETATM   23  C   UNL     1      -8.552  10.631  68.641  1.00  0.00    -0.144 A  
HETATM   24  C   UNL     1      -7.058   9.334  70.637  1.00  0.00    -0.111 A  
HETATM   25  C   UNL     1      -7.150  10.677  68.626  1.00  0.00    -0.075 A  
HETATM   26  C   UNL     1      -6.408  10.029  69.617  1.00  0.00    -0.053 A  
HETATM   27  C   UNL     1      -8.449   9.302  70.673  1.00  0.00    -0.258 A  
HETATM   28  C   UNL     1      -9.193   9.950  69.684  1.00  0.00    -0.246 A  
ENDBRANCH  13  23
ENDBRANCH   9  12
ENDBRANCH   5   6
ENDBRANCH   4   5
ENDBRANCH   2   4
TORSDOF 7
ENDMDL
MODEL       66
REMARK 921   NORMALIZED FREE ENERGY PREDICTED BY IDOCK:   -4.57 KCAL/MOL
REMARK 922        TOTAL FREE ENERGY PREDICTED BY IDOCK:   -8.15 KCAL/MOL
REMARK 923 INTER-LIGAND FREE ENERGY PREDICTED BY IDOCK:   -6.18 KCAL/MOL
REMARK 924 INTRA-LIGAND FREE ENERGY PREDICTED BY IDOCK:   -1.97 KCAL/MOL
REMARK 927      BINDING AFFINITY PREDICTED BY RF-SCORE:    0.00 PKD
ROOT
HETATM    1  O   UNL     1      -7.555  10.726  63.769  1.00  0.00    -0.351 OA 
HETATM    2  C   UNL     1      -8.936  10.814  63.431  1.00  0.00    -0.203 C  
HETATM    3  H   UNL     1      -7.020  11.017  63.040  1.00  0.00     0.000 HD 
ENDROOT
BRANCH   2   4
HETATM    4  C   UNL     1      -9.798  10.347  64.605  1.00  0.00    -0.338 C  
BRANCH   4   5
HETATM    5  O   UNL     1      -9.348   9.067  65.060  1.00  0.00    -0.141 OA 
BRANCH   5   6
HETATM    6  C   UNL     1      -9.757   8.668  66.307  1.00  0.00    -0.251 A  
HETATM    7  C   UNL     1     -10.337   7.442  66.624  1.00  0.00    -0.241 A  
HETATM    8  C   UNL     1     -10.668   7.136  67.955  1.00  0.00    -0.232 A  
HETATM    9  C   UNL     1     -10.414   8.044  68.995  1.00  0.00    -0.212 A  
HETATM   10  C   UNL     1      -9.555   9.598  67.334  1.00  0.00    -0.183 A  
HETATM   11  C   UNL     1      -9.881   9.293  68.667  1.00  0.00    -0.173 A  
BRANCH   9  12
HETATM   12  C   UNL     1     -10.663   7.618  70.410  1.00  0.00    -0.241 C  
HETATM   13  C   UNL     1      -9.736   6.840  71.046  1.00  0.00    -0.182 C  
BRANCH  12  14
HETATM   14  C   UNL     1     -11.948   7.958  71.090  1.00  0.00    -0.304 A  
HETATM   15  C   UNL     1     -13.057   7.104  70.985  1.00  0.00    -0.193 A  
HETATM   16  C   UNL     1     -14.385   8.592  72.362  1.00  0.00    -0.412 A  
HETATM   17  C   UNL     1     -12.078   9.127  71.856  1.00  0.00    -0.448 A  
HETATM   18  C   UNL     1     -13.291   9.445  72.480  1.00  0.00    -0.420 A  
HETATM   19  C   UNL     1     -14.267   7.418  71.618  1.00  0.00    -0.583 A  
ENDBRANCH  12  14
BRANCH  13  20
HETATM   20  C   UNL     1      -9.948   6.096  72.364  1.00  0.00    -0.187 C  
HETATM   21  C   UNL     1     -10.474   4.671  72.232  1.00  0.00    -0.170 C  
HETATM   22 CL   UNL     1     -10.858   4.017  73.854  1.00  0.00    -0.314 Cl 
ENDBRANCH  13  20
BRANCH  13  23
HETATM   23  C   UNL     1      -8.421   6.509  70.425  1.00  0.00    -0.131 A  
HETATM   24  C   UNL     1      -5.931   5.876  69.285  1.00  0.00    -0.027 A  
HETATM   25  C   UNL     1      -8.273   5.368  69.622  1.00  0.00    -0.100 A  
HETATM   26  C   UNL     1      -7.034   5.053  69.057  1.00  0.00    -0.052 A  
HETATM   27  C   UNL     1      -6.073   7.022  70.062  1.00  0.00    -0.024 A  
HETATM   28  C   UNL     1      -7.311   7.340  70.626  1.00  0.00    -0.071 A  
ENDBRANCH  13  23
ENDBRANCH   9  12
ENDBRANCH   5   6
ENDBRANCH   4   5
ENDBRANCH   2   4
TORSDOF 7
ENDMDL
MODEL       67
REMARK 921   NORMALIZED FREE ENERGY PREDICTED BY IDOCK:   -4.56 KCAL/MOL
REMARK 922        TOTAL FREE ENERGY PREDICTED BY IDOCK:   -8.15 KCAL/MOL
REMARK 923 INTER-LIGAND FREE ENERGY PREDICTED BY IDOCK:   -6.75 KCAL/MOL
REMARK 924 INTRA-LIGAND FREE ENERGY PREDICTED BY IDOCK:   -1.40 KCAL/MOL
REMARK 927      BINDING AFFINITY PREDICTED BY RF-SCORE:    0.00 PKD
ROOT
HETATM    1  O   UNL     1      -5.555   5.636  65.384  1.00  0.00    -0.013 OA 
HETATM    2  C   UNL     1      -6.704   6.162  64.725  1.00  0.00    -0.043 C  
HETATM    3  H   UNL     1      -5.333   4.784  65.027  1.00  0.00     0.000 HD 
ENDROOT
BRANCH   2   4
HETATM    4  C   UNL     1      -7.062   7.533  65.300  1.00  0.00    -0.063 C  
BRANCH   4   5
HETATM    5  O   UNL     1      -8.201   7.418  66.160  1.00  0.00    -0.116 OA 
BRANCH   5   6
HETATM    6  C   UNL     1      -8.734   8.583  66.649  1.00  0.00    -0.125 A  
HETATM    7  C   UNL     1      -8.023   9.617  67.254  1.00  0.00    -0.106 A  
HETATM    8  C   UNL     1      -8.685  10.785  67.670  1.00  0.00    -0.126 A  
HETATM    9  C   UNL     1     -10.066  10.947  67.475  1.00  0.00    -0.214 A  
HETATM   10  C   UNL     1     -10.120   8.718  66.505  1.00  0.00    -0.349 A  
HETATM   11  C   UNL     1     -10.784   9.887  66.916  1.00  0.00    -0.195 A  
BRANCH   9  12
HETATM   12  C   UNL     1     -10.699  12.262  67.815  1.00  0.00    -0.246 C  
HETATM   13  C   UNL     1     -11.465  12.364  68.943  1.00  0.00    -0.355 C  
BRANCH  12  14
HETATM   14  C   UNL     1     -10.575  13.426  66.887  1.00  0.00    -0.273 A  
HETATM   15  C   UNL     1      -9.626  14.432  67.130  1.00  0.00    -0.251 A  
HETATM   16  C   UNL     1     -10.334  15.635  65.148  1.00  0.00    -0.366 A  
HETATM   17  C   UNL     1     -11.389  13.539  65.750  1.00  0.00    -0.318 A  
HETATM   18  C   UNL     1     -11.275  14.641  64.892  1.00  0.00    -0.400 A  
HETATM   19  C   UNL     1      -9.506  15.528  66.265  1.00  0.00    -0.356 A  
ENDBRANCH  12  14
BRANCH  13  20
HETATM   20  C   UNL     1     -12.395  13.526  69.288  1.00  0.00    -0.125 C  
HETATM   21  C   UNL     1     -11.939  14.407  70.445  1.00  0.00    -0.325 C  
HETATM   22 CL   UNL     1     -13.224  15.585  70.850  1.00  0.00    -0.536 Cl 
ENDBRANCH  13  20
BRANCH  13  23
HETATM   23  C   UNL     1     -11.585  11.244  69.921  1.00  0.00    -0.413 A  
HETATM   24  C   UNL     1     -11.824   9.114  71.738  1.00  0.00    -0.453 A  
HETATM   25  C   UNL     1     -10.443  10.584  70.400  1.00  0.00     0.131 A  
HETATM   26  C   UNL     1     -10.564   9.523  71.303  1.00  0.00    -0.358 A  
HETATM   27  C   UNL     1     -12.960   9.776  71.286  1.00  0.00    -0.470 A  
HETATM   28  C   UNL     1     -12.843  10.838  70.385  1.00  0.00    -0.285 A  
ENDBRANCH  13  23
ENDBRANCH   9  12
ENDBRANCH   5   6
ENDBRANCH   4   5
ENDBRANCH   2   4
TORSDOF 7
ENDMDL
MODEL       68
REMARK 921   NORMALIZED FREE ENERGY PREDICTED BY IDOCK:   -4.52 KCAL/MOL
REMARK 922        TOTAL FREE ENERGY PREDICTED BY IDOCK:   -8.09 KCAL/MOL
REMARK 923 INTER-LIGAND FREE ENERGY PREDICTED BY IDOCK:   -6.26 KCAL/MOL
REMARK 924 INTRA-LIGAND FREE ENERGY PREDICTED BY IDOCK:   -1.83 KCAL/MOL
REMARK 927      BINDING AFFINITY PREDICTED BY RF-SCORE:    0.00 PKD
ROOT
HETATM    1  O   UNL     1      -8.971  11.507  63.333  1.00  0.00    -0.472 OA 
HETATM    2  C   UNL     1      -9.975  10.849  64.100  1.00  0.00    -0.344 C  
HETATM    3  H   UNL     1      -9.372  12.102  62.709  1.00  0.00     0.000 HD 
ENDROOT
BRANCH   2   4
HETATM    4  C   UNL     1      -9.330   9.892  65.104  1.00  0.00    -0.258 C  
BRANCH   4   5
HETATM    5  O   UNL     1     -10.278   9.540  66.118  1.00  0.00    -0.273 OA 
BRANCH   5   6
HETATM    6  C   UNL     1      -9.965   8.473  66.922  1.00  0.00    -0.265 A  
HETATM    7  C   UNL     1      -8.835   8.360  67.727  1.00  0.00    -0.137 A  
HETATM    8  C   UNL     1      -8.656   7.230  68.544  1.00  0.00    -0.124 A  
HETATM    9  C   UNL     1      -9.610   6.200  68.581  1.00  0.00    -0.138 A  
HETATM   10  C   UNL     1     -10.890   7.422  66.913  1.00  0.00    -0.223 A  
HETATM   11  C   UNL     1     -10.716   6.293  67.733  1.00  0.00    -0.383 A  
BRANCH   9  12
HETATM   12  C   UNL     1      -9.437   5.084  69.565  1.00  0.00    -0.207 C  
HETATM   13  C   UNL     1      -9.891   5.245  70.845  1.00  0.00    -0.257 C  
BRANCH  12  14
HETATM   14  C   UNL     1      -8.696   3.844  69.184  1.00  0.00    -0.127 A  
HETATM   15  C   UNL     1      -9.391   2.660  68.894  1.00  0.00    -0.223 A  
HETATM   16  C   UNL     1      -7.310   1.492  68.472  1.00  0.00    -0.043 A  
HETATM   17  C   UNL     1      -7.296   3.832  69.096  1.00  0.00    -0.053 A  
HETATM   18  C   UNL     1      -6.608   2.662  68.751  1.00  0.00    -0.029 A  
HETATM   19  C   UNL     1      -8.703   1.492  68.539  1.00  0.00    -0.102 A  
ENDBRANCH  12  14
BRANCH  13  20
HETATM   20  C   UNL     1      -9.557   4.341  72.031  1.00  0.00    -0.209 C  
HETATM   21  C   UNL     1     -10.698   4.105  73.014  1.00  0.00    -0.173 C  
HETATM   22 CL   UNL     1     -10.091   3.202  74.436  1.00  0.00    -0.174 Cl 
ENDBRANCH  13  20
BRANCH  13  23
HETATM   23  C   UNL     1     -10.673   6.445  71.261  1.00  0.00    -0.288 A  
HETATM   24  C   UNL     1     -12.133   8.724  72.019  1.00  0.00    -0.447 A  
HETATM   25  C   UNL     1     -12.070   6.471  71.137  1.00  0.00    -0.318 A  
HETATM   26  C   UNL     1     -12.795   7.606  71.513  1.00  0.00    -0.376 A  
HETATM   27  C   UNL     1     -10.749   8.700  72.166  1.00  0.00    -0.417 A  
HETATM   28  C   UNL     1     -10.022   7.566  71.794  1.00  0.00    -0.200 A  
ENDBRANCH  13  23
ENDBRANCH   9  12
ENDBRANCH   5   6
ENDBRANCH   4   5
ENDBRANCH   2   4
TORSDOF 7
ENDMDL
MODEL       69
REMARK 921   NORMALIZED FREE ENERGY PREDICTED BY IDOCK:   -4.52 KCAL/MOL
REMARK 922        TOTAL FREE ENERGY PREDICTED BY IDOCK:   -8.08 KCAL/MOL
REMARK 923 INTER-LIGAND FREE ENERGY PREDICTED BY IDOCK:   -7.34 KCAL/MOL
REMARK 924 INTRA-LIGAND FREE ENERGY PREDICTED BY IDOCK:   -0.74 KCAL/MOL
REMARK 927      BINDING AFFINITY PREDICTED BY RF-SCORE:    0.00 PKD
ROOT
HETATM    1  O   UNL     1      -9.556   2.559  67.615  1.00  0.00    -0.374 OA 
HETATM    2  C   UNL     1      -8.797   3.744  67.843  1.00  0.00    -0.114 C  
HETATM    3  H   UNL     1      -9.077   1.968  67.046  1.00  0.00     0.000 HD 
ENDROOT
BRANCH   2   4
HETATM    4  C   UNL     1      -9.567   4.696  68.760  1.00  0.00    -0.163 C  
BRANCH   4   5
HETATM    5  O   UNL     1      -8.765   5.846  69.050  1.00  0.00    -0.113 OA 
BRANCH   5   6
HETATM    6  C   UNL     1      -9.333   7.075  68.827  1.00  0.00    -0.134 A  
HETATM    7  C   UNL     1     -10.380   7.345  67.949  1.00  0.00    -0.258 A  
HETATM    8  C   UNL     1     -10.905   8.644  67.850  1.00  0.00    -0.061 A  
HETATM    9  C   UNL     1     -10.403   9.694  68.635  1.00  0.00    -0.226 A  
HETATM   10  C   UNL     1      -8.792   8.132  69.570  1.00  0.00    -0.143 A  
HETATM   11  C   UNL     1      -9.319   9.432  69.475  1.00  0.00    -0.187 A  
BRANCH   9  12
HETATM   12  C   UNL     1     -11.085  11.028  68.588  1.00  0.00    -0.294 C  
HETATM   13  C   UNL     1     -10.943  11.812  67.477  1.00  0.00    -0.310 C  
BRANCH  12  14
HETATM   14  C   UNL     1     -11.835  11.540  69.774  1.00  0.00    -0.429 A  
HETATM   15  C   UNL     1     -12.453  10.647  70.664  1.00  0.00    -0.462 A  
HETATM   16  C   UNL     1     -13.262  12.490  72.015  1.00  0.00    -0.524 A  
HETATM   17  C   UNL     1     -11.931  12.915  70.036  1.00  0.00    -0.380 A  
HETATM   18  C   UNL     1     -12.648  13.386  71.143  1.00  0.00    -0.430 A  
HETATM   19  C   UNL     1     -13.161  11.120  71.777  1.00  0.00    -0.536 A  
ENDBRANCH  12  14
BRANCH  13  20
HETATM   20  C   UNL     1     -11.327  13.287  67.370  1.00  0.00    -0.337 C  
HETATM   21  C   UNL     1     -10.240  14.208  66.829  1.00  0.00    -0.262 C  
HETATM   22 CL   UNL     1     -10.774  15.912  66.957  1.00  0.00    -0.313 Cl 
ENDBRANCH  13  20
BRANCH  13  23
HETATM   23  C   UNL     1     -10.240  11.329  66.253  1.00  0.00    -0.280 A  
HETATM   24  C   UNL     1      -8.912  10.389  63.962  1.00  0.00    -0.249 A  
HETATM   25  C   UNL     1     -10.946  11.103  65.062  1.00  0.00    -0.174 A  
HETATM   26  C   UNL     1     -10.285  10.633  63.924  1.00  0.00    -0.306 A  
HETATM   27  C   UNL     1      -8.199  10.632  65.132  1.00  0.00    -0.092 A  
HETATM   28  C   UNL     1      -8.857  11.103  66.271  1.00  0.00    -0.190 A  
ENDBRANCH  13  23
ENDBRANCH   9  12
ENDBRANCH   5   6
ENDBRANCH   4   5
ENDBRANCH   2   4
TORSDOF 7
ENDMDL
MODEL       70
REMARK 921   NORMALIZED FREE ENERGY PREDICTED BY IDOCK:   -4.49 KCAL/MOL
REMARK 922        TOTAL FREE ENERGY PREDICTED BY IDOCK:   -8.04 KCAL/MOL
REMARK 923 INTER-LIGAND FREE ENERGY PREDICTED BY IDOCK:   -6.10 KCAL/MOL
REMARK 924 INTRA-LIGAND FREE ENERGY PREDICTED BY IDOCK:   -1.95 KCAL/MOL
REMARK 927      BINDING AFFINITY PREDICTED BY RF-SCORE:    0.00 PKD
ROOT
HETATM    1  O   UNL     1      -8.908  11.729  62.878  1.00  0.00    -0.652 OA 
HETATM    2  C   UNL     1      -9.735  10.751  63.503  1.00  0.00    -0.341 C  
HETATM    3  H   UNL     1      -9.233  11.926  62.007  1.00  0.00     0.000 HD 
ENDROOT
BRANCH   2   4
HETATM    4  C   UNL     1      -9.211  10.435  64.905  1.00  0.00    -0.221 C  
BRANCH   4   5
HETATM    5  O   UNL     1     -10.311  10.213  65.795  1.00  0.00    -0.234 OA 
BRANCH   5   6
HETATM    6  C   UNL     1     -10.103   9.345  66.838  1.00  0.00    -0.248 A  
HETATM    7  C   UNL     1     -10.535   8.022  66.899  1.00  0.00    -0.387 A  
HETATM    8  C   UNL     1     -10.213   7.222  68.008  1.00  0.00    -0.225 A  
HETATM    9  C   UNL     1      -9.444   7.724  69.070  1.00  0.00    -0.150 A  
HETATM   10  C   UNL     1      -9.385   9.866  67.921  1.00  0.00    -0.149 A  
HETATM   11  C   UNL     1      -9.059   9.066  69.031  1.00  0.00    -0.143 A  
BRANCH   9  12
HETATM   12  C   UNL     1      -9.018   6.793  70.164  1.00  0.00    -0.149 C  
HETATM   13  C   UNL     1      -9.763   6.721  71.308  1.00  0.00    -0.179 C  
BRANCH  12  14
HETATM   14  C   UNL     1      -7.745   6.020  70.050  1.00  0.00    -0.100 A  
HETATM   15  C   UNL     1      -7.758   4.689  69.604  1.00  0.00    -0.058 A  
HETATM   16  C   UNL     1      -5.351   4.544  69.836  1.00  0.00    -0.008 A  
HETATM   17  C   UNL     1      -6.510   6.602  70.371  1.00  0.00    -0.044 A  
HETATM   18  C   UNL     1      -5.322   5.865  70.274  1.00  0.00    -0.012 A  
HETATM   19  C   UNL     1      -6.569   3.956  69.497  1.00  0.00    -0.034 A  
ENDBRANCH  12  14
BRANCH  13  20
HETATM   20  C   UNL     1      -9.334   6.051  72.612  1.00  0.00    -0.147 C  
HETATM   21  C   UNL     1      -9.785   4.605  72.784  1.00  0.00    -0.139 C  
HETATM   22 CL   UNL     1      -9.379   4.037  74.432  1.00  0.00    -0.119 Cl 
ENDBRANCH  13  20
BRANCH  13  23
HETATM   23  C   UNL     1     -11.062   7.441  71.453  1.00  0.00    -0.263 A  
HETATM   24  C   UNL     1     -13.502   8.814  71.697  1.00  0.00    -0.411 A  
HETATM   25  C   UNL     1     -12.279   6.774  71.249  1.00  0.00    -0.415 A  
HETATM   26  C   UNL     1     -13.492   7.458  71.369  1.00  0.00    -0.405 A  
HETATM   27  C   UNL     1     -12.300   9.478  71.922  1.00  0.00    -0.450 A  
HETATM   28  C   UNL     1     -11.086   8.797  71.806  1.00  0.00    -0.417 A  
ENDBRANCH  13  23
ENDBRANCH   9  12
ENDBRANCH   5   6
ENDBRANCH   4   5
ENDBRANCH   2   4
TORSDOF 7
ENDMDL
MODEL       71
REMARK 921   NORMALIZED FREE ENERGY PREDICTED BY IDOCK:   -4.48 KCAL/MOL
REMARK 922        TOTAL FREE ENERGY PREDICTED BY IDOCK:   -8.03 KCAL/MOL
REMARK 923 INTER-LIGAND FREE ENERGY PREDICTED BY IDOCK:   -6.06 KCAL/MOL
REMARK 924 INTRA-LIGAND FREE ENERGY PREDICTED BY IDOCK:   -1.97 KCAL/MOL
REMARK 927      BINDING AFFINITY PREDICTED BY RF-SCORE:    0.00 PKD
ROOT
HETATM    1  O   UNL     1     -11.334   6.102  69.602  1.00  0.00    -0.414 OA 
HETATM    2  C   UNL     1      -9.937   5.978  69.350  1.00  0.00    -0.174 C  
HETATM    3  H   UNL     1     -11.662   5.319  70.028  1.00  0.00     0.000 HD 
ENDROOT
BRANCH   2   4
HETATM    4  C   UNL     1      -9.409   7.239  68.665  1.00  0.00    -0.138 C  
BRANCH   4   5
HETATM    5  O   UNL     1     -10.495   8.127  68.377  1.00  0.00    -0.207 OA 
BRANCH   5   6
HETATM    6  C   UNL     1     -10.184   9.448  68.174  1.00  0.00    -0.200 A  
HETATM    7  C   UNL     1     -10.793  10.535  68.796  1.00  0.00    -0.269 A  
HETATM    8  C   UNL     1     -10.345  11.842  68.537  1.00  0.00    -0.228 A  
HETATM    9  C   UNL     1      -9.274  12.085  67.663  1.00  0.00    -0.182 A  
HETATM   10  C   UNL     1      -9.152   9.690  67.259  1.00  0.00    -0.150 A  
HETATM   11  C   UNL     1      -8.700  10.997  67.001  1.00  0.00    -0.141 A  
BRANCH   9  12
HETATM   12  C   UNL     1      -8.751  13.482  67.524  1.00  0.00    -0.208 C  
HETATM   13  C   UNL     1      -9.334  14.327  66.621  1.00  0.00    -0.302 C  
BRANCH  12  14
HETATM   14  C   UNL     1      -7.549  13.923  68.293  1.00  0.00    -0.130 A  
HETATM   15  C   UNL     1      -6.264  13.515  67.902  1.00  0.00    -0.154 A  
HETATM   16  C   UNL     1      -5.269  14.740  69.741  1.00  0.00    -0.093 A  
HETATM   17  C   UNL     1      -7.669  14.760  69.413  1.00  0.00    -0.104 A  
HETATM   18  C   UNL     1      -6.538  15.158  70.137  1.00  0.00    -0.096 A  
HETATM   19  C   UNL     1      -5.133  13.922  68.620  1.00  0.00    -0.089 A  
ENDBRANCH  12  14
BRANCH  13  20
HETATM   20  C   UNL     1      -8.765  15.666  66.155  1.00  0.00    -0.241 C  
HETATM   21  C   UNL     1      -9.296  16.892  66.889  1.00  0.00    -0.241 C  
HETATM   22 CL   UNL     1      -8.690  18.379  66.096  1.00  0.00    -0.196 Cl 
ENDBRANCH  13  20
BRANCH  13  23
HETATM   23  C   UNL     1     -10.560  13.947  65.860  1.00  0.00    -0.293 A  
HETATM   24  C   UNL     1     -12.862  13.200  64.432  1.00  0.00    -0.122 A  
HETATM   25  C   UNL     1     -11.834  14.114  66.423  1.00  0.00    -0.440 A  
HETATM   26  C   UNL     1     -12.978  13.740  65.713  1.00  0.00    -0.310 A  
HETATM   27  C   UNL     1     -11.604  13.051  63.857  1.00  0.00    -0.508 A  
HETATM   28  C   UNL     1     -10.459  13.426  64.564  1.00  0.00    -0.431 A  
ENDBRANCH  13  23
ENDBRANCH   9  12
ENDBRANCH   5   6
ENDBRANCH   4   5
ENDBRANCH   2   4
TORSDOF 7
ENDMDL
MODEL       72
REMARK 921   NORMALIZED FREE ENERGY PREDICTED BY IDOCK:   -4.45 KCAL/MOL
REMARK 922        TOTAL FREE ENERGY PREDICTED BY IDOCK:   -7.99 KCAL/MOL
REMARK 923 INTER-LIGAND FREE ENERGY PREDICTED BY IDOCK:   -7.13 KCAL/MOL
REMARK 924 INTRA-LIGAND FREE ENERGY PREDICTED BY IDOCK:   -0.86 KCAL/MOL
REMARK 927      BINDING AFFINITY PREDICTED BY RF-SCORE:    0.00 PKD
ROOT
HETATM    1  O   UNL     1     -11.210   5.473  73.952  1.00  0.00    -0.401 OA 
HETATM    2  C   UNL     1     -10.389   6.608  73.690  1.00  0.00    -0.320 C  
HETATM    3  H   UNL     1     -11.566   5.522  74.831  1.00  0.00     0.000 HD 
ENDROOT
BRANCH   2   4
HETATM    4  C   UNL     1      -9.814   6.530  72.275  1.00  0.00    -0.156 C  
BRANCH   4   5
HETATM    5  O   UNL     1      -8.831   7.554  72.092  1.00  0.00    -0.121 OA 
BRANCH   5   6
HETATM    6  C   UNL     1      -9.175   8.614  71.292  1.00  0.00    -0.220 A  
HETATM    7  C   UNL     1      -8.323   9.294  70.425  1.00  0.00    -0.224 A  
HETATM    8  C   UNL     1      -8.814  10.336  69.620  1.00  0.00    -0.124 A  
HETATM    9  C   UNL     1     -10.167  10.708  69.657  1.00  0.00    -0.156 A  
HETATM   10  C   UNL     1     -10.512   9.021  71.373  1.00  0.00    -0.395 A  
HETATM   11  C   UNL     1     -11.007  10.060  70.565  1.00  0.00    -0.392 A  
BRANCH   9  12
HETATM   12  C   UNL     1     -10.666  11.734  68.684  1.00  0.00    -0.252 C  
HETATM   13  C   UNL     1     -10.574  11.483  67.343  1.00  0.00    -0.252 C  
BRANCH  12  14
HETATM   14  C   UNL     1     -11.173  13.053  69.166  1.00  0.00    -0.297 A  
HETATM   15  C   UNL     1     -10.600  14.248  68.703  1.00  0.00    -0.254 A  
HETATM   16  C   UNL     1     -12.113  15.554  70.073  1.00  0.00    -0.391 A  
HETATM   17  C   UNL     1     -12.234  13.135  70.080  1.00  0.00    -0.360 A  
HETATM   18  C   UNL     1     -12.694  14.377  70.537  1.00  0.00    -0.401 A  
HETATM   19  C   UNL     1     -11.068  15.490  69.152  1.00  0.00    -0.272 A  
ENDBRANCH  12  14
BRANCH  13  20
HETATM   20  C   UNL     1     -10.770  12.509  66.228  1.00  0.00    -0.288 C  
HETATM   21  C   UNL     1     -11.992  12.288  65.344  1.00  0.00    -0.332 C  
HETATM   22 CL   UNL     1     -11.965  13.445  63.977  1.00  0.00    -0.500 Cl 
ENDBRANCH  13  20
BRANCH  13  23
HETATM   23  C   UNL     1     -10.114  10.166  66.814  1.00  0.00    -0.277 A  
HETATM   24  C   UNL     1      -9.222   7.686  65.840  1.00  0.00    -0.053 A  
HETATM   25  C   UNL     1     -10.824   8.991  67.101  1.00  0.00    -0.079 A  
HETATM   26  C   UNL     1     -10.378   7.757  66.617  1.00  0.00    -0.262 A  
HETATM   27  C   UNL     1      -8.524   8.850  65.532  1.00  0.00    -0.174 A  
HETATM   28  C   UNL     1      -8.968  10.084  66.012  1.00  0.00    -0.174 A  
ENDBRANCH  13  23
ENDBRANCH   9  12
ENDBRANCH   5   6
ENDBRANCH   4   5
ENDBRANCH   2   4
TORSDOF 7
ENDMDL
MODEL       73
REMARK 921   NORMALIZED FREE ENERGY PREDICTED BY IDOCK:   -4.44 KCAL/MOL
REMARK 922        TOTAL FREE ENERGY PREDICTED BY IDOCK:   -7.98 KCAL/MOL
REMARK 923 INTER-LIGAND FREE ENERGY PREDICTED BY IDOCK:   -6.26 KCAL/MOL
REMARK 924 INTRA-LIGAND FREE ENERGY PREDICTED BY IDOCK:   -1.72 KCAL/MOL
REMARK 927      BINDING AFFINITY PREDICTED BY RF-SCORE:    0.00 PKD
ROOT
HETATM    1  O   UNL     1      -9.820   4.549  63.274  1.00  0.00    -0.351 OA 
HETATM    2  C   UNL     1      -8.965   3.705  64.039  1.00  0.00    -0.108 C  
HETATM    3  H   UNL     1      -9.412   4.762  62.443  1.00  0.00     0.000 HD 
ENDROOT
BRANCH   2   4
HETATM    4  C   UNL     1      -9.621   3.360  65.377  1.00  0.00    -0.101 C  
BRANCH   4   5
HETATM    5  O   UNL     1      -8.945   4.042  66.440  1.00  0.00    -0.117 OA 
BRANCH   5   6
HETATM    6  C   UNL     1      -9.320   5.339  66.687  1.00  0.00    -0.138 A  
HETATM    7  C   UNL     1     -10.619   5.838  66.635  1.00  0.00    -0.347 A  
HETATM    8  C   UNL     1     -10.875   7.181  66.960  1.00  0.00    -0.382 A  
HETATM    9  C   UNL     1      -9.842   8.045  67.356  1.00  0.00    -0.244 A  
HETATM   10  C   UNL     1      -8.279   6.212  67.026  1.00  0.00    -0.106 A  
HETATM   11  C   UNL     1      -8.534   7.554  67.356  1.00  0.00    -0.115 A  
BRANCH   9  12
HETATM   12  C   UNL     1     -10.187   9.428  67.819  1.00  0.00    -0.273 C  
HETATM   13  C   UNL     1      -9.794  10.501  67.068  1.00  0.00    -0.223 C  
BRANCH  12  14
HETATM   14  C   UNL     1     -10.869   9.641  69.130  1.00  0.00    -0.212 A  
HETATM   15  C   UNL     1     -12.020  10.441  69.212  1.00  0.00    -0.105 A  
HETATM   16  C   UNL     1     -12.165  10.061  71.600  1.00  0.00    -0.456 A  
HETATM   17  C   UNL     1     -10.389   9.043  70.305  1.00  0.00    -0.243 A  
HETATM   18  C   UNL     1     -11.028   9.260  71.533  1.00  0.00    -0.446 A  
HETATM   19  C   UNL     1     -12.664  10.649  70.438  1.00  0.00    -0.340 A  
ENDBRANCH  12  14
BRANCH  13  20
HETATM   20  C   UNL     1      -9.813  11.961  67.519  1.00  0.00    -0.194 C  
HETATM   21  C   UNL     1     -10.825  12.851  66.809  1.00  0.00    -0.267 C  
HETATM   22 CL   UNL     1     -10.582  14.555  67.303  1.00  0.00    -0.277 Cl 
ENDBRANCH  13  20
BRANCH  13  23
HETATM   23  C   UNL     1      -9.147  10.338  65.733  1.00  0.00    -0.202 A  
HETATM   24  C   UNL     1      -7.939  10.063  63.211  1.00  0.00    -0.154 A  
HETATM   25  C   UNL     1      -7.750  10.331  65.609  1.00  0.00    -0.148 A  
HETATM   26  C   UNL     1      -7.150  10.196  64.353  1.00  0.00    -0.111 A  
HETATM   27  C   UNL     1      -9.326  10.046  63.327  1.00  0.00    -0.296 A  
HETATM   28  C   UNL     1      -9.928  10.179  64.581  1.00  0.00    -0.304 A  
ENDBRANCH  13  23
ENDBRANCH   9  12
ENDBRANCH   5   6
ENDBRANCH   4   5
ENDBRANCH   2   4
TORSDOF 7
ENDMDL
MODEL       74
REMARK 921   NORMALIZED FREE ENERGY PREDICTED BY IDOCK:   -4.42 KCAL/MOL
REMARK 922        TOTAL FREE ENERGY PREDICTED BY IDOCK:   -7.94 KCAL/MOL
REMARK 923 INTER-LIGAND FREE ENERGY PREDICTED BY IDOCK:   -5.98 KCAL/MOL
REMARK 924 INTRA-LIGAND FREE ENERGY PREDICTED BY IDOCK:   -1.96 KCAL/MOL
REMARK 927      BINDING AFFINITY PREDICTED BY RF-SCORE:    0.00 PKD
ROOT
HETATM    1  O   UNL     1     -11.477  10.174  67.731  1.00  0.00    -0.596 OA 
HETATM    2  C   UNL     1     -10.314   9.358  67.627  1.00  0.00    -0.246 C  
HETATM    3  H   UNL     1     -12.040   9.857  68.427  1.00  0.00     0.000 HD 
ENDROOT
BRANCH   2   4
HETATM    4  C   UNL     1      -9.407   9.869  66.506  1.00  0.00    -0.164 C  
BRANCH   4   5
HETATM    5  O   UNL     1      -8.214  10.431  67.064  1.00  0.00    -0.121 OA 
BRANCH   5   6
HETATM    6  C   UNL     1      -8.253  11.758  67.413  1.00  0.00    -0.160 A  
HETATM    7  C   UNL     1      -7.578  12.342  68.481  1.00  0.00    -0.122 A  
HETATM    8  C   UNL     1      -7.663  13.728  68.701  1.00  0.00    -0.120 A  
HETATM    9  C   UNL     1      -8.413  14.555  67.850  1.00  0.00    -0.161 A  
HETATM   10  C   UNL     1      -9.048  12.571  66.596  1.00  0.00    -0.203 A  
HETATM   11  C   UNL     1      -9.131  13.958  66.811  1.00  0.00    -0.238 A  
BRANCH   9  12
HETATM   12  C   UNL     1      -8.364  16.040  68.050  1.00  0.00    -0.162 C  
HETATM   13  C   UNL     1      -9.372  16.655  68.737  1.00  0.00    -0.256 C  
BRANCH  12  14
HETATM   14  C   UNL     1      -7.277  16.853  67.427  1.00  0.00    -0.186 A  
HETATM   15  C   UNL     1      -6.160  17.246  68.182  1.00  0.00    -0.139 A  
HETATM   16  C   UNL     1      -5.219  18.397  66.269  1.00  0.00    -0.179 A  
HETATM   17  C   UNL     1      -7.336  17.235  66.079  1.00  0.00    -0.225 A  
HETATM   18  C   UNL     1      -6.318  18.010  65.507  1.00  0.00    -0.203 A  
HETATM   19  C   UNL     1      -5.138  18.011  67.606  1.00  0.00    -0.134 A  
ENDBRANCH  12  14
BRANCH  13  20
HETATM   20  C   UNL     1      -9.625  18.161  68.794  1.00  0.00    -0.304 C  
HETATM   21  C   UNL     1     -10.463  18.727  67.653  1.00  0.00    -0.435 C  
HETATM   22 CL   UNL     1     -10.494  20.514  67.756  1.00  0.00    -0.247 Cl 
ENDBRANCH  13  20
BRANCH  13  23
HETATM   23  C   UNL     1     -10.456  15.883  69.412  1.00  0.00    -0.265 A  
HETATM   24  C   UNL     1     -12.484  14.399  70.669  1.00  0.00    -0.419 A  
HETATM   25  C   UNL     1     -10.458  15.716  70.805  1.00  0.00     0.091 A  
HETATM   26  C   UNL     1     -11.466  14.976  71.429  1.00  0.00    -0.369 A  
HETATM   27  C   UNL     1     -12.502  14.578  69.290  1.00  0.00    -0.066 A  
HETATM   28  C   UNL     1     -11.497  15.318  68.663  1.00  0.00    -0.350 A  
ENDBRANCH  13  23
ENDBRANCH   9  12
ENDBRANCH   5   6
ENDBRANCH   4   5
ENDBRANCH   2   4
TORSDOF 7
ENDMDL
MODEL       75
REMARK 921   NORMALIZED FREE ENERGY PREDICTED BY IDOCK:   -4.40 KCAL/MOL
REMARK 922        TOTAL FREE ENERGY PREDICTED BY IDOCK:   -7.92 KCAL/MOL
REMARK 923 INTER-LIGAND FREE ENERGY PREDICTED BY IDOCK:   -6.35 KCAL/MOL
REMARK 924 INTRA-LIGAND FREE ENERGY PREDICTED BY IDOCK:   -1.57 KCAL/MOL
REMARK 927      BINDING AFFINITY PREDICTED BY RF-SCORE:    0.00 PKD
ROOT
HETATM    1  O   UNL     1      -5.144  17.550  71.126  1.00  0.00    -0.381 OA 
HETATM    2  C   UNL     1      -5.330  16.970  69.838  1.00  0.00    -0.190 C  
HETATM    3  H   UNL     1      -4.685  18.379  71.050  1.00  0.00     0.000 HD 
ENDROOT
BRANCH   2   4
HETATM    4  C   UNL     1      -6.068  15.636  69.961  1.00  0.00    -0.149 C  
BRANCH   4   5
HETATM    5  O   UNL     1      -5.526  14.693  69.030  1.00  0.00    -0.088 OA 
BRANCH   5   6
HETATM    6  C   UNL     1      -6.413  13.853  68.405  1.00  0.00    -0.103 A  
HETATM    7  C   UNL     1      -6.081  12.794  67.564  1.00  0.00    -0.152 A  
HETATM    8  C   UNL     1      -7.088  11.975  67.024  1.00  0.00    -0.091 A  
HETATM    9  C   UNL     1      -8.442  12.192  67.325  1.00  0.00    -0.178 A  
HETATM   10  C   UNL     1      -7.766  14.107  68.661  1.00  0.00    -0.135 A  
HETATM   11  C   UNL     1      -8.775  13.286  68.126  1.00  0.00    -0.179 A  
BRANCH   9  12
HETATM   12  C   UNL     1      -9.463  11.212  66.831  1.00  0.00    -0.203 C  
HETATM   13  C   UNL     1      -9.453   9.934  67.318  1.00  0.00    -0.181 C  
BRANCH  12  14
HETATM   14  C   UNL     1     -10.422  11.594  65.752  1.00  0.00    -0.308 A  
HETATM   15  C   UNL     1     -11.628  12.239  66.068  1.00  0.00    -0.451 A  
HETATM   16  C   UNL     1     -12.249  12.316  63.727  1.00  0.00    -0.642 A  
HETATM   17  C   UNL     1     -10.141  11.332  64.403  1.00  0.00    -0.357 A  
HETATM   18  C   UNL     1     -11.053  11.682  63.398  1.00  0.00    -0.422 A  
HETATM   19  C   UNL     1     -12.535  12.599  65.062  1.00  0.00    -0.556 A  
ENDBRANCH  12  14
BRANCH  13  20
HETATM   20  C   UNL     1     -10.224   8.751  66.734  1.00  0.00    -0.354 C  
HETATM   21  C   UNL     1     -10.539   7.628  67.716  1.00  0.00    -0.196 C  
HETATM   22 CL   UNL     1     -11.258   6.243  66.838  1.00  0.00    -0.340 Cl 
ENDBRANCH  13  20
BRANCH  13  23
HETATM   23  C   UNL     1      -8.543   9.516  68.424  1.00  0.00    -0.120 A  
HETATM   24  C   UNL     1      -6.806   8.752  70.496  1.00  0.00    -0.046 A  
HETATM   25  C   UNL     1      -8.842   9.833  69.757  1.00  0.00    -0.241 A  
HETATM   26  C   UNL     1      -7.976   9.454  70.787  1.00  0.00    -0.154 A  
HETATM   27  C   UNL     1      -6.513   8.415  69.179  1.00  0.00    -0.043 A  
HETATM   28  C   UNL     1      -7.377   8.790  68.147  1.00  0.00    -0.087 A  
ENDBRANCH  13  23
ENDBRANCH   9  12
ENDBRANCH   5   6
ENDBRANCH   4   5
ENDBRANCH   2   4
TORSDOF 7
ENDMDL
MODEL       76
REMARK 921   NORMALIZED FREE ENERGY PREDICTED BY IDOCK:   -4.36 KCAL/MOL
REMARK 922        TOTAL FREE ENERGY PREDICTED BY IDOCK:   -7.87 KCAL/MOL
REMARK 923 INTER-LIGAND FREE ENERGY PREDICTED BY IDOCK:   -5.83 KCAL/MOL
REMARK 924 INTRA-LIGAND FREE ENERGY PREDICTED BY IDOCK:   -2.04 KCAL/MOL
REMARK 927      BINDING AFFINITY PREDICTED BY RF-SCORE:    0.00 PKD
ROOT
HETATM    1  O   UNL     1     -11.610  14.587  65.765  1.00  0.00    -0.347 OA 
HETATM    2  C   UNL     1     -11.798  14.482  67.173  1.00  0.00    -0.387 C  
HETATM    3  H   UNL     1     -11.620  15.500  65.499  1.00  0.00     0.000 HD 
ENDROOT
BRANCH   2   4
HETATM    4  C   UNL     1     -11.781  13.014  67.601  1.00  0.00    -0.366 C  
BRANCH   4   5
HETATM    5  O   UNL     1     -10.564  12.724  68.297  1.00  0.00    -0.224 OA 
BRANCH   5   6
HETATM    6  C   UNL     1     -10.092  11.438  68.218  1.00  0.00    -0.196 A  
HETATM    7  C   UNL     1      -8.829  11.006  68.615  1.00  0.00    -0.164 A  
HETATM    8  C   UNL     1      -8.485   9.646  68.528  1.00  0.00    -0.118 A  
HETATM    9  C   UNL     1      -9.400   8.693  68.054  1.00  0.00    -0.147 A  
HETATM   10  C   UNL     1     -10.987  10.499  67.692  1.00  0.00    -0.375 A  
HETATM   11  C   UNL     1     -10.646   9.137  67.607  1.00  0.00    -0.307 A  
BRANCH   9  12
HETATM   12  C   UNL     1      -9.030   7.241  68.105  1.00  0.00    -0.132 C  
HETATM   13  C   UNL     1      -9.355   6.508  69.212  1.00  0.00    -0.141 C  
BRANCH  12  14
HETATM   14  C   UNL     1      -8.234   6.622  67.003  1.00  0.00    -0.113 A  
HETATM   15  C   UNL     1      -6.836   6.541  67.094  1.00  0.00    -0.066 A  
HETATM   16  C   UNL     1      -6.716   5.462  64.927  1.00  0.00    -0.047 A  
HETATM   17  C   UNL     1      -8.859   6.097  65.862  1.00  0.00    -0.151 A  
HETATM   18  C   UNL     1      -8.104   5.530  64.827  1.00  0.00    -0.126 A  
HETATM   19  C   UNL     1      -6.082   5.964  66.063  1.00  0.00    -0.032 A  
ENDBRANCH  12  14
BRANCH  13  20
HETATM   20  C   UNL     1      -8.821   5.116  69.549  1.00  0.00    -0.120 C  
HETATM   21  C   UNL     1      -9.648   3.952  69.015  1.00  0.00    -0.138 C  
HETATM   22 CL   UNL     1      -9.008   2.410  69.662  1.00  0.00    -0.147 Cl 
ENDBRANCH  13  20
BRANCH  13  23
HETATM   23  C   UNL     1     -10.183   7.070  70.318  1.00  0.00    -0.206 A  
HETATM   24  C   UNL     1     -11.737   8.159  72.390  1.00  0.00    -0.461 A  
HETATM   25  C   UNL     1     -11.581   6.946  70.303  1.00  0.00    -0.362 A  
HETATM   26  C   UNL     1     -12.352   7.490  71.333  1.00  0.00    -0.374 A  
HETATM   27  C   UNL     1     -10.350   8.268  72.426  1.00  0.00    -0.402 A  
HETATM   28  C   UNL     1      -9.576   7.723  71.399  1.00  0.00    -0.182 A  
ENDBRANCH  13  23
ENDBRANCH   9  12
ENDBRANCH   5   6
ENDBRANCH   4   5
ENDBRANCH   2   4
TORSDOF 7
ENDMDL
MODEL       77
REMARK 921   NORMALIZED FREE ENERGY PREDICTED BY IDOCK:   -4.36 KCAL/MOL
REMARK 922        TOTAL FREE ENERGY PREDICTED BY IDOCK:   -7.86 KCAL/MOL
REMARK 923 INTER-LIGAND FREE ENERGY PREDICTED BY IDOCK:   -6.95 KCAL/MOL
REMARK 924 INTRA-LIGAND FREE ENERGY PREDICTED BY IDOCK:   -0.91 KCAL/MOL
REMARK 927      BINDING AFFINITY PREDICTED BY RF-SCORE:    0.00 PKD
ROOT
HETATM    1  O   UNL     1      -8.589   4.683  71.460  1.00  0.00    -0.111 OA 
HETATM    2  C   UNL     1      -7.444   5.483  71.740  1.00  0.00    -0.093 C  
HETATM    3  H   UNL     1      -8.826   4.171  72.225  1.00  0.00     0.000 HD 
ENDROOT
BRANCH   2   4
HETATM    4  C   UNL     1      -7.061   6.307  70.510  1.00  0.00    -0.069 C  
BRANCH   4   5
HETATM    5  O   UNL     1      -8.181   6.406  69.624  1.00  0.00    -0.121 OA 
BRANCH   5   6
HETATM    6  C   UNL     1      -8.849   7.605  69.593  1.00  0.00    -0.140 A  
HETATM    7  C   UNL     1      -8.482   8.762  70.275  1.00  0.00    -0.154 A  
HETATM    8  C   UNL     1      -9.228   9.943  70.119  1.00  0.00    -0.184 A  
HETATM    9  C   UNL     1     -10.345   9.992  69.271  1.00  0.00    -0.237 A  
HETATM   10  C   UNL     1      -9.996   7.634  68.791  1.00  0.00    -0.178 A  
HETATM   11  C   UNL     1     -10.742   8.816  68.630  1.00  0.00    -0.109 A  
BRANCH   9  12
HETATM   12  C   UNL     1     -11.025  11.307  69.038  1.00  0.00    -0.288 C  
HETATM   13  C   UNL     1     -10.792  11.983  67.873  1.00  0.00    -0.254 C  
BRANCH  12  14
HETATM   14  C   UNL     1     -11.875  11.921  70.102  1.00  0.00    -0.390 A  
HETATM   15  C   UNL     1     -11.949  13.316  70.237  1.00  0.00    -0.372 A  
HETATM   16  C   UNL     1     -13.468  13.096  72.112  1.00  0.00    -0.653 A  
HETATM   17  C   UNL     1     -12.625  11.126  70.982  1.00  0.00    -0.503 A  
HETATM   18  C   UNL     1     -13.409  11.710  71.986  1.00  0.00    -0.405 A  
HETATM   19  C   UNL     1     -12.742  13.899  71.235  1.00  0.00    -0.444 A  
ENDBRANCH  12  14
BRANCH  13  20
HETATM   20  C   UNL     1     -11.171  13.436  67.592  1.00  0.00    -0.302 C  
HETATM   21  C   UNL     1     -10.001  14.381  67.344  1.00  0.00    -0.242 C  
HETATM   22 CL   UNL     1     -10.597  16.065  67.235  1.00  0.00    -0.313 Cl 
ENDBRANCH  13  20
BRANCH  13  23
HETATM   23  C   UNL     1      -9.986  11.393  66.764  1.00  0.00    -0.238 A  
HETATM   24  C   UNL     1      -8.470  10.312  64.660  1.00  0.00    -0.179 A  
HETATM   25  C   UNL     1      -8.618  11.132  66.932  1.00  0.00    -0.148 A  
HETATM   26  C   UNL     1      -7.865  10.596  65.884  1.00  0.00    -0.150 A  
HETATM   27  C   UNL     1      -9.831  10.547  64.491  1.00  0.00    -0.401 A  
HETATM   28  C   UNL     1     -10.587  11.081  65.538  1.00  0.00    -0.267 A  
ENDBRANCH  13  23
ENDBRANCH   9  12
ENDBRANCH   5   6
ENDBRANCH   4   5
ENDBRANCH   2   4
TORSDOF 7
ENDMDL
MODEL       78
REMARK 921   NORMALIZED FREE ENERGY PREDICTED BY IDOCK:   -4.31 KCAL/MOL
REMARK 922        TOTAL FREE ENERGY PREDICTED BY IDOCK:   -7.79 KCAL/MOL
REMARK 923 INTER-LIGAND FREE ENERGY PREDICTED BY IDOCK:   -6.72 KCAL/MOL
REMARK 924 INTRA-LIGAND FREE ENERGY PREDICTED BY IDOCK:   -1.07 KCAL/MOL
REMARK 927      BINDING AFFINITY PREDICTED BY RF-SCORE:    0.00 PKD
ROOT
HETATM    1  O   UNL     1      -5.883   8.146  74.534  1.00  0.00    -0.094 OA 
HETATM    2  C   UNL     1      -6.134   7.185  73.513  1.00  0.00    -0.057 C  
HETATM    3  H   UNL     1      -5.887   7.726  75.387  1.00  0.00     0.000 HD 
ENDROOT
BRANCH   2   4
HETATM    4  C   UNL     1      -6.128   7.859  72.140  1.00  0.00    -0.041 C  
BRANCH   4   5
HETATM    5  O   UNL     1      -7.101   7.241  71.290  1.00  0.00    -0.063 OA 
BRANCH   5   6
HETATM    6  C   UNL     1      -8.053   8.058  70.736  1.00  0.00    -0.101 A  
HETATM    7  C   UNL     1      -9.372   7.705  70.460  1.00  0.00    -0.163 A  
HETATM    8  C   UNL     1     -10.265   8.655  69.934  1.00  0.00    -0.206 A  
HETATM    9  C   UNL     1      -9.860   9.976  69.688  1.00  0.00    -0.261 A  
HETATM   10  C   UNL     1      -7.631   9.359  70.438  1.00  0.00    -0.152 A  
HETATM   11  C   UNL     1      -8.524  10.312  69.916  1.00  0.00    -0.013 A  
BRANCH   9  12
HETATM   12  C   UNL     1     -10.883  10.981  69.253  1.00  0.00    -0.285 C  
HETATM   13  C   UNL     1     -10.915  11.380  67.945  1.00  0.00    -0.295 C  
BRANCH  12  14
HETATM   14  C   UNL     1     -11.799  11.612  70.250  1.00  0.00    -0.414 A  
HETATM   15  C   UNL     1     -12.548  10.817  71.132  1.00  0.00    -0.532 A  
HETATM   16  C   UNL     1     -13.539  12.789  72.134  1.00  0.00    -0.547 A  
HETATM   17  C   UNL     1     -11.927  13.007  70.339  1.00  0.00    -0.337 A  
HETATM   18  C   UNL     1     -12.798  13.590  71.269  1.00  0.00    -0.420 A  
HETATM   19  C   UNL     1     -13.410  11.402  72.068  1.00  0.00    -0.388 A  
ENDBRANCH  12  14
BRANCH  13  20
HETATM   20  C   UNL     1     -11.689  12.577  67.396  1.00  0.00    -0.432 C  
HETATM   21  C   UNL     1     -11.994  12.529  65.903  1.00  0.00    -0.409 C  
HETATM   22 CL   UNL     1     -12.718  14.082  65.384  1.00  0.00    -0.532 Cl 
ENDBRANCH  13  20
BRANCH  13  23
HETATM   23  C   UNL     1     -10.050  10.750  66.905  1.00  0.00    -0.255 A  
HETATM   24  C   UNL     1      -8.398   9.558  64.970  1.00  0.00    -0.148 A  
HETATM   25  C   UNL     1     -10.353   9.479  66.394  1.00  0.00    -0.243 A  
HETATM   26  C   UNL     1      -9.529   8.886  65.433  1.00  0.00    -0.086 A  
HETATM   27  C   UNL     1      -8.102  10.829  65.455  1.00  0.00    -0.050 A  
HETATM   28  C   UNL     1      -8.925  11.425  66.414  1.00  0.00    -0.196 A  
ENDBRANCH  13  23
ENDBRANCH   9  12
ENDBRANCH   5   6
ENDBRANCH   4   5
ENDBRANCH   2   4
TORSDOF 7
ENDMDL
MODEL       79
REMARK 921   NORMALIZED FREE ENERGY PREDICTED BY IDOCK:   -4.31 KCAL/MOL
REMARK 922        TOTAL FREE ENERGY PREDICTED BY IDOCK:   -7.79 KCAL/MOL
REMARK 923 INTER-LIGAND FREE ENERGY PREDICTED BY IDOCK:   -6.55 KCAL/MOL
REMARK 924 INTRA-LIGAND FREE ENERGY PREDICTED BY IDOCK:   -1.23 KCAL/MOL
REMARK 927      BINDING AFFINITY PREDICTED BY RF-SCORE:    0.00 PKD
ROOT
HETATM    1  O   UNL     1     -12.693  11.305  62.883  1.00  0.00    -0.876 OA 
HETATM    2  C   UNL     1     -12.164  12.102  63.939  1.00  0.00    -0.489 C  
HETATM    3  H   UNL     1     -12.570  10.382  63.076  1.00  0.00     0.000 HD 
ENDROOT
BRANCH   2   4
HETATM    4  C   UNL     1     -12.362  13.587  63.630  1.00  0.00    -0.310 C  
BRANCH   4   5
HETATM    5  O   UNL     1     -12.688  14.294  64.832  1.00  0.00    -0.637 OA 
BRANCH   5   6
HETATM    6  C   UNL     1     -11.643  14.678  65.633  1.00  0.00    -0.328 A  
HETATM    7  C   UNL     1     -11.651  14.715  67.025  1.00  0.00    -0.385 A  
HETATM    8  C   UNL     1     -10.493  15.082  67.732  1.00  0.00    -0.249 A  
HETATM    9  C   UNL     1      -9.303  15.405  67.061  1.00  0.00    -0.238 A  
HETATM   10  C   UNL     1     -10.474  15.055  64.960  1.00  0.00    -0.415 A  
HETATM   11  C   UNL     1      -9.313  15.418  65.664  1.00  0.00    -0.168 A  
BRANCH   9  12
HETATM   12  C   UNL     1      -8.062  15.660  67.862  1.00  0.00    -0.149 C  
HETATM   13  C   UNL     1      -7.346  14.598  68.340  1.00  0.00    -0.115 C  
BRANCH  12  14
HETATM   14  C   UNL     1      -7.660  17.054  68.215  1.00  0.00    -0.213 A  
HETATM   15  C   UNL     1      -8.633  18.027  68.496  1.00  0.00    -0.306 A  
HETATM   16  C   UNL     1      -6.917  19.695  68.876  1.00  0.00    -0.382 A  
HETATM   17  C   UNL     1      -6.308  17.425  68.287  1.00  0.00    -0.170 A  
HETATM   18  C   UNL     1      -5.940  18.739  68.606  1.00  0.00    -0.218 A  
HETATM   19  C   UNL     1      -8.263  19.337  68.825  1.00  0.00    -0.390 A  
ENDBRANCH  12  14
BRANCH  13  20
HETATM   20  C   UNL     1      -6.236  14.670  69.389  1.00  0.00    -0.115 C  
HETATM   21  C   UNL     1      -6.661  14.335  70.814  1.00  0.00     0.216 C  
HETATM   22 CL   UNL     1      -5.307  14.660  71.939  1.00  0.00    -0.122 Cl 
ENDBRANCH  13  20
BRANCH  13  23
HETATM   23  C   UNL     1      -7.683  13.190  67.981  1.00  0.00    -0.146 A  
HETATM   24  C   UNL     1      -8.290  10.528  67.318  1.00  0.00    -0.122 A  
HETATM   25  C   UNL     1      -8.716  12.509  68.641  1.00  0.00     0.047 A  
HETATM   26  C   UNL     1      -9.016  11.184  68.311  1.00  0.00    -0.166 A  
HETATM   27  C   UNL     1      -7.277  11.203  66.642  1.00  0.00    -0.144 A  
HETATM   28  C   UNL     1      -6.977  12.528  66.968  1.00  0.00     0.034 A  
ENDBRANCH  13  23
ENDBRANCH   9  12
ENDBRANCH   5   6
ENDBRANCH   4   5
ENDBRANCH   2   4
TORSDOF 7
ENDMDL
MODEL       80
REMARK 921   NORMALIZED FREE ENERGY PREDICTED BY IDOCK:   -4.30 KCAL/MOL
REMARK 922        TOTAL FREE ENERGY PREDICTED BY IDOCK:   -7.77 KCAL/MOL
REMARK 923 INTER-LIGAND FREE ENERGY PREDICTED BY IDOCK:   -5.71 KCAL/MOL
REMARK 924 INTRA-LIGAND FREE ENERGY PREDICTED BY IDOCK:   -2.06 KCAL/MOL
REMARK 927      BINDING AFFINITY PREDICTED BY RF-SCORE:    0.00 PKD
ROOT
HETATM    1  O   UNL     1      -5.211  12.747  73.311  1.00  0.00    -0.364 OA 
HETATM    2  C   UNL     1      -5.210  13.954  72.554  1.00  0.00    -0.196 C  
HETATM    3  H   UNL     1      -4.970  12.925  74.213  1.00  0.00     0.000 HD 
ENDROOT
BRANCH   2   4
HETATM    4  C   UNL     1      -5.598  13.668  71.102  1.00  0.00    -0.214 C  
BRANCH   4   5
HETATM    5  O   UNL     1      -5.720  12.255  70.901  1.00  0.00    -0.303 OA 
BRANCH   5   6
HETATM    6  C   UNL     1      -6.429  11.841  69.802  1.00  0.00    -0.094 A  
HETATM    7  C   UNL     1      -7.345  10.793  69.769  1.00  0.00    -0.072 A  
HETATM    8  C   UNL     1      -8.044  10.499  68.586  1.00  0.00    -0.127 A  
HETATM    9  C   UNL     1      -7.850  11.256  67.419  1.00  0.00    -0.128 A  
HETATM   10  C   UNL     1      -6.191  12.561  68.625  1.00  0.00    -0.069 A  
HETATM   11  C   UNL     1      -6.892  12.272  67.441  1.00  0.00    -0.145 A  
BRANCH   9  12
HETATM   12  C   UNL     1      -8.716  10.987  66.225  1.00  0.00    -0.178 C  
HETATM   13  C   UNL     1      -9.904  11.651  66.099  1.00  0.00    -0.250 C  
BRANCH  12  14
HETATM   14  C   UNL     1      -8.333   9.941  65.231  1.00  0.00    -0.153 A  
HETATM   15  C   UNL     1      -7.742  10.301  64.010  1.00  0.00    -0.100 A  
HETATM   16  C   UNL     1      -7.612   7.977  63.338  1.00  0.00    -0.130 A  
HETATM   17  C   UNL     1      -8.542   8.578  65.492  1.00  0.00    -0.204 A  
HETATM   18  C   UNL     1      -8.192   7.604  64.548  1.00  0.00    -0.053 A  
HETATM   19  C   UNL     1      -7.383   9.326  63.071  1.00  0.00    -0.105 A  
ENDBRANCH  12  14
BRANCH  13  20
HETATM   20  C   UNL     1     -11.020  11.304  65.114  1.00  0.00    -0.216 C  
HETATM   21  C   UNL     1     -11.294  12.352  64.041  1.00  0.00    -0.399 C  
HETATM   22 CL   UNL     1     -12.748  11.890  63.104  1.00  0.00    -0.522 Cl 
ENDBRANCH  13  20
BRANCH  13  23
HETATM   23  C   UNL     1     -10.310  12.733  67.042  1.00  0.00    -0.240 A  
HETATM   24  C   UNL     1     -11.095  14.784  68.795  1.00  0.00    -0.277 A  
HETATM   25  C   UNL     1     -11.166  12.461  68.120  1.00  0.00    -0.313 A  
HETATM   26  C   UNL     1     -11.557  13.483  68.990  1.00  0.00    -0.356 A  
HETATM   27  C   UNL     1     -10.228  15.059  67.742  1.00  0.00    -0.236 A  
HETATM   28  C   UNL     1      -9.834  14.039  66.872  1.00  0.00    -0.267 A  
ENDBRANCH  13  23
ENDBRANCH   9  12
ENDBRANCH   5   6
ENDBRANCH   4   5
ENDBRANCH   2   4
TORSDOF 7
ENDMDL
MODEL       81
REMARK 921   NORMALIZED FREE ENERGY PREDICTED BY IDOCK:   -4.29 KCAL/MOL
REMARK 922        TOTAL FREE ENERGY PREDICTED BY IDOCK:   -7.76 KCAL/MOL
REMARK 923 INTER-LIGAND FREE ENERGY PREDICTED BY IDOCK:   -5.85 KCAL/MOL
REMARK 924 INTRA-LIGAND FREE ENERGY PREDICTED BY IDOCK:   -1.91 KCAL/MOL
REMARK 927      BINDING AFFINITY PREDICTED BY RF-SCORE:    0.00 PKD
ROOT
HETATM    1  O   UNL     1      -6.531   5.907  65.228  1.00  0.00    -0.040 OA 
HETATM    2  C   UNL     1      -6.166   6.387  63.937  1.00  0.00    -0.026 C  
HETATM    3  H   UNL     1      -6.914   5.040  65.159  1.00  0.00     0.000 HD 
ENDROOT
BRANCH   2   4
HETATM    4  C   UNL     1      -5.548   7.782  64.048  1.00  0.00    -0.045 C  
BRANCH   4   5
HETATM    5  O   UNL     1      -6.401   8.743  63.416  1.00  0.00    -0.088 OA 
BRANCH   5   6
HETATM    6  C   UNL     1      -7.334   9.364  64.208  1.00  0.00    -0.109 A  
HETATM    7  C   UNL     1      -8.677   9.555  63.892  1.00  0.00    -0.238 A  
HETATM    8  C   UNL     1      -9.543  10.165  64.815  1.00  0.00    -0.378 A  
HETATM    9  C   UNL     1      -9.086  10.584  66.075  1.00  0.00    -0.191 A  
HETATM   10  C   UNL     1      -6.862   9.832  65.440  1.00  0.00    -0.101 A  
HETATM   11  C   UNL     1      -7.728  10.439  66.367  1.00  0.00    -0.125 A  
BRANCH   9  12
HETATM   12  C   UNL     1     -10.076  11.107  67.071  1.00  0.00    -0.235 C  
HETATM   13  C   UNL     1     -10.532  10.278  68.058  1.00  0.00    -0.234 C  
BRANCH  12  14
HETATM   14  C   UNL     1     -10.631  12.487  66.936  1.00  0.00    -0.255 A  
HETATM   15  C   UNL     1     -11.672  12.750  66.031  1.00  0.00    -0.470 A  
HETATM   16  C   UNL     1     -11.686  15.089  66.663  1.00  0.00    -0.144 A  
HETATM   17  C   UNL     1     -10.140  13.547  67.712  1.00  0.00    -0.236 A  
HETATM   18  C   UNL     1     -10.658  14.841  67.569  1.00  0.00    -0.259 A  
HETATM   19  C   UNL     1     -12.196  14.042  65.896  1.00  0.00    -0.481 A  
ENDBRANCH  12  14
BRANCH  13  20
HETATM   20  C   UNL     1     -11.727  10.550  68.971  1.00  0.00    -0.242 C  
HETATM   21  C   UNL     1     -11.452  10.419  70.464  1.00  0.00    -0.345 C  
HETATM   22 CL   UNL     1     -12.986  10.568  71.375  1.00  0.00    -0.513 Cl 
ENDBRANCH  13  20
BRANCH  13  23
HETATM   23  C   UNL     1      -9.977   8.908  68.259  1.00  0.00    -0.201 A  
HETATM   24  C   UNL     1      -8.947   6.325  68.668  1.00  0.00    -0.127 A  
HETATM   25  C   UNL     1     -10.500   7.812  67.557  1.00  0.00    -0.338 A  
HETATM   26  C   UNL     1      -9.989   6.528  67.763  1.00  0.00    -0.154 A  
HETATM   27  C   UNL     1      -8.407   7.410  69.353  1.00  0.00    -0.132 A  
HETATM   28  C   UNL     1      -8.915   8.695  69.148  1.00  0.00    -0.142 A  
ENDBRANCH  13  23
ENDBRANCH   9  12
ENDBRANCH   5   6
ENDBRANCH   4   5
ENDBRANCH   2   4
TORSDOF 7
ENDMDL
MODEL       82
REMARK 921   NORMALIZED FREE ENERGY PREDICTED BY IDOCK:   -4.24 KCAL/MOL
REMARK 922        TOTAL FREE ENERGY PREDICTED BY IDOCK:   -7.69 KCAL/MOL
REMARK 923 INTER-LIGAND FREE ENERGY PREDICTED BY IDOCK:   -5.91 KCAL/MOL
REMARK 924 INTRA-LIGAND FREE ENERGY PREDICTED BY IDOCK:   -1.78 KCAL/MOL
REMARK 927      BINDING AFFINITY PREDICTED BY RF-SCORE:    0.00 PKD
ROOT
HETATM    1  O   UNL     1     -10.630  15.039  70.784  1.00  0.00    -0.532 OA 
HETATM    2  C   UNL     1     -11.857  14.445  70.369  1.00  0.00    -0.312 C  
HETATM    3  H   UNL     1     -10.556  15.012  71.731  1.00  0.00     0.000 HD 
ENDROOT
BRANCH   2   4
HETATM    4  C   UNL     1     -11.977  14.488  68.845  1.00  0.00    -0.290 C  
BRANCH   4   5
HETATM    5  O   UNL     1     -10.696  14.250  68.250  1.00  0.00    -0.237 OA 
BRANCH   5   6
HETATM    6  C   UNL     1     -10.330  12.942  68.059  1.00  0.00    -0.227 A  
HETATM    7  C   UNL     1      -9.042  12.427  68.179  1.00  0.00    -0.200 A  
HETATM    8  C   UNL     1      -8.808  11.053  68.004  1.00  0.00    -0.138 A  
HETATM    9  C   UNL     1      -9.858  10.166  67.718  1.00  0.00    -0.190 A  
HETATM   10  C   UNL     1     -11.371  12.069  67.718  1.00  0.00    -0.370 A  
HETATM   11  C   UNL     1     -11.140  10.693  67.546  1.00  0.00    -0.367 A  
BRANCH   9  12
HETATM   12  C   UNL     1      -9.576   8.695  67.672  1.00  0.00    -0.190 C  
HETATM   13  C   UNL     1      -9.074   8.147  66.525  1.00  0.00    -0.216 C  
BRANCH  12  14
HETATM   14  C   UNL     1      -9.924   7.819  68.830  1.00  0.00    -0.185 A  
HETATM   15  C   UNL     1      -9.087   7.760  69.956  1.00  0.00    -0.150 A  
HETATM   16  C   UNL     1     -10.564   6.162  71.023  1.00  0.00    -0.301 A  
HETATM   17  C   UNL     1     -11.094   7.044  68.830  1.00  0.00    -0.102 A  
HETATM   18  C   UNL     1     -11.406   6.215  69.915  1.00  0.00    -0.454 A  
HETATM   19  C   UNL     1      -9.406   6.939  71.045  1.00  0.00    -0.156 A  
ENDBRANCH  12  14
BRANCH  13  20
HETATM   20  C   UNL     1      -8.991   6.653  66.211  1.00  0.00    -0.168 C  
HETATM   21  C   UNL     1      -7.738   5.948  66.714  1.00  0.00    -0.100 C  
HETATM   22 CL   UNL     1      -7.700   4.268  66.095  1.00  0.00    -0.090 Cl 
ENDBRANCH  13  20
BRANCH  13  23
HETATM   23  C   UNL     1      -8.671   8.985  65.358  1.00  0.00    -0.221 A  
HETATM   24  C   UNL     1      -7.923  10.591  63.177  1.00  0.00    -0.083 A  
HETATM   25  C   UNL     1      -7.318   9.156  65.029  1.00  0.00    -0.100 A  
HETATM   26  C   UNL     1      -6.947   9.957  63.946  1.00  0.00    -0.124 A  
HETATM   27  C   UNL     1      -9.268  10.409  63.482  1.00  0.00    -0.310 A  
HETATM   28  C   UNL     1      -9.643   9.608  64.563  1.00  0.00    -0.094 A  
ENDBRANCH  13  23
ENDBRANCH   9  12
ENDBRANCH   5   6
ENDBRANCH   4   5
ENDBRANCH   2   4
TORSDOF 7
ENDMDL
MODEL       83
REMARK 921   NORMALIZED FREE ENERGY PREDICTED BY IDOCK:   -4.20 KCAL/MOL
REMARK 922        TOTAL FREE ENERGY PREDICTED BY IDOCK:   -7.63 KCAL/MOL
REMARK 923 INTER-LIGAND FREE ENERGY PREDICTED BY IDOCK:   -7.83 KCAL/MOL
REMARK 924 INTRA-LIGAND FREE ENERGY PREDICTED BY IDOCK:    0.20 KCAL/MOL
REMARK 927      BINDING AFFINITY PREDICTED BY RF-SCORE:    0.00 PKD
ROOT
HETATM    1  O   UNL     1      -7.649  19.317  65.561  1.00  0.00    -0.445 OA 
HETATM    2  C   UNL     1      -8.390  19.694  66.718  1.00  0.00    -0.308 C  
HETATM    3  H   UNL     1      -6.905  19.897  65.444  1.00  0.00     0.000 HD 
ENDROOT
BRANCH   2   4
HETATM    4  C   UNL     1      -9.586  18.760  66.907  1.00  0.00    -0.309 C  
BRANCH   4   5
HETATM    5  O   UNL     1      -9.688  17.869  65.792  1.00  0.00    -0.527 OA 
BRANCH   5   6
HETATM    6  C   UNL     1      -9.874  16.538  66.071  1.00  0.00    -0.322 A  
HETATM    7  C   UNL     1     -10.966  15.766  65.682  1.00  0.00    -0.248 A  
HETATM    8  C   UNL     1     -11.012  14.396  65.991  1.00  0.00    -0.316 A  
HETATM    9  C   UNL     1      -9.963  13.771  66.684  1.00  0.00    -0.279 A  
HETATM   10  C   UNL     1      -8.853  15.930  66.811  1.00  0.00    -0.294 A  
HETATM   11  C   UNL     1      -8.895  14.559  67.119  1.00  0.00    -0.245 A  
BRANCH   9  12
HETATM   12  C   UNL     1     -10.000  12.284  66.872  1.00  0.00    -0.223 C  
HETATM   13  C   UNL     1     -10.547  11.769  68.015  1.00  0.00    -0.235 C  
BRANCH  12  14
HETATM   14  C   UNL     1      -9.366  11.376  65.871  1.00  0.00    -0.247 A  
HETATM   15  C   UNL     1     -10.109  10.879  64.789  1.00  0.00    -0.383 A  
HETATM   16  C   UNL     1      -8.184   9.653  63.975  1.00  0.00    -0.159 A  
HETATM   17  C   UNL     1      -8.016  11.007  65.977  1.00  0.00    -0.094 A  
HETATM   18  C   UNL     1      -7.433  10.143  65.040  1.00  0.00    -0.140 A  
HETATM   19  C   UNL     1      -9.522  10.025  63.847  1.00  0.00    -0.280 A  
ENDBRANCH  12  14
BRANCH  13  20
HETATM   20  C   UNL     1     -10.420  10.323  68.492  1.00  0.00    -0.217 C  
HETATM   21  C   UNL     1      -9.223  10.035  69.391  1.00  0.00    -0.216 C  
HETATM   22 CL   UNL     1      -9.106   8.274  69.692  1.00  0.00    -0.153 Cl 
ENDBRANCH  13  20
BRANCH  13  23
HETATM   23  C   UNL     1     -11.229  12.631  69.023  1.00  0.00    -0.322 A  
HETATM   24  C   UNL     1     -12.537  14.263  70.900  1.00  0.00    -0.426 A  
HETATM   25  C   UNL     1     -11.912  12.063  70.109  1.00  0.00    -0.401 A  
HETATM   26  C   UNL     1     -12.564  12.875  71.041  1.00  0.00    -0.376 A  
HETATM   27  C   UNL     1     -11.844  14.836  69.839  1.00  0.00    -0.364 A  
HETATM   28  C   UNL     1     -11.189  14.027  68.907  1.00  0.00    -0.303 A  
ENDBRANCH  13  23
ENDBRANCH   9  12
ENDBRANCH   5   6
ENDBRANCH   4   5
ENDBRANCH   2   4
TORSDOF 7
ENDMDL
MODEL       84
REMARK 921   NORMALIZED FREE ENERGY PREDICTED BY IDOCK:   -4.19 KCAL/MOL
REMARK 922        TOTAL FREE ENERGY PREDICTED BY IDOCK:   -7.62 KCAL/MOL
REMARK 923 INTER-LIGAND FREE ENERGY PREDICTED BY IDOCK:   -5.86 KCAL/MOL
REMARK 924 INTRA-LIGAND FREE ENERGY PREDICTED BY IDOCK:   -1.77 KCAL/MOL
REMARK 927      BINDING AFFINITY PREDICTED BY RF-SCORE:    0.00 PKD
ROOT
HETATM    1  O   UNL     1     -10.986  15.659  70.831  1.00  0.00    -0.328 OA 
HETATM    2  C   UNL     1     -12.224  14.964  70.716  1.00  0.00    -0.325 C  
HETATM    3  H   UNL     1     -10.761  15.780  71.746  1.00  0.00     0.000 HD 
ENDROOT
BRANCH   2   4
HETATM    4  C   UNL     1     -12.587  14.770  69.243  1.00  0.00     0.130 C  
BRANCH   4   5
HETATM    5  O   UNL     1     -11.414  14.436  68.493  1.00  0.00    -0.266 OA 
BRANCH   5   6
HETATM    6  C   UNL     1     -10.923  13.163  68.638  1.00  0.00    -0.265 A  
HETATM    7  C   UNL     1      -9.577  12.809  68.704  1.00  0.00    -0.028 A  
HETATM    8  C   UNL     1      -9.206  11.468  68.903  1.00  0.00     0.005 A  
HETATM    9  C   UNL     1     -10.171  10.460  69.053  1.00  0.00    -0.233 A  
HETATM   10  C   UNL     1     -11.887  12.152  68.730  1.00  0.00    -0.356 A  
HETATM   11  C   UNL     1     -11.518  10.810  68.933  1.00  0.00    -0.362 A  
BRANCH   9  12
HETATM   12  C   UNL     1      -9.725   9.070  69.395  1.00  0.00    -0.169 C  
HETATM   13  C   UNL     1      -9.115   8.310  68.437  1.00  0.00    -0.136 C  
BRANCH  12  14
HETATM   14  C   UNL     1     -10.025   8.486  70.737  1.00  0.00    -0.230 A  
HETATM   15  C   UNL     1      -9.096   8.594  71.783  1.00  0.00    -0.317 A  
HETATM   16  C   UNL     1     -10.572   7.380  73.274  1.00  0.00    -0.442 A  
HETATM   17  C   UNL     1     -11.238   7.828  70.988  1.00  0.00    -0.282 A  
HETATM   18  C   UNL     1     -11.505   7.271  72.246  1.00  0.00    -0.316 A  
HETATM   19  C   UNL     1      -9.368   8.046  73.044  1.00  0.00    -0.344 A  
ENDBRANCH  12  14
BRANCH  13  20
HETATM   20  C   UNL     1      -8.853   6.807  68.523  1.00  0.00    -0.123 C  
HETATM   21  C   UNL     1      -9.974   5.917  67.999  1.00  0.00    -0.137 C  
HETATM   22 CL   UNL     1      -9.600   4.203  68.355  1.00  0.00    -0.210 Cl 
ENDBRANCH  13  20
BRANCH  13  23
HETATM   23  C   UNL     1      -8.758   8.862  67.098  1.00  0.00    -0.126 A  
HETATM   24  C   UNL     1      -8.071   9.872  64.567  1.00  0.00    -0.149 A  
HETATM   25  C   UNL     1      -9.748   9.104  66.134  1.00  0.00    -0.357 A  
HETATM   26  C   UNL     1      -9.404   9.604  64.875  1.00  0.00    -0.306 A  
HETATM   27  C   UNL     1      -7.084   9.656  65.525  1.00  0.00    -0.098 A  
HETATM   28  C   UNL     1      -7.424   9.158  66.785  1.00  0.00    -0.087 A  
ENDBRANCH  13  23
ENDBRANCH   9  12
ENDBRANCH   5   6
ENDBRANCH   4   5
ENDBRANCH   2   4
TORSDOF 7
ENDMDL
MODEL       85
REMARK 921   NORMALIZED FREE ENERGY PREDICTED BY IDOCK:   -4.18 KCAL/MOL
REMARK 922        TOTAL FREE ENERGY PREDICTED BY IDOCK:   -7.61 KCAL/MOL
REMARK 923 INTER-LIGAND FREE ENERGY PREDICTED BY IDOCK:   -6.03 KCAL/MOL
REMARK 924 INTRA-LIGAND FREE ENERGY PREDICTED BY IDOCK:   -1.59 KCAL/MOL
REMARK 927      BINDING AFFINITY PREDICTED BY RF-SCORE:    0.00 PKD
ROOT
HETATM    1  O   UNL     1      -8.413   8.185  72.226  1.00  0.00    -0.139 OA 
HETATM    2  C   UNL     1      -7.004   8.327  72.067  1.00  0.00    -0.087 C  
HETATM    3  H   UNL     1      -8.604   7.575  72.929  1.00  0.00     0.000 HD 
ENDROOT
BRANCH   2   4
HETATM    4  C   UNL     1      -6.696   9.309  70.936  1.00  0.00    -0.094 C  
BRANCH   4   5
HETATM    5  O   UNL     1      -7.544   9.040  69.814  1.00  0.00    -0.067 OA 
BRANCH   5   6
HETATM    6  C   UNL     1      -7.886  10.106  69.020  1.00  0.00    -0.107 A  
HETATM    7  C   UNL     1      -7.112  10.641  67.993  1.00  0.00    -0.085 A  
HETATM    8  C   UNL     1      -7.601  11.708  67.219  1.00  0.00    -0.147 A  
HETATM    9  C   UNL     1      -8.876  12.249  67.449  1.00  0.00    -0.185 A  
HETATM   10  C   UNL     1      -9.134  10.680  69.288  1.00  0.00    -0.117 A  
HETATM   11  C   UNL     1      -9.627  11.744  68.513  1.00  0.00    -0.173 A  
BRANCH   9  12
HETATM   12  C   UNL     1      -9.402  13.294  66.512  1.00  0.00    -0.221 C  
HETATM   13  C   UNL     1      -8.995  14.590  66.661  1.00  0.00    -0.247 C  
BRANCH  12  14
HETATM   14  C   UNL     1     -10.430  12.945  65.486  1.00  0.00    -0.305 A  
HETATM   15  C   UNL     1     -11.793  13.168  65.738  1.00  0.00    -0.442 A  
HETATM   16  C   UNL     1     -12.384  12.284  63.561  1.00  0.00    -0.670 A  
HETATM   17  C   UNL     1     -10.063  12.399  64.246  1.00  0.00    -0.305 A  
HETATM   18  C   UNL     1     -11.035  12.063  63.294  1.00  0.00    -0.399 A  
HETATM   19  C   UNL     1     -12.762  12.841  64.782  1.00  0.00    -0.469 A  
ENDBRANCH  12  14
BRANCH  13  20
HETATM   20  C   UNL     1      -9.630  15.808  65.990  1.00  0.00    -0.388 C  
HETATM   21  C   UNL     1      -9.652  17.080  66.830  1.00  0.00    -0.264 C  
HETATM   22 CL   UNL     1     -10.600  18.343  65.987  1.00  0.00    -0.417 Cl 
ENDBRANCH  13  20
BRANCH  13  23
HETATM   23  C   UNL     1      -7.942  14.981  67.643  1.00  0.00    -0.178 A  
HETATM   24  C   UNL     1      -5.955  15.684  69.501  1.00  0.00    -0.130 A  
HETATM   25  C   UNL     1      -6.656  15.339  67.211  1.00  0.00    -0.010 A  
HETATM   26  C   UNL     1      -5.668  15.687  68.136  1.00  0.00    -0.133 A  
HETATM   27  C   UNL     1      -7.233  15.351  69.938  1.00  0.00    -0.061 A  
HETATM   28  C   UNL     1      -8.224  15.005  69.015  1.00  0.00    -0.187 A  
ENDBRANCH  13  23
ENDBRANCH   9  12
ENDBRANCH   5   6
ENDBRANCH   4   5
ENDBRANCH   2   4
TORSDOF 7
ENDMDL
MODEL       86
REMARK 921   NORMALIZED FREE ENERGY PREDICTED BY IDOCK:   -4.16 KCAL/MOL
REMARK 922        TOTAL FREE ENERGY PREDICTED BY IDOCK:   -7.58 KCAL/MOL
REMARK 923 INTER-LIGAND FREE ENERGY PREDICTED BY IDOCK:   -6.69 KCAL/MOL
REMARK 924 INTRA-LIGAND FREE ENERGY PREDICTED BY IDOCK:   -0.89 KCAL/MOL
REMARK 927      BINDING AFFINITY PREDICTED BY RF-SCORE:    0.00 PKD
ROOT
HETATM    1  O   UNL     1      -9.538   5.634  71.434  1.00  0.00    -0.150 OA 
HETATM    2  C   UNL     1      -9.578   4.850  70.246  1.00  0.00    -0.195 C  
HETATM    3  H   UNL     1     -10.294   5.446  71.977  1.00  0.00     0.000 HD 
ENDROOT
BRANCH   2   4
HETATM    4  C   UNL     1      -8.360   5.151  69.371  1.00  0.00    -0.090 C  
BRANCH   4   5
HETATM    5  O   UNL     1      -8.786   5.694  68.116  1.00  0.00    -0.104 OA 
BRANCH   5   6
HETATM    6  C   UNL     1      -9.142   7.019  68.098  1.00  0.00    -0.128 A  
HETATM    7  C   UNL     1      -8.522   8.042  68.812  1.00  0.00    -0.127 A  
HETATM    8  C   UNL     1      -8.956   9.371  68.667  1.00  0.00    -0.132 A  
HETATM    9  C   UNL     1     -10.006   9.704  67.797  1.00  0.00    -0.211 A  
HETATM   10  C   UNL     1     -10.228   7.340  67.274  1.00  0.00    -0.323 A  
HETATM   11  C   UNL     1     -10.660   8.669  67.124  1.00  0.00    -0.304 A  
BRANCH   9  12
HETATM   12  C   UNL     1     -10.341  11.148  67.579  1.00  0.00    -0.228 C  
HETATM   13  C   UNL     1      -9.913  11.768  66.439  1.00  0.00    -0.237 C  
BRANCH  12  14
HETATM   14  C   UNL     1     -11.053  11.930  68.634  1.00  0.00    -0.295 A  
HETATM   15  C   UNL     1     -10.974  13.331  68.657  1.00  0.00    -0.294 A  
HETATM   16  C   UNL     1     -12.385  13.420  70.625  1.00  0.00    -0.423 A  
HETATM   17  C   UNL     1     -11.823  11.290  69.617  1.00  0.00    -0.430 A  
HETATM   18  C   UNL     1     -12.477  12.030  70.611  1.00  0.00    -0.335 A  
HETATM   19  C   UNL     1     -11.637  14.071  69.645  1.00  0.00    -0.348 A  
ENDBRANCH  12  14
BRANCH  13  20
HETATM   20  C   UNL     1      -9.921  13.275  66.185  1.00  0.00    -0.295 C  
HETATM   21  C   UNL     1     -11.072  13.788  65.328  1.00  0.00    -0.313 C  
HETATM   22 CL   UNL     1     -10.825  15.523  64.961  1.00  0.00    -0.449 Cl 
ENDBRANCH  13  20
BRANCH  13  23
HETATM   23  C   UNL     1      -9.236  11.022  65.339  1.00  0.00    -0.232 A  
HETATM   24  C   UNL     1      -7.960   9.587  63.287  1.00  0.00    -0.143 A  
HETATM   25  C   UNL     1      -9.930  10.683  64.168  1.00  0.00    -0.406 A  
HETATM   26  C   UNL     1      -9.295   9.967  63.149  1.00  0.00    -0.297 A  
HETATM   27  C   UNL     1      -7.257   9.938  64.435  1.00  0.00    -0.134 A  
HETATM   28  C   UNL     1      -7.888  10.655  65.455  1.00  0.00    -0.070 A  
ENDBRANCH  13  23
ENDBRANCH   9  12
ENDBRANCH   5   6
ENDBRANCH   4   5
ENDBRANCH   2   4
TORSDOF 7
ENDMDL
MODEL       87
REMARK 921   NORMALIZED FREE ENERGY PREDICTED BY IDOCK:   -4.07 KCAL/MOL
REMARK 922        TOTAL FREE ENERGY PREDICTED BY IDOCK:   -7.45 KCAL/MOL
REMARK 923 INTER-LIGAND FREE ENERGY PREDICTED BY IDOCK:   -5.64 KCAL/MOL
REMARK 924 INTRA-LIGAND FREE ENERGY PREDICTED BY IDOCK:   -1.81 KCAL/MOL
REMARK 927      BINDING AFFINITY PREDICTED BY RF-SCORE:    0.00 PKD
ROOT
HETATM    1  O   UNL     1      -5.585  17.177  70.369  1.00  0.00    -0.227 OA 
HETATM    2  C   UNL     1      -5.432  16.037  69.528  1.00  0.00    -0.122 C  
HETATM    3  H   UNL     1      -4.749  17.615  70.483  1.00  0.00     0.000 HD 
ENDROOT
BRANCH   2   4
HETATM    4  C   UNL     1      -6.777  15.332  69.344  1.00  0.00    -0.164 C  
BRANCH   4   5
HETATM    5  O   UNL     1      -6.679  13.975  69.791  1.00  0.00    -0.115 OA 
BRANCH   5   6
HETATM    6  C   UNL     1      -7.237  13.012  68.989  1.00  0.00     0.014 A  
HETATM    7  C   UNL     1      -6.646  11.803  68.631  1.00  0.00    -0.065 A  
HETATM    8  C   UNL     1      -7.347  10.877  67.840  1.00  0.00    -0.088 A  
HETATM    9  C   UNL     1      -8.657  11.136  67.405  1.00  0.00    -0.137 A  
HETATM   10  C   UNL     1      -8.521  13.298  68.510  1.00  0.00    -0.067 A  
HETATM   11  C   UNL     1      -9.227  12.371  67.722  1.00  0.00    -0.193 A  
BRANCH   9  12
HETATM   12  C   UNL     1      -9.407  10.062  66.677  1.00  0.00    -0.202 C  
HETATM   13  C   UNL     1     -10.070   9.106  67.396  1.00  0.00    -0.289 C  
BRANCH  12  14
HETATM   14  C   UNL     1      -9.359   9.979  65.187  1.00  0.00    -0.302 A  
HETATM   15  C   UNL     1     -10.137  10.842  64.400  1.00  0.00    -0.419 A  
HETATM   16  C   UNL     1      -9.284   9.828  62.370  1.00  0.00    -0.294 A  
HETATM   17  C   UNL     1      -8.532   9.050  64.537  1.00  0.00    -0.191 A  
HETATM   18  C   UNL     1      -8.502   8.969  63.139  1.00  0.00    -0.185 A  
HETATM   19  C   UNL     1     -10.099  10.768  63.001  1.00  0.00    -0.207 A  
ENDBRANCH  12  14
BRANCH  13  20
HETATM   20  C   UNL     1     -10.641   7.805  66.836  1.00  0.00    -0.347 C  
HETATM   21  C   UNL     1      -9.759   6.574  67.012  1.00  0.00    -0.151 C  
HETATM   22 CL   UNL     1     -10.473   5.188  66.131  1.00  0.00    -0.306 Cl 
ENDBRANCH  13  20
BRANCH  13  23
HETATM   23  C   UNL     1     -10.182   9.170  68.882  1.00  0.00    -0.221 A  
HETATM   24  C   UNL     1     -10.367   9.312  71.682  1.00  0.00    -0.300 A  
HETATM   25  C   UNL     1     -11.264   9.821  69.493  1.00  0.00    -0.181 A  
HETATM   26  C   UNL     1     -11.354   9.893  70.886  1.00  0.00    -0.446 A  
HETATM   27  C   UNL     1      -9.302   8.646  71.086  1.00  0.00    -0.274 A  
HETATM   28  C   UNL     1      -9.210   8.570  69.694  1.00  0.00    -0.157 A  
ENDBRANCH  13  23
ENDBRANCH   9  12
ENDBRANCH   5   6
ENDBRANCH   4   5
ENDBRANCH   2   4
TORSDOF 7
ENDMDL
MODEL       88
REMARK 921   NORMALIZED FREE ENERGY PREDICTED BY IDOCK:   -4.06 KCAL/MOL
REMARK 922        TOTAL FREE ENERGY PREDICTED BY IDOCK:   -7.45 KCAL/MOL
REMARK 923 INTER-LIGAND FREE ENERGY PREDICTED BY IDOCK:   -6.53 KCAL/MOL
REMARK 924 INTRA-LIGAND FREE ENERGY PREDICTED BY IDOCK:   -0.92 KCAL/MOL
REMARK 927      BINDING AFFINITY PREDICTED BY RF-SCORE:    0.00 PKD
ROOT
HETATM    1  O   UNL     1      -9.403   8.812  62.380  1.00  0.00    -0.508 OA 
HETATM    2  C   UNL     1      -8.099   9.298  62.686  1.00  0.00    -0.146 C  
HETATM    3  H   UNL     1      -9.775   9.304  61.657  1.00  0.00     0.000 HD 
ENDROOT
BRANCH   2   4
HETATM    4  C   UNL     1      -7.499   8.507  63.849  1.00  0.00    -0.118 C  
BRANCH   4   5
HETATM    5  O   UNL     1      -7.361   9.356  64.994  1.00  0.00    -0.100 OA 
BRANCH   5   6
HETATM    6  C   UNL     1      -8.171   9.091  66.069  1.00  0.00    -0.113 A  
HETATM    7  C   UNL     1      -9.367   8.377  66.035  1.00  0.00    -0.244 A  
HETATM    8  C   UNL     1     -10.080   8.132  67.220  1.00  0.00    -0.309 A  
HETATM    9  C   UNL     1      -9.606   8.583  68.462  1.00  0.00    -0.158 A  
HETATM   10  C   UNL     1      -7.724   9.591  67.298  1.00  0.00    -0.091 A  
HETATM   11  C   UNL     1      -8.434   9.343  68.486  1.00  0.00    -0.119 A  
BRANCH   9  12
HETATM   12  C   UNL     1     -10.334   8.181  69.709  1.00  0.00    -0.216 C  
HETATM   13  C   UNL     1     -10.185   6.910  70.190  1.00  0.00    -0.208 C  
BRANCH  12  14
HETATM   14  C   UNL     1     -11.285   9.124  70.369  1.00  0.00    -0.279 A  
HETATM   15  C   UNL     1     -12.018   8.723  71.497  1.00  0.00    -0.386 A  
HETATM   16  C   UNL     1     -13.091  10.892  71.624  1.00  0.00    -0.538 A  
HETATM   17  C   UNL     1     -11.462  10.432  69.892  1.00  0.00    -0.368 A  
HETATM   18  C   UNL     1     -12.366  11.306  70.509  1.00  0.00    -0.446 A  
HETATM   19  C   UNL     1     -12.914   9.601  72.121  1.00  0.00    -0.493 A  
ENDBRANCH  12  14
BRANCH  13  20
HETATM   20  C   UNL     1     -11.050   6.255  71.265  1.00  0.00    -0.345 C  
HETATM   21  C   UNL     1     -10.287   5.507  72.352  1.00  0.00    -0.206 C  
HETATM   22 CL   UNL     1     -11.441   4.636  73.409  1.00  0.00    -0.399 Cl 
ENDBRANCH  13  20
BRANCH  13  23
HETATM   23  C   UNL     1      -9.217   5.946  69.590  1.00  0.00    -0.151 A  
HETATM   24  C   UNL     1      -7.386   4.119  68.491  1.00  0.00    -0.056 A  
HETATM   25  C   UNL     1      -9.667   4.843  68.849  1.00  0.00    -0.242 A  
HETATM   26  C   UNL     1      -8.756   3.934  68.305  1.00  0.00    -0.126 A  
HETATM   27  C   UNL     1      -6.929   5.222  69.206  1.00  0.00    -0.055 A  
HETATM   28  C   UNL     1      -7.837   6.134  69.749  1.00  0.00    -0.106 A  
ENDBRANCH  13  23
ENDBRANCH   9  12
ENDBRANCH   5   6
ENDBRANCH   4   5
ENDBRANCH   2   4
TORSDOF 7
ENDMDL
MODEL       89
REMARK 921   NORMALIZED FREE ENERGY PREDICTED BY IDOCK:   -4.06 KCAL/MOL
REMARK 922        TOTAL FREE ENERGY PREDICTED BY IDOCK:   -7.45 KCAL/MOL
REMARK 923 INTER-LIGAND FREE ENERGY PREDICTED BY IDOCK:   -6.16 KCAL/MOL
REMARK 924 INTRA-LIGAND FREE ENERGY PREDICTED BY IDOCK:   -1.28 KCAL/MOL
REMARK 927      BINDING AFFINITY PREDICTED BY RF-SCORE:    0.00 PKD
ROOT
HETATM    1  O   UNL     1      -5.571   6.813  65.964  1.00  0.00    -0.024 OA 
HETATM    2  C   UNL     1      -5.272   7.267  64.647  1.00  0.00    -0.029 C  
HETATM    3  H   UNL     1      -5.618   5.864  65.981  1.00  0.00     0.000 HD 
ENDROOT
BRANCH   2   4
HETATM    4  C   UNL     1      -5.195   8.795  64.619  1.00  0.00    -0.039 C  
BRANCH   4   5
HETATM    5  O   UNL     1      -6.418   9.334  64.106  1.00  0.00    -0.086 OA 
BRANCH   5   6
HETATM    6  C   UNL     1      -7.386   9.665  65.020  1.00  0.00    -0.117 A  
HETATM    7  C   UNL     1      -8.742   9.366  64.919  1.00  0.00    -0.220 A  
HETATM    8  C   UNL     1      -9.625   9.720  65.953  1.00  0.00    -0.313 A  
HETATM    9  C   UNL     1      -9.168  10.368  67.111  1.00  0.00    -0.159 A  
HETATM   10  C   UNL     1      -6.935  10.362  66.148  1.00  0.00    -0.126 A  
HETATM   11  C   UNL     1      -7.817  10.714  67.186  1.00  0.00    -0.117 A  
BRANCH   9  12
HETATM   12  C   UNL     1     -10.126  10.605  68.239  1.00  0.00    -0.176 C  
HETATM   13  C   UNL     1     -10.912  11.724  68.224  1.00  0.00    -0.274 C  
BRANCH  12  14
HETATM   14  C   UNL     1     -10.159   9.683  69.413  1.00  0.00    -0.213 A  
HETATM   15  C   UNL     1      -9.071   9.618  70.298  1.00  0.00    -0.272 A  
HETATM   16  C   UNL     1     -10.202   7.940  71.631  1.00  0.00    -0.239 A  
HETATM   17  C   UNL     1     -11.274   8.870  69.668  1.00  0.00     0.035 A  
HETATM   18  C   UNL     1     -11.291   7.998  70.764  1.00  0.00    -0.282 A  
HETATM   19  C   UNL     1      -9.094   8.754  71.401  1.00  0.00    -0.313 A  
ENDBRANCH  12  14
BRANCH  13  20
HETATM   20  C   UNL     1     -11.726  12.258  69.401  1.00  0.00    -0.392 C  
HETATM   21  C   UNL     1     -11.632  13.762  69.632  1.00  0.00    -0.281 C  
HETATM   22 CL   UNL     1     -12.470  14.193  71.154  1.00  0.00    -0.421 Cl 
ENDBRANCH  13  20
BRANCH  13  23
HETATM   23  C   UNL     1     -10.946  12.651  67.056  1.00  0.00    -0.300 A  
HETATM   24  C   UNL     1     -11.024  14.422  64.875  1.00  0.00    -0.416 A  
HETATM   25  C   UNL     1      -9.774  13.275  66.602  1.00  0.00    -0.270 A  
HETATM   26  C   UNL     1      -9.815  14.158  65.518  1.00  0.00    -0.260 A  
HETATM   27  C   UNL     1     -12.187  13.790  65.304  1.00  0.00    -0.461 A  
HETATM   28  C   UNL     1     -12.150  12.906  66.386  1.00  0.00    -0.400 A  
ENDBRANCH  13  23
ENDBRANCH   9  12
ENDBRANCH   5   6
ENDBRANCH   4   5
ENDBRANCH   2   4
TORSDOF 7
ENDMDL
MODEL       90
REMARK 921   NORMALIZED FREE ENERGY PREDICTED BY IDOCK:   -4.03 KCAL/MOL
REMARK 922        TOTAL FREE ENERGY PREDICTED BY IDOCK:   -7.40 KCAL/MOL
REMARK 923 INTER-LIGAND FREE ENERGY PREDICTED BY IDOCK:   -5.55 KCAL/MOL
REMARK 924 INTRA-LIGAND FREE ENERGY PREDICTED BY IDOCK:   -1.85 KCAL/MOL
REMARK 927      BINDING AFFINITY PREDICTED BY RF-SCORE:    0.00 PKD
ROOT
HETATM    1  O   UNL     1      -9.816   1.932  67.804  1.00  0.00    -0.385 OA 
HETATM    2  C   UNL     1      -8.714   1.878  66.903  1.00  0.00    -0.115 C  
HETATM    3  H   UNL     1      -9.808   1.176  68.379  1.00  0.00     0.000 HD 
ENDROOT
BRANCH   2   4
HETATM    4  C   UNL     1      -8.727   3.095  65.977  1.00  0.00    -0.129 C  
BRANCH   4   5
HETATM    5  O   UNL     1     -10.005   3.738  66.037  1.00  0.00    -0.127 OA 
BRANCH   5   6
HETATM    6  C   UNL     1     -10.011   5.105  66.160  1.00  0.00    -0.194 A  
HETATM    7  C   UNL     1     -11.009   5.866  66.763  1.00  0.00    -0.280 A  
HETATM    8  C   UNL     1     -10.871   7.261  66.868  1.00  0.00    -0.265 A  
HETATM    9  C   UNL     1      -9.728   7.918  66.384  1.00  0.00    -0.235 A  
HETATM   10  C   UNL     1      -8.896   5.762  65.626  1.00  0.00    -0.141 A  
HETATM   11  C   UNL     1      -8.754   7.157  65.734  1.00  0.00    -0.125 A  
BRANCH   9  12
HETATM   12  C   UNL     1      -9.570   9.386  66.639  1.00  0.00    -0.250 C  
HETATM   13  C   UNL     1      -8.958   9.802  67.789  1.00  0.00    -0.132 C  
BRANCH  12  14
HETATM   14  C   UNL     1     -10.153  10.387  65.697  1.00  0.00    -0.337 A  
HETATM   15  C   UNL     1      -9.680  10.485  64.379  1.00  0.00    -0.388 A  
HETATM   16  C   UNL     1     -11.240  12.278  63.907  1.00  0.00    -0.488 A  
HETATM   17  C   UNL     1     -11.191  11.243  66.097  1.00  0.00    -0.133 A  
HETATM   18  C   UNL     1     -11.724  12.188  65.210  1.00  0.00    -0.364 A  
HETATM   19  C   UNL     1     -10.221  11.423  63.490  1.00  0.00    -0.461 A  
ENDBRANCH  12  14
BRANCH  13  20
HETATM   20  C   UNL     1      -8.961  11.230  68.334  1.00  0.00    -0.167 C  
HETATM   21  C   UNL     1      -7.880  12.146  67.773  1.00  0.00    -0.148 C  
HETATM   22 CL   UNL     1      -7.892  13.704  68.655  1.00  0.00    -0.125 Cl 
ENDBRANCH  13  20
BRANCH  13  23
HETATM   23  C   UNL     1      -8.323   8.843  68.739  1.00  0.00    -0.123 A  
HETATM   24  C   UNL     1      -7.148   7.013  70.518  1.00  0.00    -0.064 A  
HETATM   25  C   UNL     1      -7.018   8.377  68.523  1.00  0.00    -0.069 A  
HETATM   26  C   UNL     1      -6.435   7.465  69.408  1.00  0.00    -0.036 A  
HETATM   27  C   UNL     1      -8.435   7.486  70.752  1.00  0.00    -0.126 A  
HETATM   28  C   UNL     1      -9.020   8.400  69.871  1.00  0.00    -0.142 A  
ENDBRANCH  13  23
ENDBRANCH   9  12
ENDBRANCH   5   6
ENDBRANCH   4   5
ENDBRANCH   2   4
TORSDOF 7
ENDMDL
MODEL       91
REMARK 921   NORMALIZED FREE ENERGY PREDICTED BY IDOCK:   -4.00 KCAL/MOL
REMARK 922        TOTAL FREE ENERGY PREDICTED BY IDOCK:   -7.35 KCAL/MOL
REMARK 923 INTER-LIGAND FREE ENERGY PREDICTED BY IDOCK:   -5.61 KCAL/MOL
REMARK 924 INTRA-LIGAND FREE ENERGY PREDICTED BY IDOCK:   -1.75 KCAL/MOL
REMARK 927      BINDING AFFINITY PREDICTED BY RF-SCORE:    0.00 PKD
ROOT
HETATM    1  O   UNL     1     -11.324   2.425  63.674  1.00  0.00    -0.603 OA 
HETATM    2  C   UNL     1      -9.909   2.539  63.551  1.00  0.00    -0.125 C  
HETATM    3  H   UNL     1     -11.641   1.697  63.152  1.00  0.00     0.000 HD 
ENDROOT
BRANCH   2   4
HETATM    4  C   UNL     1      -9.398   3.711  64.391  1.00  0.00    -0.146 C  
BRANCH   4   5
HETATM    5  O   UNL     1     -10.398   4.102  65.338  1.00  0.00    -0.215 OA 
BRANCH   5   6
HETATM    6  C   UNL     1     -10.185   5.273  66.022  1.00  0.00    -0.126 A  
HETATM    7  C   UNL     1     -11.123   5.945  66.801  1.00  0.00    -0.157 A  
HETATM    8  C   UNL     1     -10.763   7.115  67.493  1.00  0.00    -0.344 A  
HETATM    9  C   UNL     1      -9.457   7.625  67.428  1.00  0.00    -0.175 A  
HETATM   10  C   UNL     1      -8.898   5.810  65.910  1.00  0.00    -0.153 A  
HETATM   11  C   UNL     1      -8.533   6.978  66.604  1.00  0.00    -0.121 A  
BRANCH   9  12
HETATM   12  C   UNL     1      -9.090   8.797  68.288  1.00  0.00    -0.141 C  
HETATM   13  C   UNL     1      -8.690   9.961  67.694  1.00  0.00    -0.121 C  
BRANCH  12  14
HETATM   14  C   UNL     1      -9.072   8.670  69.776  1.00  0.00    -0.150 A  
HETATM   15  C   UNL     1     -10.182   9.068  70.538  1.00  0.00    -0.268 A  
HETATM   16  C   UNL     1      -9.050   8.446  72.588  1.00  0.00    -0.311 A  
HETATM   17  C   UNL     1      -7.958   8.145  70.447  1.00  0.00    -0.099 A  
HETATM   18  C   UNL     1      -7.944   8.042  71.844  1.00  0.00    -0.140 A  
HETATM   19  C   UNL     1     -10.171   8.955  71.934  1.00  0.00    -0.403 A  
ENDBRANCH  12  14
BRANCH  13  20
HETATM   20  C   UNL     1      -8.025  11.141  68.402  1.00  0.00    -0.137 C  
HETATM   21  C   UNL     1      -8.515  12.520  67.975  1.00  0.00    -0.173 C  
HETATM   22 CL   UNL     1      -7.505  13.784  68.741  1.00  0.00    -0.115 Cl 
ENDBRANCH  13  20
BRANCH  13  23
HETATM   23  C   UNL     1      -8.731  10.150  66.215  1.00  0.00    -0.152 A  
HETATM   24  C   UNL     1      -8.804  10.472  63.424  1.00  0.00    -0.210 A  
HETATM   25  C   UNL     1      -9.936  10.450  65.563  1.00  0.00    -0.348 A  
HETATM   26  C   UNL     1      -9.972  10.607  64.174  1.00  0.00    -0.406 A  
HETATM   27  C   UNL     1      -7.600  10.196  64.064  1.00  0.00    -0.128 A  
HETATM   28  C   UNL     1      -7.561  10.040  65.452  1.00  0.00    -0.138 A  
ENDBRANCH  13  23
ENDBRANCH   9  12
ENDBRANCH   5   6
ENDBRANCH   4   5
ENDBRANCH   2   4
TORSDOF 7
ENDMDL
MODEL       92
REMARK 921   NORMALIZED FREE ENERGY PREDICTED BY IDOCK:   -3.99 KCAL/MOL
REMARK 922        TOTAL FREE ENERGY PREDICTED BY IDOCK:   -7.34 KCAL/MOL
REMARK 923 INTER-LIGAND FREE ENERGY PREDICTED BY IDOCK:   -5.52 KCAL/MOL
REMARK 924 INTRA-LIGAND FREE ENERGY PREDICTED BY IDOCK:   -1.83 KCAL/MOL
REMARK 927      BINDING AFFINITY PREDICTED BY RF-SCORE:    0.00 PKD
ROOT
HETATM    1  O   UNL     1     -10.534   4.720  62.463  1.00  0.00    -0.386 OA 
HETATM    2  C   UNL     1     -10.277   3.427  63.004  1.00  0.00    -0.167 C  
HETATM    3  H   UNL     1     -10.752   4.652  61.541  1.00  0.00     0.000 HD 
ENDROOT
BRANCH   2   4
HETATM    4  C   UNL     1      -9.927   3.535  64.489  1.00  0.00    -0.171 C  
BRANCH   4   5
HETATM    5  O   UNL     1      -9.374   4.827  64.765  1.00  0.00    -0.141 OA 
BRANCH   5   6
HETATM    6  C   UNL     1      -9.550   5.323  66.032  1.00  0.00    -0.149 A  
HETATM    7  C   UNL     1     -10.772   5.513  66.673  1.00  0.00    -0.332 A  
HETATM    8  C   UNL     1     -10.813   5.985  67.996  1.00  0.00    -0.374 A  
HETATM    9  C   UNL     1      -9.635   6.262  68.707  1.00  0.00    -0.128 A  
HETATM   10  C   UNL     1      -8.375   5.653  66.718  1.00  0.00    -0.108 A  
HETATM   11  C   UNL     1      -8.414   6.121  68.044  1.00  0.00    -0.116 A  
BRANCH   9  12
HETATM   12  C   UNL     1      -9.729   6.635  70.155  1.00  0.00    -0.174 C  
HETATM   13  C   UNL     1      -9.540   7.938  70.523  1.00  0.00    -0.170 C  
BRANCH  12  14
HETATM   14  C   UNL     1      -9.936   5.585  71.197  1.00  0.00    -0.253 A  
HETATM   15  C   UNL     1      -9.021   4.530  71.336  1.00  0.00    -0.165 A  
HETATM   16  C   UNL     1     -10.316   3.590  73.155  1.00  0.00    -0.242 A  
HETATM   17  C   UNL     1     -11.036   5.631  72.067  1.00  0.00    -0.302 A  
HETATM   18  C   UNL     1     -11.229   4.634  73.033  1.00  0.00    -0.312 A  
HETATM   19  C   UNL     1      -9.209   3.540  72.309  1.00  0.00    -0.158 A  
ENDBRANCH  12  14
BRANCH  13  20
HETATM   20  C   UNL     1      -9.326   8.440  71.951  1.00  0.00    -0.313 C  
HETATM   21  C   UNL     1      -7.975   8.101  72.568  1.00  0.00    -0.144 C  
HETATM   22 CL   UNL     1      -7.962   8.578  74.293  1.00  0.00    -0.221 Cl 
ENDBRANCH  13  20
BRANCH  13  23
HETATM   23  C   UNL     1      -9.372   9.027  69.518  1.00  0.00    -0.160 A  
HETATM   24  C   UNL     1      -9.044  11.057  67.602  1.00  0.00    -0.145 A  
HETATM   25  C   UNL     1     -10.488   9.612  68.900  1.00  0.00    -0.234 A  
HETATM   26  C   UNL     1     -10.323  10.620  67.946  1.00  0.00    -0.231 A  
HETATM   27  C   UNL     1      -7.933  10.499  68.226  1.00  0.00    -0.113 A  
HETATM   28  C   UNL     1      -8.094   9.493  69.182  1.00  0.00    -0.103 A  
ENDBRANCH  13  23
ENDBRANCH   9  12
ENDBRANCH   5   6
ENDBRANCH   4   5
ENDBRANCH   2   4
TORSDOF 7
ENDMDL
MODEL       93
REMARK 921   NORMALIZED FREE ENERGY PREDICTED BY IDOCK:   -3.89 KCAL/MOL
REMARK 922        TOTAL FREE ENERGY PREDICTED BY IDOCK:   -7.20 KCAL/MOL
REMARK 923 INTER-LIGAND FREE ENERGY PREDICTED BY IDOCK:   -5.58 KCAL/MOL
REMARK 924 INTRA-LIGAND FREE ENERGY PREDICTED BY IDOCK:   -1.62 KCAL/MOL
REMARK 927      BINDING AFFINITY PREDICTED BY RF-SCORE:    0.00 PKD
ROOT
HETATM    1  O   UNL     1      -5.874  11.448  65.356  1.00  0.00    -0.462 OA 
HETATM    2  C   UNL     1      -6.412  10.522  66.296  1.00  0.00    -0.114 C  
HETATM    3  H   UNL     1      -5.088  11.091  64.957  1.00  0.00     0.000 HD 
ENDROOT
BRANCH   2   4
HETATM    4  C   UNL     1      -7.676  11.095  66.938  1.00  0.00    -0.148 C  
BRANCH   4   5
HETATM    5  O   UNL     1      -8.821  10.354  66.501  1.00  0.00    -0.136 OA 
BRANCH   5   6
HETATM    6  C   UNL     1      -9.058   9.151  67.116  1.00  0.00    -0.126 A  
HETATM    7  C   UNL     1     -10.023   8.219  66.744  1.00  0.00    -0.355 A  
HETATM    8  C   UNL     1     -10.131   6.997  67.430  1.00  0.00    -0.252 A  
HETATM    9  C   UNL     1      -9.267   6.679  68.490  1.00  0.00    -0.127 A  
HETATM   10  C   UNL     1      -8.232   8.861  68.209  1.00  0.00    -0.121 A  
HETATM   11  C   UNL     1      -8.335   7.637  68.894  1.00  0.00    -0.129 A  
BRANCH   9  12
HETATM   12  C   UNL     1      -9.337   5.311  69.100  1.00  0.00    -0.166 C  
HETATM   13  C   UNL     1      -9.921   5.156  70.326  1.00  0.00    -0.320 C  
BRANCH  12  14
HETATM   14  C   UNL     1      -8.694   4.145  68.423  1.00  0.00    -0.122 A  
HETATM   15  C   UNL     1      -9.468   3.235  67.685  1.00  0.00    -0.214 A  
HETATM   16  C   UNL     1      -7.498   1.932  67.146  1.00  0.00    -0.060 A  
HETATM   17  C   UNL     1      -7.309   3.934  68.496  1.00  0.00    -0.055 A  
HETATM   18  C   UNL     1      -6.717   2.830  67.869  1.00  0.00    -0.040 A  
HETATM   19  C   UNL     1      -8.874   2.137  67.050  1.00  0.00    -0.149 A  
ENDBRANCH  12  14
BRANCH  13  20
HETATM   20  C   UNL     1      -9.832   3.909  71.205  1.00  0.00    -0.227 C  
HETATM   21  C   UNL     1      -8.606   3.831  72.108  1.00  0.00    -0.095 C  
HETATM   22 CL   UNL     1      -8.550   2.233  72.913  1.00  0.00    -0.066 Cl 
ENDBRANCH  13  20
BRANCH  13  23
HETATM   23  C   UNL     1     -10.611   6.280  71.022  1.00  0.00    -0.289 A  
HETATM   24  C   UNL     1     -11.931   8.376  72.349  1.00  0.00    -0.451 A  
HETATM   25  C   UNL     1      -9.943   7.043  71.991  1.00  0.00    -0.172 A  
HETATM   26  C   UNL     1     -10.601   8.084  72.652  1.00  0.00    -0.419 A  
HETATM   27  C   UNL     1     -12.595   7.640  71.373  1.00  0.00    -0.359 A  
HETATM   28  C   UNL     1     -11.940   6.600  70.709  1.00  0.00    -0.412 A  
ENDBRANCH  13  23
ENDBRANCH   9  12
ENDBRANCH   5   6
ENDBRANCH   4   5
ENDBRANCH   2   4
TORSDOF 7
ENDMDL
MODEL       94
REMARK 921   NORMALIZED FREE ENERGY PREDICTED BY IDOCK:   -3.84 KCAL/MOL
REMARK 922        TOTAL FREE ENERGY PREDICTED BY IDOCK:   -7.14 KCAL/MOL
REMARK 923 INTER-LIGAND FREE ENERGY PREDICTED BY IDOCK:   -5.29 KCAL/MOL
REMARK 924 INTRA-LIGAND FREE ENERGY PREDICTED BY IDOCK:   -1.85 KCAL/MOL
REMARK 927      BINDING AFFINITY PREDICTED BY RF-SCORE:    0.00 PKD
ROOT
HETATM    1  O   UNL     1     -12.530  13.774  65.283  1.00  0.00    -0.437 OA 
HETATM    2  C   UNL     1     -11.877  12.509  65.352  1.00  0.00    -0.428 C  
HETATM    3  H   UNL     1     -13.012  13.850  64.468  1.00  0.00     0.000 HD 
ENDROOT
BRANCH   2   4
HETATM    4  C   UNL     1     -11.101  12.386  66.664  1.00  0.00    -0.289 C  
BRANCH   4   5
HETATM    5  O   UNL     1     -11.816  11.544  67.574  1.00  0.00    -0.605 OA 
BRANCH   5   6
HETATM    6  C   UNL     1     -11.084  10.613  68.269  1.00  0.00    -0.279 A  
HETATM    7  C   UNL     1     -10.556  10.777  69.547  1.00  0.00    -0.235 A  
HETATM    8  C   UNL     1      -9.865   9.724  70.169  1.00  0.00    -0.306 A  
HETATM    9  C   UNL     1      -9.701   8.484  69.532  1.00  0.00    -0.176 A  
HETATM   10  C   UNL     1     -10.873   9.397  67.607  1.00  0.00    -0.222 A  
HETATM   11  C   UNL     1     -10.186   8.340  68.229  1.00  0.00    -0.246 A  
BRANCH   9  12
HETATM   12  C   UNL     1      -9.073   7.353  70.289  1.00  0.00    -0.151 C  
HETATM   13  C   UNL     1      -7.907   6.807  69.830  1.00  0.00    -0.115 C  
BRANCH  12  14
HETATM   14  C   UNL     1      -9.757   6.765  71.480  1.00  0.00    -0.168 A  
HETATM   15  C   UNL     1      -9.453   7.221  72.772  1.00  0.00    -0.190 A  
HETATM   16  C   UNL     1     -11.034   5.660  73.739  1.00  0.00    -0.106 A  
HETATM   17  C   UNL     1     -10.723   5.758  71.339  1.00  0.00    -0.319 A  
HETATM   18  C   UNL     1     -11.350   5.202  72.462  1.00  0.00    -0.193 A  
HETATM   19  C   UNL     1     -10.089   6.672  73.894  1.00  0.00    -0.349 A  
ENDBRANCH  12  14
BRANCH  13  20
HETATM   20  C   UNL     1      -7.288   5.494  70.307  1.00  0.00    -0.068 C  
HETATM   21  C   UNL     1      -6.189   5.632  71.353  1.00  0.00    -0.035 C  
HETATM   22 CL   UNL     1      -5.436   4.035  71.652  1.00  0.00    -0.007 Cl 
ENDBRANCH  13  20
BRANCH  13  23
HETATM   23  C   UNL     1      -7.166   7.385  68.671  1.00  0.00    -0.090 A  
HETATM   24  C   UNL     1      -5.740   8.464  66.504  1.00  0.00    -0.043 A  
HETATM   25  C   UNL     1      -7.180   6.749  67.421  1.00  0.00    -0.090 A  
HETATM   26  C   UNL     1      -6.468   7.285  66.344  1.00  0.00    -0.048 A  
HETATM   27  C   UNL     1      -5.739   9.114  67.734  1.00  0.00    -0.038 A  
HETATM   28  C   UNL     1      -6.450   8.581  68.812  1.00  0.00    -0.053 A  
ENDBRANCH  13  23
ENDBRANCH   9  12
ENDBRANCH   5   6
ENDBRANCH   4   5
ENDBRANCH   2   4
TORSDOF 7
ENDMDL
MODEL       95
REMARK 921   NORMALIZED FREE ENERGY PREDICTED BY IDOCK:   -3.84 KCAL/MOL
REMARK 922        TOTAL FREE ENERGY PREDICTED BY IDOCK:   -7.12 KCAL/MOL
REMARK 923 INTER-LIGAND FREE ENERGY PREDICTED BY IDOCK:   -5.61 KCAL/MOL
REMARK 924 INTRA-LIGAND FREE ENERGY PREDICTED BY IDOCK:   -1.51 KCAL/MOL
REMARK 927      BINDING AFFINITY PREDICTED BY RF-SCORE:    0.00 PKD
ROOT
HETATM    1  O   UNL     1     -11.662  13.596  63.745  1.00  0.00    -0.622 OA 
HETATM    2  C   UNL     1     -12.270  14.430  64.727  1.00  0.00    -0.446 C  
HETATM    3  H   UNL     1     -11.806  13.953  62.877  1.00  0.00     0.000 HD 
ENDROOT
BRANCH   2   4
HETATM    4  C   UNL     1     -12.037  13.857  66.126  1.00  0.00    -0.448 C  
BRANCH   4   5
HETATM    5  O   UNL     1     -10.632  13.766  66.386  1.00  0.00    -0.279 OA 
BRANCH   5   6
HETATM    6  C   UNL     1     -10.105  12.508  66.536  1.00  0.00    -0.238 A  
HETATM    7  C   UNL     1      -8.970  12.180  67.274  1.00  0.00    -0.184 A  
HETATM    8  C   UNL     1      -8.562  10.840  67.388  1.00  0.00    -0.126 A  
HETATM    9  C   UNL     1      -9.287   9.804  66.779  1.00  0.00    -0.190 A  
HETATM   10  C   UNL     1     -10.797  11.483  65.880  1.00  0.00    -0.316 A  
HETATM   11  C   UNL     1     -10.393  10.142  65.996  1.00  0.00    -0.234 A  
BRANCH   9  12
HETATM   12  C   UNL     1      -8.885   8.384  67.041  1.00  0.00    -0.146 C  
HETATM   13  C   UNL     1      -8.049   7.753  66.162  1.00  0.00    -0.113 C  
BRANCH  12  14
HETATM   14  C   UNL     1      -9.463   7.633  68.196  1.00  0.00    -0.150 A  
HETATM   15  C   UNL     1     -10.687   6.958  68.066  1.00  0.00    -0.276 A  
HETATM   16  C   UNL     1     -10.571   6.217  70.370  1.00  0.00    -0.317 A  
HETATM   17  C   UNL     1      -8.797   7.573  69.429  1.00  0.00    -0.136 A  
HETATM   18  C   UNL     1      -9.353   6.877  70.512  1.00  0.00    -0.159 A  
HETATM   19  C   UNL     1     -11.236   6.254  69.145  1.00  0.00    -0.439 A  
ENDBRANCH  12  14
BRANCH  13  20
HETATM   20  C   UNL     1      -7.766   6.252  66.121  1.00  0.00    -0.096 C  
HETATM   21  C   UNL     1      -6.610   5.829  65.222  1.00  0.00    -0.043 C  
HETATM   22 CL   UNL     1      -6.540   4.043  65.128  1.00  0.00    -0.046 Cl 
ENDBRANCH  13  20
BRANCH  13  23
HETATM   23  C   UNL     1      -7.415   8.471  65.019  1.00  0.00    -0.089 A  
HETATM   24  C   UNL     1      -6.244   9.849  62.868  1.00  0.00    -0.119 A  
HETATM   25  C   UNL     1      -6.192   9.138  65.181  1.00  0.00    -0.061 A  
HETATM   26  C   UNL     1      -5.611   9.825  64.110  1.00  0.00    -0.083 A  
HETATM   27  C   UNL     1      -7.447   9.172  62.692  1.00  0.00    -0.097 A  
HETATM   28  C   UNL     1      -8.029   8.483  63.759  1.00  0.00    -0.161 A  
ENDBRANCH  13  23
ENDBRANCH   9  12
ENDBRANCH   5   6
ENDBRANCH   4   5
ENDBRANCH   2   4
TORSDOF 7
ENDMDL
MODEL       96
REMARK 921   NORMALIZED FREE ENERGY PREDICTED BY IDOCK:   -3.80 KCAL/MOL
REMARK 922        TOTAL FREE ENERGY PREDICTED BY IDOCK:   -7.08 KCAL/MOL
REMARK 923 INTER-LIGAND FREE ENERGY PREDICTED BY IDOCK:   -5.20 KCAL/MOL
REMARK 924 INTRA-LIGAND FREE ENERGY PREDICTED BY IDOCK:   -1.88 KCAL/MOL
REMARK 927      BINDING AFFINITY PREDICTED BY RF-SCORE:    0.00 PKD
ROOT
HETATM    1  O   UNL     1     -12.371  13.443  71.186  1.00  0.00    -0.349 OA 
HETATM    2  C   UNL     1     -13.108  12.446  71.890  1.00  0.00    -0.366 C  
HETATM    3  H   UNL     1     -12.462  14.284  71.618  1.00  0.00     0.000 HD 
ENDROOT
BRANCH   2   4
HETATM    4  C   UNL     1     -12.962  11.092  71.195  1.00  0.00    -0.324 C  
BRANCH   4   5
HETATM    5  O   UNL     1     -11.596  10.880  70.824  1.00  0.00    -0.312 OA 
BRANCH   5   6
HETATM    6  C   UNL     1     -11.211   9.587  70.570  1.00  0.00    -0.287 A  
HETATM    7  C   UNL     1     -12.031   8.463  70.635  1.00  0.00    -0.032 A  
HETATM    8  C   UNL     1     -11.524   7.196  70.301  1.00  0.00    -0.287 A  
HETATM    9  C   UNL     1     -10.193   7.031  69.884  1.00  0.00    -0.213 A  
HETATM   10  C   UNL     1      -9.869   9.418  70.209  1.00  0.00    -0.290 A  
HETATM   11  C   UNL     1      -9.360   8.152  69.871  1.00  0.00    -0.159 A  
BRANCH   9  12
HETATM   12  C   UNL     1      -9.741   5.682  69.413  1.00  0.00    -0.208 C  
HETATM   13  C   UNL     1      -9.453   4.714  70.335  1.00  0.00    -0.241 C  
BRANCH  12  14
HETATM   14  C   UNL     1      -9.515   5.422  67.959  1.00  0.00    -0.138 A  
HETATM   15  C   UNL     1      -8.250   5.629  67.387  1.00  0.00    -0.101 A  
HETATM   16  C   UNL     1      -9.075   4.943  65.214  1.00  0.00    -0.154 A  
HETATM   17  C   UNL     1     -10.551   4.956  67.135  1.00  0.00    -0.041 A  
HETATM   18  C   UNL     1     -10.334   4.728  65.770  1.00  0.00    -0.268 A  
HETATM   19  C   UNL     1      -8.032   5.390  66.024  1.00  0.00    -0.105 A  
ENDBRANCH  12  14
BRANCH  13  20
HETATM   20  C   UNL     1      -8.726   3.401  70.053  1.00  0.00    -0.127 C  
HETATM   21  C   UNL     1      -7.209   3.450  70.194  1.00  0.00    -0.041 C  
HETATM   22 CL   UNL     1      -6.500   1.902  69.637  1.00  0.00    -0.028 Cl 
ENDBRANCH  13  20
BRANCH  13  23
HETATM   23  C   UNL     1      -9.701   4.912  71.793  1.00  0.00    -0.223 A  
HETATM   24  C   UNL     1     -10.159   5.253  74.544  1.00  0.00    -0.286 A  
HETATM   25  C   UNL     1      -8.840   5.705  72.566  1.00  0.00    -0.130 A  
HETATM   26  C   UNL     1      -9.068   5.872  73.935  1.00  0.00    -0.127 A  
HETATM   27  C   UNL     1     -11.031   4.482  73.781  1.00  0.00    -0.361 A  
HETATM   28  C   UNL     1     -10.807   4.315  72.412  1.00  0.00    -0.000 A  
ENDBRANCH  13  23
ENDBRANCH   9  12
ENDBRANCH   5   6
ENDBRANCH   4   5
ENDBRANCH   2   4
TORSDOF 7
ENDMDL
MODEL       97
REMARK 921   NORMALIZED FREE ENERGY PREDICTED BY IDOCK:   -3.77 KCAL/MOL
REMARK 922        TOTAL FREE ENERGY PREDICTED BY IDOCK:   -7.04 KCAL/MOL
REMARK 923 INTER-LIGAND FREE ENERGY PREDICTED BY IDOCK:   -5.20 KCAL/MOL
REMARK 924 INTRA-LIGAND FREE ENERGY PREDICTED BY IDOCK:   -1.84 KCAL/MOL
REMARK 927      BINDING AFFINITY PREDICTED BY RF-SCORE:    0.00 PKD
ROOT
HETATM    1  O   UNL     1     -10.366   4.680  67.726  1.00  0.00    -0.033 OA 
HETATM    2  C   UNL     1      -8.987   4.964  67.945  1.00  0.00    -0.109 C  
HETATM    3  H   UNL     1     -10.656   3.989  68.310  1.00  0.00     0.000 HD 
ENDROOT
BRANCH   2   4
HETATM    4  C   UNL     1      -8.520   6.077  67.005  1.00  0.00    -0.108 C  
BRANCH   4   5
HETATM    5  O   UNL     1      -9.650   6.673  66.360  1.00  0.00    -0.161 OA 
BRANCH   5   6
HETATM    6  C   UNL     1      -9.752   8.040  66.418  1.00  0.00    -0.185 A  
HETATM    7  C   UNL     1     -10.536   8.764  67.313  1.00  0.00    -0.353 A  
HETATM    8  C   UNL     1     -10.513  10.169  67.300  1.00  0.00    -0.313 A  
HETATM    9  C   UNL     1      -9.698  10.876  66.402  1.00  0.00    -0.240 A  
HETATM   10  C   UNL     1      -8.981   8.742  65.483  1.00  0.00    -0.231 A  
HETATM   11  C   UNL     1      -8.953  10.148  65.471  1.00  0.00    -0.202 A  
BRANCH   9  12
HETATM   12  C   UNL     1      -9.610  12.368  66.518  1.00  0.00    -0.242 C  
HETATM   13  C   UNL     1      -8.608  12.922  67.264  1.00  0.00    -0.205 C  
BRANCH  12  14
HETATM   14  C   UNL     1     -10.657  13.239  65.905  1.00  0.00    -0.288 A  
HETATM   15  C   UNL     1     -11.994  13.145  66.320  1.00  0.00    -0.473 A  
HETATM   16  C   UNL     1     -12.646  14.872  64.751  1.00  0.00    -0.030 A  
HETATM   17  C   UNL     1     -10.332  14.177  64.913  1.00  0.00    -0.435 A  
HETATM   18  C   UNL     1     -11.322  14.981  64.334  1.00  0.00    -0.207 A  
HETATM   19  C   UNL     1     -12.982  13.957  65.747  1.00  0.00    -0.325 A  
ENDBRANCH  12  14
BRANCH  13  20
HETATM   20  C   UNL     1      -8.531  14.380  67.713  1.00  0.00    -0.175 C  
HETATM   21  C   UNL     1      -9.314  14.718  68.977  1.00  0.00    -0.160 C  
HETATM   22 CL   UNL     1      -9.288  16.487  69.249  1.00  0.00    -0.193 Cl 
ENDBRANCH  13  20
BRANCH  13  23
HETATM   23  C   UNL     1      -7.517  12.097  67.861  1.00  0.00    -0.117 A  
HETATM   24  C   UNL     1      -5.446  10.572  68.993  1.00  0.00    -0.041 A  
HETATM   25  C   UNL     1      -7.727  11.380  69.048  1.00  0.00    -0.064 A  
HETATM   26  C   UNL     1      -6.695  10.624  69.612  1.00  0.00    -0.116 A  
HETATM   27  C   UNL     1      -5.235  11.262  67.804  1.00  0.00    -0.041 A  
HETATM   28  C   UNL     1      -6.265  12.017  67.237  1.00  0.00    -0.149 A  
ENDBRANCH  13  23
ENDBRANCH   9  12
ENDBRANCH   5   6
ENDBRANCH   4   5
ENDBRANCH   2   4
TORSDOF 7
ENDMDL
MODEL       98
REMARK 921   NORMALIZED FREE ENERGY PREDICTED BY IDOCK:   -3.76 KCAL/MOL
REMARK 922        TOTAL FREE ENERGY PREDICTED BY IDOCK:   -7.02 KCAL/MOL
REMARK 923 INTER-LIGAND FREE ENERGY PREDICTED BY IDOCK:   -5.17 KCAL/MOL
REMARK 924 INTRA-LIGAND FREE ENERGY PREDICTED BY IDOCK:   -1.86 KCAL/MOL
REMARK 927      BINDING AFFINITY PREDICTED BY RF-SCORE:    0.00 PKD
ROOT
HETATM    1  O   UNL     1      -9.378  20.592  66.640  1.00  0.00    -0.606 OA 
HETATM    2  C   UNL     1     -10.331  19.682  66.097  1.00  0.00    -0.530 C  
HETATM    3  H   UNL     1      -9.219  21.304  66.030  1.00  0.00     0.000 HD 
ENDROOT
BRANCH   2   4
HETATM    4  C   UNL     1     -10.587  18.537  67.078  1.00  0.00    -0.380 C  
BRANCH   4   5
HETATM    5  O   UNL     1     -10.839  17.327  66.356  1.00  0.00    -0.126 OA 
BRANCH   5   6
HETATM    6  C   UNL     1     -10.247  16.183  66.830  1.00  0.00    -0.283 A  
HETATM    7  C   UNL     1     -10.283  15.730  68.146  1.00  0.00    -0.230 A  
HETATM    8  C   UNL     1      -9.674  14.511  68.493  1.00  0.00    -0.224 A  
HETATM    9  C   UNL     1      -9.031  13.718  67.530  1.00  0.00    -0.201 A  
HETATM   10  C   UNL     1      -9.557  15.423  65.878  1.00  0.00    -0.386 A  
HETATM   11  C   UNL     1      -8.951  14.202  66.222  1.00  0.00     0.026 A  
BRANCH   9  12
HETATM   12  C   UNL     1      -8.515  12.368  67.925  1.00  0.00    -0.166 C  
HETATM   13  C   UNL     1      -7.311  12.275  68.566  1.00  0.00    -0.105 C  
BRANCH  12  14
HETATM   14  C   UNL     1      -9.258  11.130  67.544  1.00  0.00    -0.155 A  
HETATM   15  C   UNL     1      -8.893  10.404  66.399  1.00  0.00    -0.159 A  
HETATM   16  C   UNL     1     -10.658   8.794  66.806  1.00  0.00    -0.220 A  
HETATM   17  C   UNL     1     -10.327  10.656  68.320  1.00  0.00    -0.201 A  
HETATM   18  C   UNL     1     -11.027   9.501  67.948  1.00  0.00    -0.172 A  
HETATM   19  C   UNL     1      -9.588   9.244  66.034  1.00  0.00    -0.338 A  
ENDBRANCH  12  14
BRANCH  13  20
HETATM   20  C   UNL     1      -6.516  10.989  68.788  1.00  0.00    -0.051 C  
HETATM   21  C   UNL     1      -6.821  10.247  70.084  1.00  0.00    -0.151 C  
HETATM   22 CL   UNL     1      -5.673   8.888  70.286  1.00  0.00    -0.033 Cl 
ENDBRANCH  13  20
BRANCH  13  23
HETATM   23  C   UNL     1      -6.552  13.482  69.004  1.00  0.00    -0.110 A  
HETATM   24  C   UNL     1      -5.146  15.776  69.814  1.00  0.00    -0.107 A  
HETATM   25  C   UNL     1      -6.526  13.862  70.354  1.00  0.00     0.042 A  
HETATM   26  C   UNL     1      -5.828  15.005  70.755  1.00  0.00    -0.062 A  
HETATM   27  C   UNL     1      -5.148  15.394  68.476  1.00  0.00    -0.097 A  
HETATM   28  C   UNL     1      -5.843  14.252  68.072  1.00  0.00    -0.138 A  
ENDBRANCH  13  23
ENDBRANCH   9  12
ENDBRANCH   5   6
ENDBRANCH   4   5
ENDBRANCH   2   4
TORSDOF 7
ENDMDL
MODEL       99
REMARK 921   NORMALIZED FREE ENERGY PREDICTED BY IDOCK:   -3.76 KCAL/MOL
REMARK 922        TOTAL FREE ENERGY PREDICTED BY IDOCK:   -7.02 KCAL/MOL
REMARK 923 INTER-LIGAND FREE ENERGY PREDICTED BY IDOCK:   -5.13 KCAL/MOL
REMARK 924 INTRA-LIGAND FREE ENERGY PREDICTED BY IDOCK:   -1.89 KCAL/MOL
REMARK 927      BINDING AFFINITY PREDICTED BY RF-SCORE:    0.00 PKD
ROOT
HETATM    1  O   UNL     1     -12.513  14.502  67.370  1.00  0.00    -0.580 OA 
HETATM    2  C   UNL     1     -11.141  14.873  67.274  1.00  0.00    -0.336 C  
HETATM    3  H   UNL     1     -13.060  15.160  66.958  1.00  0.00     0.000 HD 
ENDROOT
BRANCH   2   4
HETATM    4  C   UNL     1     -10.258  13.814  67.937  1.00  0.00    -0.245 C  
BRANCH   4   5
HETATM    5  O   UNL     1      -9.962  12.773  67.000  1.00  0.00    -0.225 OA 
BRANCH   5   6
HETATM    6  C   UNL     1      -9.634  11.544  67.515  1.00  0.00    -0.172 A  
HETATM    7  C   UNL     1      -8.547  11.268  68.340  1.00  0.00    -0.155 A  
HETATM    8  C   UNL     1      -8.350   9.971  68.843  1.00  0.00    -0.130 A  
HETATM    9  C   UNL     1      -9.241   8.929  68.541  1.00  0.00    -0.137 A  
HETATM   10  C   UNL     1     -10.494  10.495  67.165  1.00  0.00    -0.302 A  
HETATM   11  C   UNL     1     -10.301   9.197  67.670  1.00  0.00    -0.314 A  
BRANCH   9  12
HETATM   12  C   UNL     1      -9.060   7.599  69.207  1.00  0.00    -0.145 C  
HETATM   13  C   UNL     1      -8.402   6.603  68.542  1.00  0.00    -0.122 C  
BRANCH  12  14
HETATM   14  C   UNL     1      -9.670   7.331  70.544  1.00  0.00    -0.176 A  
HETATM   15  C   UNL     1     -10.881   6.628  70.646  1.00  0.00    -0.301 A  
HETATM   16  C   UNL     1     -10.839   6.824  73.061  1.00  0.00    -0.314 A  
HETATM   17  C   UNL     1      -9.048   7.761  71.726  1.00  0.00    -0.171 A  
HETATM   18  C   UNL     1      -9.634   7.517  72.975  1.00  0.00    -0.268 A  
HETATM   19  C   UNL     1     -11.460   6.375  71.896  1.00  0.00    -0.352 A  
ENDBRANCH  12  14
BRANCH  13  20
HETATM   20  C   UNL     1      -8.371   5.130  68.946  1.00  0.00    -0.087 C  
HETATM   21  C   UNL     1      -7.353   4.768  70.021  1.00  0.00    -0.054 C  
HETATM   22 CL   UNL     1      -7.303   2.991  70.232  1.00  0.00    -0.040 Cl 
ENDBRANCH  13  20
BRANCH  13  23
HETATM   23  C   UNL     1      -7.740   6.834  67.225  1.00  0.00    -0.109 A  
HETATM   24  C   UNL     1      -6.514   7.297  64.739  1.00  0.00    -0.037 A  
HETATM   25  C   UNL     1      -6.411   7.277  67.157  1.00  0.00    -0.059 A  
HETATM   26  C   UNL     1      -5.803   7.509  65.920  1.00  0.00    -0.037 A  
HETATM   27  C   UNL     1      -7.826   6.837  64.796  1.00  0.00    -0.119 A  
HETATM   28  C   UNL     1      -8.436   6.602  66.031  1.00  0.00    -0.142 A  
ENDBRANCH  13  23
ENDBRANCH   9  12
ENDBRANCH   5   6
ENDBRANCH   4   5
ENDBRANCH   2   4
TORSDOF 7
ENDMDL
MODEL      100
REMARK 921   NORMALIZED FREE ENERGY PREDICTED BY IDOCK:   -3.67 KCAL/MOL
REMARK 922        TOTAL FREE ENERGY PREDICTED BY IDOCK:   -6.89 KCAL/MOL
REMARK 923 INTER-LIGAND FREE ENERGY PREDICTED BY IDOCK:   -4.88 KCAL/MOL
REMARK 924 INTRA-LIGAND FREE ENERGY PREDICTED BY IDOCK:   -2.01 KCAL/MOL
REMARK 927      BINDING AFFINITY PREDICTED BY RF-SCORE:    0.00 PKD
ROOT
HETATM    1  O   UNL     1     -13.579  11.641  72.345  1.00  0.00    -0.554 OA 
HETATM    2  C   UNL     1     -13.249  10.344  71.858  1.00  0.00    -0.429 C  
HETATM    3  H   UNL     1     -14.423  11.623  72.783  1.00  0.00     0.000 HD 
ENDROOT
BRANCH   2   4
HETATM    4  C   UNL     1     -11.892  10.373  71.154  1.00  0.00    -0.337 C  
BRANCH   4   5
HETATM    5  O   UNL     1     -11.052   9.336  71.673  1.00  0.00    -0.349 OA 
BRANCH   5   6
HETATM    6  C   UNL     1     -10.355   8.583  70.762  1.00  0.00    -0.198 A  
HETATM    7  C   UNL     1      -8.969   8.501  70.661  1.00  0.00    -0.182 A  
HETATM    8  C   UNL     1      -8.376   7.650  69.711  1.00  0.00    -0.133 A  
HETATM    9  C   UNL     1      -9.158   6.857  68.856  1.00  0.00    -0.134 A  
HETATM   10  C   UNL     1     -11.138   7.837  69.873  1.00  0.00    -0.142 A  
HETATM   11  C   UNL     1     -10.548   6.982  68.925  1.00  0.00    -0.233 A  
BRANCH   9  12
HETATM   12  C   UNL     1      -8.479   5.871  67.955  1.00  0.00    -0.110 C  
HETATM   13  C   UNL     1      -8.041   6.280  66.726  1.00  0.00    -0.109 C  
BRANCH  12  14
HETATM   14  C   UNL     1      -8.362   4.436  68.352  1.00  0.00    -0.093 A  
HETATM   15  C   UNL     1      -7.246   3.985  69.074  1.00  0.00    -0.054 A  
HETATM   16  C   UNL     1      -8.123   1.726  69.101  1.00  0.00    -0.059 A  
HETATM   17  C   UNL     1      -9.363   3.508  68.026  1.00  0.00    -0.237 A  
HETATM   18  C   UNL     1      -9.239   2.161  68.390  1.00  0.00    -0.236 A  
HETATM   19  C   UNL     1      -7.128   2.640  69.447  1.00  0.00    -0.044 A  
ENDBRANCH  12  14
BRANCH  13  20
HETATM   20  C   UNL     1      -7.589   5.365  65.590  1.00  0.00    -0.082 C  
HETATM   21  C   UNL     1      -8.702   4.839  64.691  1.00  0.00    -0.153 C  
HETATM   22 CL   UNL     1      -8.037   3.633  63.548  1.00  0.00    -0.087 Cl 
ENDBRANCH  13  20
BRANCH  13  23
HETATM   23  C   UNL     1      -8.098   7.709  66.302  1.00  0.00    -0.112 A  
HETATM   24  C   UNL     1      -8.224  10.408  65.530  1.00  0.00    -0.162 A  
HETATM   25  C   UNL     1      -6.971   8.537  66.417  1.00  0.00    -0.078 A  
HETATM   26  C   UNL     1      -7.036   9.880  66.035  1.00  0.00    -0.104 A  
HETATM   27  C   UNL     1      -9.340   9.589  65.392  1.00  0.00    -0.324 A  
HETATM   28  C   UNL     1      -9.278   8.246  65.771  1.00  0.00    -0.142 A  
ENDBRANCH  13  23
ENDBRANCH   9  12
ENDBRANCH   5   6
ENDBRANCH   4   5
ENDBRANCH   2   4
TORSDOF 7
ENDMDL
MODEL      101
REMARK 921   NORMALIZED FREE ENERGY PREDICTED BY IDOCK:   -3.56 KCAL/MOL
REMARK 922        TOTAL FREE ENERGY PREDICTED BY IDOCK:   -6.74 KCAL/MOL
REMARK 923 INTER-LIGAND FREE ENERGY PREDICTED BY IDOCK:   -5.03 KCAL/MOL
REMARK 924 INTRA-LIGAND FREE ENERGY PREDICTED BY IDOCK:   -1.71 KCAL/MOL
REMARK 927      BINDING AFFINITY PREDICTED BY RF-SCORE:    0.00 PKD
ROOT
HETATM    1  O   UNL     1     -10.926   3.878  63.080  1.00  0.00    -0.248 OA 
HETATM    2  C   UNL     1     -10.108   2.881  63.687  1.00  0.00    -0.167 C  
HETATM    3  H   UNL     1     -11.371   3.519  62.321  1.00  0.00     0.000 HD 
ENDROOT
BRANCH   2   4
HETATM    4  C   UNL     1      -9.391   3.457  64.909  1.00  0.00    -0.149 C  
BRANCH   4   5
HETATM    5  O   UNL     1      -9.394   4.887  64.844  1.00  0.00    -0.130 OA 
BRANCH   5   6
HETATM    6  C   UNL     1      -9.549   5.565  66.027  1.00  0.00    -0.107 A  
HETATM    7  C   UNL     1     -10.394   5.201  67.073  1.00  0.00    -0.267 A  
HETATM    8  C   UNL     1     -10.424   5.958  68.256  1.00  0.00    -0.293 A  
HETATM    9  C   UNL     1      -9.602   7.084  68.422  1.00  0.00    -0.135 A  
HETATM   10  C   UNL     1      -8.770   6.720  66.166  1.00  0.00    -0.156 A  
HETATM   11  C   UNL     1      -8.795   7.477  67.351  1.00  0.00    -0.127 A  
BRANCH   9  12
HETATM   12  C   UNL     1      -9.576   7.777  69.750  1.00  0.00    -0.167 C  
HETATM   13  C   UNL     1      -8.659   7.389  70.688  1.00  0.00    -0.141 C  
BRANCH  12  14
HETATM   14  C   UNL     1     -10.596   8.815  70.085  1.00  0.00    -0.237 A  
HETATM   15  C   UNL     1     -10.566  10.071  69.459  1.00  0.00    -0.267 A  
HETATM   16  C   UNL     1     -12.511  10.789  70.713  1.00  0.00    -0.481 A  
HETATM   17  C   UNL     1     -11.611   8.561  71.020  1.00  0.00    -0.317 A  
HETATM   18  C   UNL     1     -12.556   9.546  71.338  1.00  0.00    -0.447 A  
HETATM   19  C   UNL     1     -11.517  11.050  69.770  1.00  0.00    -0.387 A  
ENDBRANCH  12  14
BRANCH  13  20
HETATM   20  C   UNL     1      -8.671   7.784  72.164  1.00  0.00    -0.169 C  
HETATM   21  C   UNL     1      -7.301   8.033  72.785  1.00  0.00    -0.111 C  
HETATM   22 CL   UNL     1      -7.475   8.283  74.549  1.00  0.00    -0.255 Cl 
ENDBRANCH  13  20
BRANCH  13  23
HETATM   23  C   UNL     1      -7.595   6.387  70.387  1.00  0.00    -0.096 A  
HETATM   24  C   UNL     1      -5.610   4.488  69.795  1.00  0.00    -0.012 A  
HETATM   25  C   UNL     1      -6.397   6.777  69.770  1.00  0.00    -0.042 A  
HETATM   26  C   UNL     1      -5.411   5.831  69.475  1.00  0.00    -0.004 A  
HETATM   27  C   UNL     1      -6.786   4.096  70.427  1.00  0.00    -0.033 A  
HETATM   28  C   UNL     1      -7.773   5.039  70.725  1.00  0.00    -0.078 A  
ENDBRANCH  13  23
ENDBRANCH   9  12
ENDBRANCH   5   6
ENDBRANCH   4   5
ENDBRANCH   2   4
TORSDOF 7
ENDMDL
MODEL      102
REMARK 921   NORMALIZED FREE ENERGY PREDICTED BY IDOCK:   -3.55 KCAL/MOL
REMARK 922        TOTAL FREE ENERGY PREDICTED BY IDOCK:   -6.72 KCAL/MOL
REMARK 923 INTER-LIGAND FREE ENERGY PREDICTED BY IDOCK:   -6.03 KCAL/MOL
REMARK 924 INTRA-LIGAND FREE ENERGY PREDICTED BY IDOCK:   -0.69 KCAL/MOL
REMARK 927      BINDING AFFINITY PREDICTED BY RF-SCORE:    0.00 PKD
ROOT
HETATM    1  O   UNL     1      -9.202   8.659  62.388  1.00  0.00    -0.505 OA 
HETATM    2  C   UNL     1      -7.814   8.945  62.533  1.00  0.00    -0.129 C  
HETATM    3  H   UNL     1      -9.566   9.160  61.668  1.00  0.00     0.000 HD 
ENDROOT
BRANCH   2   4
HETATM    4  C   UNL     1      -7.226   8.138  63.692  1.00  0.00    -0.089 C  
BRANCH   4   5
HETATM    5  O   UNL     1      -6.812   9.022  64.739  1.00  0.00    -0.079 OA 
BRANCH   5   6
HETATM    6  C   UNL     1      -7.764   9.395  65.654  1.00  0.00    -0.099 A  
HETATM    7  C   UNL     1      -9.134   9.165  65.548  1.00  0.00    -0.275 A  
HETATM    8  C   UNL     1     -10.000   9.556  66.583  1.00  0.00    -0.314 A  
HETATM    9  C   UNL     1      -9.513  10.171  67.748  1.00  0.00    -0.160 A  
HETATM   10  C   UNL     1      -7.282  10.059  66.789  1.00  0.00    -0.091 A  
HETATM   11  C   UNL     1      -8.146  10.447  67.827  1.00  0.00    -0.103 A  
BRANCH   9  12
HETATM   12  C   UNL     1     -10.461  10.447  68.876  1.00  0.00    -0.232 C  
HETATM   13  C   UNL     1     -10.869   9.414  69.673  1.00  0.00    -0.245 C  
BRANCH  12  14
HETATM   14  C   UNL     1     -11.027  11.815  69.073  1.00  0.00    -0.276 A  
HETATM   15  C   UNL     1     -11.813  12.104  70.201  1.00  0.00    -0.368 A  
HETATM   16  C   UNL     1     -12.112  14.391  69.457  1.00  0.00    -0.366 A  
HETATM   17  C   UNL     1     -10.783  12.843  68.151  1.00  0.00    -0.258 A  
HETATM   18  C   UNL     1     -11.330  14.120  68.337  1.00  0.00    -0.315 A  
HETATM   19  C   UNL     1     -12.350  13.383  70.392  1.00  0.00    -0.382 A  
ENDBRANCH  12  14
BRANCH  13  20
HETATM   20  C   UNL     1     -12.024   9.461  70.673  1.00  0.00    -0.232 C  
HETATM   21  C   UNL     1     -11.752   8.795  72.017  1.00  0.00    -0.372 C  
HETATM   22 CL   UNL     1     -13.257   8.758  72.987  1.00  0.00    -0.025 Cl 
ENDBRANCH  13  20
BRANCH  13  23
HETATM   23  C   UNL     1     -10.301   8.041  69.542  1.00  0.00    -0.221 A  
HETATM   24  C   UNL     1      -9.237   5.449  69.327  1.00  0.00    -0.149 A  
HETATM   25  C   UNL     1     -10.985   7.046  68.827  1.00  0.00    -0.150 A  
HETATM   26  C   UNL     1     -10.456   5.757  68.723  1.00  0.00    -0.312 A  
HETATM   27  C   UNL     1      -8.540   6.435  70.018  1.00  0.00    -0.135 A  
HETATM   28  C   UNL     1      -9.065   7.725  70.123  1.00  0.00    -0.153 A  
ENDBRANCH  13  23
ENDBRANCH   9  12
ENDBRANCH   5   6
ENDBRANCH   4   5
ENDBRANCH   2   4
TORSDOF 7
ENDMDL
MODEL      103
REMARK 921   NORMALIZED FREE ENERGY PREDICTED BY IDOCK:   -3.53 KCAL/MOL
REMARK 922        TOTAL FREE ENERGY PREDICTED BY IDOCK:   -6.69 KCAL/MOL
REMARK 923 INTER-LIGAND FREE ENERGY PREDICTED BY IDOCK:   -6.08 KCAL/MOL
REMARK 924 INTRA-LIGAND FREE ENERGY PREDICTED BY IDOCK:   -0.61 KCAL/MOL
REMARK 927      BINDING AFFINITY PREDICTED BY RF-SCORE:    0.00 PKD
ROOT
HETATM    1  O   UNL     1     -12.588  11.401  62.594  1.00  0.00    -0.831 OA 
HETATM    2  C   UNL     1     -11.991  12.260  63.561  1.00  0.00    -0.533 C  
HETATM    3  H   UNL     1     -12.115  10.578  62.550  1.00  0.00     0.000 HD 
ENDROOT
BRANCH   2   4
HETATM    4  C   UNL     1     -12.752  13.585  63.633  1.00  0.00     0.178 C  
BRANCH   4   5
HETATM    5  O   UNL     1     -12.924  13.973  65.000  1.00  0.00    -0.728 OA 
BRANCH   5   6
HETATM    6  C   UNL     1     -11.821  13.903  65.812  1.00  0.00    -0.378 A  
HETATM    7  C   UNL     1     -11.823  13.587  67.168  1.00  0.00    -0.430 A  
HETATM    8  C   UNL     1     -10.613  13.499  67.878  1.00  0.00    -0.255 A  
HETATM    9  C   UNL     1      -9.380  13.713  67.244  1.00  0.00    -0.233 A  
HETATM   10  C   UNL     1     -10.596  14.172  65.189  1.00  0.00    -0.414 A  
HETATM   11  C   UNL     1      -9.384  14.081  65.896  1.00  0.00    -0.006 A  
BRANCH   9  12
HETATM   12  C   UNL     1      -8.115  13.477  68.013  1.00  0.00    -0.156 C  
HETATM   13  C   UNL     1      -7.820  12.214  68.443  1.00  0.00    -0.149 C  
BRANCH  12  14
HETATM   14  C   UNL     1      -7.231  14.621  68.388  1.00  0.00    -0.117 A  
HETATM   15  C   UNL     1      -6.161  14.996  67.560  1.00  0.00    -0.057 A  
HETATM   16  C   UNL     1      -5.547  16.774  69.087  1.00  0.00    -0.144 A  
HETATM   17  C   UNL     1      -7.451  15.354  69.564  1.00  0.00    -0.211 A  
HETATM   18  C   UNL     1      -6.609  16.418  69.915  1.00  0.00    -0.011 A  
HETATM   19  C   UNL     1      -5.326  16.066  67.906  1.00  0.00    -0.140 A  
ENDBRANCH  12  14
BRANCH  13  20
HETATM   20  C   UNL     1      -6.739  11.846  69.459  1.00  0.00    -0.054 C  
HETATM   21  C   UNL     1      -6.844  10.443  70.046  1.00  0.00    -0.151 C  
HETATM   22 CL   UNL     1      -5.638  10.245  71.354  1.00  0.00    -0.035 Cl 
ENDBRANCH  13  20
BRANCH  13  23
HETATM   23  C   UNL     1      -8.649  11.034  68.059  1.00  0.00    -0.134 A  
HETATM   24  C   UNL     1     -10.236   8.832  67.331  1.00  0.00    -0.318 A  
HETATM   25  C   UNL     1      -8.441  10.378  66.837  1.00  0.00    -0.124 A  
HETATM   26  C   UNL     1      -9.232   9.284  66.475  1.00  0.00    -0.206 A  
HETATM   27  C   UNL     1     -10.435   9.462  68.556  1.00  0.00    -0.239 A  
HETATM   28  C   UNL     1      -9.644  10.555  68.921  1.00  0.00    -0.199 A  
ENDBRANCH  13  23
ENDBRANCH   9  12
ENDBRANCH   5   6
ENDBRANCH   4   5
ENDBRANCH   2   4
TORSDOF 7
ENDMDL
MODEL      104
REMARK 921   NORMALIZED FREE ENERGY PREDICTED BY IDOCK:   -3.48 KCAL/MOL
REMARK 922        TOTAL FREE ENERGY PREDICTED BY IDOCK:   -6.62 KCAL/MOL
REMARK 923 INTER-LIGAND FREE ENERGY PREDICTED BY IDOCK:   -4.76 KCAL/MOL
REMARK 924 INTRA-LIGAND FREE ENERGY PREDICTED BY IDOCK:   -1.86 KCAL/MOL
REMARK 927      BINDING AFFINITY PREDICTED BY RF-SCORE:    0.00 PKD
ROOT
HETATM    1  O   UNL     1      -7.597  10.862  63.214  1.00  0.00    -0.358 OA 
HETATM    2  C   UNL     1      -8.495  10.010  63.920  1.00  0.00    -0.178 C  
HETATM    3  H   UNL     1      -7.204  10.394  62.487  1.00  0.00     0.000 HD 
ENDROOT
BRANCH   2   4
HETATM    4  C   UNL     1      -9.128  10.763  65.091  1.00  0.00    -0.203 C  
BRANCH   4   5
HETATM    5  O   UNL     1     -10.133   9.949  65.705  1.00  0.00    -0.289 OA 
BRANCH   5   6
HETATM    6  C   UNL     1      -9.715   9.052  66.655  1.00  0.00    -0.230 A  
HETATM    7  C   UNL     1      -8.499   9.086  67.332  1.00  0.00    -0.115 A  
HETATM    8  C   UNL     1      -8.211   8.132  68.323  1.00  0.00    -0.129 A  
HETATM    9  C   UNL     1      -9.139   7.136  68.665  1.00  0.00    -0.133 A  
HETATM   10  C   UNL     1     -10.620   8.026  66.954  1.00  0.00    -0.324 A  
HETATM   11  C   UNL     1     -10.336   7.072  67.948  1.00  0.00    -0.247 A  
BRANCH   9  12
HETATM   12  C   UNL     1      -8.838   6.226  69.817  1.00  0.00    -0.140 C  
HETATM   13  C   UNL     1      -8.517   4.920  69.571  1.00  0.00    -0.090 C  
BRANCH  12  14
HETATM   14  C   UNL     1      -8.978   6.711  71.223  1.00  0.00    -0.144 A  
HETATM   15  C   UNL     1     -10.248   6.946  71.772  1.00  0.00    -0.206 A  
HETATM   16  C   UNL     1      -9.258   7.634  73.874  1.00  0.00    -0.303 A  
HETATM   17  C   UNL     1      -7.852   6.932  72.030  1.00  0.00    -0.095 A  
HETATM   18  C   UNL     1      -7.992   7.399  73.344  1.00  0.00    -0.136 A  
HETATM   19  C   UNL     1     -10.387   7.403  73.089  1.00  0.00    -0.384 A  
ENDBRANCH  12  14
BRANCH  13  20
HETATM   20  C   UNL     1      -8.456   3.804  70.613  1.00  0.00    -0.100 C  
HETATM   21  C   UNL     1      -9.778   3.102  70.897  1.00  0.00    -0.100 C  
HETATM   22 CL   UNL     1      -9.579   1.973  72.272  1.00  0.00    -0.158 Cl 
ENDBRANCH  13  20
BRANCH  13  23
HETATM   23  C   UNL     1      -8.325   4.400  68.186  1.00  0.00    -0.096 A  
HETATM   24  C   UNL     1      -7.944   3.396  65.589  1.00  0.00    -0.089 A  
HETATM   25  C   UNL     1      -9.373   3.761  67.508  1.00  0.00    -0.238 A  
HETATM   26  C   UNL     1      -9.181   3.260  66.217  1.00  0.00    -0.154 A  
HETATM   27  C   UNL     1      -6.905   4.049  66.245  1.00  0.00    -0.058 A  
HETATM   28  C   UNL     1      -7.093   4.552  67.535  1.00  0.00    -0.065 A  
ENDBRANCH  13  23
ENDBRANCH   9  12
ENDBRANCH   5   6
ENDBRANCH   4   5
ENDBRANCH   2   4
TORSDOF 7
ENDMDL
MODEL      105
REMARK 921   NORMALIZED FREE ENERGY PREDICTED BY IDOCK:   -3.23 KCAL/MOL
REMARK 922        TOTAL FREE ENERGY PREDICTED BY IDOCK:   -6.27 KCAL/MOL
REMARK 923 INTER-LIGAND FREE ENERGY PREDICTED BY IDOCK:   -4.15 KCAL/MOL
REMARK 924 INTRA-LIGAND FREE ENERGY PREDICTED BY IDOCK:   -2.12 KCAL/MOL
REMARK 927      BINDING AFFINITY PREDICTED BY RF-SCORE:    0.00 PKD
ROOT
HETATM    1  O   UNL     1     -11.034   4.476  62.448  1.00  0.00    -0.400 OA 
HETATM    2  C   UNL     1     -10.496   3.199  62.779  1.00  0.00    -0.166 C  
HETATM    3  H   UNL     1     -11.901   4.379  62.070  1.00  0.00     0.000 HD 
ENDROOT
BRANCH   2   4
HETATM    4  C   UNL     1      -9.101   3.354  63.387  1.00  0.00    -0.094 C  
BRANCH   4   5
HETATM    5  O   UNL     1      -8.949   4.673  63.922  1.00  0.00    -0.144 OA 
BRANCH   5   6
HETATM    6  C   UNL     1      -8.803   4.782  65.282  1.00  0.00    -0.149 A  
HETATM    7  C   UNL     1      -7.596   4.873  65.970  1.00  0.00    -0.090 A  
HETATM    8  C   UNL     1      -7.586   5.031  67.367  1.00  0.00    -0.091 A  
HETATM    9  C   UNL     1      -8.781   5.114  68.099  1.00  0.00    -0.103 A  
HETATM   10  C   UNL     1      -9.996   4.807  66.015  1.00  0.00    -0.255 A  
HETATM   11  C   UNL     1      -9.988   4.970  67.412  1.00  0.00    -0.214 A  
BRANCH   9  12
HETATM   12  C   UNL     1      -8.716   5.415  69.565  1.00  0.00    -0.108 C  
HETATM   13  C   UNL     1      -8.587   6.712  69.976  1.00  0.00    -0.140 C  
BRANCH  12  14
HETATM   14  C   UNL     1      -8.699   4.307  70.567  1.00  0.00    -0.118 A  
HETATM   15  C   UNL     1      -9.860   3.978  71.284  1.00  0.00    -0.242 A  
HETATM   16  C   UNL     1      -8.681   2.223  72.469  1.00  0.00    -0.079 A  
HETATM   17  C   UNL     1      -7.534   3.564  70.810  1.00  0.00    -0.040 A  
HETATM   18  C   UNL     1      -7.523   2.535  71.761  1.00  0.00    -0.040 A  
HETATM   19  C   UNL     1      -9.851   2.942  72.227  1.00  0.00    -0.234 A  
ENDBRANCH  12  14
BRANCH  13  20
HETATM   20  C   UNL     1      -8.231   7.170  71.390  1.00  0.00    -0.107 C  
HETATM   21  C   UNL     1      -9.417   7.509  72.285  1.00  0.00    -0.153 C  
HETATM   22 CL   UNL     1      -8.831   8.214  73.823  1.00  0.00    -0.311 Cl 
ENDBRANCH  13  20
BRANCH  13  23
HETATM   23  C   UNL     1      -8.641   7.854  69.018  1.00  0.00    -0.135 A  
HETATM   24  C   UNL     1      -8.754  10.026  67.237  1.00  0.00    -0.127 A  
HETATM   25  C   UNL     1      -7.463   8.462  68.559  1.00  0.00    -0.094 A  
HETATM   26  C   UNL     1      -7.520   9.544  67.675  1.00  0.00    -0.091 A  
HETATM   27  C   UNL     1      -9.927   9.415  67.670  1.00  0.00    -0.238 A  
HETATM   28  C   UNL     1      -9.873   8.333  68.552  1.00  0.00    -0.188 A  
ENDBRANCH  13  23
ENDBRANCH   9  12
ENDBRANCH   5   6
ENDBRANCH   4   5
ENDBRANCH   2   4
TORSDOF 7
ENDMDL
MODEL      106
REMARK 921   NORMALIZED FREE ENERGY PREDICTED BY IDOCK:   -3.23 KCAL/MOL
REMARK 922        TOTAL FREE ENERGY PREDICTED BY IDOCK:   -6.27 KCAL/MOL
REMARK 923 INTER-LIGAND FREE ENERGY PREDICTED BY IDOCK:   -4.95 KCAL/MOL
REMARK 924 INTRA-LIGAND FREE ENERGY PREDICTED BY IDOCK:   -1.32 KCAL/MOL
REMARK 927      BINDING AFFINITY PREDICTED BY RF-SCORE:    0.00 PKD
ROOT
HETATM    1  O   UNL     1      -7.608   8.812  67.117  1.00  0.00    -0.087 OA 
HETATM    2  C   UNL     1      -6.516   9.175  67.958  1.00  0.00    -0.059 C  
HETATM    3  H   UNL     1      -8.099   8.099  67.508  1.00  0.00     0.000 HD 
ENDROOT
BRANCH   2   4
HETATM    4  C   UNL     1      -5.724  10.323  67.330  1.00  0.00    -0.045 C  
BRANCH   4   5
HETATM    5  O   UNL     1      -5.496  11.346  68.305  1.00  0.00    -0.043 OA 
BRANCH   5   6
HETATM    6  C   UNL     1      -6.401  12.377  68.351  1.00  0.00    -0.056 A  
HETATM    7  C   UNL     1      -7.341  12.684  67.370  1.00  0.00    -0.140 A  
HETATM    8  C   UNL     1      -8.247  13.741  67.562  1.00  0.00    -0.194 A  
HETATM    9  C   UNL     1      -8.239  14.501  68.743  1.00  0.00    -0.146 A  
HETATM   10  C   UNL     1      -6.353  13.169  69.505  1.00  0.00    -0.103 A  
HETATM   11  C   UNL     1      -7.262  14.224  69.701  1.00  0.00     0.048 A  
BRANCH   9  12
HETATM   12  C   UNL     1      -9.310  15.528  68.954  1.00  0.00    -0.222 C  
HETATM   13  C   UNL     1      -9.066  16.828  68.608  1.00  0.00    -0.254 C  
BRANCH  12  14
HETATM   14  C   UNL     1     -10.595  15.159  69.618  1.00  0.00    -0.274 A  
HETATM   15  C   UNL     1     -11.007  15.818  70.788  1.00  0.00    -0.311 A  
HETATM   16  C   UNL     1     -13.017  14.468  70.891  1.00  0.00    -0.424 A  
HETATM   17  C   UNL     1     -11.426  14.159  69.090  1.00  0.00    -0.338 A  
HETATM   18  C   UNL     1     -12.624  13.810  69.728  1.00  0.00    -0.083 A  
HETATM   19  C   UNL     1     -12.210  15.475  71.419  1.00  0.00    -0.453 A  
ENDBRANCH  12  14
BRANCH  13  20
HETATM   20  C   UNL     1      -9.920  18.032  69.003  1.00  0.00    -0.292 C  
HETATM   21  C   UNL     1      -9.676  19.300  68.193  1.00  0.00    -0.363 C  
HETATM   22 CL   UNL     1     -10.599  20.658  68.907  1.00  0.00     0.142 Cl 
ENDBRANCH  13  20
BRANCH  13  23
HETATM   23  C   UNL     1      -7.816  17.238  67.904  1.00  0.00    -0.197 A  
HETATM   24  C   UNL     1      -5.446  17.983  66.591  1.00  0.00    -0.180 A  
HETATM   25  C   UNL     1      -7.718  17.154  66.507  1.00  0.00    -0.321 A  
HETATM   26  C   UNL     1      -6.538  17.522  65.855  1.00  0.00    -0.170 A  
HETATM   27  C   UNL     1      -5.541  18.091  67.975  1.00  0.00    -0.152 A  
HETATM   28  C   UNL     1      -6.720  17.725  68.629  1.00  0.00    -0.230 A  
ENDBRANCH  13  23
ENDBRANCH   9  12
ENDBRANCH   5   6
ENDBRANCH   4   5
ENDBRANCH   2   4
TORSDOF 7
ENDMDL
MODEL      107
REMARK 921   NORMALIZED FREE ENERGY PREDICTED BY IDOCK:   -3.22 KCAL/MOL
REMARK 922        TOTAL FREE ENERGY PREDICTED BY IDOCK:   -6.26 KCAL/MOL
REMARK 923 INTER-LIGAND FREE ENERGY PREDICTED BY IDOCK:   -6.82 KCAL/MOL
REMARK 924 INTRA-LIGAND FREE ENERGY PREDICTED BY IDOCK:    0.55 KCAL/MOL
REMARK 927      BINDING AFFINITY PREDICTED BY RF-SCORE:    0.00 PKD
ROOT
HETATM    1  O   UNL     1      -9.645  13.425  64.427  1.00  0.00    -0.485 OA 
HETATM    2  C   UNL     1     -10.421  12.892  63.358  1.00  0.00     0.332 C  
HETATM    3  H   UNL     1     -10.008  14.255  64.714  1.00  0.00     0.000 HD 
ENDROOT
BRANCH   2   4
HETATM    4  C   UNL     1      -9.837  11.555  62.896  1.00  0.00    -0.249 C  
BRANCH   4   5
HETATM    5  O   UNL     1     -10.133  10.537  63.858  1.00  0.00    -0.327 OA 
BRANCH   5   6
HETATM    6  C   UNL     1     -10.368  10.946  65.147  1.00  0.00    -0.278 A  
HETATM    7  C   UNL     1      -9.461  10.886  66.201  1.00  0.00    -0.230 A  
HETATM    8  C   UNL     1      -9.812  11.385  67.468  1.00  0.00    -0.194 A  
HETATM    9  C   UNL     1     -11.069  11.965  67.699  1.00  0.00    -0.314 A  
HETATM   10  C   UNL     1     -11.643  11.471  65.388  1.00  0.00     0.012 A  
HETATM   11  C   UNL     1     -11.995  11.975  66.653  1.00  0.00    -0.082 A  
BRANCH   9  12
HETATM   12  C   UNL     1     -11.344  12.601  69.028  1.00  0.00    -0.345 C  
HETATM   13  C   UNL     1     -10.953  13.893  69.244  1.00  0.00    -0.222 C  
BRANCH  12  14
HETATM   14  C   UNL     1     -11.954  11.808  70.137  1.00  0.00    -0.421 A  
HETATM   15  C   UNL     1     -12.888  12.397  71.003  1.00  0.00    -0.245 A  
HETATM   16  C   UNL     1     -13.109  10.325  72.241  1.00  0.00    -0.315 A  
HETATM   17  C   UNL     1     -11.621  10.459  70.335  1.00  0.00    -0.423 A  
HETATM   18  C   UNL     1     -12.188   9.726  71.386  1.00  0.00    -0.486 A  
HETATM   19  C   UNL     1     -13.463  11.660  72.047  1.00  0.00    -0.304 A  
ENDBRANCH  12  14
BRANCH  13  20
HETATM   20  C   UNL     1     -10.901  14.594  70.600  1.00  0.00     0.178 C  
HETATM   21  C   UNL     1     -11.994  15.629  70.844  1.00  0.00    -0.397 C  
HETATM   22 CL   UNL     1     -11.674  16.495  72.378  1.00  0.00    -0.519 Cl 
ENDBRANCH  13  20
BRANCH  13  23
HETATM   23  C   UNL     1     -10.379  14.738  68.157  1.00  0.00    -0.239 A  
HETATM   24  C   UNL     1      -9.309  16.357  66.125  1.00  0.00    -0.360 A  
HETATM   25  C   UNL     1      -8.993  14.924  68.049  1.00  0.00    -0.172 A  
HETATM   26  C   UNL     1      -8.462  15.732  67.039  1.00  0.00    -0.251 A  
HETATM   27  C   UNL     1     -10.684  16.160  66.210  1.00  0.00    -0.213 A  
HETATM   28  C   UNL     1     -11.217  15.352  67.217  1.00  0.00    -0.270 A  
ENDBRANCH  13  23
ENDBRANCH   9  12
ENDBRANCH   5   6
ENDBRANCH   4   5
ENDBRANCH   2   4
TORSDOF 7
ENDMDL
MODEL      108
REMARK 921   NORMALIZED FREE ENERGY PREDICTED BY IDOCK:   -3.15 KCAL/MOL
REMARK 922        TOTAL FREE ENERGY PREDICTED BY IDOCK:   -6.16 KCAL/MOL
REMARK 923 INTER-LIGAND FREE ENERGY PREDICTED BY IDOCK:   -4.91 KCAL/MOL
REMARK 924 INTRA-LIGAND FREE ENERGY PREDICTED BY IDOCK:   -1.25 KCAL/MOL
REMARK 927      BINDING AFFINITY PREDICTED BY RF-SCORE:    0.00 PKD
ROOT
HETATM    1  O   UNL     1      -5.456  17.029  70.788  1.00  0.00    -0.201 OA 
HETATM    2  C   UNL     1      -5.793  16.811  69.420  1.00  0.00    -0.178 C  
HETATM    3  H   UNL     1      -4.857  16.356  71.089  1.00  0.00     0.000 HD 
ENDROOT
BRANCH   2   4
HETATM    4  C   UNL     1      -6.757  17.894  68.935  1.00  0.00    -0.244 C  
BRANCH   4   5
HETATM    5  O   UNL     1      -7.752  17.314  68.084  1.00  0.00    -0.202 OA 
BRANCH   5   6
HETATM    6  C   UNL     1      -7.982  15.968  68.222  1.00  0.00    -0.145 A  
HETATM    7  C   UNL     1      -8.928  15.382  69.060  1.00  0.00    -0.230 A  
HETATM    8  C   UNL     1      -9.098  13.987  69.071  1.00  0.00     0.155 A  
HETATM    9  C   UNL     1      -8.337  13.154  68.236  1.00  0.00    -0.152 A  
HETATM   10  C   UNL     1      -7.182  15.136  67.429  1.00  0.00    -0.231 A  
HETATM   11  C   UNL     1      -7.354  13.740  67.436  1.00  0.00    -0.125 A  
BRANCH   9  12
HETATM   12  C   UNL     1      -8.649  11.689  68.190  1.00  0.00    -0.158 C  
HETATM   13  C   UNL     1      -9.768  11.265  67.528  1.00  0.00    -0.192 C  
BRANCH  12  14
HETATM   14  C   UNL     1      -7.803  10.709  68.934  1.00  0.00    -0.129 A  
HETATM   15  C   UNL     1      -8.258  10.143  70.135  1.00  0.00     0.032 A  
HETATM   16  C   UNL     1      -6.213   8.863  70.356  1.00  0.00    -0.040 A  
HETATM   17  C   UNL     1      -6.544  10.322  68.451  1.00  0.00    -0.056 A  
HETATM   18  C   UNL     1      -5.750   9.412  69.163  1.00  0.00    -0.035 A  
HETATM   19  C   UNL     1      -7.469   9.225  70.840  1.00  0.00    -0.123 A  
ENDBRANCH  12  14
BRANCH  13  20
HETATM   20  C   UNL     1     -10.380   9.868  67.615  1.00  0.00    -0.275 C  
HETATM   21  C   UNL     1      -9.895   8.875  66.564  1.00  0.00    -0.274 C  
HETATM   22 CL   UNL     1     -10.848   7.364  66.675  1.00  0.00    -0.104 Cl 
ENDBRANCH  13  20
BRANCH  13  23
HETATM   23  C   UNL     1     -10.620  12.199  66.737  1.00  0.00    -0.256 A  
HETATM   24  C   UNL     1     -12.216  13.984  65.265  1.00  0.00    -0.451 A  
HETATM   25  C   UNL     1     -10.251  12.582  65.438  1.00  0.00    -0.303 A  
HETATM   26  C   UNL     1     -11.045  13.471  64.709  1.00  0.00    -0.368 A  
HETATM   27  C   UNL     1     -12.602  13.592  66.544  1.00  0.00    -0.225 A  
HETATM   28  C   UNL     1     -11.812  12.702  67.275  1.00  0.00    -0.395 A  
ENDBRANCH  13  23
ENDBRANCH   9  12
ENDBRANCH   5   6
ENDBRANCH   4   5
ENDBRANCH   2   4
TORSDOF 7
ENDMDL
MODEL      109
REMARK 921   NORMALIZED FREE ENERGY PREDICTED BY IDOCK:   -3.07 KCAL/MOL
REMARK 922        TOTAL FREE ENERGY PREDICTED BY IDOCK:   -6.05 KCAL/MOL
REMARK 923 INTER-LIGAND FREE ENERGY PREDICTED BY IDOCK:   -4.73 KCAL/MOL
REMARK 924 INTRA-LIGAND FREE ENERGY PREDICTED BY IDOCK:   -1.31 KCAL/MOL
REMARK 927      BINDING AFFINITY PREDICTED BY RF-SCORE:    0.00 PKD
ROOT
HETATM    1  O   UNL     1      -5.367   7.116  70.147  1.00  0.00    -0.022 OA 
HETATM    2  C   UNL     1      -5.284   8.516  70.400  1.00  0.00    -0.021 C  
HETATM    3  H   UNL     1      -4.945   6.631  70.847  1.00  0.00     0.000 HD 
ENDROOT
BRANCH   2   4
HETATM    4  C   UNL     1      -5.964   9.297  69.274  1.00  0.00    -0.038 C  
BRANCH   4   5
HETATM    5  O   UNL     1      -5.404  10.612  69.188  1.00  0.00    -0.042 OA 
BRANCH   5   6
HETATM    6  C   UNL     1      -6.169  11.578  68.585  1.00  0.00    -0.052 A  
HETATM    7  C   UNL     1      -5.769  12.400  67.535  1.00  0.00    -0.138 A  
HETATM    8  C   UNL     1      -6.669  13.321  66.972  1.00  0.00     0.548 A  
HETATM    9  C   UNL     1      -7.989  13.427  67.439  1.00  0.00    -0.170 A  
HETATM   10  C   UNL     1      -7.467  11.721  69.091  1.00  0.00     0.035 A  
HETATM   11  C   UNL     1      -8.371  12.638  68.527  1.00  0.00    -0.060 A  
BRANCH   9  12
HETATM   12  C   UNL     1      -8.945  14.328  66.719  1.00  0.00    -0.249 C  
HETATM   13  C   UNL     1      -8.812  15.683  66.846  1.00  0.00    -0.279 C  
BRANCH  12  14
HETATM   14  C   UNL     1     -10.089  13.758  65.945  1.00  0.00    -0.325 A  
HETATM   15  C   UNL     1      -9.878  13.190  64.679  1.00  0.00    -0.017 A  
HETATM   16  C   UNL     1     -12.239  12.684  64.467  1.00  0.00    -0.514 A  
HETATM   17  C   UNL     1     -11.392  13.764  66.463  1.00  0.00    -0.336 A  
HETATM   18  C   UNL     1     -12.461  13.239  65.725  1.00  0.00    -0.480 A  
HETATM   19  C   UNL     1     -10.946  12.655  63.946  1.00  0.00    -0.468 A  
ENDBRANCH  12  14
BRANCH  13  20
HETATM   20  C   UNL     1      -9.844  16.725  66.420  1.00  0.00    -0.312 C  
HETATM   21  C   UNL     1      -9.326  18.155  66.318  1.00  0.00    -0.208 C  
HETATM   22 CL   UNL     1     -10.691  19.271  66.009  1.00  0.00    -0.516 Cl 
ENDBRANCH  13  20
BRANCH  13  23
HETATM   23  C   UNL     1      -7.664  16.299  67.573  1.00  0.00    -0.169 A  
HETATM   24  C   UNL     1      -5.495  17.431  68.955  1.00  0.00    -0.155 A  
HETATM   25  C   UNL     1      -6.521  16.725  66.880  1.00  0.00    -0.243 A  
HETATM   26  C   UNL     1      -5.442  17.285  67.569  1.00  0.00    -0.144 A  
HETATM   27  C   UNL     1      -6.633  17.032  69.648  1.00  0.00    -0.129 A  
HETATM   28  C   UNL     1      -7.715  16.473  68.963  1.00  0.00    -0.228 A  
ENDBRANCH  13  23
ENDBRANCH   9  12
ENDBRANCH   5   6
ENDBRANCH   4   5
ENDBRANCH   2   4
TORSDOF 7
ENDMDL
MODEL      110
REMARK 921   NORMALIZED FREE ENERGY PREDICTED BY IDOCK:   -2.96 KCAL/MOL
REMARK 922        TOTAL FREE ENERGY PREDICTED BY IDOCK:   -5.89 KCAL/MOL
REMARK 923 INTER-LIGAND FREE ENERGY PREDICTED BY IDOCK:   -4.07 KCAL/MOL
REMARK 924 INTRA-LIGAND FREE ENERGY PREDICTED BY IDOCK:   -1.82 KCAL/MOL
REMARK 927      BINDING AFFINITY PREDICTED BY RF-SCORE:    0.00 PKD
ROOT
HETATM    1  O   UNL     1      -9.990   4.928  64.570  1.00  0.00    -0.361 OA 
HETATM    2  C   UNL     1      -8.874   4.144  64.985  1.00  0.00    -0.131 C  
HETATM    3  H   UNL     1      -9.702   5.635  64.004  1.00  0.00     0.000 HD 
ENDROOT
BRANCH   2   4
HETATM    4  C   UNL     1      -9.337   3.006  65.896  1.00  0.00    -0.077 C  
BRANCH   4   5
HETATM    5  O   UNL     1      -8.478   2.917  67.038  1.00  0.00    -0.089 OA 
BRANCH   5   6
HETATM    6  C   UNL     1      -8.333   4.049  67.800  1.00  0.00    -0.094 A  
HETATM    7  C   UNL     1      -7.128   4.658  68.138  1.00  0.00    -0.061 A  
HETATM    8  C   UNL     1      -7.119   5.847  68.887  1.00  0.00    -0.073 A  
HETATM    9  C   UNL     1      -8.315   6.455  69.300  1.00  0.00    -0.122 A  
HETATM   10  C   UNL     1      -9.526   4.622  68.259  1.00  0.00    -0.200 A  
HETATM   11  C   UNL     1      -9.520   5.814  69.005  1.00  0.00    -0.152 A  
BRANCH   9  12
HETATM   12  C   UNL     1      -8.256   7.789  69.981  1.00  0.00    -0.121 C  
HETATM   13  C   UNL     1      -8.216   8.925  69.221  1.00  0.00    -0.114 C  
BRANCH  12  14
HETATM   14  C   UNL     1      -8.147   7.878  71.467  1.00  0.00    -0.117 A  
HETATM   15  C   UNL     1      -6.893   8.022  72.082  1.00  0.00    -0.073 A  
HETATM   16  C   UNL     1      -7.924   8.040  74.275  1.00  0.00    -0.297 A  
HETATM   17  C   UNL     1      -9.287   7.833  72.283  1.00  0.00    -0.212 A  
HETATM   18  C   UNL     1      -9.175   7.904  73.678  1.00  0.00    -0.320 A  
HETATM   19  C   UNL     1      -6.783   8.104  73.477  1.00  0.00    -0.138 A  
ENDBRANCH  12  14
BRANCH  13  20
HETATM   20  C   UNL     1      -7.878  10.327  69.728  1.00  0.00    -0.151 C  
HETATM   21  C   UNL     1      -6.419  10.742  69.578  1.00  0.00    -0.089 C  
HETATM   22 CL   UNL     1      -6.151  12.312  70.396  1.00  0.00    -0.099 Cl 
ENDBRANCH  13  20
BRANCH  13  23
HETATM   23  C   UNL     1      -8.363   8.890  67.737  1.00  0.00    -0.110 A  
HETATM   24  C   UNL     1      -8.643   8.858  64.941  1.00  0.00    -0.198 A  
HETATM   25  C   UNL     1      -7.268   8.586  66.914  1.00  0.00    -0.075 A  
HETATM   26  C   UNL     1      -7.408   8.573  65.523  1.00  0.00    -0.084 A  
HETATM   27  C   UNL     1      -9.740   9.139  65.750  1.00  0.00    -0.299 A  
HETATM   28  C   UNL     1      -9.604   9.151  67.140  1.00  0.00    -0.215 A  
ENDBRANCH  13  23
ENDBRANCH   9  12
ENDBRANCH   5   6
ENDBRANCH   4   5
ENDBRANCH   2   4
TORSDOF 7
ENDMDL
MODEL      111
REMARK 921   NORMALIZED FREE ENERGY PREDICTED BY IDOCK:   -2.89 KCAL/MOL
REMARK 922        TOTAL FREE ENERGY PREDICTED BY IDOCK:   -5.80 KCAL/MOL
REMARK 923 INTER-LIGAND FREE ENERGY PREDICTED BY IDOCK:   -4.42 KCAL/MOL
REMARK 924 INTRA-LIGAND FREE ENERGY PREDICTED BY IDOCK:   -1.38 KCAL/MOL
REMARK 927      BINDING AFFINITY PREDICTED BY RF-SCORE:    0.00 PKD
ROOT
HETATM    1  O   UNL     1     -10.340  12.866  63.904  1.00  0.00    -0.433 OA 
HETATM    2  C   UNL     1     -10.476  11.450  63.967  1.00  0.00    -0.378 C  
HETATM    3  H   UNL     1     -11.098  13.287  64.292  1.00  0.00     0.000 HD 
ENDROOT
BRANCH   2   4
HETATM    4  C   UNL     1      -9.255  10.772  63.343  1.00  0.00    -0.268 C  
BRANCH   4   5
HETATM    5  O   UNL     1      -8.200  10.689  64.307  1.00  0.00    -0.106 OA 
BRANCH   5   6
HETATM    6  C   UNL     1      -8.406   9.871  65.389  1.00  0.00    -0.146 A  
HETATM    7  C   UNL     1      -9.503   9.035  65.584  1.00  0.00    -0.273 A  
HETATM    8  C   UNL     1      -9.571   8.206  66.717  1.00  0.00    -0.281 A  
HETATM    9  C   UNL     1      -8.538   8.188  67.668  1.00  0.00    -0.130 A  
HETATM   10  C   UNL     1      -7.402   9.896  66.364  1.00  0.00    -0.101 A  
HETATM   11  C   UNL     1      -7.465   9.065  67.496  1.00  0.00    -0.081 A  
BRANCH   9  12
HETATM   12  C   UNL     1      -8.596   7.191  68.786  1.00  0.00    -0.125 C  
HETATM   13  C   UNL     1      -8.294   5.883  68.531  1.00  0.00    -0.109 C  
BRANCH  12  14
HETATM   14  C   UNL     1      -9.068   7.600  70.143  1.00  0.00    -0.150 A  
HETATM   15  C   UNL     1     -10.441   7.695  70.420  1.00  0.00    -0.221 A  
HETATM   16  C   UNL     1      -9.976   8.379  72.698  1.00  0.00    -0.329 A  
HETATM   17  C   UNL     1      -8.160   7.888  71.172  1.00  0.00    -0.093 A  
HETATM   18  C   UNL     1      -8.611   8.284  72.439  1.00  0.00    -0.270 A  
HETATM   19  C   UNL     1     -10.892   8.080  71.690  1.00  0.00    -0.288 A  
ENDBRANCH  12  14
BRANCH  13  20
HETATM   20  C   UNL     1      -8.566   4.705  69.467  1.00  0.00    -0.103 C  
HETATM   21  C   UNL     1      -7.387   4.268  70.327  1.00  0.00    -0.045 C  
HETATM   22 CL   UNL     1      -7.806   2.766  71.207  1.00  0.00    -0.044 Cl 
ENDBRANCH  13  20
BRANCH  13  23
HETATM   23  C   UNL     1      -7.779   5.434  67.205  1.00  0.00    -0.096 A  
HETATM   24  C   UNL     1      -6.816   4.618  64.695  1.00  0.00    -0.045 A  
HETATM   25  C   UNL     1      -6.404   5.256  66.992  1.00  0.00    -0.040 A  
HETATM   26  C   UNL     1      -5.926   4.852  65.742  1.00  0.00    -0.023 A  
HETATM   27  C   UNL     1      -8.183   4.771  64.902  1.00  0.00    -0.120 A  
HETATM   28  C   UNL     1      -8.664   5.172  66.151  1.00  0.00    -0.123 A  
ENDBRANCH  13  23
ENDBRANCH   9  12
ENDBRANCH   5   6
ENDBRANCH   4   5
ENDBRANCH   2   4
TORSDOF 7
ENDMDL
MODEL      112
REMARK 921   NORMALIZED FREE ENERGY PREDICTED BY IDOCK:   -2.85 KCAL/MOL
REMARK 922        TOTAL FREE ENERGY PREDICTED BY IDOCK:   -5.73 KCAL/MOL
REMARK 923 INTER-LIGAND FREE ENERGY PREDICTED BY IDOCK:   -5.06 KCAL/MOL
REMARK 924 INTRA-LIGAND FREE ENERGY PREDICTED BY IDOCK:   -0.67 KCAL/MOL
REMARK 927      BINDING AFFINITY PREDICTED BY RF-SCORE:    0.00 PKD
ROOT
HETATM    1  O   UNL     1      -8.628   2.339  69.393  1.00  0.00    -0.053 OA 
HETATM    2  C   UNL     1      -8.379   3.626  69.951  1.00  0.00    -0.052 C  
HETATM    3  H   UNL     1      -7.854   2.022  68.941  1.00  0.00     0.000 HD 
ENDROOT
BRANCH   2   4
HETATM    4  C   UNL     1      -9.624   4.136  70.679  1.00  0.00    -0.194 C  
BRANCH   4   5
HETATM    5  O   UNL     1      -9.322   5.359  71.360  1.00  0.00    -0.144 OA 
BRANCH   5   6
HETATM    6  C   UNL     1      -9.643   6.527  70.716  1.00  0.00    -0.179 A  
HETATM    7  C   UNL     1     -10.646   6.685  69.762  1.00  0.00    -0.270 A  
HETATM    8  C   UNL     1     -10.907   7.952  69.212  1.00  0.00    -0.077 A  
HETATM    9  C   UNL     1     -10.182   9.084  69.614  1.00  0.00    -0.211 A  
HETATM   10  C   UNL     1      -8.879   7.644  71.077  1.00  0.00    -0.142 A  
HETATM   11  C   UNL     1      -9.142   8.912  70.531  1.00  0.00    -0.233 A  
BRANCH   9  12
HETATM   12  C   UNL     1     -10.588  10.430  69.096  1.00  0.00    -0.255 C  
HETATM   13  C   UNL     1     -10.036  10.893  67.933  1.00  0.00    -0.199 C  
BRANCH  12  14
HETATM   14  C   UNL     1     -11.513  11.299  69.883  1.00  0.00    -0.373 A  
HETATM   15  C   UNL     1     -12.011  10.869  71.123  1.00  0.00    -0.317 A  
HETATM   16  C   UNL     1     -13.269  12.925  71.378  1.00  0.00    -0.262 A  
HETATM   17  C   UNL     1     -11.898  12.564  69.414  1.00  0.00    -0.368 A  
HETATM   18  C   UNL     1     -12.777  13.367  70.152  1.00  0.00    -0.024 A  
HETATM   19  C   UNL     1     -12.882  11.677  71.866  1.00  0.00    -0.354 A  
ENDBRANCH  12  14
BRANCH  13  20
HETATM   20  C   UNL     1     -10.120  12.328  67.415  1.00  0.00    -0.207 C  
HETATM   21  C   UNL     1      -9.272  12.630  66.185  1.00  0.00    -0.045 C  
HETATM   22 CL   UNL     1      -9.323  14.384  65.832  1.00  0.00    -0.184 Cl 
ENDBRANCH  13  20
BRANCH  13  23
HETATM   23  C   UNL     1      -9.141  10.048  67.091  1.00  0.00    -0.154 A  
HETATM   24  C   UNL     1      -7.458   8.477  65.480  1.00  0.00    -0.085 A  
HETATM   25  C   UNL     1      -7.764   9.980  67.351  1.00  0.00    -0.095 A  
HETATM   26  C   UNL     1      -6.928   9.200  66.548  1.00  0.00    -0.080 A  
HETATM   27  C   UNL     1      -8.826   8.520  65.228  1.00  0.00    -0.144 A  
HETATM   28  C   UNL     1      -9.665   9.297  66.030  1.00  0.00    -0.359 A  
ENDBRANCH  13  23
ENDBRANCH   9  12
ENDBRANCH   5   6
ENDBRANCH   4   5
ENDBRANCH   2   4
TORSDOF 7
ENDMDL
MODEL      113
REMARK 921   NORMALIZED FREE ENERGY PREDICTED BY IDOCK:   -2.79 KCAL/MOL
REMARK 922        TOTAL FREE ENERGY PREDICTED BY IDOCK:   -5.66 KCAL/MOL
REMARK 923 INTER-LIGAND FREE ENERGY PREDICTED BY IDOCK:   -3.82 KCAL/MOL
REMARK 924 INTRA-LIGAND FREE ENERGY PREDICTED BY IDOCK:   -1.84 KCAL/MOL
REMARK 927      BINDING AFFINITY PREDICTED BY RF-SCORE:    0.00 PKD
ROOT
HETATM    1  O   UNL     1      -7.104   9.023  68.445  1.00  0.00    -0.074 OA 
HETATM    2  C   UNL     1      -6.144   9.123  69.493  1.00  0.00    -0.036 C  
HETATM    3  H   UNL     1      -7.734   8.341  68.641  1.00  0.00     0.000 HD 
ENDROOT
BRANCH   2   4
HETATM    4  C   UNL     1      -5.128  10.222  69.178  1.00  0.00    -0.035 C  
BRANCH   4   5
HETATM    5  O   UNL     1      -5.460  11.412  69.901  1.00  0.00    -0.060 OA 
BRANCH   5   6
HETATM    6  C   UNL     1      -6.231  12.342  69.251  1.00  0.00    -0.101 A  
HETATM    7  C   UNL     1      -6.514  12.361  67.888  1.00  0.00    -0.095 A  
HETATM    8  C   UNL     1      -7.363  13.346  67.353  1.00  0.00    -0.124 A  
HETATM    9  C   UNL     1      -7.954  14.320  68.173  1.00  0.00    -0.140 A  
HETATM   10  C   UNL     1      -6.774  13.346  70.062  1.00  0.00     0.244 A  
HETATM   11  C   UNL     1      -7.627  14.330  69.531  1.00  0.00     0.149 A  
BRANCH   9  12
HETATM   12  C   UNL     1      -8.954  15.264  67.576  1.00  0.00    -0.192 C  
HETATM   13  C   UNL     1     -10.146  14.773  67.120  1.00  0.00    -0.240 C  
BRANCH  12  14
HETATM   14  C   UNL     1      -8.619  16.708  67.394  1.00  0.00    -0.203 A  
HETATM   15  C   UNL     1      -8.999  17.654  68.359  1.00  0.00    -0.280 A  
HETATM   16  C   UNL     1      -8.002  19.441  67.060  1.00  0.00    -0.287 A  
HETATM   17  C   UNL     1      -7.912  17.154  66.267  1.00  0.00    -0.339 A  
HETATM   18  C   UNL     1      -7.614  18.512  66.098  1.00  0.00    -0.273 A  
HETATM   19  C   UNL     1      -8.691  19.010  68.194  1.00  0.00    -0.351 A  
ENDBRANCH  12  14
BRANCH  13  20
HETATM   20  C   UNL     1     -11.146  15.529  66.246  1.00  0.00    -0.177 C  
HETATM   21  C   UNL     1     -10.860  15.499  64.749  1.00  0.00    -0.363 C  
HETATM   22 CL   UNL     1     -11.995  16.588  63.896  1.00  0.00     0.899 Cl 
ENDBRANCH  13  20
BRANCH  13  23
HETATM   23  C   UNL     1     -10.542  13.349  67.317  1.00  0.00    -0.256 A  
HETATM   24  C   UNL     1     -11.257  10.656  67.682  1.00  0.00    -0.361 A  
HETATM   25  C   UNL     1     -10.902  12.873  68.586  1.00  0.00    -0.288 A  
HETATM   26  C   UNL     1     -11.256  11.532  68.767  1.00  0.00    -0.309 A  
HETATM   27  C   UNL     1     -10.923  11.124  66.415  1.00  0.00    -0.248 A  
HETATM   28  C   UNL     1     -10.571  12.464  66.231  1.00  0.00    -0.277 A  
ENDBRANCH  13  23
ENDBRANCH   9  12
ENDBRANCH   5   6
ENDBRANCH   4   5
ENDBRANCH   2   4
TORSDOF 7
ENDMDL
MODEL      114
REMARK 921   NORMALIZED FREE ENERGY PREDICTED BY IDOCK:   -2.76 KCAL/MOL
REMARK 922        TOTAL FREE ENERGY PREDICTED BY IDOCK:   -5.61 KCAL/MOL
REMARK 923 INTER-LIGAND FREE ENERGY PREDICTED BY IDOCK:   -4.19 KCAL/MOL
REMARK 924 INTRA-LIGAND FREE ENERGY PREDICTED BY IDOCK:   -1.41 KCAL/MOL
REMARK 927      BINDING AFFINITY PREDICTED BY RF-SCORE:    0.00 PKD
ROOT
HETATM    1  O   UNL     1      -8.362   3.140  73.515  1.00  0.00    -0.073 OA 
HETATM    2  C   UNL     1      -8.585   3.905  72.333  1.00  0.00    -0.101 C  
HETATM    3  H   UNL     1      -7.637   2.540  73.385  1.00  0.00     0.000 HD 
ENDROOT
BRANCH   2   4
HETATM    4  C   UNL     1      -9.752   4.872  72.542  1.00  0.00    -0.150 C  
BRANCH   4   5
HETATM    5  O   UNL     1      -9.252   6.173  72.868  1.00  0.00    -0.136 OA 
BRANCH   5   6
HETATM    6  C   UNL     1      -9.224   7.102  71.859  1.00  0.00    -0.138 A  
HETATM    7  C   UNL     1      -8.450   8.260  71.835  1.00  0.00    -0.214 A  
HETATM    8  C   UNL     1      -8.477   9.107  70.714  1.00  0.00    -0.256 A  
HETATM    9  C   UNL     1      -9.266   8.807  69.592  1.00  0.00    -0.150 A  
HETATM   10  C   UNL     1     -10.056   6.829  70.766  1.00  0.00    -0.208 A  
HETATM   11  C   UNL     1     -10.081   7.673  69.642  1.00  0.00    -0.194 A  
BRANCH   9  12
HETATM   12  C   UNL     1      -9.158   9.671  68.373  1.00  0.00    -0.123 C  
HETATM   13  C   UNL     1      -8.766   9.110  67.189  1.00  0.00    -0.130 C  
BRANCH  12  14
HETATM   14  C   UNL     1      -9.383  11.145  68.465  1.00  0.00    -0.190 A  
HETATM   15  C   UNL     1      -8.294  12.030  68.498  1.00  0.00    -0.104 A  
HETATM   16  C   UNL     1      -9.791  13.930  68.647  1.00  0.00    -0.175 A  
HETATM   17  C   UNL     1     -10.679  11.681  68.509  1.00  0.00    -0.250 A  
HETATM   18  C   UNL     1     -10.880  13.064  68.609  1.00  0.00    -0.287 A  
HETATM   19  C   UNL     1      -8.497  13.414  68.587  1.00  0.00     0.001 A  
ENDBRANCH  12  14
BRANCH  13  20
HETATM   20  C   UNL     1      -8.340   9.875  65.937  1.00  0.00    -0.126 C  
HETATM   21  C   UNL     1      -9.385   9.953  64.831  1.00  0.00    -0.268 C  
HETATM   22 CL   UNL     1      -8.665  10.697  63.371  1.00  0.00    -0.177 Cl 
ENDBRANCH  13  20
BRANCH  13  23
HETATM   23  C   UNL     1      -8.571   7.639  67.038  1.00  0.00    -0.122 A  
HETATM   24  C   UNL     1      -8.205   4.864  66.786  1.00  0.00    -0.107 A  
HETATM   25  C   UNL     1      -9.574   6.835  66.477  1.00  0.00    -0.191 A  
HETATM   26  C   UNL     1      -9.392   5.455  66.354  1.00  0.00    -0.157 A  
HETATM   27  C   UNL     1      -7.195   5.656  67.323  1.00  0.00    -0.075 A  
HETATM   28  C   UNL     1      -7.373   7.036  67.445  1.00  0.00    -0.092 A  
ENDBRANCH  13  23
ENDBRANCH   9  12
ENDBRANCH   5   6
ENDBRANCH   4   5
ENDBRANCH   2   4
TORSDOF 7
ENDMDL
MODEL      115
REMARK 921   NORMALIZED FREE ENERGY PREDICTED BY IDOCK:   -2.74 KCAL/MOL
REMARK 922        TOTAL FREE ENERGY PREDICTED BY IDOCK:   -5.58 KCAL/MOL
REMARK 923 INTER-LIGAND FREE ENERGY PREDICTED BY IDOCK:   -4.63 KCAL/MOL
REMARK 924 INTRA-LIGAND FREE ENERGY PREDICTED BY IDOCK:   -0.95 KCAL/MOL
REMARK 927      BINDING AFFINITY PREDICTED BY RF-SCORE:    0.00 PKD
ROOT
HETATM    1  O   UNL     1      -5.161  11.110  64.490  1.00  0.00    -0.485 OA 
HETATM    2  C   UNL     1      -5.787  10.166  63.626  1.00  0.00    -0.138 C  
HETATM    3  H   UNL     1      -4.391  11.478  64.072  1.00  0.00     0.000 HD 
ENDROOT
BRANCH   2   4
HETATM    4  C   UNL     1      -7.027   9.574  64.298  1.00  0.00    -0.108 C  
BRANCH   4   5
HETATM    5  O   UNL     1      -6.758   8.232  64.717  1.00  0.00    -0.066 OA 
BRANCH   5   6
HETATM    6  C   UNL     1      -7.433   7.776  65.821  1.00  0.00    -0.078 A  
HETATM    7  C   UNL     1      -8.678   7.151  65.817  1.00  0.00    -0.125 A  
HETATM    8  C   UNL     1      -9.241   6.685  67.018  1.00  0.00    -0.147 A  
HETATM    9  C   UNL     1      -8.565   6.823  68.240  1.00  0.00    -0.124 A  
HETATM   10  C   UNL     1      -6.783   7.967  67.046  1.00  0.00    -0.068 A  
HETATM   11  C   UNL     1      -7.342   7.497  68.248  1.00  0.00    -0.096 A  
BRANCH   9  12
HETATM   12  C   UNL     1      -9.147   6.192  69.469  1.00  0.00    -0.140 C  
HETATM   13  C   UNL     1      -8.899   4.871  69.723  1.00  0.00    -0.129 C  
BRANCH  12  14
HETATM   14  C   UNL     1     -10.064   6.966  70.358  1.00  0.00    -0.201 A  
HETATM   15  C   UNL     1     -11.289   6.417  70.769  1.00  0.00    -0.411 A  
HETATM   16  C   UNL     1     -11.810   8.419  72.031  1.00  0.00    -0.417 A  
HETATM   17  C   UNL     1      -9.723   8.249  70.813  1.00  0.00    -0.197 A  
HETATM   18  C   UNL     1     -10.595   8.974  71.636  1.00  0.00    -0.434 A  
HETATM   19  C   UNL     1     -12.155   7.139  71.601  1.00  0.00    -0.371 A  
ENDBRANCH  12  14
BRANCH  13  20
HETATM   20  C   UNL     1      -9.625   4.010  70.756  1.00  0.00    -0.263 C  
HETATM   21  C   UNL     1      -9.327   2.517  70.686  1.00  0.00    -0.142 C  
HETATM   22 CL   UNL     1     -10.399   1.634  71.817  1.00  0.00    -0.160 Cl 
ENDBRANCH  13  20
BRANCH  13  23
HETATM   23  C   UNL     1      -7.959   4.068  68.889  1.00  0.00    -0.067 A  
HETATM   24  C   UNL     1      -6.183   2.534  67.343  1.00  0.00    -0.028 A  
HETATM   25  C   UNL     1      -8.428   3.311  67.806  1.00  0.00    -0.103 A  
HETATM   26  C   UNL     1      -7.544   2.546  67.039  1.00  0.00    -0.069 A  
HETATM   27  C   UNL     1      -5.705   3.300  68.402  1.00  0.00    -0.022 A  
HETATM   28  C   UNL     1      -6.586   4.067  69.169  1.00  0.00    -0.040 A  
ENDBRANCH  13  23
ENDBRANCH   9  12
ENDBRANCH   5   6
ENDBRANCH   4   5
ENDBRANCH   2   4
TORSDOF 7
ENDMDL
MODEL      116
REMARK 921   NORMALIZED FREE ENERGY PREDICTED BY IDOCK:   -2.61 KCAL/MOL
REMARK 922        TOTAL FREE ENERGY PREDICTED BY IDOCK:   -5.40 KCAL/MOL
REMARK 923 INTER-LIGAND FREE ENERGY PREDICTED BY IDOCK:   -5.13 KCAL/MOL
REMARK 924 INTRA-LIGAND FREE ENERGY PREDICTED BY IDOCK:   -0.27 KCAL/MOL
REMARK 927      BINDING AFFINITY PREDICTED BY RF-SCORE:    0.00 PKD
ROOT
HETATM    1  O   UNL     1     -12.738  14.623  69.524  1.00  0.00    -0.576 OA 
HETATM    2  C   UNL     1     -12.089  15.332  68.472  1.00  0.00    -0.085 C  
HETATM    3  H   UNL     1     -13.231  15.225  70.069  1.00  0.00     0.000 HD 
ENDROOT
BRANCH   2   4
HETATM    4  C   UNL     1     -11.295  14.364  67.593  1.00  0.00    -0.329 C  
BRANCH   4   5
HETATM    5  O   UNL     1     -12.041  13.157  67.403  1.00  0.00    -0.348 OA 
BRANCH   5   6
HETATM    6  C   UNL     1     -11.340  12.046  67.008  1.00  0.00    -0.336 A  
HETATM    7  C   UNL     1     -11.259  11.550  65.709  1.00  0.00    -0.228 A  
HETATM    8  C   UNL     1     -10.463  10.426  65.427  1.00  0.00    -0.187 A  
HETATM    9  C   UNL     1      -9.725   9.786  66.435  1.00  0.00    -0.275 A  
HETATM   10  C   UNL     1     -10.650  11.376  68.025  1.00  0.00    -0.224 A  
HETATM   11  C   UNL     1      -9.850  10.254  67.745  1.00  0.00    -0.195 A  
BRANCH   9  12
HETATM   12  C   UNL     1      -8.790   8.676  66.059  1.00  0.00    -0.213 C  
HETATM   13  C   UNL     1      -8.677   7.591  66.883  1.00  0.00    -0.131 C  
BRANCH  12  14
HETATM   14  C   UNL     1      -7.923   8.791  64.848  1.00  0.00    -0.135 A  
HETATM   15  C   UNL     1      -6.526   8.713  64.963  1.00  0.00    -0.061 A  
HETATM   16  C   UNL     1      -6.271   9.015  62.572  1.00  0.00    -0.094 A  
HETATM   17  C   UNL     1      -8.477   8.968  63.572  1.00  0.00    -0.173 A  
HETATM   18  C   UNL     1      -7.656   9.088  62.443  1.00  0.00    -0.103 A  
HETATM   19  C   UNL     1      -5.706   8.823  63.833  1.00  0.00    -0.070 A  
ENDBRANCH  12  14
BRANCH  13  20
HETATM   20  C   UNL     1      -7.590   6.519  66.803  1.00  0.00    -0.091 C  
HETATM   21  C   UNL     1      -7.980   5.247  66.059  1.00  0.00    -0.104 C  
HETATM   22 CL   UNL     1      -6.682   4.027  66.229  1.00  0.00    -0.052 Cl 
ENDBRANCH  13  20
BRANCH  13  23
HETATM   23  C   UNL     1      -9.550   7.411  68.079  1.00  0.00    -0.152 A  
HETATM   24  C   UNL     1     -11.190   7.039  70.330  1.00  0.00    -0.339 A  
HETATM   25  C   UNL     1      -9.093   7.758  69.359  1.00  0.00    -0.146 A  
HETATM   26  C   UNL     1      -9.909   7.570  70.478  1.00  0.00    -0.183 A  
HETATM   27  C   UNL     1     -11.660   6.713  69.062  1.00  0.00    -0.009 A  
HETATM   28  C   UNL     1     -10.847   6.901  67.941  1.00  0.00    -0.287 A  
ENDBRANCH  13  23
ENDBRANCH   9  12
ENDBRANCH   5   6
ENDBRANCH   4   5
ENDBRANCH   2   4
TORSDOF 7
ENDMDL
MODEL      117
REMARK 921   NORMALIZED FREE ENERGY PREDICTED BY IDOCK:   -2.53 KCAL/MOL
REMARK 922        TOTAL FREE ENERGY PREDICTED BY IDOCK:   -5.29 KCAL/MOL
REMARK 923 INTER-LIGAND FREE ENERGY PREDICTED BY IDOCK:   -3.93 KCAL/MOL
REMARK 924 INTRA-LIGAND FREE ENERGY PREDICTED BY IDOCK:   -1.35 KCAL/MOL
REMARK 927      BINDING AFFINITY PREDICTED BY RF-SCORE:    0.00 PKD
ROOT
HETATM    1  O   UNL     1     -10.361  12.861  63.870  1.00  0.00    -0.433 OA 
HETATM    2  C   UNL     1     -10.339  11.444  63.716  1.00  0.00    -0.393 C  
HETATM    3  H   UNL     1     -11.098  13.120  64.411  1.00  0.00     0.000 HD 
ENDROOT
BRANCH   2   4
HETATM    4  C   UNL     1      -9.153  11.026  62.845  1.00  0.00    -0.317 C  
BRANCH   4   5
HETATM    5  O   UNL     1      -7.969  10.939  63.646  1.00  0.00     0.097 OA 
BRANCH   5   6
HETATM    6  C   UNL     1      -7.919   9.936  64.580  1.00  0.00    -0.141 A  
HETATM    7  C   UNL     1      -7.313  10.013  65.832  1.00  0.00    -0.115 A  
HETATM    8  C   UNL     1      -7.376   8.925  66.718  1.00  0.00    -0.082 A  
HETATM    9  C   UNL     1      -8.056   7.745  66.376  1.00  0.00    -0.109 A  
HETATM   10  C   UNL     1      -8.549   8.740  64.213  1.00  0.00    -0.093 A  
HETATM   11  C   UNL     1      -8.617   7.651  65.100  1.00  0.00     0.000 A  
BRANCH   9  12
HETATM   12  C   UNL     1      -8.206   6.667  67.406  1.00  0.00    -0.121 C  
HETATM   13  C   UNL     1      -8.851   6.948  68.579  1.00  0.00    -0.124 C  
BRANCH  12  14
HETATM   14  C   UNL     1      -7.581   5.327  67.199  1.00  0.00    -0.092 A  
HETATM   15  C   UNL     1      -6.221   5.124  67.485  1.00  0.00    -0.038 A  
HETATM   16  C   UNL     1      -6.382   2.803  66.805  1.00  0.00    -0.031 A  
HETATM   17  C   UNL     1      -8.331   4.239  66.728  1.00  0.00    -0.101 A  
HETATM   18  C   UNL     1      -7.733   2.989  66.523  1.00  0.00    -0.077 A  
HETATM   19  C   UNL     1      -5.626   3.870  67.290  1.00  0.00    -0.021 A  
ENDBRANCH  12  14
BRANCH  13  20
HETATM   20  C   UNL     1      -8.851   6.072  69.830  1.00  0.00    -0.138 C  
HETATM   21  C   UNL     1     -10.158   5.343  70.118  1.00  0.00    -0.252 C  
HETATM   22 CL   UNL     1     -10.059   4.530  71.710  1.00  0.00    -0.261 Cl 
ENDBRANCH  13  20
BRANCH  13  23
HETATM   23  C   UNL     1      -9.527   8.257  68.815  1.00  0.00    -0.148 A  
HETATM   24  C   UNL     1     -10.830  10.705  69.269  1.00  0.00    -0.282 A  
HETATM   25  C   UNL     1      -9.189   9.050  69.921  1.00  0.00    -0.181 A  
HETATM   26  C   UNL     1      -9.839  10.267  70.147  1.00  0.00     0.011 A  
HETATM   27  C   UNL     1     -11.157   9.936  68.156  1.00  0.00    -0.215 A  
HETATM   28  C   UNL     1     -10.507   8.720  67.927  1.00  0.00    -0.275 A  
ENDBRANCH  13  23
ENDBRANCH   9  12
ENDBRANCH   5   6
ENDBRANCH   4   5
ENDBRANCH   2   4
TORSDOF 7
ENDMDL
MODEL      118
REMARK 921   NORMALIZED FREE ENERGY PREDICTED BY IDOCK:   -2.39 KCAL/MOL
REMARK 922        TOTAL FREE ENERGY PREDICTED BY IDOCK:   -5.09 KCAL/MOL
REMARK 923 INTER-LIGAND FREE ENERGY PREDICTED BY IDOCK:   -4.64 KCAL/MOL
REMARK 924 INTRA-LIGAND FREE ENERGY PREDICTED BY IDOCK:   -0.45 KCAL/MOL
REMARK 927      BINDING AFFINITY PREDICTED BY RF-SCORE:    0.00 PKD
ROOT
HETATM    1  O   UNL     1      -7.335   4.003  74.124  1.00  0.00    -0.064 OA 
HETATM    2  C   UNL     1      -7.075   5.067  73.213  1.00  0.00    -0.081 C  
HETATM    3  H   UNL     1      -6.843   4.131  74.927  1.00  0.00     0.000 HD 
ENDROOT
BRANCH   2   4
HETATM    4  C   UNL     1      -7.866   4.863  71.921  1.00  0.00    -0.108 C  
BRANCH   4   5
HETATM    5  O   UNL     1      -7.297   5.653  70.872  1.00  0.00    -0.079 OA 
BRANCH   5   6
HETATM    6  C   UNL     1      -8.028   6.729  70.434  1.00  0.00    -0.115 A  
HETATM    7  C   UNL     1      -7.573   8.042  70.342  1.00  0.00    -0.081 A  
HETATM    8  C   UNL     1      -8.411   9.048  69.829  1.00  0.00    -0.129 A  
HETATM    9  C   UNL     1      -9.711   8.757  69.387  1.00  0.00    -0.172 A  
HETATM   10  C   UNL     1      -9.343   6.446  70.048  1.00  0.00    -0.162 A  
HETATM   11  C   UNL     1     -10.182   7.450  69.530  1.00  0.00    -0.204 A  
BRANCH   9  12
HETATM   12  C   UNL     1     -10.514   9.837  68.727  1.00  0.00    -0.240 C  
HETATM   13  C   UNL     1     -10.386  10.036  67.380  1.00  0.00    -0.292 C  
BRANCH  12  14
HETATM   14  C   UNL     1     -11.374  10.748  69.540  1.00  0.00    -0.355 A  
HETATM   15  C   UNL     1     -11.091  12.122  69.606  1.00  0.00    -0.046 A  
HETATM   16  C   UNL     1     -12.983  12.481  71.078  1.00  0.00    -0.154 A  
HETATM   17  C   UNL     1     -12.485  10.262  70.245  1.00  0.00    -0.239 A  
HETATM   18  C   UNL     1     -13.278  11.122  71.016  1.00  0.00    -0.051 A  
HETATM   19  C   UNL     1     -11.892  12.982  70.369  1.00  0.00    -0.245 A  
ENDBRANCH  12  14
BRANCH  13  20
HETATM   20  C   UNL     1     -10.903  11.246  66.604  1.00  0.00    -0.325 C  
HETATM   21  C   UNL     1      -9.901  12.378  66.413  1.00  0.00    -0.240 C  
HETATM   22 CL   UNL     1     -10.716  13.788  65.670  1.00  0.00    -0.282 Cl 
ENDBRANCH  13  20
BRANCH  13  23
HETATM   23  C   UNL     1      -9.573   9.127  66.520  1.00  0.00    -0.289 A  
HETATM   24  C   UNL     1      -8.070   7.410  64.881  1.00  0.00    -0.114 A  
HETATM   25  C   UNL     1      -8.591   9.641  65.661  1.00  0.00    -0.149 A  
HETATM   26  C   UNL     1      -7.845   8.786  64.845  1.00  0.00    -0.120 A  
HETATM   27  C   UNL     1      -9.027   6.889  65.745  1.00  0.00    -0.038 A  
HETATM   28  C   UNL     1      -9.773   7.741  66.564  1.00  0.00    -0.265 A  
ENDBRANCH  13  23
ENDBRANCH   9  12
ENDBRANCH   5   6
ENDBRANCH   4   5
ENDBRANCH   2   4
TORSDOF 7
ENDMDL
MODEL      119
REMARK 921   NORMALIZED FREE ENERGY PREDICTED BY IDOCK:   -2.33 KCAL/MOL
REMARK 922        TOTAL FREE ENERGY PREDICTED BY IDOCK:   -5.00 KCAL/MOL
REMARK 923 INTER-LIGAND FREE ENERGY PREDICTED BY IDOCK:   -3.15 KCAL/MOL
REMARK 924 INTRA-LIGAND FREE ENERGY PREDICTED BY IDOCK:   -1.85 KCAL/MOL
REMARK 927      BINDING AFFINITY PREDICTED BY RF-SCORE:    0.00 PKD
ROOT
HETATM    1  O   UNL     1     -10.268   2.575  64.641  1.00  0.00    -0.357 OA 
HETATM    2  C   UNL     1      -9.699   2.961  63.393  1.00  0.00    -0.101 C  
HETATM    3  H   UNL     1     -10.835   1.821  64.524  1.00  0.00     0.000 HD 
ENDROOT
BRANCH   2   4
HETATM    4  C   UNL     1      -8.786   4.173  63.580  1.00  0.00    -0.124 C  
BRANCH   4   5
HETATM    5  O   UNL     1      -7.828   3.906  64.610  1.00  0.00    -0.083 OA 
BRANCH   5   6
HETATM    6  C   UNL     1      -7.805   4.765  65.680  1.00  0.00    -0.095 A  
HETATM    7  C   UNL     1      -6.768   4.898  66.599  1.00  0.00    -0.051 A  
HETATM    8  C   UNL     1      -6.848   5.855  67.625  1.00  0.00    -0.060 A  
HETATM    9  C   UNL     1      -7.959   6.704  67.743  1.00  0.00    -0.112 A  
HETATM   10  C   UNL     1      -8.940   5.572  65.828  1.00  0.00    -0.158 A  
HETATM   11  C   UNL     1      -9.020   6.533  66.852  1.00  0.00    -0.128 A  
BRANCH   9  12
HETATM   12  C   UNL     1      -7.935   7.794  68.772  1.00  0.00    -0.125 C  
HETATM   13  C   UNL     1      -7.428   9.019  68.436  1.00  0.00    -0.082 C  
BRANCH  12  14
HETATM   14  C   UNL     1      -8.374   7.524  70.174  1.00  0.00    -0.134 A  
HETATM   15  C   UNL     1      -9.608   8.004  70.639  1.00  0.00    -0.172 A  
HETATM   16  C   UNL     1      -9.212   7.029  72.822  1.00  0.00    -0.157 A  
HETATM   17  C   UNL     1      -7.575   6.779  71.054  1.00  0.00    -0.085 A  
HETATM   18  C   UNL     1      -7.988   6.541  72.372  1.00  0.00    -0.101 A  
HETATM   19  C   UNL     1     -10.024   7.757  71.954  1.00  0.00    -0.222 A  
ENDBRANCH  12  14
BRANCH  13  20
HETATM   20  C   UNL     1      -7.075  10.137  69.415  1.00  0.00    -0.085 C  
HETATM   21  C   UNL     1      -5.585  10.374  69.628  1.00  0.00    -0.039 C  
HETATM   22 CL   UNL     1      -5.344  11.566  70.942  1.00  0.00    -0.132 Cl 
ENDBRANCH  13  20
BRANCH  13  23
HETATM   23  C   UNL     1      -7.018   9.349  67.041  1.00  0.00    -0.085 A  
HETATM   24  C   UNL     1      -6.243   9.939  64.405  1.00  0.00    -0.122 A  
HETATM   25  C   UNL     1      -7.929   9.923  66.141  1.00  0.00    -0.109 A  
HETATM   26  C   UNL     1      -7.543  10.214  64.830  1.00  0.00    -0.139 A  
HETATM   27  C   UNL     1      -5.326   9.391  65.296  1.00  0.00    -0.041 A  
HETATM   28  C   UNL     1      -5.708   9.101  66.608  1.00  0.00    -0.050 A  
ENDBRANCH  13  23
ENDBRANCH   9  12
ENDBRANCH   5   6
ENDBRANCH   4   5
ENDBRANCH   2   4
TORSDOF 7
ENDMDL
MODEL      120
REMARK 921   NORMALIZED FREE ENERGY PREDICTED BY IDOCK:   -2.18 KCAL/MOL
REMARK 922        TOTAL FREE ENERGY PREDICTED BY IDOCK:   -4.79 KCAL/MOL
REMARK 923 INTER-LIGAND FREE ENERGY PREDICTED BY IDOCK:   -3.46 KCAL/MOL
REMARK 924 INTRA-LIGAND FREE ENERGY PREDICTED BY IDOCK:   -1.33 KCAL/MOL
REMARK 927      BINDING AFFINITY PREDICTED BY RF-SCORE:    0.00 PKD
ROOT
HETATM    1  O   UNL     1     -12.182  11.224  70.688  1.00  0.00    -0.349 OA 
HETATM    2  C   UNL     1     -11.142  10.347  70.266  1.00  0.00    -0.307 C  
HETATM    3  H   UNL     1     -12.673  10.832  71.400  1.00  0.00     0.000 HD 
ENDROOT
BRANCH   2   4
HETATM    4  C   UNL     1     -10.350  10.977  69.119  1.00  0.00    -0.188 C  
BRANCH   4   5
HETATM    5  O   UNL     1      -8.975  10.590  69.208  1.00  0.00    -0.179 OA 
BRANCH   5   6
HETATM    6  C   UNL     1      -8.592   9.481  68.496  1.00  0.00    -0.119 A  
HETATM    7  C   UNL     1      -7.466   8.699  68.745  1.00  0.00    -0.091 A  
HETATM    8  C   UNL     1      -7.212   7.555  67.969  1.00  0.00    -0.090 A  
HETATM    9  C   UNL     1      -8.084   7.165  66.940  1.00  0.00    -0.116 A  
HETATM   10  C   UNL     1      -9.432   9.127  67.434  1.00  0.00    -0.177 A  
HETATM   11  C   UNL     1      -9.183   7.981  66.659  1.00  0.00    -0.225 A  
BRANCH   9  12
HETATM   12  C   UNL     1      -7.839   5.867  66.232  1.00  0.00    -0.101 C  
HETATM   13  C   UNL     1      -7.555   5.880  64.894  1.00  0.00    -0.090 C  
BRANCH  12  14
HETATM   14  C   UNL     1      -7.993   4.568  66.952  1.00  0.00    -0.102 A  
HETATM   15  C   UNL     1      -6.882   3.946  67.543  1.00  0.00    -0.054 A  
HETATM   16  C   UNL     1      -8.266   2.110  68.310  1.00  0.00    -0.072 A  
HETATM   17  C   UNL     1      -9.244   3.945  67.067  1.00  0.00    -0.194 A  
HETATM   18  C   UNL     1      -9.377   2.719  67.733  1.00  0.00    -0.239 A  
HETATM   19  C   UNL     1      -7.018   2.726  68.219  1.00  0.00    -0.048 A  
ENDBRANCH  12  14
BRANCH  13  20
HETATM   20  C   UNL     1      -7.554   4.662  63.971  1.00  0.00    -0.068 C  
HETATM   21  C   UNL     1      -8.894   3.949  63.827  1.00  0.00    -0.112 C  
HETATM   22 CL   UNL     1      -8.678   2.443  62.884  1.00  0.00    -0.084 Cl 
ENDBRANCH  13  20
BRANCH  13  23
HETATM   23  C   UNL     1      -7.350   7.151  64.141  1.00  0.00    -0.083 A  
HETATM   24  C   UNL     1      -6.992   9.558  62.737  1.00  0.00    -0.097 A  
HETATM   25  C   UNL     1      -6.286   8.008  64.456  1.00  0.00    -0.053 A  
HETATM   26  C   UNL     1      -6.110   9.207  63.758  1.00  0.00    -0.087 A  
HETATM   27  C   UNL     1      -8.037   8.704  62.402  1.00  0.00    -0.167 A  
HETATM   28  C   UNL     1      -8.215   7.504  63.096  1.00  0.00     0.033 A  
ENDBRANCH  13  23
ENDBRANCH   9  12
ENDBRANCH   5   6
ENDBRANCH   4   5
ENDBRANCH   2   4
TORSDOF 7
ENDMDL
MODEL      121
REMARK 921   NORMALIZED FREE ENERGY PREDICTED BY IDOCK:   -2.12 KCAL/MOL
REMARK 922        TOTAL FREE ENERGY PREDICTED BY IDOCK:   -4.71 KCAL/MOL
REMARK 923 INTER-LIGAND FREE ENERGY PREDICTED BY IDOCK:   -3.75 KCAL/MOL
REMARK 924 INTRA-LIGAND FREE ENERGY PREDICTED BY IDOCK:   -0.96 KCAL/MOL
REMARK 927      BINDING AFFINITY PREDICTED BY RF-SCORE:    0.00 PKD
ROOT
HETATM    1  O   UNL     1     -13.475  11.567  72.251  1.00  0.00    -0.602 OA 
HETATM    2  C   UNL     1     -13.160  10.277  71.735  1.00  0.00    -0.465 C  
HETATM    3  H   UNL     1     -14.268  11.527  72.773  1.00  0.00     0.000 HD 
ENDROOT
BRANCH   2   4
HETATM    4  C   UNL     1     -11.883  10.340  70.895  1.00  0.00    -0.377 C  
BRANCH   4   5
HETATM    5  O   UNL     1     -10.765   9.912  71.679  1.00  0.00     0.020 OA 
BRANCH   5   6
HETATM    6  C   UNL     1      -9.926   8.983  71.115  1.00  0.00    -0.295 A  
HETATM    7  C   UNL     1      -8.542   9.089  71.011  1.00  0.00    -0.264 A  
HETATM    8  C   UNL     1      -7.791   8.040  70.453  1.00  0.00    -0.091 A  
HETATM    9  C   UNL     1      -8.408   6.863  70.002  1.00  0.00    -0.139 A  
HETATM   10  C   UNL     1     -10.551   7.834  70.614  1.00  0.00    -0.222 A  
HETATM   11  C   UNL     1      -9.801   6.782  70.060  1.00  0.00    -0.179 A  
BRANCH   9  12
HETATM   12  C   UNL     1      -7.551   5.723  69.539  1.00  0.00    -0.087 C  
HETATM   13  C   UNL     1      -7.133   5.688  68.238  1.00  0.00    -0.074 C  
BRANCH  12  14
HETATM   14  C   UNL     1      -7.232   4.591  70.459  1.00  0.00    -0.048 A  
HETATM   15  C   UNL     1      -6.997   4.827  71.823  1.00  0.00    -0.052 A  
HETATM   16  C   UNL     1      -6.619   2.464  72.208  1.00  0.00    -0.015 A  
HETATM   17  C   UNL     1      -7.169   3.270  69.991  1.00  0.00    -0.041 A  
HETATM   18  C   UNL     1      -6.855   2.215  70.859  1.00  0.00    -0.032 A  
HETATM   19  C   UNL     1      -6.694   3.770  72.692  1.00  0.00    -0.037 A  
ENDBRANCH  12  14
BRANCH  13  20
HETATM   20  C   UNL     1      -6.502   4.486  67.536  1.00  0.00    -0.045 C  
HETATM   21  C   UNL     1      -7.090   4.143  66.172  1.00  0.00    -0.067 C  
HETATM   22 CL   UNL     1      -6.387   2.606  65.581  1.00  0.00    -0.024 Cl 
ENDBRANCH  13  20
BRANCH  13  23
HETATM   23  C   UNL     1      -7.391   6.814  67.293  1.00  0.00    -0.091 A  
HETATM   24  C   UNL     1      -7.860   8.917  65.490  1.00  0.00    -0.100 A  
HETATM   25  C   UNL     1      -8.678   7.043  66.784  1.00  0.00    -0.124 A  
HETATM   26  C   UNL     1      -8.909   8.088  65.885  1.00  0.00    -0.189 A  
HETATM   27  C   UNL     1      -6.584   8.711  66.007  1.00  0.00    -0.057 A  
HETATM   28  C   UNL     1      -6.350   7.669  66.907  1.00  0.00    -0.053 A  
ENDBRANCH  13  23
ENDBRANCH   9  12
ENDBRANCH   5   6
ENDBRANCH   4   5
ENDBRANCH   2   4
TORSDOF 7
ENDMDL
MODEL      122
REMARK 921   NORMALIZED FREE ENERGY PREDICTED BY IDOCK:   -2.00 KCAL/MOL
REMARK 922        TOTAL FREE ENERGY PREDICTED BY IDOCK:   -4.54 KCAL/MOL
REMARK 923 INTER-LIGAND FREE ENERGY PREDICTED BY IDOCK:   -3.15 KCAL/MOL
REMARK 924 INTRA-LIGAND FREE ENERGY PREDICTED BY IDOCK:   -1.39 KCAL/MOL
REMARK 927      BINDING AFFINITY PREDICTED BY RF-SCORE:    0.00 PKD
ROOT
HETATM    1  O   UNL     1     -10.294   2.581  64.529  1.00  0.00    -0.361 OA 
HETATM    2  C   UNL     1      -9.820   2.830  63.208  1.00  0.00    -0.106 C  
HETATM    3  H   UNL     1     -10.832   1.798  64.542  1.00  0.00     0.000 HD 
ENDROOT
BRANCH   2   4
HETATM    4  C   UNL     1      -8.953   4.090  63.186  1.00  0.00    -0.113 C  
BRANCH   4   5
HETATM    5  O   UNL     1      -7.994   4.038  64.247  1.00  0.00    -0.084 OA 
BRANCH   5   6
HETATM    6  C   UNL     1      -8.179   4.900  65.299  1.00  0.00    -0.122 A  
HETATM    7  C   UNL     1      -9.385   5.491  65.668  1.00  0.00    -0.064 A  
HETATM    8  C   UNL     1      -9.450   6.320  66.801  1.00  0.00    -0.167 A  
HETATM    9  C   UNL     1      -8.316   6.563  67.592  1.00  0.00    -0.121 A  
HETATM   10  C   UNL     1      -7.034   5.185  66.053  1.00  0.00    -0.067 A  
HETATM   11  C   UNL     1      -7.098   6.011  67.189  1.00  0.00    -0.070 A  
BRANCH   9  12
HETATM   12  C   UNL     1      -8.468   7.345  68.861  1.00  0.00    -0.129 C  
HETATM   13  C   UNL     1      -8.722   6.681  70.029  1.00  0.00    -0.141 C  
BRANCH  12  14
HETATM   14  C   UNL     1      -8.436   8.838  68.841  1.00  0.00    -0.131 A  
HETATM   15  C   UNL     1      -7.348   9.535  69.390  1.00  0.00    -0.084 A  
HETATM   16  C   UNL     1      -8.365  11.658  68.818  1.00  0.00    -0.040 A  
HETATM   17  C   UNL     1      -9.480   9.579  68.267  1.00  0.00    -0.143 A  
HETATM   18  C   UNL     1      -9.449  10.980  68.264  1.00  0.00    -0.172 A  
HETATM   19  C   UNL     1      -7.313  10.935  69.377  1.00  0.00    -0.116 A  
ENDBRANCH  12  14
BRANCH  13  20
HETATM   20  C   UNL     1      -9.174   7.322  71.340  1.00  0.00    -0.145 C  
HETATM   21  C   UNL     1     -10.592   6.978  71.781  1.00  0.00    -0.210 C  
HETATM   22 CL   UNL     1     -11.034   7.959  73.212  1.00  0.00    -0.309 Cl 
ENDBRANCH  13  20
BRANCH  13  23
HETATM   23  C   UNL     1      -8.721   5.191  70.108  1.00  0.00    -0.128 A  
HETATM   24  C   UNL     1      -8.729   2.383  70.223  1.00  0.00    -0.124 A  
HETATM   25  C   UNL     1      -7.520   4.480  70.239  1.00  0.00    -0.050 A  
HETATM   26  C   UNL     1      -7.525   3.083  70.294  1.00  0.00    -0.043 A  
HETATM   27  C   UNL     1      -9.928   3.081  70.115  1.00  0.00     0.367 A  
HETATM   28  C   UNL     1      -9.927   4.477  70.062  1.00  0.00    -0.280 A  
ENDBRANCH  13  23
ENDBRANCH   9  12
ENDBRANCH   5   6
ENDBRANCH   4   5
ENDBRANCH   2   4
TORSDOF 7
ENDMDL
MODEL      123
REMARK 921   NORMALIZED FREE ENERGY PREDICTED BY IDOCK:   -2.00 KCAL/MOL
REMARK 922        TOTAL FREE ENERGY PREDICTED BY IDOCK:   -4.54 KCAL/MOL
REMARK 923 INTER-LIGAND FREE ENERGY PREDICTED BY IDOCK:   -5.84 KCAL/MOL
REMARK 924 INTRA-LIGAND FREE ENERGY PREDICTED BY IDOCK:    1.31 KCAL/MOL
REMARK 927      BINDING AFFINITY PREDICTED BY RF-SCORE:    0.00 PKD
ROOT
HETATM    1  O   UNL     1     -10.078  14.055  65.319  1.00  0.00    -0.420 OA 
HETATM    2  C   UNL     1     -10.278  12.691  64.962  1.00  0.00    -0.273 C  
HETATM    3  H   UNL     1      -9.179  14.311  65.147  1.00  0.00     0.000 HD 
ENDROOT
BRANCH   2   4
HETATM    4  C   UNL     1     -11.725  12.278  65.238  1.00  0.00    -0.361 C  
BRANCH   4   5
HETATM    5  O   UNL     1     -11.908  12.058  66.641  1.00  0.00    -0.583 OA 
BRANCH   5   6
HETATM    6  C   UNL     1     -11.203  11.026  67.208  1.00  0.00    -0.258 A  
HETATM    7  C   UNL     1     -11.260  10.634  68.543  1.00  0.00    -0.342 A  
HETATM    8  C   UNL     1     -10.522   9.525  68.989  1.00  0.00    -0.229 A  
HETATM    9  C   UNL     1      -9.724   8.779  68.106  1.00  0.00    -0.177 A  
HETATM   10  C   UNL     1     -10.364  10.320  66.338  1.00  0.00    -0.262 A  
HETATM   11  C   UNL     1      -9.628   9.207  66.780  1.00  0.00    -0.253 A  
BRANCH   9  12
HETATM   12  C   UNL     1      -9.063   7.529  68.602  1.00  0.00    -0.134 C  
HETATM   13  C   UNL     1      -9.488   6.969  69.775  1.00  0.00    -0.145 C  
BRANCH  12  14
HETATM   14  C   UNL     1      -7.893   6.951  67.877  1.00  0.00    -0.113 A  
HETATM   15  C   UNL     1      -8.048   5.815  67.067  1.00  0.00    -0.102 A  
HETATM   16  C   UNL     1      -5.690   5.841  66.507  1.00  0.00    -0.017 A  
HETATM   17  C   UNL     1      -6.618   7.529  67.976  1.00  0.00    -0.054 A  
HETATM   18  C   UNL     1      -5.523   6.972  67.303  1.00  0.00    -0.017 A  
HETATM   19  C   UNL     1      -6.954   5.265  66.386  1.00  0.00    -0.067 A  
ENDBRANCH  12  14
BRANCH  13  20
HETATM   20  C   UNL     1      -8.760   5.878  70.558  1.00  0.00    -0.140 C  
HETATM   21  C   UNL     1      -7.681   6.369  71.516  1.00  0.00    -0.100 C  
HETATM   22 CL   UNL     1      -6.795   4.971  72.197  1.00  0.00    -0.059 Cl 
ENDBRANCH  13  20
BRANCH  13  23
HETATM   23  C   UNL     1     -10.677   7.485  70.513  1.00  0.00    -0.244 A  
HETATM   24  C   UNL     1     -12.917   8.485  71.884  1.00  0.00    -0.394 A  
HETATM   25  C   UNL     1     -11.948   6.928  70.305  1.00  0.00    -0.257 A  
HETATM   26  C   UNL     1     -13.061   7.427  70.987  1.00  0.00    -0.184 A  
HETATM   27  C   UNL     1     -11.657   9.030  72.112  1.00  0.00    -0.348 A  
HETATM   28  C   UNL     1     -10.542   8.532  71.435  1.00  0.00    -0.312 A  
ENDBRANCH  13  23
ENDBRANCH   9  12
ENDBRANCH   5   6
ENDBRANCH   4   5
ENDBRANCH   2   4
TORSDOF 7
ENDMDL
MODEL      124
REMARK 921   NORMALIZED FREE ENERGY PREDICTED BY IDOCK:   -1.97 KCAL/MOL
REMARK 922        TOTAL FREE ENERGY PREDICTED BY IDOCK:   -4.50 KCAL/MOL
REMARK 923 INTER-LIGAND FREE ENERGY PREDICTED BY IDOCK:   -4.71 KCAL/MOL
REMARK 924 INTRA-LIGAND FREE ENERGY PREDICTED BY IDOCK:    0.21 KCAL/MOL
REMARK 927      BINDING AFFINITY PREDICTED BY RF-SCORE:    0.00 PKD
ROOT
HETATM    1  O   UNL     1     -12.595  14.611  64.025  1.00  0.00    -0.839 OA 
HETATM    2  C   UNL     1     -11.931  13.410  64.408  1.00  0.00    -0.411 C  
HETATM    3  H   UNL     1     -13.232  14.859  64.685  1.00  0.00     0.000 HD 
ENDROOT
BRANCH   2   4
HETATM    4  C   UNL     1     -10.906  13.011  63.346  1.00  0.00     0.201 C  
BRANCH   4   5
HETATM    5  O   UNL     1     -10.706  11.593  63.373  1.00  0.00    -0.386 OA 
BRANCH   5   6
HETATM    6  C   UNL     1     -10.458  11.021  64.595  1.00  0.00    -0.329 A  
HETATM    7  C   UNL     1     -11.407  10.751  65.578  1.00  0.00     0.508 A  
HETATM    8  C   UNL     1     -11.029  10.113  66.772  1.00  0.00    -0.049 A  
HETATM    9  C   UNL     1      -9.700   9.722  66.999  1.00  0.00    -0.233 A  
HETATM   10  C   UNL     1      -9.122  10.683  64.842  1.00  0.00    -0.231 A  
HETATM   11  C   UNL     1      -8.742  10.041  66.034  1.00  0.00    -0.152 A  
BRANCH   9  12
HETATM   12  C   UNL     1      -9.375   8.928  68.228  1.00  0.00    -0.149 C  
HETATM   13  C   UNL     1      -9.793   9.385  69.448  1.00  0.00    -0.183 C  
BRANCH  12  14
HETATM   14  C   UNL     1      -8.526   7.703  68.138  1.00  0.00    -0.124 A  
HETATM   15  C   UNL     1      -7.129   7.810  68.055  1.00  0.00    -0.085 A  
HETATM   16  C   UNL     1      -6.909   5.398  67.959  1.00  0.00    -0.060 A  
HETATM   17  C   UNL     1      -9.097   6.421  68.146  1.00  0.00    -0.113 A  
HETATM   18  C   UNL     1      -8.294   5.277  68.047  1.00  0.00    -0.098 A  
HETATM   19  C   UNL     1      -6.326   6.665  67.968  1.00  0.00    -0.044 A  
ENDBRANCH  12  14
BRANCH  13  20
HETATM   20  C   UNL     1      -9.322   8.864  70.805  1.00  0.00    -0.280 C  
HETATM   21  C   UNL     1     -10.147   7.724  71.390  1.00  0.00    -0.182 C  
HETATM   22 CL   UNL     1      -9.594   7.370  73.055  1.00  0.00    -0.219 Cl 
ENDBRANCH  13  20
BRANCH  13  23
HETATM   23  C   UNL     1     -10.677  10.579  69.585  1.00  0.00    -0.302 A  
HETATM   24  C   UNL     1     -12.349  12.826  69.811  1.00  0.00    -0.096 A  
HETATM   25  C   UNL     1     -11.897  10.493  70.271  1.00  0.00    -0.418 A  
HETATM   26  C   UNL     1     -12.729  11.611  70.381  1.00  0.00    -0.105 A  
HETATM   27  C   UNL     1     -11.130  12.926  69.147  1.00  0.00    -0.245 A  
HETATM   28  C   UNL     1     -10.296  11.811  69.037  1.00  0.00    -0.087 A  
ENDBRANCH  13  23
ENDBRANCH   9  12
ENDBRANCH   5   6
ENDBRANCH   4   5
ENDBRANCH   2   4
TORSDOF 7
ENDMDL
MODEL      125
REMARK 921   NORMALIZED FREE ENERGY PREDICTED BY IDOCK:   -1.71 KCAL/MOL
REMARK 922        TOTAL FREE ENERGY PREDICTED BY IDOCK:   -4.12 KCAL/MOL
REMARK 923 INTER-LIGAND FREE ENERGY PREDICTED BY IDOCK:   -2.35 KCAL/MOL
REMARK 924 INTRA-LIGAND FREE ENERGY PREDICTED BY IDOCK:   -1.77 KCAL/MOL
REMARK 927      BINDING AFFINITY PREDICTED BY RF-SCORE:    0.00 PKD
ROOT
HETATM    1  O   UNL     1     -10.149   3.335  65.289  1.00  0.00    -0.386 OA 
HETATM    2  C   UNL     1     -10.351   3.670  63.919  1.00  0.00    -0.254 C  
HETATM    3  H   UNL     1     -10.867   2.799  65.605  1.00  0.00     0.000 HD 
ENDROOT
BRANCH   2   4
HETATM    4  C   UNL     1      -9.195   4.532  63.409  1.00  0.00    -0.086 C  
BRANCH   4   5
HETATM    5  O   UNL     1      -8.061   4.381  64.269  1.00  0.00    -0.091 OA 
BRANCH   5   6
HETATM    6  C   UNL     1      -7.811   5.398  65.156  1.00  0.00    -0.095 A  
HETATM    7  C   UNL     1      -8.763   6.240  65.723  1.00  0.00    -0.145 A  
HETATM    8  C   UNL     1      -8.380   7.214  66.661  1.00  0.00    -0.114 A  
HETATM    9  C   UNL     1      -7.041   7.356  67.058  1.00  0.00    -0.084 A  
HETATM   10  C   UNL     1      -6.467   5.573  65.507  1.00  0.00    -0.040 A  
HETATM   11  C   UNL     1      -6.081   6.544  66.448  1.00  0.00    -0.033 A  
BRANCH   9  12
HETATM   12  C   UNL     1      -6.706   8.318  68.157  1.00  0.00    -0.065 C  
HETATM   13  C   UNL     1      -6.596   7.857  69.439  1.00  0.00    -0.035 C  
BRANCH  12  14
HETATM   14  C   UNL     1      -6.583   9.780  67.874  1.00  0.00    -0.061 A  
HETATM   15  C   UNL     1      -7.715  10.609  67.908  1.00  0.00    -0.100 A  
HETATM   16  C   UNL     1      -6.370  12.541  67.333  1.00  0.00    -0.157 A  
HETATM   17  C   UNL     1      -5.341  10.361  67.579  1.00  0.00    -0.040 A  
HETATM   18  C   UNL     1      -5.237  11.731  67.302  1.00  0.00    -0.089 A  
HETATM   19  C   UNL     1      -7.609  11.980  67.641  1.00  0.00    -0.136 A  
ENDBRANCH  12  14
BRANCH  13  20
HETATM   20  C   UNL     1      -6.538   8.723  70.697  1.00  0.00    -0.045 C  
HETATM   21  C   UNL     1      -5.139   9.006  71.232  1.00  0.00    -0.031 C  
HETATM   22 CL   UNL     1      -5.255   9.852  72.805  1.00  0.00    -0.016 Cl 
ENDBRANCH  13  20
BRANCH  13  23
HETATM   23  C   UNL     1      -6.669   6.403  69.765  1.00  0.00    -0.053 A  
HETATM   24  C   UNL     1      -6.821   3.659  70.350  1.00  0.00    -0.034 A  
HETATM   25  C   UNL     1      -5.510   5.612  69.781  1.00  0.00    -0.004 A  
HETATM   26  C   UNL     1      -5.587   4.247  70.070  1.00  0.00    -0.013 A  
HETATM   27  C   UNL     1      -7.972   4.440  70.359  1.00  0.00    -0.056 A  
HETATM   28  C   UNL     1      -7.898   5.805  70.073  1.00  0.00    -0.091 A  
ENDBRANCH  13  23
ENDBRANCH   9  12
ENDBRANCH   5   6
ENDBRANCH   4   5
ENDBRANCH   2   4
TORSDOF 7
ENDMDL
MODEL      126
REMARK 921   NORMALIZED FREE ENERGY PREDICTED BY IDOCK:   -1.68 KCAL/MOL
REMARK 922        TOTAL FREE ENERGY PREDICTED BY IDOCK:   -4.09 KCAL/MOL
REMARK 923 INTER-LIGAND FREE ENERGY PREDICTED BY IDOCK:   -4.65 KCAL/MOL
REMARK 924 INTRA-LIGAND FREE ENERGY PREDICTED BY IDOCK:    0.56 KCAL/MOL
REMARK 927      BINDING AFFINITY PREDICTED BY RF-SCORE:    0.00 PKD
ROOT
HETATM    1  O   UNL     1      -9.811  15.710  66.435  1.00  0.00    -0.244 OA 
HETATM    2  C   UNL     1      -9.718  14.359  65.991  1.00  0.00    -0.294 C  
HETATM    3  H   UNL     1      -8.943  16.089  66.515  1.00  0.00     0.000 HD 
ENDROOT
BRANCH   2   4
HETATM    4  C   UNL     1     -11.115  13.748  65.861  1.00  0.00    -0.286 C  
BRANCH   4   5
HETATM    5  O   UNL     1     -11.018  12.423  65.329  1.00  0.00    -0.283 OA 
BRANCH   5   6
HETATM    6  C   UNL     1     -10.857  11.399  66.230  1.00  0.00    -0.263 A  
HETATM    7  C   UNL     1     -11.767  11.031  67.218  1.00  0.00     0.158 A  
HETATM    8  C   UNL     1     -11.503   9.928  68.048  1.00  0.00     0.213 A  
HETATM    9  C   UNL     1     -10.335   9.165  67.896  1.00  0.00    -0.285 A  
HETATM   10  C   UNL     1      -9.664  10.676  66.113  1.00  0.00    -0.253 A  
HETATM   11  C   UNL     1      -9.401   9.569  66.940  1.00  0.00    -0.185 A  
BRANCH   9  12
HETATM   12  C   UNL     1     -10.165   7.923  68.717  1.00  0.00    -0.218 C  
HETATM   13  C   UNL     1     -10.685   7.880  69.980  1.00  0.00    -0.244 C  
BRANCH  12  14
HETATM   14  C   UNL     1      -9.359   6.776  68.200  1.00  0.00    -0.122 A  
HETATM   15  C   UNL     1      -7.979   6.707  68.448  1.00  0.00    -0.111 A  
HETATM   16  C   UNL     1      -7.821   4.622  67.224  1.00  0.00    -0.090 A  
HETATM   17  C   UNL     1      -9.956   5.739  67.467  1.00  0.00    -0.171 A  
HETATM   18  C   UNL     1      -9.190   4.675  66.975  1.00  0.00    -0.137 A  
HETATM   19  C   UNL     1      -7.216   5.636  67.964  1.00  0.00    -0.072 A  
ENDBRANCH  12  14
BRANCH  13  20
HETATM   20  C   UNL     1     -10.372   6.824  71.039  1.00  0.00    -0.228 C  
HETATM   21  C   UNL     1      -9.945   7.366  72.398  1.00  0.00    -0.180 C  
HETATM   22 CL   UNL     1      -9.424   6.015  73.451  1.00  0.00    -0.138 Cl 
ENDBRANCH  13  20
BRANCH  13  23
HETATM   23  C   UNL     1     -11.531   8.982  70.525  1.00  0.00    -0.248 A  
HETATM   24  C   UNL     1     -13.123  11.042  71.581  1.00  0.00    -0.543 A  
HETATM   25  C   UNL     1     -11.025  10.284  70.645  1.00  0.00    -0.287 A  
HETATM   26  C   UNL     1     -11.817  11.308  71.172  1.00  0.00     0.092 A  
HETATM   27  C   UNL     1     -13.642   9.758  71.445  1.00  0.00    -0.322 A  
HETATM   28  C   UNL     1     -12.854   8.733  70.917  1.00  0.00     0.095 A  
ENDBRANCH  13  23
ENDBRANCH   9  12
ENDBRANCH   5   6
ENDBRANCH   4   5
ENDBRANCH   2   4
TORSDOF 7
ENDMDL
MODEL      127
REMARK 921   NORMALIZED FREE ENERGY PREDICTED BY IDOCK:   -1.34 KCAL/MOL
REMARK 922        TOTAL FREE ENERGY PREDICTED BY IDOCK:   -3.60 KCAL/MOL
REMARK 923 INTER-LIGAND FREE ENERGY PREDICTED BY IDOCK:   -2.27 KCAL/MOL
REMARK 924 INTRA-LIGAND FREE ENERGY PREDICTED BY IDOCK:   -1.33 KCAL/MOL
REMARK 927      BINDING AFFINITY PREDICTED BY RF-SCORE:    0.00 PKD
ROOT
HETATM    1  O   UNL     1      -7.950   2.211  73.418  1.00  0.00    -0.045 OA 
HETATM    2  C   UNL     1      -8.025   2.951  72.203  1.00  0.00    -0.055 C  
HETATM    3  H   UNL     1      -7.275   1.545  73.355  1.00  0.00     0.000 HD 
ENDROOT
BRANCH   2   4
HETATM    4  C   UNL     1      -9.111   4.024  72.304  1.00  0.00    -0.115 C  
BRANCH   4   5
HETATM    5  O   UNL     1      -8.522   5.278  72.666  1.00  0.00    -0.116 OA 
BRANCH   5   6
HETATM    6  C   UNL     1      -8.228   6.147  71.645  1.00  0.00    -0.118 A  
HETATM    7  C   UNL     1      -7.350   7.225  71.717  1.00  0.00    -0.080 A  
HETATM    8  C   UNL     1      -7.099   8.012  70.580  1.00  0.00    -0.045 A  
HETATM    9  C   UNL     1      -7.710   7.728  69.348  1.00  0.00    -0.106 A  
HETATM   10  C   UNL     1      -8.883   5.895  70.433  1.00  0.00    -0.146 A  
HETATM   11  C   UNL     1      -8.631   6.679  69.293  1.00  0.00    -0.131 A  
BRANCH   9  12
HETATM   12  C   UNL     1      -7.308   8.515  68.138  1.00  0.00    -0.092 C  
HETATM   13  C   UNL     1      -6.801   7.857  67.052  1.00  0.00    -0.073 C  
BRANCH  12  14
HETATM   14  C   UNL     1      -7.372  10.007  68.146  1.00  0.00    -0.083 A  
HETATM   15  C   UNL     1      -6.205  10.768  68.320  1.00  0.00    -0.053 A  
HETATM   16  C   UNL     1      -7.476  12.826  68.174  1.00  0.00    -0.124 A  
HETATM   17  C   UNL     1      -8.588  10.684  67.972  1.00  0.00    -0.122 A  
HETATM   18  C   UNL     1      -8.640  12.084  67.995  1.00  0.00    -0.170 A  
HETATM   19  C   UNL     1      -6.257  12.168  68.332  1.00  0.00    -0.052 A  
ENDBRANCH  12  14
BRANCH  13  20
HETATM   20  C   UNL     1      -6.093   8.508  65.864  1.00  0.00    -0.048 C  
HETATM   21  C   UNL     1      -6.929   8.635  64.595  1.00  0.00    -0.073 C  
HETATM   22 CL   UNL     1      -5.901   9.225  63.253  1.00  0.00    -0.087 Cl 
ENDBRANCH  13  20
BRANCH  13  23
HETATM   23  C   UNL     1      -6.756   6.367  66.979  1.00  0.00    -0.060 A  
HETATM   24  C   UNL     1      -6.681   3.560  66.875  1.00  0.00    -0.049 A  
HETATM   25  C   UNL     1      -7.741   5.653  66.281  1.00  0.00    -0.099 A  
HETATM   26  C   UNL     1      -7.704   4.257  66.232  1.00  0.00    -0.094 A  
HETATM   27  C   UNL     1      -5.688   4.261  67.552  1.00  0.00    -0.022 A  
HETATM   28  C   UNL     1      -5.721   5.657  67.601  1.00  0.00    -0.013 A  
ENDBRANCH  13  23
ENDBRANCH   9  12
ENDBRANCH   5   6
ENDBRANCH   4   5
ENDBRANCH   2   4
TORSDOF 7
ENDMDL
MODEL      128
REMARK 921   NORMALIZED FREE ENERGY PREDICTED BY IDOCK:   -1.32 KCAL/MOL
REMARK 922        TOTAL FREE ENERGY PREDICTED BY IDOCK:   -3.58 KCAL/MOL
REMARK 923 INTER-LIGAND FREE ENERGY PREDICTED BY IDOCK:   -2.84 KCAL/MOL
REMARK 924 INTRA-LIGAND FREE ENERGY PREDICTED BY IDOCK:   -0.74 KCAL/MOL
REMARK 927      BINDING AFFINITY PREDICTED BY RF-SCORE:    0.00 PKD
ROOT
HETATM    1  O   UNL     1      -9.269  12.164  69.251  1.00  0.00    -0.140 OA 
HETATM    2  C   UNL     1      -8.168  12.483  68.405  1.00  0.00    -0.136 C  
HETATM    3  H   UNL     1     -10.054  12.033  68.732  1.00  0.00     0.000 HD 
ENDROOT
BRANCH   2   4
HETATM    4  C   UNL     1      -6.904  12.694  69.239  1.00  0.00    -0.012 C  
BRANCH   4   5
HETATM    5  O   UNL     1      -6.403  11.431  69.690  1.00  0.00    -0.099 OA 
BRANCH   5   6
HETATM    6  C   UNL     1      -6.623  10.346  68.879  1.00  0.00    -0.053 A  
HETATM    7  C   UNL     1      -5.940  10.056  67.700  1.00  0.00    -0.053 A  
HETATM    8  C   UNL     1      -6.229   8.881  66.984  1.00  0.00    -0.059 A  
HETATM    9  C   UNL     1      -7.196   7.971  67.439  1.00  0.00    -0.088 A  
HETATM   10  C   UNL     1      -7.628   9.469  69.305  1.00  0.00    -0.084 A  
HETATM   11  C   UNL     1      -7.916   8.291  68.592  1.00  0.00    -0.122 A  
BRANCH   9  12
HETATM   12  C   UNL     1      -7.372   6.672  66.711  1.00  0.00    -0.078 C  
HETATM   13  C   UNL     1      -8.026   6.663  65.511  1.00  0.00    -0.118 C  
BRANCH  12  14
HETATM   14  C   UNL     1      -6.923   5.389  67.329  1.00  0.00    -0.065 A  
HETATM   15  C   UNL     1      -5.692   4.818  66.968  1.00  0.00    -0.018 A  
HETATM   16  C   UNL     1      -6.063   2.961  68.480  1.00  0.00    -0.025 A  
HETATM   17  C   UNL     1      -7.706   4.730  68.288  1.00  0.00    -0.081 A  
HETATM   18  C   UNL     1      -7.283   3.520  68.853  1.00  0.00    -0.050 A  
HETATM   19  C   UNL     1      -5.265   3.613  67.541  1.00  0.00    -0.008 A  
ENDBRANCH  12  14
BRANCH  13  20
HETATM   20  C   UNL     1      -8.533   5.420  64.780  1.00  0.00    -0.138 C  
HETATM   21  C   UNL     1      -9.906   4.921  65.214  1.00  0.00     0.005 C  
HETATM   22 CL   UNL     1     -10.260   3.358  64.415  1.00  0.00    -0.162 Cl 
ENDBRANCH  13  20
BRANCH  13  23
HETATM   23  C   UNL     1      -8.457   7.921  64.835  1.00  0.00    -0.045 A  
HETATM   24  C   UNL     1      -9.246  10.309  63.581  1.00  0.00    -0.315 A  
HETATM   25  C   UNL     1      -8.049   8.207  63.523  1.00  0.00    -0.113 A  
HETATM   26  C   UNL     1      -8.441   9.396  62.901  1.00  0.00    -0.206 A  
HETATM   27  C   UNL     1      -9.674  10.025  64.874  1.00  0.00    -0.377 A  
HETATM   28  C   UNL     1      -9.285   8.836  65.498  1.00  0.00    -0.202 A  
ENDBRANCH  13  23
ENDBRANCH   9  12
ENDBRANCH   5   6
ENDBRANCH   4   5
ENDBRANCH   2   4
TORSDOF 7
ENDMDL
MODEL      129
REMARK 921   NORMALIZED FREE ENERGY PREDICTED BY IDOCK:   -1.05 KCAL/MOL
REMARK 922        TOTAL FREE ENERGY PREDICTED BY IDOCK:   -3.20 KCAL/MOL
REMARK 923 INTER-LIGAND FREE ENERGY PREDICTED BY IDOCK:   -1.79 KCAL/MOL
REMARK 924 INTRA-LIGAND FREE ENERGY PREDICTED BY IDOCK:   -1.41 KCAL/MOL
REMARK 927      BINDING AFFINITY PREDICTED BY RF-SCORE:    0.00 PKD
ROOT
HETATM    1  O   UNL     1      -5.179  11.312  62.866  1.00  0.00    -0.324 OA 
HETATM    2  C   UNL     1      -6.362  10.674  63.340  1.00  0.00     0.075 C  
HETATM    3  H   UNL     1      -5.330  12.244  62.760  1.00  0.00     0.000 HD 
ENDROOT
BRANCH   2   4
HETATM    4  C   UNL     1      -6.120   9.173  63.511  1.00  0.00    -0.088 C  
BRANCH   4   5
HETATM    5  O   UNL     1      -5.261   8.944  64.634  1.00  0.00    -0.041 OA 
BRANCH   5   6
HETATM    6  C   UNL     1      -5.827   9.030  65.881  1.00  0.00    -0.051 A  
HETATM    7  C   UNL     1      -6.080  10.204  66.584  1.00  0.00    -0.065 A  
HETATM    8  C   UNL     1      -6.713  10.157  67.839  1.00  0.00    -0.067 A  
HETATM    9  C   UNL     1      -7.115   8.937  68.405  1.00  0.00    -0.077 A  
HETATM   10  C   UNL     1      -6.175   7.807  66.469  1.00  0.00    -0.046 A  
HETATM   11  C   UNL     1      -6.812   7.758  67.721  1.00  0.00    -0.069 A  
BRANCH   9  12
HETATM   12  C   UNL     1      -7.903   8.952  69.681  1.00  0.00    -0.090 C  
HETATM   13  C   UNL     1      -9.208   9.359  69.655  1.00  0.00    -0.195 C  
BRANCH  12  14
HETATM   14  C   UNL     1      -7.249   8.616  70.980  1.00  0.00    -0.079 A  
HETATM   15  C   UNL     1      -6.157   9.368  71.443  1.00  0.00    -0.060 A  
HETATM   16  C   UNL     1      -5.997   7.989  73.430  1.00  0.00    -0.066 A  
HETATM   17  C   UNL     1      -7.710   7.555  71.774  1.00  0.00    -0.085 A  
HETATM   18  C   UNL     1      -7.082   7.238  72.986  1.00  0.00    -0.074 A  
HETATM   19  C   UNL     1      -5.537   9.057  72.660  1.00  0.00    -0.081 A  
ENDBRANCH  12  14
BRANCH  13  20
HETATM   20  C   UNL     1     -10.061   9.698  70.876  1.00  0.00    -0.257 C  
HETATM   21  C   UNL     1     -11.562   9.505  70.699  1.00  0.00    -0.283 C  
HETATM   22 CL   UNL     1     -12.426  10.132  72.136  1.00  0.00    -0.258 Cl 
ENDBRANCH  13  20
BRANCH  13  23
HETATM   23  C   UNL     1      -9.916   9.664  68.378  1.00  0.00    -0.178 A  
HETATM   24  C   UNL     1     -11.222  10.253  65.961  1.00  0.00     0.674 A  
HETATM   25  C   UNL     1     -10.262   8.638  67.486  1.00  0.00    -0.308 A  
HETATM   26  C   UNL     1     -10.910   8.932  66.283  1.00  0.00     0.840 A  
HETATM   27  C   UNL     1     -10.903  11.275  66.849  1.00  0.00    -0.333 A  
HETATM   28  C   UNL     1     -10.257  10.984  68.053  1.00  0.00    -0.201 A  
ENDBRANCH  13  23
ENDBRANCH   9  12
ENDBRANCH   5   6
ENDBRANCH   4   5
ENDBRANCH   2   4
TORSDOF 7
ENDMDL
MODEL      130
REMARK 921   NORMALIZED FREE ENERGY PREDICTED BY IDOCK:   -0.72 KCAL/MOL
REMARK 922        TOTAL FREE ENERGY PREDICTED BY IDOCK:   -2.73 KCAL/MOL
REMARK 923 INTER-LIGAND FREE ENERGY PREDICTED BY IDOCK:   -1.87 KCAL/MOL
REMARK 924 INTRA-LIGAND FREE ENERGY PREDICTED BY IDOCK:   -0.86 KCAL/MOL
REMARK 927      BINDING AFFINITY PREDICTED BY RF-SCORE:    0.00 PKD
ROOT
HETATM    1  O   UNL     1      -9.010  13.810  67.370  1.00  0.00    -0.202 OA 
HETATM    2  C   UNL     1      -8.009  12.820  67.149  1.00  0.00    -0.108 C  
HETATM    3  H   UNL     1      -9.446  14.024  66.553  1.00  0.00     0.000 HD 
ENDROOT
BRANCH   2   4
HETATM    4  C   UNL     1      -7.307  12.475  68.463  1.00  0.00    -0.115 C  
BRANCH   4   5
HETATM    5  O   UNL     1      -8.248  11.911  69.383  1.00  0.00     0.385 OA 
BRANCH   5   6
HETATM    6  C   UNL     1      -8.495  10.566  69.279  1.00  0.00    -0.129 A  
HETATM    7  C   UNL     1      -7.736   9.549  69.853  1.00  0.00    -0.129 A  
HETATM    8  C   UNL     1      -8.126   8.206  69.710  1.00  0.00    -0.116 A  
HETATM    9  C   UNL     1      -9.287   7.857  69.003  1.00  0.00    -0.151 A  
HETATM   10  C   UNL     1      -9.622  10.217  68.525  1.00  0.00    -0.158 A  
HETATM   11  C   UNL     1     -10.016   8.875  68.384  1.00  0.00    -0.198 A  
BRANCH   9  12
HETATM   12  C   UNL     1      -9.730   6.425  68.993  1.00  0.00    -0.145 C  
HETATM   13  C   UNL     1     -10.369   5.916  70.089  1.00  0.00    -0.305 C  
BRANCH  12  14
HETATM   14  C   UNL     1      -9.397   5.536  67.840  1.00  0.00    -0.117 A  
HETATM   15  C   UNL     1      -9.858   5.841  66.550  1.00  0.00    -0.193 A  
HETATM   16  C   UNL     1      -8.785   3.862  65.653  1.00  0.00    -0.117 A  
HETATM   17  C   UNL     1      -8.612   4.386  68.012  1.00  0.00    -0.111 A  
HETATM   18  C   UNL     1      -8.316   3.550  66.927  1.00  0.00    -0.100 A  
HETATM   19  C   UNL     1      -9.552   5.011  65.464  1.00  0.00    -0.105 A  
ENDBRANCH  12  14
BRANCH  13  20
HETATM   20  C   UNL     1     -10.635   4.435  70.360  1.00  0.00     0.598 C  
HETATM   21  C   UNL     1      -9.444   3.642  70.885  1.00  0.00    -0.165 C  
HETATM   22 CL   UNL     1      -9.861   1.903  70.955  1.00  0.00    -0.155 Cl 
ENDBRANCH  13  20
BRANCH  13  23
HETATM   23  C   UNL     1     -10.759   6.773  71.246  1.00  0.00    -0.257 A  
HETATM   24  C   UNL     1     -11.477   8.412  73.412  1.00  0.00     1.317 A  
HETATM   25  C   UNL     1     -12.074   7.245  71.378  1.00  0.00    -0.370 A  
HETATM   26  C   UNL     1     -12.429   8.063  72.455  1.00  0.00    -0.256 A  
HETATM   27  C   UNL     1     -10.177   7.930  73.302  1.00  0.00    -0.297 A  
HETATM   28  C   UNL     1      -9.819   7.112  72.228  1.00  0.00    -0.174 A  
ENDBRANCH  13  23
ENDBRANCH   9  12
ENDBRANCH   5   6
ENDBRANCH   4   5
ENDBRANCH   2   4
TORSDOF 7
ENDMDL
MODEL      131
REMARK 921   NORMALIZED FREE ENERGY PREDICTED BY IDOCK:   -0.45 KCAL/MOL
REMARK 922        TOTAL FREE ENERGY PREDICTED BY IDOCK:   -2.35 KCAL/MOL
REMARK 923 INTER-LIGAND FREE ENERGY PREDICTED BY IDOCK:   -2.32 KCAL/MOL
REMARK 924 INTRA-LIGAND FREE ENERGY PREDICTED BY IDOCK:   -0.03 KCAL/MOL
REMARK 927      BINDING AFFINITY PREDICTED BY RF-SCORE:    0.00 PKD
ROOT
HETATM    1  O   UNL     1     -11.250   3.537  63.362  1.00  0.00    -0.194 OA 
HETATM    2  C   UNL     1     -10.951   2.797  64.542  1.00  0.00     0.905 C  
HETATM    3  H   UNL     1     -12.111   3.301  63.036  1.00  0.00     0.000 HD 
ENDROOT
BRANCH   2   4
HETATM    4  C   UNL     1      -9.565   3.177  65.066  1.00  0.00    -0.099 C  
BRANCH   4   5
HETATM    5  O   UNL     1      -9.231   4.503  64.642  1.00  0.00    -0.154 OA 
BRANCH   5   6
HETATM    6  C   UNL     1      -8.787   5.373  65.605  1.00  0.00    -0.153 A  
HETATM    7  C   UNL     1      -8.221   6.625  65.376  1.00  0.00    -0.138 A  
HETATM    8  C   UNL     1      -7.851   7.444  66.457  1.00  0.00    -0.098 A  
HETATM    9  C   UNL     1      -8.052   7.033  67.784  1.00  0.00    -0.114 A  
HETATM   10  C   UNL     1      -8.936   4.936  66.926  1.00  0.00    -0.109 A  
HETATM   11  C   UNL     1      -8.570   5.755  68.009  1.00  0.00    -0.105 A  
BRANCH   9  12
HETATM   12  C   UNL     1      -7.763   7.995  68.896  1.00  0.00    -0.104 C  
HETATM   13  C   UNL     1      -7.945   9.334  68.684  1.00  0.00    -0.100 C  
BRANCH  12  14
HETATM   14  C   UNL     1      -7.194   7.512  70.190  1.00  0.00    -0.068 A  
HETATM   15  C   UNL     1      -8.014   6.870  71.131  1.00  0.00    -0.101 A  
HETATM   16  C   UNL     1      -6.138   6.601  72.642  1.00  0.00    -0.046 A  
HETATM   17  C   UNL     1      -5.834   7.676  70.492  1.00  0.00    -0.030 A  
HETATM   18  C   UNL     1      -5.312   7.231  71.714  1.00  0.00    -0.036 A  
HETATM   19  C   UNL     1      -7.488   6.416  72.348  1.00  0.00    -0.096 A  
ENDBRANCH  12  14
BRANCH  13  20
HETATM   20  C   UNL     1      -7.445  10.457  69.592  1.00  0.00    -0.160 C  
HETATM   21  C   UNL     1      -6.064  11.006  69.253  1.00  0.00    -0.050 C  
HETATM   22 CL   UNL     1      -5.546  12.160  70.519  1.00  0.00    -0.158 Cl 
ENDBRANCH  13  20
BRANCH  13  23
HETATM   23  C   UNL     1      -8.549   9.861  67.426  1.00  0.00    -0.125 A  
HETATM   24  C   UNL     1      -9.694  10.882  65.072  1.00  0.00    -0.319 A  
HETATM   25  C   UNL     1      -7.738  10.259  66.353  1.00  0.00    -0.116 A  
HETATM   26  C   UNL     1      -8.309  10.769  65.183  1.00  0.00    -0.064 A  
HETATM   27  C   UNL     1     -10.508  10.470  66.123  1.00  0.00    -0.237 A  
HETATM   28  C   UNL     1      -9.940   9.958  67.292  1.00  0.00    -0.245 A  
ENDBRANCH  13  23
ENDBRANCH   9  12
ENDBRANCH   5   6
ENDBRANCH   4   5
ENDBRANCH   2   4
TORSDOF 7
ENDMDL
MODEL      132
REMARK 921   NORMALIZED FREE ENERGY PREDICTED BY IDOCK:   -0.43 KCAL/MOL
REMARK 922        TOTAL FREE ENERGY PREDICTED BY IDOCK:   -2.32 KCAL/MOL
REMARK 923 INTER-LIGAND FREE ENERGY PREDICTED BY IDOCK:   -3.64 KCAL/MOL
REMARK 924 INTRA-LIGAND FREE ENERGY PREDICTED BY IDOCK:    1.32 KCAL/MOL
REMARK 927      BINDING AFFINITY PREDICTED BY RF-SCORE:    0.00 PKD
ROOT
HETATM    1  O   UNL     1      -8.993  17.178  69.629  1.00  0.00     0.366 OA 
HETATM    2  C   UNL     1      -8.628  16.950  68.271  1.00  0.00    -0.230 C  
HETATM    3  H   UNL     1      -8.576  16.538  70.193  1.00  0.00     0.000 HD 
ENDROOT
BRANCH   2   4
HETATM    4  C   UNL     1      -9.299  17.980  67.361  1.00  0.00    -0.254 C  
BRANCH   4   5
HETATM    5  O   UNL     1      -9.796  17.337  66.183  1.00  0.00    -0.356 OA 
BRANCH   5   6
HETATM    6  C   UNL     1      -9.873  15.968  66.204  1.00  0.00    -0.325 A  
HETATM    7  C   UNL     1     -11.021  15.210  65.992  1.00  0.00    -0.332 A  
HETATM    8  C   UNL     1     -10.955  13.806  65.991  1.00  0.00    -0.284 A  
HETATM    9  C   UNL     1      -9.738  13.135  66.189  1.00  0.00    -0.254 A  
HETATM   10  C   UNL     1      -8.668  15.301  66.459  1.00  0.00    -0.314 A  
HETATM   11  C   UNL     1      -8.598  13.897  66.454  1.00  0.00     0.333 A  
BRANCH   9  12
HETATM   12  C   UNL     1      -9.698  11.643  66.048  1.00  0.00    -0.257 C  
HETATM   13  C   UNL     1     -10.222  10.864  67.041  1.00  0.00    -0.256 C  
BRANCH  12  14
HETATM   14  C   UNL     1      -9.012  11.010  64.882  1.00  0.00    -0.115 A  
HETATM   15  C   UNL     1      -9.693  10.830  63.667  1.00  0.00    -0.376 A  
HETATM   16  C   UNL     1      -7.734   9.807  62.673  1.00  0.00    -0.125 A  
HETATM   17  C   UNL     1      -7.676  10.590  64.965  1.00  0.00    -0.039 A  
HETATM   18  C   UNL     1      -7.044   9.984  63.870  1.00  0.00    -0.126 A  
HETATM   19  C   UNL     1      -9.057  10.234  62.570  1.00  0.00    -0.303 A  
ENDBRANCH  12  14
BRANCH  13  20
HETATM   20  C   UNL     1     -10.021   9.357  67.193  1.00  0.00    -0.263 C  
HETATM   21  C   UNL     1      -8.726   8.935  67.877  1.00  0.00    -0.129 C  
HETATM   22 CL   UNL     1      -8.551   7.155  67.794  1.00  0.00    -0.126 Cl 
ENDBRANCH  13  20
BRANCH  13  23
HETATM   23  C   UNL     1     -10.953  11.448  68.203  1.00  0.00    -0.284 A  
HETATM   24  C   UNL     1     -12.301  12.567  70.400  1.00  0.00    -0.311 A  
HETATM   25  C   UNL     1     -11.976  12.387  68.008  1.00  0.00    -0.264 A  
HETATM   26  C   UNL     1     -12.645  12.945  69.102  1.00  0.00     0.548 A  
HETATM   27  C   UNL     1     -11.302  11.620  70.602  1.00  0.00     0.618 A  
HETATM   28  C   UNL     1     -10.634  11.059  69.511  1.00  0.00    -0.182 A  
ENDBRANCH  13  23
ENDBRANCH   9  12
ENDBRANCH   5   6
ENDBRANCH   4   5
ENDBRANCH   2   4
TORSDOF 7
ENDMDL
MODEL      133
REMARK 921   NORMALIZED FREE ENERGY PREDICTED BY IDOCK:    0.29 KCAL/MOL
REMARK 922        TOTAL FREE ENERGY PREDICTED BY IDOCK:   -1.30 KCAL/MOL
REMARK 923 INTER-LIGAND FREE ENERGY PREDICTED BY IDOCK:   -2.91 KCAL/MOL
REMARK 924 INTRA-LIGAND FREE ENERGY PREDICTED BY IDOCK:    1.61 KCAL/MOL
REMARK 927      BINDING AFFINITY PREDICTED BY RF-SCORE:    0.00 PKD
ROOT
HETATM    1  O   UNL     1      -6.118   6.133  73.501  1.00  0.00    -0.059 OA 
HETATM    2  C   UNL     1      -6.285   4.995  72.660  1.00  0.00    -0.031 C  
HETATM    3  H   UNL     1      -6.732   6.098  74.225  1.00  0.00     0.000 HD 
ENDROOT
BRANCH   2   4
HETATM    4  C   UNL     1      -5.296   5.049  71.494  1.00  0.00    -0.005 C  
BRANCH   4   5
HETATM    5  O   UNL     1      -5.997   4.901  70.255  1.00  0.00    -0.016 OA 
BRANCH   5   6
HETATM    6  C   UNL     1      -6.821   5.931  69.876  1.00  0.00    -0.064 A  
HETATM    7  C   UNL     1      -8.163   6.072  70.219  1.00  0.00    -0.119 A  
HETATM    8  C   UNL     1      -8.885   7.205  69.806  1.00  0.00    -0.142 A  
HETATM    9  C   UNL     1      -8.276   8.222  69.053  1.00  0.00    -0.119 A  
HETATM   10  C   UNL     1      -6.226   6.915  69.077  1.00  0.00    -0.027 A  
HETATM   11  C   UNL     1      -6.945   8.051  68.666  1.00  0.00    -0.071 A  
BRANCH   9  12
HETATM   12  C   UNL     1      -9.052   9.468  68.751  1.00  0.00    -0.133 C  
HETATM   13  C   UNL     1      -8.641  10.280  67.731  1.00  0.00    -0.118 C  
BRANCH  12  14
HETATM   14  C   UNL     1     -10.206   9.870  69.610  1.00  0.00    -0.261 A  
HETATM   15  C   UNL     1     -11.033   8.897  70.193  1.00  0.00    -0.245 A  
HETATM   16  C   UNL     1     -12.394  10.614  71.228  1.00  0.00    -0.488 A  
HETATM   17  C   UNL     1     -10.486  11.221  69.865  1.00  0.00     0.376 A  
HETATM   18  C   UNL     1     -11.578  11.590  70.661  1.00  0.00     0.051 A  
HETATM   19  C   UNL     1     -12.118   9.267  70.997  1.00  0.00    -0.349 A  
ENDBRANCH  12  14
BRANCH  13  20
HETATM   20  C   UNL     1      -9.135  11.702  67.468  1.00  0.00    -0.172 C  
HETATM   21  C   UNL     1     -10.356  11.813  66.563  1.00  0.00    -0.223 C  
HETATM   22 CL   UNL     1     -10.680  13.534  66.194  1.00  0.00    -0.286 Cl 
ENDBRANCH  13  20
BRANCH  13  23
HETATM   23  C   UNL     1      -7.522   9.901  66.820  1.00  0.00    -0.095 A  
HETATM   24  C   UNL     1      -5.401   9.167  65.129  1.00  0.00    -0.041 A  
HETATM   25  C   UNL     1      -7.752   9.092  65.698  1.00  0.00    -0.094 A  
HETATM   26  C   UNL     1      -6.696   8.726  64.858  1.00  0.00    -0.069 A  
HETATM   27  C   UNL     1      -5.166   9.987  66.228  1.00  0.00    -0.043 A  
HETATM   28  C   UNL     1      -6.220  10.357  67.067  1.00  0.00    -0.067 A  
ENDBRANCH  13  23
ENDBRANCH   9  12
ENDBRANCH   5   6
ENDBRANCH   4   5
ENDBRANCH   2   4
TORSDOF 7
ENDMDL
MODEL      134
REMARK 921   NORMALIZED FREE ENERGY PREDICTED BY IDOCK:    0.39 KCAL/MOL
REMARK 922        TOTAL FREE ENERGY PREDICTED BY IDOCK:   -1.16 KCAL/MOL
REMARK 923 INTER-LIGAND FREE ENERGY PREDICTED BY IDOCK:    0.16 KCAL/MOL
REMARK 924 INTRA-LIGAND FREE ENERGY PREDICTED BY IDOCK:   -1.33 KCAL/MOL
REMARK 927      BINDING AFFINITY PREDICTED BY RF-SCORE:    0.00 PKD
ROOT
HETATM    1  O   UNL     1     -12.135   4.432  65.456  1.00  0.00     0.640 OA 
HETATM    2  C   UNL     1     -10.722   4.548  65.604  1.00  0.00    -0.118 C  
HETATM    3  H   UNL     1     -12.486   5.213  65.044  1.00  0.00     0.000 HD 
ENDROOT
BRANCH   2   4
HETATM    4  C   UNL     1     -10.155   3.291  66.266  1.00  0.00     0.709 C  
BRANCH   4   5
HETATM    5  O   UNL     1     -10.028   3.500  67.676  1.00  0.00     0.012 OA 
BRANCH   5   6
HETATM    6  C   UNL     1      -9.251   4.555  68.084  1.00  0.00    -0.132 A  
HETATM    7  C   UNL     1      -9.718   5.782  68.548  1.00  0.00    -0.161 A  
HETATM    8  C   UNL     1      -8.814   6.766  68.984  1.00  0.00    -0.129 A  
HETATM    9  C   UNL     1      -7.429   6.536  68.976  1.00  0.00    -0.095 A  
HETATM   10  C   UNL     1      -7.869   4.343  68.022  1.00  0.00    -0.080 A  
HETATM   11  C   UNL     1      -6.962   5.324  68.461  1.00  0.00    -0.057 A  
BRANCH   9  12
HETATM   12  C   UNL     1      -6.518   7.565  69.574  1.00  0.00    -0.036 C  
HETATM   13  C   UNL     1      -5.981   7.344  70.812  1.00  0.00    -0.035 C  
BRANCH  12  14
HETATM   14  C   UNL     1      -6.269   8.858  68.870  1.00  0.00    -0.044 A  
HETATM   15  C   UNL     1      -6.897  10.037  69.304  1.00  0.00    -0.059 A  
HETATM   16  C   UNL     1      -5.816  11.309  67.547  1.00  0.00    -0.055 A  
HETATM   17  C   UNL     1      -5.398   8.933  67.772  1.00  0.00    -0.035 A  
HETATM   18  C   UNL     1      -5.181  10.149  67.110  1.00  0.00    -0.041 A  
HETATM   19  C   UNL     1      -6.670  11.254  68.647  1.00  0.00    -0.071 A  
ENDBRANCH  12  14
BRANCH  13  20
HETATM   20  C   UNL     1      -5.272   8.385  71.676  1.00  0.00    -0.034 C  
HETATM   21  C   UNL     1      -6.148   9.085  72.708  1.00  0.00     0.042 C  
HETATM   22 CL   UNL     1      -5.224  10.404  73.490  1.00  0.00     0.185 Cl 
ENDBRANCH  13  20
BRANCH  13  23
HETATM   23  C   UNL     1      -6.167   6.052  71.535  1.00  0.00    -0.044 A  
HETATM   24  C   UNL     1      -6.487   3.624  72.913  1.00  0.00    -0.024 A  
HETATM   25  C   UNL     1      -7.160   5.915  72.516  1.00  0.00    -0.085 A  
HETATM   26  C   UNL     1      -7.317   4.707  73.202  1.00  0.00    -0.082 A  
HETATM   27  C   UNL     1      -5.513   3.744  71.926  1.00  0.00    -0.007 A  
HETATM   28  C   UNL     1      -5.355   4.949  71.237  1.00  0.00    -0.004 A  
ENDBRANCH  13  23
ENDBRANCH   9  12
ENDBRANCH   5   6
ENDBRANCH   4   5
ENDBRANCH   2   4
TORSDOF 7
ENDMDL
MODEL      135
REMARK 921   NORMALIZED FREE ENERGY PREDICTED BY IDOCK:    0.75 KCAL/MOL
REMARK 922        TOTAL FREE ENERGY PREDICTED BY IDOCK:   -0.67 KCAL/MOL
REMARK 923 INTER-LIGAND FREE ENERGY PREDICTED BY IDOCK:   -4.02 KCAL/MOL
REMARK 924 INTRA-LIGAND FREE ENERGY PREDICTED BY IDOCK:    3.36 KCAL/MOL
REMARK 927      BINDING AFFINITY PREDICTED BY RF-SCORE:    0.00 PKD
ROOT
HETATM    1  O   UNL     1      -6.387  18.634  64.992  1.00  0.00    -0.412 OA 
HETATM    2  C   UNL     1      -6.578  18.167  66.325  1.00  0.00    -0.226 C  
HETATM    3  H   UNL     1      -5.587  18.273  64.629  1.00  0.00     0.000 HD 
ENDROOT
BRANCH   2   4
HETATM    4  C   UNL     1      -7.865  18.749  66.910  1.00  0.00    -0.242 C  
BRANCH   4   5
HETATM    5  O   UNL     1      -8.144  18.137  68.174  1.00  0.00    -0.264 OA 
BRANCH   5   6
HETATM    6  C   UNL     1      -8.368  16.783  68.176  1.00  0.00    -0.201 A  
HETATM    7  C   UNL     1      -8.650  16.003  69.295  1.00  0.00    -0.224 A  
HETATM    8  C   UNL     1      -8.909  14.629  69.155  1.00  0.00    -0.024 A  
HETATM    9  C   UNL     1      -8.903  14.012  67.894  1.00  0.00    -0.185 A  
HETATM   10  C   UNL     1      -8.305  16.160  66.924  1.00  0.00    -0.271 A  
HETATM   11  C   UNL     1      -8.568  14.786  66.780  1.00  0.00    -0.226 A  
BRANCH   9  12
HETATM   12  C   UNL     1      -9.315  12.575  67.785  1.00  0.00    -0.198 C  
HETATM   13  C   UNL     1     -10.310  12.102  68.595  1.00  0.00    -0.211 C  
BRANCH  12  14
HETATM   14  C   UNL     1      -8.589  11.645  66.870  1.00  0.00    -0.174 A  
HETATM   15  C   UNL     1      -7.271  11.922  66.473  1.00  0.00     0.180 A  
HETATM   16  C   UNL     1      -7.205   9.902  65.136  1.00  0.00    -0.133 A  
HETATM   17  C   UNL     1      -9.194  10.472  66.395  1.00  0.00    -0.190 A  
HETATM   18  C   UNL     1      -8.510   9.612  65.526  1.00  0.00    -0.151 A  
HETATM   19  C   UNL     1      -6.584  11.056  65.613  1.00  0.00     0.135 A  
ENDBRANCH  12  14
BRANCH  13  20
HETATM   20  C   UNL     1     -10.659  10.631  68.813  1.00  0.00    -0.234 C  
HETATM   21  C   UNL     1      -9.809   9.904  69.849  1.00  0.00    -0.245 C  
HETATM   22 CL   UNL     1     -10.206   8.158  69.837  1.00  0.00    -0.200 Cl 
ENDBRANCH  13  20
BRANCH  13  23
HETATM   23  C   UNL     1     -11.092  13.000  69.494  1.00  0.00    -0.052 A  
HETATM   24  C   UNL     1     -12.539  14.693  71.208  1.00  0.00    -0.403 A  
HETATM   25  C   UNL     1     -11.383  14.319  69.114  1.00  0.00    -0.312 A  
HETATM   26  C   UNL     1     -12.101  15.160  69.969  1.00  0.00    -0.384 A  
HETATM   27  C   UNL     1     -12.274  13.379  71.583  1.00  0.00     0.139 A  
HETATM   28  C   UNL     1     -11.558  12.535  70.731  1.00  0.00     0.683 A  
ENDBRANCH  13  23
ENDBRANCH   9  12
ENDBRANCH   5   6
ENDBRANCH   4   5
ENDBRANCH   2   4
TORSDOF 7
ENDMDL
MODEL      136
REMARK 921   NORMALIZED FREE ENERGY PREDICTED BY IDOCK:    0.81 KCAL/MOL
REMARK 922        TOTAL FREE ENERGY PREDICTED BY IDOCK:   -0.58 KCAL/MOL
REMARK 923 INTER-LIGAND FREE ENERGY PREDICTED BY IDOCK:   -2.39 KCAL/MOL
REMARK 924 INTRA-LIGAND FREE ENERGY PREDICTED BY IDOCK:    1.81 KCAL/MOL
REMARK 927      BINDING AFFINITY PREDICTED BY RF-SCORE:    0.00 PKD
ROOT
HETATM    1  O   UNL     1      -5.125   6.438  65.480  1.00  0.00    -0.013 OA 
HETATM    2  C   UNL     1      -5.692   7.292  64.490  1.00  0.00    -0.033 C  
HETATM    3  H   UNL     1      -5.052   5.552  65.146  1.00  0.00     0.000 HD 
ENDROOT
BRANCH   2   4
HETATM    4  C   UNL     1      -5.810   8.719  65.028  1.00  0.00    -0.058 C  
BRANCH   4   5
HETATM    5  O   UNL     1      -6.719   8.749  66.133  1.00  0.00    -0.070 OA 
BRANCH   5   6
HETATM    6  C   UNL     1      -7.357   9.937  66.385  1.00  0.00    -0.101 A  
HETATM    7  C   UNL     1      -6.747  11.184  66.497  1.00  0.00    -0.128 A  
HETATM    8  C   UNL     1      -7.524  12.337  66.708  1.00  0.00     0.114 A  
HETATM    9  C   UNL     1      -8.923  12.266  66.798  1.00  0.00    -0.209 A  
HETATM   10  C   UNL     1      -8.747   9.855  66.531  1.00  0.00    -0.139 A  
HETATM   11  C   UNL     1      -9.526  11.007  66.738  1.00  0.00    -0.203 A  
BRANCH   9  12
HETATM   12  C   UNL     1      -9.712  13.537  66.890  1.00  0.00    -0.261 C  
HETATM   13  C   UNL     1      -9.407  14.442  67.868  1.00  0.00    -0.203 C  
BRANCH  12  14
HETATM   14  C   UNL     1     -10.877  13.774  65.987  1.00  0.00    -0.282 A  
HETATM   15  C   UNL     1     -12.122  13.185  66.260  1.00  0.00    -0.460 A  
HETATM   16  C   UNL     1     -13.085  14.206  64.285  1.00  0.00     0.839 A  
HETATM   17  C   UNL     1     -10.763  14.595  64.854  1.00  0.00    -0.447 A  
HETATM   18  C   UNL     1     -11.858  14.801  64.005  1.00  0.00    -0.095 A  
HETATM   19  C   UNL     1     -13.218  13.401  65.416  1.00  0.00     0.199 A  
ENDBRANCH  12  14
BRANCH  13  20
HETATM   20  C   UNL     1     -10.268  15.636  68.279  1.00  0.00    -0.223 C  
HETATM   21  C   UNL     1      -9.751  16.999  67.833  1.00  0.00    -0.263 C  
HETATM   22 CL   UNL     1     -10.754  18.292  68.560  1.00  0.00    -0.088 Cl 
ENDBRANCH  13  20
BRANCH  13  23
HETATM   23  C   UNL     1      -8.229  14.269  68.767  1.00  0.00    -0.102 A  
HETATM   24  C   UNL     1      -5.990  13.936  70.432  1.00  0.00    -0.160 A  
HETATM   25  C   UNL     1      -7.597  15.381  69.344  1.00  0.00    -0.224 A  
HETATM   26  C   UNL     1      -6.483  15.214  70.171  1.00  0.00    -0.115 A  
HETATM   27  C   UNL     1      -6.624  12.825  69.882  1.00  0.00     0.137 A  
HETATM   28  C   UNL     1      -7.739  12.989  69.057  1.00  0.00     0.195 A  
ENDBRANCH  13  23
ENDBRANCH   9  12
ENDBRANCH   5   6
ENDBRANCH   4   5
ENDBRANCH   2   4
TORSDOF 7
ENDMDL
MODEL      137
REMARK 921   NORMALIZED FREE ENERGY PREDICTED BY IDOCK:    0.91 KCAL/MOL
REMARK 922        TOTAL FREE ENERGY PREDICTED BY IDOCK:   -0.44 KCAL/MOL
REMARK 923 INTER-LIGAND FREE ENERGY PREDICTED BY IDOCK:   -4.53 KCAL/MOL
REMARK 924 INTRA-LIGAND FREE ENERGY PREDICTED BY IDOCK:    4.10 KCAL/MOL
REMARK 927      BINDING AFFINITY PREDICTED BY RF-SCORE:    0.00 PKD
ROOT
HETATM    1  O   UNL     1      -9.971  14.140  64.352  1.00  0.00    -0.674 OA 
HETATM    2  C   UNL     1     -10.245  13.006  63.534  1.00  0.00     0.641 C  
HETATM    3  H   UNL     1      -9.036  14.305  64.381  1.00  0.00     0.000 HD 
ENDROOT
BRANCH   2   4
HETATM    4  C   UNL     1     -11.750  12.740  63.485  1.00  0.00    -0.530 C  
BRANCH   4   5
HETATM    5  O   UNL     1     -12.206  12.292  64.766  1.00  0.00    -0.413 OA 
BRANCH   5   6
HETATM    6  C   UNL     1     -11.375  11.455  65.467  1.00  0.00     0.003 A  
HETATM    7  C   UNL     1     -11.459  11.170  66.828  1.00  0.00     0.002 A  
HETATM    8  C   UNL     1     -10.573  10.252  67.416  1.00  0.00    -0.324 A  
HETATM    9  C   UNL     1      -9.595   9.593  66.655  1.00  0.00    -0.241 A  
HETATM   10  C   UNL     1     -10.365  10.842  64.715  1.00  0.00    -0.380 A  
HETATM   11  C   UNL     1      -9.479   9.920  65.301  1.00  0.00    -0.331 A  
BRANCH   9  12
HETATM   12  C   UNL     1      -8.764   8.528  67.303  1.00  0.00    -0.133 C  
HETATM   13  C   UNL     1      -8.930   8.269  68.635  1.00  0.00    -0.137 C  
BRANCH  12  14
HETATM   14  C   UNL     1      -7.701   7.819  66.529  1.00  0.00    -0.097 A  
HETATM   15  C   UNL     1      -6.463   8.436  66.290  1.00  0.00    -0.054 A  
HETATM   16  C   UNL     1      -5.686   6.496  65.062  1.00  0.00    -0.026 A  
HETATM   17  C   UNL     1      -7.905   6.522  66.033  1.00  0.00    -0.103 A  
HETATM   18  C   UNL     1      -6.908   5.870  65.296  1.00  0.00    -0.051 A  
HETATM   19  C   UNL     1      -5.462   7.778  65.563  1.00  0.00    -0.029 A  
ENDBRANCH  12  14
BRANCH  13  20
HETATM   20  C   UNL     1      -7.993   7.432  69.505  1.00  0.00    -0.127 C  
HETATM   21  C   UNL     1      -6.741   8.149  69.995  1.00  0.00    -0.040 C  
HETATM   22 CL   UNL     1      -5.662   6.983  70.821  1.00  0.00    -0.027 Cl 
ENDBRANCH  13  20
BRANCH  13  23
HETATM   23  C   UNL     1     -10.004   8.920  69.439  1.00  0.00    -0.192 A  
HETATM   24  C   UNL     1     -12.042  10.158  70.926  1.00  0.00    -0.453 A  
HETATM   25  C   UNL     1     -10.985   8.151  70.083  1.00  0.00    -0.223 A  
HETATM   26  C   UNL     1     -11.999   8.768  70.821  1.00  0.00    -0.161 A  
HETATM   27  C   UNL     1     -11.061  10.928  70.309  1.00  0.00    -0.173 A  
HETATM   28  C   UNL     1     -10.045  10.314  69.573  1.00  0.00    -0.260 A  
ENDBRANCH  13  23
ENDBRANCH   9  12
ENDBRANCH   5   6
ENDBRANCH   4   5
ENDBRANCH   2   4
TORSDOF 7
ENDMDL
MODEL      138
REMARK 921   NORMALIZED FREE ENERGY PREDICTED BY IDOCK:    1.24 KCAL/MOL
REMARK 922        TOTAL FREE ENERGY PREDICTED BY IDOCK:    0.02 KCAL/MOL
REMARK 923 INTER-LIGAND FREE ENERGY PREDICTED BY IDOCK:   -1.44 KCAL/MOL
REMARK 924 INTRA-LIGAND FREE ENERGY PREDICTED BY IDOCK:    1.46 KCAL/MOL
REMARK 927      BINDING AFFINITY PREDICTED BY RF-SCORE:    0.00 PKD
ROOT
HETATM    1  O   UNL     1      -7.136  14.113  73.132  1.00  0.00     1.483 OA 
HETATM    2  C   UNL     1      -6.429  14.920  72.194  1.00  0.00     1.340 C  
HETATM    3  H   UNL     1      -7.945  14.540  73.387  1.00  0.00     0.000 HD 
ENDROOT
BRANCH   2   4
HETATM    4  C   UNL     1      -5.126  14.233  71.782  1.00  0.00    -0.168 C  
BRANCH   4   5
HETATM    5  O   UNL     1      -5.391  12.879  71.398  1.00  0.00    -0.243 OA 
BRANCH   5   6
HETATM    6  C   UNL     1      -6.145  12.688  70.267  1.00  0.00    -0.066 A  
HETATM    7  C   UNL     1      -6.457  11.459  69.692  1.00  0.00    -0.133 A  
HETATM    8  C   UNL     1      -7.284  11.397  68.557  1.00  0.00    -0.093 A  
HETATM    9  C   UNL     1      -7.824  12.560  67.985  1.00  0.00    -0.147 A  
HETATM   10  C   UNL     1      -6.635  13.854  69.666  1.00  0.00    -0.082 A  
HETATM   11  C   UNL     1      -7.466  13.794  68.533  1.00  0.00    -0.119 A  
BRANCH   9  12
HETATM   12  C   UNL     1      -8.804  12.430  66.859  1.00  0.00    -0.205 C  
HETATM   13  C   UNL     1      -9.505  13.531  66.453  1.00  0.00    -0.236 C  
BRANCH  12  14
HETATM   14  C   UNL     1      -9.083  11.097  66.246  1.00  0.00    -0.207 A  
HETATM   15  C   UNL     1      -9.972  10.202  66.862  1.00  0.00    -0.259 A  
HETATM   16  C   UNL     1      -9.615   8.572  65.106  1.00  0.00     0.635 A  
HETATM   17  C   UNL     1      -8.478  10.710  65.041  1.00  0.00    -0.135 A  
HETATM   18  C   UNL     1      -8.735   9.452  64.480  1.00  0.00    -0.233 A  
HETATM   19  C   UNL     1     -10.237   8.949  66.295  1.00  0.00    -0.203 A  
ENDBRANCH  12  14
BRANCH  13  20
HETATM   20  C   UNL     1     -10.722  13.524  65.529  1.00  0.00    -0.293 C  
HETATM   21  C   UNL     1     -11.903  12.688  66.009  1.00  0.00    -0.436 C  
HETATM   22 CL   UNL     1     -13.155  12.621  64.732  1.00  0.00    -0.229 Cl 
ENDBRANCH  13  20
BRANCH  13  23
HETATM   23  C   UNL     1      -9.233  14.890  67.005  1.00  0.00    -0.249 A  
HETATM   24  C   UNL     1      -8.707  17.436  68.073  1.00  0.00    -0.241 A  
HETATM   25  C   UNL     1      -8.197  15.681  66.486  1.00  0.00    -0.227 A  
HETATM   26  C   UNL     1      -7.935  16.946  67.019  1.00  0.00    -0.228 A  
HETATM   27  C   UNL     1      -9.750  16.668  68.580  1.00  0.00    -0.244 A  
HETATM   28  C   UNL     1     -10.016  15.403  68.047  1.00  0.00    -0.221 A  
ENDBRANCH  13  23
ENDBRANCH   9  12
ENDBRANCH   5   6
ENDBRANCH   4   5
ENDBRANCH   2   4
TORSDOF 7
ENDMDL
MODEL      139
REMARK 921   NORMALIZED FREE ENERGY PREDICTED BY IDOCK:    1.29 KCAL/MOL
REMARK 922        TOTAL FREE ENERGY PREDICTED BY IDOCK:    0.09 KCAL/MOL
REMARK 923 INTER-LIGAND FREE ENERGY PREDICTED BY IDOCK:   -1.41 KCAL/MOL
REMARK 924 INTRA-LIGAND FREE ENERGY PREDICTED BY IDOCK:    1.50 KCAL/MOL
REMARK 927      BINDING AFFINITY PREDICTED BY RF-SCORE:    0.00 PKD
ROOT
HETATM    1  O   UNL     1      -9.337  20.531  65.176  1.00  0.00    -0.179 OA 
HETATM    2  C   UNL     1     -10.737  20.309  65.326  1.00  0.00     0.239 C  
HETATM    3  H   UNL     1      -9.169  21.048  64.397  1.00  0.00     0.000 HD 
ENDROOT
BRANCH   2   4
HETATM    4  C   UNL     1     -11.008  19.477  66.580  1.00  0.00    -0.265 C  
BRANCH   4   5
HETATM    5  O   UNL     1     -11.318  18.128  66.211  1.00  0.00     0.669 OA 
BRANCH   5   6
HETATM    6  C   UNL     1     -10.599  17.133  66.823  1.00  0.00    -0.192 A  
HETATM    7  C   UNL     1     -10.239  15.915  66.251  1.00  0.00    -0.324 A  
HETATM    8  C   UNL     1      -9.455  14.997  66.971  1.00  0.00    -0.240 A  
HETATM    9  C   UNL     1      -9.007  15.285  68.270  1.00  0.00    -0.176 A  
HETATM   10  C   UNL     1     -10.201  17.399  68.139  1.00  0.00    -0.350 A  
HETATM   11  C   UNL     1      -9.413  16.484  68.860  1.00  0.00    -0.260 A  
BRANCH   9  12
HETATM   12  C   UNL     1      -8.066  14.332  68.943  1.00  0.00    -0.063 C  
HETATM   13  C   UNL     1      -8.191  12.991  68.707  1.00  0.00     0.111 C  
BRANCH  12  14
HETATM   14  C   UNL     1      -7.062  14.827  69.931  1.00  0.00    -0.086 A  
HETATM   15  C   UNL     1      -6.371  13.926  70.757  1.00  0.00     0.061 A  
HETATM   16  C   UNL     1      -5.168  15.748  71.809  1.00  0.00     0.091 A  
HETATM   17  C   UNL     1      -6.775  16.195  70.052  1.00  0.00     0.133 A  
HETATM   18  C   UNL     1      -5.841  16.653  70.992  1.00  0.00     0.566 A  
HETATM   19  C   UNL     1      -5.430  14.384  71.689  1.00  0.00    -0.171 A  
ENDBRANCH  12  14
BRANCH  13  20
HETATM   20  C   UNL     1      -7.516  11.877  69.506  1.00  0.00     0.376 C  
HETATM   21  C   UNL     1      -6.755  10.848  68.678  1.00  0.00    -0.059 C  
HETATM   22 CL   UNL     1      -6.200   9.514  69.735  1.00  0.00    -0.039 Cl 
ENDBRANCH  13  20
BRANCH  13  23
HETATM   23  C   UNL     1      -9.150  12.452  67.699  1.00  0.00    -0.186 A  
HETATM   24  C   UNL     1     -10.937  11.407  65.798  1.00  0.00    -0.256 A  
HETATM   25  C   UNL     1     -10.447  12.072  68.073  1.00  0.00    -0.224 A  
HETATM   26  C   UNL     1     -11.334  11.551  67.127  1.00  0.00    -0.354 A  
HETATM   27  C   UNL     1      -9.659  11.801  65.413  1.00  0.00    -0.210 A  
HETATM   28  C   UNL     1      -8.770  12.325  66.356  1.00  0.00    -0.019 A  
ENDBRANCH  13  23
ENDBRANCH   9  12
ENDBRANCH   5   6
ENDBRANCH   4   5
ENDBRANCH   2   4
TORSDOF 7
ENDMDL
MODEL      140
REMARK 921   NORMALIZED FREE ENERGY PREDICTED BY IDOCK:    1.70 KCAL/MOL
REMARK 922        TOTAL FREE ENERGY PREDICTED BY IDOCK:    0.68 KCAL/MOL
REMARK 923 INTER-LIGAND FREE ENERGY PREDICTED BY IDOCK:   -0.98 KCAL/MOL
REMARK 924 INTRA-LIGAND FREE ENERGY PREDICTED BY IDOCK:    1.66 KCAL/MOL
REMARK 927      BINDING AFFINITY PREDICTED BY RF-SCORE:    0.00 PKD
ROOT
HETATM    1  O   UNL     1      -7.225  13.948  74.074  1.00  0.00     1.857 OA 
HETATM    2  C   UNL     1      -6.333  14.695  73.252  1.00  0.00     1.278 C  
HETATM    3  H   UNL     1      -7.967  14.485  74.326  1.00  0.00     0.000 HD 
ENDROOT
BRANCH   2   4
HETATM    4  C   UNL     1      -5.138  13.832  72.846  1.00  0.00    -0.179 C  
BRANCH   4   5
HETATM    5  O   UNL     1      -5.562  12.815  71.931  1.00  0.00    -0.389 OA 
BRANCH   5   6
HETATM    6  C   UNL     1      -6.177  13.231  70.777  1.00  0.00     0.250 A  
HETATM    7  C   UNL     1      -6.381  12.459  69.636  1.00  0.00    -0.107 A  
HETATM    8  C   UNL     1      -7.071  12.991  68.534  1.00  0.00    -0.105 A  
HETATM    9  C   UNL     1      -7.582  14.299  68.557  1.00  0.00    -0.127 A  
HETATM   10  C   UNL     1      -6.635  14.554  70.782  1.00  0.00     0.190 A  
HETATM   11  C   UNL     1      -7.330  15.087  69.682  1.00  0.00    -0.181 A  
BRANCH   9  12
HETATM   12  C   UNL     1      -8.424  14.772  67.411  1.00  0.00    -0.218 C  
HETATM   13  C   UNL     1      -8.317  16.070  66.995  1.00  0.00    -0.251 C  
BRANCH  12  14
HETATM   14  C   UNL     1      -9.435  13.866  66.788  1.00  0.00    -0.287 A  
HETATM   15  C   UNL     1      -9.517  13.744  65.392  1.00  0.00     0.225 A  
HETATM   16  C   UNL     1     -11.345  12.167  65.595  1.00  0.00    -0.395 A  
HETATM   17  C   UNL     1     -10.317  13.111  67.575  1.00  0.00    -0.225 A  
HETATM   18  C   UNL     1     -11.272  12.274  66.982  1.00  0.00    -0.367 A  
HETATM   19  C   UNL     1     -10.464  12.899  64.800  1.00  0.00    -0.371 A  
ENDBRANCH  12  14
BRANCH  13  20
HETATM   20  C   UNL     1      -9.279  16.785  66.047  1.00  0.00    -0.236 C  
HETATM   21  C   UNL     1      -9.866  18.090  66.572  1.00  0.00    -0.353 C  
HETATM   22 CL   UNL     1     -11.114  18.690  65.438  1.00  0.00     0.269 Cl 
ENDBRANCH  13  20
BRANCH  13  23
HETATM   23  C   UNL     1      -7.295  16.999  67.557  1.00  0.00    -0.175 A  
HETATM   24  C   UNL     1      -5.377  18.773  68.593  1.00  0.00    -0.193 A  
HETATM   25  C   UNL     1      -7.489  17.610  68.805  1.00  0.00    -0.255 A  
HETATM   26  C   UNL     1      -6.535  18.494  69.318  1.00  0.00    -0.272 A  
HETATM   27  C   UNL     1      -5.166  18.155  67.365  1.00  0.00    -0.143 A  
HETATM   28  C   UNL     1      -6.116  17.269  66.850  1.00  0.00    -0.221 A  
ENDBRANCH  13  23
ENDBRANCH   9  12
ENDBRANCH   5   6
ENDBRANCH   4   5
ENDBRANCH   2   4
TORSDOF 7
ENDMDL
MODEL      141
REMARK 921   NORMALIZED FREE ENERGY PREDICTED BY IDOCK:    2.00 KCAL/MOL
REMARK 922        TOTAL FREE ENERGY PREDICTED BY IDOCK:    1.09 KCAL/MOL
REMARK 923 INTER-LIGAND FREE ENERGY PREDICTED BY IDOCK:   -0.86 KCAL/MOL
REMARK 924 INTRA-LIGAND FREE ENERGY PREDICTED BY IDOCK:    1.95 KCAL/MOL
REMARK 927      BINDING AFFINITY PREDICTED BY RF-SCORE:    0.00 PKD
ROOT
HETATM    1  O   UNL     1      -6.214   8.899  71.888  1.00  0.00    -0.074 OA 
HETATM    2  C   UNL     1      -5.209   9.877  72.138  1.00  0.00    -0.025 C  
HETATM    3  H   UNL     1      -6.095   8.151  72.463  1.00  0.00     0.000 HD 
ENDROOT
BRANCH   2   4
HETATM    4  C   UNL     1      -5.401  11.080  71.214  1.00  0.00    -0.035 C  
BRANCH   4   5
HETATM    5  O   UNL     1      -5.938  10.649  69.959  1.00  0.00    -0.062 OA 
BRANCH   5   6
HETATM    6  C   UNL     1      -6.751  11.530  69.291  1.00  0.00    -0.118 A  
HETATM    7  C   UNL     1      -6.332  12.504  68.388  1.00  0.00    -0.064 A  
HETATM    8  C   UNL     1      -7.274  13.314  67.731  1.00  0.00    -0.151 A  
HETATM    9  C   UNL     1      -8.651  13.158  67.956  1.00  0.00    -0.182 A  
HETATM   10  C   UNL     1      -8.119  11.410  69.561  1.00  0.00     0.484 A  
HETATM   11  C   UNL     1      -9.064  12.217  68.902  1.00  0.00     0.230 A  
BRANCH   9  12
HETATM   12  C   UNL     1      -9.618  13.955  67.134  1.00  0.00    -0.247 C  
HETATM   13  C   UNL     1     -10.091  13.430  65.964  1.00  0.00    -0.308 C  
BRANCH  12  14
HETATM   14  C   UNL     1      -9.991  15.344  67.536  1.00  0.00    -0.226 A  
HETATM   15  C   UNL     1     -10.639  15.581  68.759  1.00  0.00    -0.242 A  
HETATM   16  C   UNL     1     -10.709  17.961  68.307  1.00  0.00    -0.233 A  
HETATM   17  C   UNL     1      -9.696  16.442  66.715  1.00  0.00    -0.263 A  
HETATM   18  C   UNL     1     -10.061  17.741  67.094  1.00  0.00    -0.338 A  
HETATM   19  C   UNL     1     -10.994  16.881  69.141  1.00  0.00    -0.151 A  
ENDBRANCH  12  14
BRANCH  13  20
HETATM   20  C   UNL     1     -10.848  14.199  64.882  1.00  0.00    -0.423 C  
HETATM   21  C   UNL     1     -10.308  15.589  64.569  1.00  0.00     0.532 C  
HETATM   22 CL   UNL     1     -11.415  16.427  63.439  1.00  0.00     2.286 Cl 
ENDBRANCH  13  20
BRANCH  13  23
HETATM   23  C   UNL     1      -9.781  12.033  65.541  1.00  0.00    -0.221 A  
HETATM   24  C   UNL     1      -9.230   9.394  64.749  1.00  0.00    -0.220 A  
HETATM   25  C   UNL     1      -9.472  11.740  64.204  1.00  0.00    -0.001 A  
HETATM   26  C   UNL     1      -9.200  10.426  63.811  1.00  0.00    -0.302 A  
HETATM   27  C   UNL     1      -9.513   9.679  66.081  1.00  0.00    -0.274 A  
HETATM   28  C   UNL     1      -9.784  10.991  66.477  1.00  0.00    -0.230 A  
ENDBRANCH  13  23
ENDBRANCH   9  12
ENDBRANCH   5   6
ENDBRANCH   4   5
ENDBRANCH   2   4
TORSDOF 7
ENDMDL
MODEL      142
REMARK 921   NORMALIZED FREE ENERGY PREDICTED BY IDOCK:    2.05 KCAL/MOL
REMARK 922        TOTAL FREE ENERGY PREDICTED BY IDOCK:    1.18 KCAL/MOL
REMARK 923 INTER-LIGAND FREE ENERGY PREDICTED BY IDOCK:   -1.72 KCAL/MOL
REMARK 924 INTRA-LIGAND FREE ENERGY PREDICTED BY IDOCK:    2.89 KCAL/MOL
REMARK 927      BINDING AFFINITY PREDICTED BY RF-SCORE:    0.00 PKD
ROOT
HETATM    1  O   UNL     1      -5.164  11.951  62.933  1.00  0.00    -0.110 OA 
HETATM    2  C   UNL     1      -6.463  11.448  63.230  1.00  0.00     1.499 C  
HETATM    3  H   UNL     1      -5.083  12.850  63.233  1.00  0.00     0.000 HD 
ENDROOT
BRANCH   2   4
HETATM    4  C   UNL     1      -6.593  10.002  62.749  1.00  0.00    -0.124 C  
BRANCH   4   5
HETATM    5  O   UNL     1      -5.782   9.145  63.561  1.00  0.00    -0.074 OA 
BRANCH   5   6
HETATM    6  C   UNL     1      -6.358   8.633  64.696  1.00  0.00    -0.066 A  
HETATM    7  C   UNL     1      -6.660   9.347  65.853  1.00  0.00    -0.076 A  
HETATM    8  C   UNL     1      -7.297   8.712  66.932  1.00  0.00    -0.079 A  
HETATM    9  C   UNL     1      -7.655   7.356  66.871  1.00  0.00    -0.102 A  
HETATM   10  C   UNL     1      -6.662   7.267  64.653  1.00  0.00    -0.043 A  
HETATM   11  C   UNL     1      -7.303   6.630  65.730  1.00  0.00    -0.075 A  
BRANCH   9  12
HETATM   12  C   UNL     1      -8.449   6.761  67.994  1.00  0.00    -0.120 C  
HETATM   13  C   UNL     1      -8.993   7.588  68.938  1.00  0.00    -0.134 C  
BRANCH  12  14
HETATM   14  C   UNL     1      -8.570   5.280  68.137  1.00  0.00    -0.099 A  
HETATM   15  C   UNL     1      -9.111   4.719  69.305  1.00  0.00    -0.152 A  
HETATM   16  C   UNL     1      -8.796   2.482  68.426  1.00  0.00    -0.154 A  
HETATM   17  C   UNL     1      -8.158   4.415  67.112  1.00  0.00    -0.101 A  
HETATM   18  C   UNL     1      -8.262   3.025  67.260  1.00  0.00    -0.084 A  
HETATM   19  C   UNL     1      -9.225   3.330  69.447  1.00  0.00    -0.222 A  
ENDBRANCH  12  14
BRANCH  13  20
HETATM   20  C   UNL     1      -9.583   7.147  70.277  1.00  0.00    -0.169 C  
HETATM   21  C   UNL     1     -11.057   6.760  70.247  1.00  0.00    -0.310 C  
HETATM   22 CL   UNL     1     -11.638   6.467  71.914  1.00  0.00    -0.350 Cl 
ENDBRANCH  13  20
BRANCH  13  23
HETATM   23  C   UNL     1      -8.936   9.073  68.816  1.00  0.00    -0.137 A  
HETATM   24  C   UNL     1      -8.856  11.874  68.605  1.00  0.00    -0.041 A  
HETATM   25  C   UNL     1      -7.972   9.814  69.517  1.00  0.00    -0.137 A  
HETATM   26  C   UNL     1      -7.935  11.207  69.413  1.00  0.00     0.103 A  
HETATM   27  C   UNL     1      -9.801  11.147  67.889  1.00  0.00    -0.187 A  
HETATM   28  C   UNL     1      -9.840   9.754  67.990  1.00  0.00    -0.173 A  
ENDBRANCH  13  23
ENDBRANCH   9  12
ENDBRANCH   5   6
ENDBRANCH   4   5
ENDBRANCH   2   4
TORSDOF 7
ENDMDL
MODEL      143
REMARK 921   NORMALIZED FREE ENERGY PREDICTED BY IDOCK:    2.94 KCAL/MOL
REMARK 922        TOTAL FREE ENERGY PREDICTED BY IDOCK:    2.43 KCAL/MOL
REMARK 923 INTER-LIGAND FREE ENERGY PREDICTED BY IDOCK:    2.87 KCAL/MOL
REMARK 924 INTRA-LIGAND FREE ENERGY PREDICTED BY IDOCK:   -0.45 KCAL/MOL
REMARK 927      BINDING AFFINITY PREDICTED BY RF-SCORE:    0.00 PKD
ROOT
HETATM    1  O   UNL     1      -9.888   6.892  65.845  1.00  0.00    -0.381 OA 
HETATM    2  C   UNL     1      -8.681   7.238  65.172  1.00  0.00     0.159 C  
HETATM    3  H   UNL     1      -9.721   6.217  66.492  1.00  0.00     0.000 HD 
ENDROOT
BRANCH   2   4
HETATM    4  C   UNL     1      -8.949   8.325  64.130  1.00  0.00     0.682 C  
BRANCH   4   5
HETATM    5  O   UNL     1      -9.040   9.602  64.772  1.00  0.00    -0.211 OA 
BRANCH   5   6
HETATM    6  C   UNL     1      -8.401   9.741  65.978  1.00  0.00    -0.120 A  
HETATM    7  C   UNL     1      -7.032   9.612  66.196  1.00  0.00    -0.093 A  
HETATM    8  C   UNL     1      -6.494   9.829  67.477  1.00  0.00    -0.068 A  
HETATM    9  C   UNL     1      -7.313  10.192  68.558  1.00  0.00    -0.081 A  
HETATM   10  C   UNL     1      -9.227  10.047  67.066  1.00  0.00    -0.167 A  
HETATM   11  C   UNL     1      -8.692  10.269  68.347  1.00  0.00    -0.129 A  
BRANCH   9  12
HETATM   12  C   UNL     1      -6.676  10.540  69.869  1.00  0.00    -0.142 C  
HETATM   13  C   UNL     1      -6.499  11.856  70.196  1.00  0.00     0.094 C  
BRANCH  12  14
HETATM   14  C   UNL     1      -6.155   9.468  70.768  1.00  0.00    -0.073 A  
HETATM   15  C   UNL     1      -6.118   9.660  72.158  1.00  0.00     0.297 A  
HETATM   16  C   UNL     1      -5.165   7.456  72.480  1.00  0.00    -0.037 A  
HETATM   17  C   UNL     1      -5.701   8.244  70.253  1.00  0.00    -0.021 A  
HETATM   18  C   UNL     1      -5.201   7.249  71.104  1.00  0.00    -0.027 A  
HETATM   19  C   UNL     1      -5.628   8.660  73.008  1.00  0.00    -0.077 A  
ENDBRANCH  12  14
BRANCH  13  20
HETATM   20  C   UNL     1      -5.632  12.382  71.339  1.00  0.00     0.168 C  
HETATM   21  C   UNL     1      -6.357  13.245  72.365  1.00  0.00     2.583 C  
HETATM   22 CL   UNL     1      -5.172  13.941  73.513  1.00  0.00    -0.292 Cl 
ENDBRANCH  13  20
BRANCH  13  23
HETATM   23  C   UNL     1      -7.038  12.961  69.352  1.00  0.00     0.187 A  
HETATM   24  C   UNL     1      -8.056  15.021  67.735  1.00  0.00    -0.160 A  
HETATM   25  C   UNL     1      -8.335  13.454  69.558  1.00  0.00     1.170 A  
HETATM   26  C   UNL     1      -8.841  14.478  68.752  1.00  0.00    -0.153 A  
HETATM   27  C   UNL     1      -6.761  14.553  67.537  1.00  0.00    -0.141 A  
HETATM   28  C   UNL     1      -6.251  13.532  68.342  1.00  0.00    -0.093 A  
ENDBRANCH  13  23
ENDBRANCH   9  12
ENDBRANCH   5   6
ENDBRANCH   4   5
ENDBRANCH   2   4
TORSDOF 7
ENDMDL
MODEL      144
REMARK 921   NORMALIZED FREE ENERGY PREDICTED BY IDOCK:    3.09 KCAL/MOL
REMARK 922        TOTAL FREE ENERGY PREDICTED BY IDOCK:    2.63 KCAL/MOL
REMARK 923 INTER-LIGAND FREE ENERGY PREDICTED BY IDOCK:    0.82 KCAL/MOL
REMARK 924 INTRA-LIGAND FREE ENERGY PREDICTED BY IDOCK:    1.81 KCAL/MOL
REMARK 927      BINDING AFFINITY PREDICTED BY RF-SCORE:    0.00 PKD
ROOT
HETATM    1  O   UNL     1      -6.327  18.817  64.886  1.00  0.00    -0.447 OA 
HETATM    2  C   UNL     1      -6.254  18.701  66.304  1.00  0.00    -0.183 C  
HETATM    3  H   UNL     1      -5.938  18.055  64.474  1.00  0.00     0.000 HD 
ENDROOT
BRANCH   2   4
HETATM    4  C   UNL     1      -6.881  19.928  66.968  1.00  0.00    -0.212 C  
BRANCH   4   5
HETATM    5  O   UNL     1      -7.175  19.641  68.340  1.00  0.00    -0.298 OA 
BRANCH   5   6
HETATM    6  C   UNL     1      -7.729  18.417  68.617  1.00  0.00    -0.301 A  
HETATM    7  C   UNL     1      -7.955  17.891  69.886  1.00  0.00     1.469 A  
HETATM    8  C   UNL     1      -8.579  16.640  70.035  1.00  0.00     1.531 A  
HETATM    9  C   UNL     1      -9.000  15.900  68.919  1.00  0.00    -0.228 A  
HETATM   10  C   UNL     1      -8.096  17.656  67.501  1.00  0.00    -0.217 A  
HETATM   11  C   UNL     1      -8.724  16.406  67.647  1.00  0.00    -0.188 A  
BRANCH   9  12
HETATM   12  C   UNL     1      -9.777  14.637  69.135  1.00  0.00    -0.108 C  
HETATM   13  C   UNL     1      -9.238  13.444  68.738  1.00  0.00     0.106 C  
BRANCH  12  14
HETATM   14  C   UNL     1     -11.162  14.684  69.691  1.00  0.00    -0.307 A  
HETATM   15  C   UNL     1     -11.832  15.909  69.831  1.00  0.00    -0.309 A  
HETATM   16  C   UNL     1     -13.775  14.790  70.749  1.00  0.00    -0.092 A  
HETATM   17  C   UNL     1     -11.831  13.512  70.077  1.00  0.00    -0.371 A  
HETATM   18  C   UNL     1     -13.125  13.566  70.610  1.00  0.00     0.008 A  
HETATM   19  C   UNL     1     -13.130  15.962  70.355  1.00  0.00     0.449 A  
ENDBRANCH  12  14
BRANCH  13  20
HETATM   20  C   UNL     1      -9.989  12.119  68.626  1.00  0.00    -0.137 C  
HETATM   21  C   UNL     1     -10.683  11.871  67.292  1.00  0.00    -0.236 C  
HETATM   22 CL   UNL     1     -11.675  10.384  67.394  1.00  0.00     0.461 Cl 
ENDBRANCH  13  20
BRANCH  13  23
HETATM   23  C   UNL     1      -7.844  13.341  68.216  1.00  0.00    -0.143 A  
HETATM   24  C   UNL     1      -5.228  13.166  67.206  1.00  0.00     0.227 A  
HETATM   25  C   UNL     1      -6.792  14.031  68.837  1.00  0.00    -0.108 A  
HETATM   26  C   UNL     1      -5.492  13.944  68.333  1.00  0.00    -0.101 A  
HETATM   27  C   UNL     1      -6.261  12.461  66.596  1.00  0.00     0.644 A  
HETATM   28  C   UNL     1      -7.561  12.543  67.099  1.00  0.00    -0.087 A  
ENDBRANCH  13  23
ENDBRANCH   9  12
ENDBRANCH   5   6
ENDBRANCH   4   5
ENDBRANCH   2   4
TORSDOF 7
ENDMDL
MODEL      145
REMARK 921   NORMALIZED FREE ENERGY PREDICTED BY IDOCK:    5.81 KCAL/MOL
REMARK 922        TOTAL FREE ENERGY PREDICTED BY IDOCK:    6.48 KCAL/MOL
REMARK 923 INTER-LIGAND FREE ENERGY PREDICTED BY IDOCK:    2.94 KCAL/MOL
REMARK 924 INTRA-LIGAND FREE ENERGY PREDICTED BY IDOCK:    3.54 KCAL/MOL
REMARK 927      BINDING AFFINITY PREDICTED BY RF-SCORE:    0.00 PKD
ROOT
HETATM    1  O   UNL     1      -5.223  12.257  63.084  1.00  0.00     1.377 OA 
HETATM    2  C   UNL     1      -6.411  11.605  63.521  1.00  0.00     2.754 C  
HETATM    3  H   UNL     1      -5.170  13.129  63.458  1.00  0.00     0.000 HD 
ENDROOT
BRANCH   2   4
HETATM    4  C   UNL     1      -6.497  10.202  62.919  1.00  0.00    -0.134 C  
BRANCH   4   5
HETATM    5  O   UNL     1      -5.340   9.443  63.286  1.00  0.00    -0.069 OA 
BRANCH   5   6
HETATM    6  C   UNL     1      -5.433   8.670  64.416  1.00  0.00    -0.058 A  
HETATM    7  C   UNL     1      -5.576   9.141  65.719  1.00  0.00    -0.045 A  
HETATM    8  C   UNL     1      -5.711   8.239  66.788  1.00  0.00    -0.044 A  
HETATM    9  C   UNL     1      -5.718   6.851  66.573  1.00  0.00    -0.022 A  
HETATM   10  C   UNL     1      -5.382   7.287  64.205  1.00  0.00    -0.029 A  
HETATM   11  C   UNL     1      -5.521   6.382  65.272  1.00  0.00    -0.018 A  
BRANCH   9  12
HETATM   12  C   UNL     1      -5.997   5.938  67.728  1.00  0.00    -0.017 C  
HETATM   13  C   UNL     1      -6.354   6.475  68.934  1.00  0.00    -0.035 C  
BRANCH  12  14
HETATM   14  C   UNL     1      -5.798   4.464  67.595  1.00  0.00    -0.023 A  
HETATM   15  C   UNL     1      -6.022   3.613  68.689  1.00  0.00    -0.024 A  
HETATM   16  C   UNL     1      -5.418   1.678  67.362  1.00  0.00    -0.017 A  
HETATM   17  C   UNL     1      -5.395   3.892  66.379  1.00  0.00    -0.013 A  
HETATM   18  C   UNL     1      -5.198   2.509  66.266  1.00  0.00    -0.005 A  
HETATM   19  C   UNL     1      -5.835   2.230  68.573  1.00  0.00    -0.023 A  
ENDBRANCH  12  14
BRANCH  13  20
HETATM   20  C   UNL     1      -6.402   5.727  70.265  1.00  0.00    -0.031 C  
HETATM   21  C   UNL     1      -7.623   4.840  70.473  1.00  0.00    -0.058 C  
HETATM   22 CL   UNL     1      -7.627   4.201  72.146  1.00  0.00    -0.073 Cl 
ENDBRANCH  13  20
BRANCH  13  23
HETATM   23  C   UNL     1      -6.605   7.936  69.106  1.00  0.00    -0.040 A  
HETATM   24  C   UNL     1      -7.099  10.680  69.455  1.00  0.00    -0.127 A  
HETATM   25  C   UNL     1      -5.606   8.781  69.610  1.00  0.00    -0.030 A  
HETATM   26  C   UNL     1      -5.854  10.146  69.785  1.00  0.00    -0.045 A  
HETATM   27  C   UNL     1      -8.089   9.853  68.933  1.00  0.00    -0.105 A  
HETATM   28  C   UNL     1      -7.844   8.489  68.755  1.00  0.00    -0.110 A  
ENDBRANCH  13  23
ENDBRANCH   9  12
ENDBRANCH   5   6
ENDBRANCH   4   5
ENDBRANCH   2   4
TORSDOF 7
ENDMDL
MODEL      146
REMARK 921   NORMALIZED FREE ENERGY PREDICTED BY IDOCK:    8.22 KCAL/MOL
REMARK 922        TOTAL FREE ENERGY PREDICTED BY IDOCK:    9.86 KCAL/MOL
REMARK 923 INTER-LIGAND FREE ENERGY PREDICTED BY IDOCK:    7.33 KCAL/MOL
REMARK 924 INTRA-LIGAND FREE ENERGY PREDICTED BY IDOCK:    2.53 KCAL/MOL
REMARK 927      BINDING AFFINITY PREDICTED BY RF-SCORE:    0.00 PKD
ROOT
HETATM    1  O   UNL     1      -8.640  18.920  70.807  1.00  0.00     3.039 OA 
HETATM    2  C   UNL     1      -7.502  18.080  70.980  1.00  0.00     4.965 C  
HETATM    3  H   UNL     1      -9.283  18.744  71.485  1.00  0.00     0.000 HD 
ENDROOT
BRANCH   2   4
HETATM    4  C   UNL     1      -6.467  18.362  69.891  1.00  0.00     0.013 C  
BRANCH   4   5
HETATM    5  O   UNL     1      -7.039  18.116  68.601  1.00  0.00    -0.250 OA 
BRANCH   5   6
HETATM    6  C   UNL     1      -7.489  16.845  68.350  1.00  0.00    -0.206 A  
HETATM    7  C   UNL     1      -6.951  15.670  68.870  1.00  0.00    -0.130 A  
HETATM    8  C   UNL     1      -7.538  14.429  68.573  1.00  0.00    -0.125 A  
HETATM    9  C   UNL     1      -8.681  14.339  67.762  1.00  0.00    -0.179 A  
HETATM   10  C   UNL     1      -8.594  16.755  67.495  1.00  0.00    -0.203 A  
HETATM   11  C   UNL     1      -9.186  15.514  67.199  1.00  0.00    -0.228 A  
BRANCH   9  12
HETATM   12  C   UNL     1      -9.344  13.008  67.584  1.00  0.00    -0.202 C  
HETATM   13  C   UNL     1     -10.503  12.744  68.259  1.00  0.00    -0.250 C  
BRANCH  12  14
HETATM   14  C   UNL     1      -8.703  11.945  66.753  1.00  0.00    -0.193 A  
HETATM   15  C   UNL     1      -8.446  10.676  67.295  1.00  0.00    -0.126 A  
HETATM   16  C   UNL     1      -7.485   9.930  65.199  1.00  0.00    -0.133 A  
HETATM   17  C   UNL     1      -8.353  12.181  65.415  1.00  0.00     1.226 A  
HETATM   18  C   UNL     1      -7.740  11.182  64.646  1.00  0.00     0.734 A  
HETATM   19  C   UNL     1      -7.843   9.675  66.522  1.00  0.00    -0.108 A  
ENDBRANCH  12  14
BRANCH  13  20
HETATM   20  C   UNL     1     -11.153  11.369  68.413  1.00  0.00    -0.296 C  
HETATM   21  C   UNL     1     -10.211  10.180  68.267  1.00  0.00    -0.166 C  
HETATM   22 CL   UNL     1     -11.154   8.658  68.271  1.00  0.00     0.152 Cl 
ENDBRANCH  13  20
BRANCH  13  23
HETATM   23  C   UNL     1     -11.203  13.785  69.067  1.00  0.00    -0.313 A  
HETATM   24  C   UNL     1     -12.549  15.726  70.589  1.00  0.00    -0.371 A  
HETATM   25  C   UNL     1     -10.850  14.012  70.405  1.00  0.00     0.635 A  
HETATM   26  C   UNL     1     -11.521  14.977  71.162  1.00  0.00    -0.355 A  
HETATM   27  C   UNL     1     -12.891  15.523  69.256  1.00  0.00     0.561 A  
HETATM   28  C   UNL     1     -12.220  14.561  68.496  1.00  0.00    -0.164 A  
ENDBRANCH  13  23
ENDBRANCH   9  12
ENDBRANCH   5   6
ENDBRANCH   4   5
ENDBRANCH   2   4
TORSDOF 7
ENDMDL
MODEL      147
REMARK 921   NORMALIZED FREE ENERGY PREDICTED BY IDOCK:    9.59 KCAL/MOL
REMARK 922        TOTAL FREE ENERGY PREDICTED BY IDOCK:   11.79 KCAL/MOL
REMARK 923 INTER-LIGAND FREE ENERGY PREDICTED BY IDOCK:   11.21 KCAL/MOL
REMARK 924 INTRA-LIGAND FREE ENERGY PREDICTED BY IDOCK:    0.58 KCAL/MOL
REMARK 927      BINDING AFFINITY PREDICTED BY RF-SCORE:    0.00 PKD
ROOT
HETATM    1  O   UNL     1      -5.348  12.671  63.240  1.00  0.00     3.750 OA 
HETATM    2  C   UNL     1      -6.739  12.532  63.515  1.00  0.00     8.551 C  
HETATM    3  H   UNL     1      -4.994  13.418  63.708  1.00  0.00     0.000 HD 
ENDROOT
BRANCH   2   4
HETATM    4  C   UNL     1      -7.309  11.330  62.761  1.00  0.00     0.589 C  
BRANCH   4   5
HETATM    5  O   UNL     1      -6.295  10.333  62.598  1.00  0.00    -0.123 OA 
BRANCH   5   6
HETATM    6  C   UNL     1      -6.402   9.201  63.367  1.00  0.00    -0.090 A  
HETATM    7  C   UNL     1      -6.325   9.148  64.756  1.00  0.00    -0.067 A  
HETATM    8  C   UNL     1      -6.501   7.927  65.430  1.00  0.00    -0.041 A  
HETATM    9  C   UNL     1      -6.769   6.741  64.728  1.00  0.00    -0.042 A  
HETATM   10  C   UNL     1      -6.612   8.011  62.661  1.00  0.00    -0.086 A  
HETATM   11  C   UNL     1      -6.792   6.789  63.332  1.00  0.00    -0.050 A  
BRANCH   9  12
HETATM   12  C   UNL     1      -7.079   5.494  65.499  1.00  0.00    -0.066 C  
HETATM   13  C   UNL     1      -7.181   5.558  66.861  1.00  0.00    -0.078 C  
BRANCH  12  14
HETATM   14  C   UNL     1      -7.183   4.177  64.802  1.00  0.00    -0.070 A  
HETATM   15  C   UNL     1      -8.385   3.791  64.187  1.00  0.00    -0.091 A  
HETATM   16  C   UNL     1      -7.400   1.689  63.489  1.00  0.00    -0.048 A  
HETATM   17  C   UNL     1      -6.089   3.301  64.735  1.00  0.00    -0.023 A  
HETATM   18  C   UNL     1      -6.200   2.062  64.090  1.00  0.00    -0.014 A  
HETATM   19  C   UNL     1      -8.491   2.556  63.534  1.00  0.00    -0.085 A  
ENDBRANCH  12  14
BRANCH  13  20
HETATM   20  C   UNL     1      -7.213   4.362  67.812  1.00  0.00    -0.065 C  
HETATM   21  C   UNL     1      -8.560   3.658  67.932  1.00  0.00    -0.098 C  
HETATM   22 CL   UNL     1      -8.481   2.421  69.223  1.00  0.00    -0.085 Cl 
ENDBRANCH  13  20
BRANCH  13  23
HETATM   23  C   UNL     1      -7.126   6.855  67.598  1.00  0.00    -0.085 A  
HETATM   24  C   UNL     1      -7.039   9.282  69.010  1.00  0.00    -0.067 A  
HETATM   25  C   UNL     1      -5.929   7.298  68.181  1.00  0.00    -0.030 A  
HETATM   26  C   UNL     1      -5.888   8.505  68.885  1.00  0.00    -0.040 A  
HETATM   27  C   UNL     1      -8.225   8.861  68.417  1.00  0.00    -0.117 A  
HETATM   28  C   UNL     1      -8.269   7.657  67.711  1.00  0.00    -0.119 A  
ENDBRANCH  13  23
ENDBRANCH   9  12
ENDBRANCH   5   6
ENDBRANCH   4   5
ENDBRANCH   2   4
TORSDOF 7
ENDMDL
MODEL      148
REMARK 921   NORMALIZED FREE ENERGY PREDICTED BY IDOCK:   14.34 KCAL/MOL
REMARK 922        TOTAL FREE ENERGY PREDICTED BY IDOCK:   18.48 KCAL/MOL
REMARK 923 INTER-LIGAND FREE ENERGY PREDICTED BY IDOCK:   11.83 KCAL/MOL
REMARK 924 INTRA-LIGAND FREE ENERGY PREDICTED BY IDOCK:    6.65 KCAL/MOL
REMARK 927      BINDING AFFINITY PREDICTED BY RF-SCORE:    0.00 PKD
ROOT
HETATM    1  O   UNL     1      -5.363  12.684  63.247  1.00  0.00     3.750 OA 
HETATM    2  C   UNL     1      -6.779  12.696  63.404  1.00  0.00     9.391 C  
HETATM    3  H   UNL     1      -4.970  13.379  63.762  1.00  0.00     0.000 HD 
ENDROOT
BRANCH   2   4
HETATM    4  C   UNL     1      -7.413  11.577  62.576  1.00  0.00     0.707 C  
BRANCH   4   5
HETATM    5  O   UNL     1      -6.556  10.430  62.574  1.00  0.00    -0.133 OA 
BRANCH   5   6
HETATM    6  C   UNL     1      -6.813   9.457  63.507  1.00  0.00    -0.098 A  
HETATM    7  C   UNL     1      -6.785   8.083  63.284  1.00  0.00    -0.080 A  
HETATM    8  C   UNL     1      -7.019   7.188  64.342  1.00  0.00    -0.052 A  
HETATM    9  C   UNL     1      -7.272   7.650  65.643  1.00  0.00    -0.065 A  
HETATM   10  C   UNL     1      -7.121   9.922  64.792  1.00  0.00    -0.133 A  
HETATM   11  C   UNL     1      -7.351   9.028  65.853  1.00  0.00    -0.093 A  
BRANCH   9  12
HETATM   12  C   UNL     1      -7.383   6.655  66.759  1.00  0.00    -0.078 C  
HETATM   13  C   UNL     1      -7.126   5.336  66.507  1.00  0.00    -0.069 C  
BRANCH  12  14
HETATM   14  C   UNL     1      -7.859   7.080  68.110  1.00  0.00    -0.118 A  
HETATM   15  C   UNL     1      -7.288   6.534  69.270  1.00  0.00    -0.093 A  
HETATM   16  C   UNL     1      -8.752   7.866  70.668  1.00  0.00    -0.135 A  
HETATM   17  C   UNL     1      -8.875   8.037  68.255  1.00  0.00    -0.133 A  
HETATM   18  C   UNL     1      -9.324   8.420  69.525  1.00  0.00    -0.158 A  
HETATM   19  C   UNL     1      -7.731   6.926  70.540  1.00  0.00    -0.096 A  
ENDBRANCH  12  14
BRANCH  13  20
HETATM   20  C   UNL     1      -7.455   4.169  67.436  1.00  0.00    -0.069 C  
HETATM   21  C   UNL     1      -8.511   3.199  66.919  1.00  0.00    -0.103 C  
HETATM   22 CL   UNL     1      -8.924   2.017  68.199  1.00  0.00    -0.161 Cl 
ENDBRANCH  13  20
BRANCH  13  23
HETATM   23  C   UNL     1      -6.609   4.870  65.188  1.00  0.00    -0.040 A  
HETATM   24  C   UNL     1      -5.651   3.961  62.707  1.00  0.00    -0.012 A  
HETATM   25  C   UNL     1      -7.094   5.419  63.992  1.00  0.00    -0.049 A  
HETATM   26  C   UNL     1      -6.619   4.965  62.758  1.00  0.00    -0.026 A  
HETATM   27  C   UNL     1      -5.148   3.426  63.888  1.00  0.00    -0.008 A  
HETATM   28  C   UNL     1      -5.620   3.880  65.123  1.00  0.00    -0.014 A  
ENDBRANCH  13  23
ENDBRANCH   9  12
ENDBRANCH   5   6
ENDBRANCH   4   5
ENDBRANCH   2   4
TORSDOF 7
ENDMDL
MODEL      149
REMARK 921   NORMALIZED FREE ENERGY PREDICTED BY IDOCK:   25.12 KCAL/MOL
REMARK 922        TOTAL FREE ENERGY PREDICTED BY IDOCK:   33.68 KCAL/MOL
REMARK 923 INTER-LIGAND FREE ENERGY PREDICTED BY IDOCK:   29.70 KCAL/MOL
REMARK 924 INTRA-LIGAND FREE ENERGY PREDICTED BY IDOCK:    3.98 KCAL/MOL
REMARK 927      BINDING AFFINITY PREDICTED BY RF-SCORE:    0.00 PKD
ROOT
HETATM    1  O   UNL     1      -5.382  12.995  63.343  1.00  0.00     6.444 OA 
HETATM    2  C   UNL     1      -6.681  13.498  63.642  1.00  0.00    19.708 C  
HETATM    3  H   UNL     1      -4.722  13.497  63.807  1.00  0.00     0.000 HD 
ENDROOT
BRANCH   2   4
HETATM    4  C   UNL     1      -7.745  12.689  62.897  1.00  0.00     6.377 C  
BRANCH   4   5
HETATM    5  O   UNL     1      -7.327  11.325  62.783  1.00  0.00     0.283 OA 
BRANCH   5   6
HETATM    6  C   UNL     1      -7.730  10.463  63.772  1.00  0.00    -0.042 A  
HETATM    7  C   UNL     1      -8.198   9.165  63.584  1.00  0.00    -0.174 A  
HETATM    8  C   UNL     1      -8.533   8.366  64.690  1.00  0.00    -0.094 A  
HETATM    9  C   UNL     1      -8.395   8.844  66.003  1.00  0.00    -0.128 A  
HETATM   10  C   UNL     1      -7.644  10.963  65.077  1.00  0.00     0.286 A  
HETATM   11  C   UNL     1      -7.975  10.164  66.185  1.00  0.00    -0.125 A  
BRANCH   9  12
HETATM   12  C   UNL     1      -8.639   7.908  67.148  1.00  0.00    -0.128 C  
HETATM   13  C   UNL     1      -9.393   8.332  68.207  1.00  0.00    -0.138 C  
BRANCH  12  14
HETATM   14  C   UNL     1      -7.994   6.562  67.179  1.00  0.00    -0.112 A  
HETATM   15  C   UNL     1      -8.685   5.453  67.693  1.00  0.00    -0.106 A  
HETATM   16  C   UNL     1      -6.786   4.013  67.252  1.00  0.00    -0.047 A  
HETATM   17  C   UNL     1      -6.694   6.367  66.689  1.00  0.00    -0.060 A  
HETATM   18  C   UNL     1      -6.091   5.103  66.734  1.00  0.00    -0.030 A  
HETATM   19  C   UNL     1      -8.085   4.187  67.728  1.00  0.00    -0.094 A  
ENDBRANCH  12  14
BRANCH  13  20
HETATM   20  C   UNL     1      -9.509   7.627  69.558  1.00  0.00    -0.152 C  
HETATM   21  C   UNL     1      -8.948   8.397  70.748  1.00  0.00    -0.155 C  
HETATM   22 CL   UNL     1      -8.977   7.359  72.207  1.00  0.00    -0.146 Cl 
ENDBRANCH  13  20
BRANCH  13  23
HETATM   23  C   UNL     1     -10.091   9.650  68.205  1.00  0.00    -0.205 A  
HETATM   24  C   UNL     1     -11.388  12.143  68.225  1.00  0.00    -0.343 A  
HETATM   25  C   UNL     1      -9.882  10.571  67.167  1.00  0.00    -0.213 A  
HETATM   26  C   UNL     1     -10.526  11.812  67.180  1.00  0.00    -0.250 A  
HETATM   27  C   UNL     1     -11.619  11.227  69.247  1.00  0.00    -0.390 A  
HETATM   28  C   UNL     1     -10.978   9.986  69.236  1.00  0.00    -0.264 A  
ENDBRANCH  13  23
ENDBRANCH   9  12
ENDBRANCH   5   6
ENDBRANCH   4   5
ENDBRANCH   2   4
TORSDOF 7
ENDMDL
MODEL      150
REMARK 921   NORMALIZED FREE ENERGY PREDICTED BY IDOCK:   45.47 KCAL/MOL
REMARK 922        TOTAL FREE ENERGY PREDICTED BY IDOCK:   62.36 KCAL/MOL
REMARK 923 INTER-LIGAND FREE ENERGY PREDICTED BY IDOCK:   59.03 KCAL/MOL
REMARK 924 INTRA-LIGAND FREE ENERGY PREDICTED BY IDOCK:    3.33 KCAL/MOL
REMARK 927      BINDING AFFINITY PREDICTED BY RF-SCORE:    0.00 PKD
ROOT
HETATM    1  O   UNL     1      -5.392  13.019  63.350  1.00  0.00     6.444 OA 
HETATM    2  C   UNL     1      -6.686  13.561  63.599  1.00  0.00    19.708 C  
HETATM    3  H   UNL     1      -4.737  13.489  63.853  1.00  0.00     0.000 HD 
ENDROOT
BRANCH   2   4
HETATM    4  C   UNL     1      -7.740  12.804  62.790  1.00  0.00     7.186 C  
BRANCH   4   5
HETATM    5  O   UNL     1      -7.374  11.424  62.684  1.00  0.00     0.322 OA 
BRANCH   5   6
HETATM    6  C   UNL     1      -7.917  10.562  63.602  1.00  0.00    -0.023 A  
HETATM    7  C   UNL     1      -9.242  10.552  64.030  1.00  0.00    -0.286 A  
HETATM    8  C   UNL     1      -9.685   9.580  64.943  1.00  0.00    -0.065 A  
HETATM    9  C   UNL     1      -8.817   8.593  65.434  1.00  0.00    -0.198 A  
HETATM   10  C   UNL     1      -7.034   9.613  64.133  1.00  0.00    -0.116 A  
HETATM   11  C   UNL     1      -7.476   8.637  65.044  1.00  0.00    -0.088 A  
BRANCH   9  12
HETATM   12  C   UNL     1      -9.370   7.502  66.301  1.00  0.00    -0.176 C  
HETATM   13  C   UNL     1      -8.720   7.173  67.457  1.00  0.00    -0.121 C  
BRANCH  12  14
HETATM   14  C   UNL     1     -10.564   6.719  65.864  1.00  0.00     1.375 A  
HETATM   15  C   UNL     1     -11.524   6.302  66.801  1.00  0.00     0.363 A  
HETATM   16  C   UNL     1     -12.821   5.230  65.057  1.00  0.00     6.336 A  
HETATM   17  C   UNL     1     -10.764   6.389  64.515  1.00  0.00     6.242 A  
HETATM   18  C   UNL     1     -11.881   5.642  64.117  1.00  0.00     6.028 A  
HETATM   19  C   UNL     1     -12.645   5.564  66.400  1.00  0.00     6.726 A  
ENDBRANCH  12  14
BRANCH  13  20
HETATM   20  C   UNL     1      -8.978   5.927  68.303  1.00  0.00    -0.112 C  
HETATM   21  C   UNL     1      -7.820   4.938  68.379  1.00  0.00    -0.082 C  
HETATM   22 CL   UNL     1      -8.350   3.454  69.230  1.00  0.00    -0.077 Cl 
ENDBRANCH  13  20
BRANCH  13  23
HETATM   23  C   UNL     1      -7.549   7.952  67.956  1.00  0.00    -0.113 A  
HETATM   24  C   UNL     1      -5.325   9.393  68.890  1.00  0.00    -0.037 A  
HETATM   25  C   UNL     1      -6.974   8.964  67.172  1.00  0.00    -0.075 A  
HETATM   26  C   UNL     1      -5.866   9.678  67.637  1.00  0.00    -0.044 A  
HETATM   27  C   UNL     1      -5.902   8.407  69.684  1.00  0.00    -0.029 A  
HETATM   28  C   UNL     1      -7.011   7.692  69.223  1.00  0.00    -0.060 A  
ENDBRANCH  13  23
ENDBRANCH   9  12
ENDBRANCH   5   6
ENDBRANCH   4   5
ENDBRANCH   2   4
TORSDOF 7
ENDMDL
