MODEL        1
REMARK 921   NORMALIZED FREE ENERGY PREDICTED BY IDOCK:   -9.42 KCAL/MOL
REMARK 922        TOTAL FREE ENERGY PREDICTED BY IDOCK:  -12.58 KCAL/MOL
REMARK 923 INTER-LIGAND FREE ENERGY PREDICTED BY IDOCK:  -11.63 KCAL/MOL
REMARK 924 INTRA-LIGAND FREE ENERGY PREDICTED BY IDOCK:   -0.95 KCAL/MOL
REMARK 927      BINDING AFFINITY PREDICTED BY RF-SCORE:    0.00 PKD
ROOT
HETATM    1  C   UNL     1     -10.542  16.127  68.200  1.00  0.00    -0.290 C  
HETATM    2  C   UNL     1     -11.693  15.622  69.065  1.00  0.00    -0.408 C  
HETATM    3  C   UNL     1     -11.671  14.072  69.080  1.00  0.00    -0.375 C  
HETATM    4  C   UNL     1     -11.660  13.394  67.664  1.00  0.00    -0.340 C  
HETATM    5  O   UNL     1     -12.878  13.802  67.042  1.00  0.00    -0.216 OA 
HETATM    6  C   UNL     1     -11.640  11.865  67.687  1.00  0.00    -0.382 C  
HETATM    7  C   UNL     1     -10.659  11.367  68.717  1.00  0.00    -0.204 C  
HETATM    8  H   UNL     1     -12.871  13.392  66.186  1.00  0.00     0.000 HD 
HETATM    9  H   UNL     1      -8.533  18.030  69.255  1.00  0.00     0.000 HD 
HETATM   10  C   UNL     1      -9.260  11.966  68.488  1.00  0.00    -0.136 C  
HETATM   11  C   UNL     1      -9.122  13.247  67.580  1.00  0.00    -0.208 C  
HETATM   12  O   UNL     1      -8.845  17.136  69.175  1.00  0.00    -0.159 OA 
HETATM   13  C   UNL     1     -10.022  17.617  68.333  1.00  0.00    -0.356 C  
HETATM   14  O   UNL     1      -8.024  13.028  66.688  1.00  0.00    -0.388 OA 
HETATM   15  C   UNL     1     -10.414  13.854  66.840  1.00  0.00    -0.276 C  
HETATM   16  C   UNL     1     -10.529  15.446  66.796  1.00  0.00    -0.299 C  
HETATM   17  C   UNL     1     -10.126  18.893  69.171  1.00  0.00    -0.212 C  
HETATM   18  C   UNL     1      -8.671  19.568  68.746  1.00  0.00    -0.342 C  
HETATM   19  H   UNL     1      -7.942  13.800  66.140  1.00  0.00     0.000 HD 
HETATM   20  C   UNL     1     -10.352  19.716  66.520  1.00  0.00    -0.601 C  
HETATM   21  C   UNL     1      -8.212  18.813  67.394  1.00  0.00    -0.278 C  
HETATM   22  C   UNL     1      -9.560  16.087  65.812  1.00  0.00    -0.276 C  
HETATM   23  C   UNL     1      -9.618  18.360  66.944  1.00  0.00    -0.305 C  
HETATM   24  H   UNL     1      -7.594  16.304  65.494  1.00  0.00     0.000 HD 
HETATM   25  O   UNL     1      -8.199  15.904  66.108  1.00  0.00    -0.232 OA 
HETATM   26  C   UNL     1      -9.921  17.530  65.723  1.00  0.00    -0.060 C  
ENDROOT
BRANCH   7  27
HETATM   27  O   UNL     1     -10.715   9.950  68.639  1.00  0.00    -0.215 OA 
BRANCH  27  28
HETATM   28  C   UNL     1     -11.466   9.252  69.628  1.00  0.00     0.152 C  
HETATM   29  C   UNL     1     -11.625   7.209  71.172  1.00  0.00    -0.301 C  
HETATM   30  H   UNL     1      -9.954   7.389  73.063  1.00  0.00     0.000 HD 
HETATM   31  C   UNL     1     -13.534   9.819  71.728  1.00  0.00    -0.463 C  
HETATM   32  O   UNL     1     -12.952   6.717  70.915  1.00  0.00    -0.388 OA 
HETATM   33  C   UNL     1     -11.017   7.783  69.879  1.00  0.00    -0.190 C  
HETATM   34  O   UNL     1     -11.411   6.921  68.789  1.00  0.00    -0.529 OA 
HETATM   35  H   UNL     1     -12.973   6.107  70.188  1.00  0.00     0.000 HD 
HETATM   36  O   UNL     1     -10.233   8.264  72.818  1.00  0.00    -0.300 OA 
HETATM   37  C   UNL     1     -11.590   8.194  72.344  1.00  0.00    -0.399 C  
HETATM   38  H   UNL     1     -11.137   6.025  68.943  1.00  0.00     0.000 HD 
HETATM   39  C   UNL     1     -12.042   9.608  71.949  1.00  0.00    -0.306 C  
HETATM   40  O   UNL     1     -11.295  10.039  70.813  1.00  0.00    -0.311 OA 
ENDBRANCH  27  28
ENDBRANCH   7  27
BRANCH  15  41
HETATM   41  C   UNL     1     -10.424  13.363  65.336  1.00  0.00    -0.302 C  
HETATM   42  H   UNL     1     -11.624  13.349  63.705  1.00  0.00     0.000 HD 
HETATM   43  O   UNL     1     -11.618  13.644  64.609  1.00  0.00    -0.343 OA 
ENDBRANCH  15  41
BRANCH  21  44
HETATM   44  C   UNL     1      -7.272  19.340  66.381  1.00  0.00    -0.252 C  
HETATM   45  C   UNL     1      -6.157  19.647  64.454  1.00  0.00    -0.230 C  
HETATM   46  O   UNL     1      -5.610  19.371  63.402  1.00  0.00    -0.305 OA 
HETATM   47  O   UNL     1      -6.296  20.887  64.952  1.00  0.00    -0.270 OA 
HETATM   48  C   UNL     1      -7.005  20.790  66.190  1.00  0.00    -0.100 C  
HETATM   49  C   UNL     1      -6.779  18.669  65.337  1.00  0.00    -0.231 C  
ENDBRANCH  21  44
TORSDOF 4
ENDMDL
MODEL        2
REMARK 921   NORMALIZED FREE ENERGY PREDICTED BY IDOCK:   -9.09 KCAL/MOL
REMARK 922        TOTAL FREE ENERGY PREDICTED BY IDOCK:  -12.17 KCAL/MOL
REMARK 923 INTER-LIGAND FREE ENERGY PREDICTED BY IDOCK:  -11.43 KCAL/MOL
REMARK 924 INTRA-LIGAND FREE ENERGY PREDICTED BY IDOCK:   -0.73 KCAL/MOL
REMARK 927      BINDING AFFINITY PREDICTED BY RF-SCORE:    0.00 PKD
ROOT
HETATM    1  C   UNL     1     -10.149  16.790  66.134  1.00  0.00    -0.360 C  
HETATM    2  C   UNL     1     -11.159  16.199  65.156  1.00  0.00    -0.256 C  
HETATM    3  C   UNL     1     -11.532  14.767  65.616  1.00  0.00    -0.327 C  
HETATM    4  C   UNL     1     -10.313  13.806  65.850  1.00  0.00    -0.309 C  
HETATM    5  O   UNL     1      -9.670  13.697  64.581  1.00  0.00    -0.570 OA 
HETATM    6  C   UNL     1     -10.689  12.395  66.304  1.00  0.00    -0.287 C  
HETATM    7  C   UNL     1     -11.759  12.449  67.362  1.00  0.00    -0.347 C  
HETATM    8  H   UNL     1      -8.933  13.116  64.724  1.00  0.00     0.000 HD 
HETATM    9  H   UNL     1     -10.640  19.372  67.497  1.00  0.00     0.000 HD 
HETATM   10  C   UNL     1     -11.334  13.345  68.539  1.00  0.00    -0.324 C  
HETATM   11  C   UNL     1     -10.148  14.362  68.327  1.00  0.00    -0.239 C  
HETATM   12  O   UNL     1     -10.783  18.434  67.453  1.00  0.00    -0.416 OA 
HETATM   13  C   UNL     1      -9.908  18.353  66.208  1.00  0.00    -0.331 C  
HETATM   14  O   UNL     1      -9.281  14.257  69.461  1.00  0.00    -0.306 OA 
HETATM   15  C   UNL     1      -9.348  14.390  66.933  1.00  0.00    -0.269 C  
HETATM   16  C   UNL     1      -8.941  15.829  66.372  1.00  0.00    -0.366 C  
HETATM   17  C   UNL     1     -10.431  19.708  65.727  1.00  0.00    -0.540 C  
HETATM   18  C   UNL     1      -9.795  20.645  66.940  1.00  0.00    -0.396 C  
HETATM   19  H   UNL     1      -8.566  14.870  69.334  1.00  0.00     0.000 HD 
HETATM   20  C   UNL     1      -7.675  19.786  65.335  1.00  0.00     0.122 C  
HETATM   21  C   UNL     1      -8.635  19.753  67.624  1.00  0.00    -0.376 C  
HETATM   22  C   UNL     1      -7.792  16.466  67.140  1.00  0.00    -0.189 C  
HETATM   23  C   UNL     1      -8.368  18.831  66.415  1.00  0.00    -0.294 C  
HETATM   24  H   UNL     1      -7.342  17.145  68.970  1.00  0.00     0.000 HD 
HETATM   25  O   UNL     1      -8.059  16.748  68.490  1.00  0.00    -0.218 OA 
HETATM   26  C   UNL     1      -7.388  17.686  66.387  1.00  0.00    -0.323 C  
ENDROOT
BRANCH   7  27
HETATM   27  O   UNL     1     -12.015  11.097  67.713  1.00  0.00    -0.630 OA 
BRANCH  27  28
HETATM   28  C   UNL     1     -10.911  10.284  68.104  1.00  0.00    -0.274 C  
HETATM   29  C   UNL     1      -9.976   8.574  69.772  1.00  0.00    -0.191 C  
HETATM   30  H   UNL     1     -11.076   6.320  69.448  1.00  0.00     0.000 HD 
HETATM   31  C   UNL     1      -8.488   9.005  66.879  1.00  0.00    -0.120 C  
HETATM   32  O   UNL     1      -8.702   9.140  70.128  1.00  0.00    -0.145 OA 
HETATM   33  C   UNL     1     -11.004   9.697  69.542  1.00  0.00    -0.208 C  
HETATM   34  O   UNL     1     -10.772  10.716  70.540  1.00  0.00    -0.419 OA 
HETATM   35  H   UNL     1      -8.770   9.742  70.860  1.00  0.00     0.000 HD 
HETATM   36  O   UNL     1     -11.036   6.763  68.609  1.00  0.00    -0.234 OA 
HETATM   37  C   UNL     1      -9.868   7.605  68.592  1.00  0.00    -0.171 C  
HETATM   38  H   UNL     1     -10.828  10.357  71.418  1.00  0.00     0.000 HD 
HETATM   39  C   UNL     1      -9.802   8.320  67.235  1.00  0.00    -0.197 C  
HETATM   40  O   UNL     1     -10.892   9.232  67.132  1.00  0.00    -0.217 OA 
ENDBRANCH  27  28
ENDBRANCH   7  27
BRANCH  15  41
HETATM   41  C   UNL     1      -8.001  13.576  67.096  1.00  0.00    -0.041 C  
HETATM   42  H   UNL     1      -7.282  11.906  67.986  1.00  0.00     0.000 HD 
HETATM   43  O   UNL     1      -8.091  12.395  67.888  1.00  0.00    -0.138 OA 
ENDBRANCH  15  41
BRANCH  21  44
HETATM   44  C   UNL     1      -7.485  20.269  68.398  1.00  0.00    -0.130 C  
HETATM   45  C   UNL     1      -5.785  20.413  69.860  1.00  0.00    -0.346 C  
HETATM   46  O   UNL     1      -5.151  20.242  70.885  1.00  0.00    -0.215 OA 
HETATM   47  O   UNL     1      -5.351  21.094  68.786  1.00  0.00    -0.325 OA 
HETATM   48  C   UNL     1      -6.377  21.053  67.791  1.00  0.00    -0.354 C  
HETATM   49  C   UNL     1      -7.119  19.879  69.622  1.00  0.00    -0.157 C  
ENDBRANCH  21  44
TORSDOF 4
ENDMDL
MODEL        3
REMARK 921   NORMALIZED FREE ENERGY PREDICTED BY IDOCK:   -8.87 KCAL/MOL
REMARK 922        TOTAL FREE ENERGY PREDICTED BY IDOCK:  -11.90 KCAL/MOL
REMARK 923 INTER-LIGAND FREE ENERGY PREDICTED BY IDOCK:  -11.04 KCAL/MOL
REMARK 924 INTRA-LIGAND FREE ENERGY PREDICTED BY IDOCK:   -0.86 KCAL/MOL
REMARK 927      BINDING AFFINITY PREDICTED BY RF-SCORE:    0.00 PKD
ROOT
HETATM    1  C   UNL     1     -10.576  16.218  68.209  1.00  0.00    -0.300 C  
HETATM    2  C   UNL     1     -11.761  15.758  69.052  1.00  0.00    -0.405 C  
HETATM    3  C   UNL     1     -11.762  14.210  69.123  1.00  0.00    -0.368 C  
HETATM    4  C   UNL     1     -11.712  13.481  67.734  1.00  0.00    -0.359 C  
HETATM    5  O   UNL     1     -12.903  13.880  67.056  1.00  0.00    -0.284 OA 
HETATM    6  C   UNL     1     -11.713  11.953  67.812  1.00  0.00    -0.362 C  
HETATM    7  C   UNL     1     -10.775  11.481  68.892  1.00  0.00    -0.207 C  
HETATM    8  H   UNL     1     -12.872  13.439  66.216  1.00  0.00     0.000 HD 
HETATM    9  H   UNL     1      -8.578  18.132  69.262  1.00  0.00     0.000 HD 
HETATM   10  C   UNL     1      -9.360  12.054  68.689  1.00  0.00    -0.056 C  
HETATM   11  C   UNL     1      -9.175  13.299  67.741  1.00  0.00    -0.209 C  
HETATM   12  O   UNL     1      -8.899  17.240  69.204  1.00  0.00    -0.135 OA 
HETATM   13  C   UNL     1     -10.040  17.705  68.305  1.00  0.00    -0.362 C  
HETATM   14  O   UNL     1      -8.051  13.035  66.895  1.00  0.00    -0.382 OA 
HETATM   15  C   UNL     1     -10.433  13.894  66.936  1.00  0.00    -0.276 C  
HETATM   16  C   UNL     1     -10.525  15.486  66.831  1.00  0.00    -0.301 C  
HETATM   17  C   UNL     1     -10.155  19.011  69.093  1.00  0.00    -0.236 C  
HETATM   18  C   UNL     1      -8.677  19.653  68.694  1.00  0.00    -0.317 C  
HETATM   19  H   UNL     1      -7.939  13.785  66.324  1.00  0.00     0.000 HD 
HETATM   20  C   UNL     1     -10.281  19.740  66.408  1.00  0.00    -0.614 C  
HETATM   21  C   UNL     1      -8.184  18.843  67.386  1.00  0.00    -0.289 C  
HETATM   22  C   UNL     1      -9.515  16.078  65.859  1.00  0.00    -0.316 C  
HETATM   23  C   UNL     1      -9.579  18.392  66.905  1.00  0.00    -0.305 C  
HETATM   24  H   UNL     1      -7.536  16.260  65.600  1.00  0.00     0.000 HD 
HETATM   25  O   UNL     1      -8.167  15.890  66.207  1.00  0.00    -0.274 OA 
HETATM   26  C   UNL     1      -9.853  17.521  65.706  1.00  0.00     0.003 C  
ENDROOT
BRANCH   7  27
HETATM   27  O   UNL     1     -10.847  10.063  68.863  1.00  0.00    -0.213 OA 
BRANCH  27  28
HETATM   28  C   UNL     1     -10.868   9.366  70.106  1.00  0.00    -0.249 C  
HETATM   29  C   UNL     1     -12.039   7.627  71.584  1.00  0.00    -0.306 C  
HETATM   30  H   UNL     1     -11.672   5.295  70.677  1.00  0.00     0.000 HD 
HETATM   31  C   UNL     1      -8.970   8.554  72.286  1.00  0.00    -0.299 C  
HETATM   32  O   UNL     1     -12.173   8.315  72.840  1.00  0.00    -0.584 OA 
HETATM   33  C   UNL     1     -12.198   8.623  70.421  1.00  0.00     0.344 C  
HETATM   34  O   UNL     1     -13.245   9.551  70.778  1.00  0.00    -0.568 OA 
HETATM   35  H   UNL     1     -12.975   8.822  72.888  1.00  0.00     0.000 HD 
HETATM   36  O   UNL     1     -10.911   5.825  70.471  1.00  0.00    -0.288 OA 
HETATM   37  C   UNL     1     -10.746   6.811  71.507  1.00  0.00    -0.226 C  
HETATM   38  H   UNL     1     -14.058   9.097  70.970  1.00  0.00     0.000 HD 
HETATM   39  C   UNL     1      -9.517   7.669  71.173  1.00  0.00    -0.154 C  
HETATM   40  O   UNL     1      -9.784   8.435  70.001  1.00  0.00    -0.174 OA 
ENDBRANCH  27  28
ENDBRANCH   7  27
BRANCH  15  41
HETATM   41  C   UNL     1     -10.399  13.349  65.452  1.00  0.00    -0.312 C  
HETATM   42  H   UNL     1     -11.602  13.139  63.837  1.00  0.00     0.000 HD 
HETATM   43  O   UNL     1     -11.622  13.466  64.729  1.00  0.00    -0.318 OA 
ENDBRANCH  15  41
BRANCH  21  44
HETATM   44  C   UNL     1      -7.203  19.321  66.388  1.00  0.00    -0.252 C  
HETATM   45  C   UNL     1      -6.101  19.636  64.455  1.00  0.00    -0.255 C  
HETATM   46  O   UNL     1      -5.621  19.378  63.366  1.00  0.00    -0.305 OA 
HETATM   47  O   UNL     1      -6.056  20.836  65.056  1.00  0.00    -0.247 OA 
HETATM   48  C   UNL     1      -6.743  20.733  66.306  1.00  0.00    -0.204 C  
HETATM   49  C   UNL     1      -6.831  18.680  65.277  1.00  0.00    -0.078 C  
ENDBRANCH  21  44
TORSDOF 4
ENDMDL
MODEL        4
REMARK 921   NORMALIZED FREE ENERGY PREDICTED BY IDOCK:   -8.59 KCAL/MOL
REMARK 922        TOTAL FREE ENERGY PREDICTED BY IDOCK:  -11.55 KCAL/MOL
REMARK 923 INTER-LIGAND FREE ENERGY PREDICTED BY IDOCK:  -10.46 KCAL/MOL
REMARK 924 INTRA-LIGAND FREE ENERGY PREDICTED BY IDOCK:   -1.08 KCAL/MOL
REMARK 927      BINDING AFFINITY PREDICTED BY RF-SCORE:    0.00 PKD
ROOT
HETATM    1  C   UNL     1     -10.092  10.561  65.883  1.00  0.00    -0.323 C  
HETATM    2  C   UNL     1     -10.456  11.052  64.485  1.00  0.00    -0.411 C  
HETATM    3  C   UNL     1     -10.505  12.601  64.490  1.00  0.00    -0.379 C  
HETATM    4  C   UNL     1     -11.426  13.234  65.592  1.00  0.00    -0.318 C  
HETATM    5  O   UNL     1     -12.741  12.764  65.299  1.00  0.00    -0.625 OA 
HETATM    6  C   UNL     1     -11.469  14.763  65.590  1.00  0.00    -0.327 C  
HETATM    7  C   UNL     1     -10.083  15.328  65.417  1.00  0.00    -0.362 C  
HETATM    8  H   UNL     1     -13.298  13.146  65.966  1.00  0.00     0.000 HD 
HETATM    9  H   UNL     1      -7.782   8.766  66.340  1.00  0.00     0.000 HD 
HETATM   10  C   UNL     1      -9.120  14.773  66.481  1.00  0.00    -0.291 C  
HETATM   11  C   UNL     1      -9.527  13.470  67.268  1.00  0.00    -0.230 C  
HETATM   12  O   UNL     1      -8.117   9.645  66.205  1.00  0.00    -0.110 OA 
HETATM   13  C   UNL     1      -9.535   9.096  66.108  1.00  0.00    -0.245 C  
HETATM   14  O   UNL     1      -9.256  13.699  68.655  1.00  0.00    -0.334 OA 
HETATM   15  C   UNL     1     -10.965  12.794  67.019  1.00  0.00    -0.295 C  
HETATM   16  C   UNL     1     -11.005  11.197  66.978  1.00  0.00    -0.348 C  
HETATM   17  C   UNL     1      -9.024   7.845  65.393  1.00  0.00     0.056 C  
HETATM   18  C   UNL     1      -8.137   7.209  66.643  1.00  0.00    -0.109 C  
HETATM   19  H   UNL     1      -9.502  12.914  69.129  1.00  0.00     0.000 HD 
HETATM   20  C   UNL     1     -10.839   6.930  67.296  1.00  0.00    -0.426 C  
HETATM   21  C   UNL     1      -8.677   7.937  67.981  1.00  0.00    -0.125 C  
HETATM   22  C   UNL     1     -10.850  10.561  68.351  1.00  0.00    -0.240 C  
HETATM   23  C   UNL     1     -10.068   8.324  67.437  1.00  0.00    -0.298 C  
HETATM   24  H   UNL     1      -9.524  10.405  69.845  1.00  0.00     0.000 HD 
HETATM   25  O   UNL     1      -9.621  10.802  68.988  1.00  0.00    -0.197 OA 
HETATM   26  C   UNL     1     -11.116   9.104  68.189  1.00  0.00     0.106 C  
ENDROOT
BRANCH   7  27
HETATM   27  O   UNL     1     -10.243  16.739  65.445  1.00  0.00    -0.599 OA 
BRANCH  27  28
HETATM   28  C   UNL     1      -9.648  17.462  66.518  1.00  0.00    -0.280 C  
HETATM   29  C   UNL     1      -8.162  19.427  67.233  1.00  0.00    -0.281 C  
HETATM   30  H   UNL     1      -9.360  21.626  66.875  1.00  0.00     0.000 HD 
HETATM   31  C   UNL     1     -10.103  17.970  69.442  1.00  0.00     0.035 C  
HETATM   32  O   UNL     1      -7.234  18.811  68.144  1.00  0.00    -0.241 OA 
HETATM   33  C   UNL     1      -8.517  18.446  66.101  1.00  0.00    -0.119 C  
HETATM   34  O   UNL     1      -7.311  17.737  65.741  1.00  0.00    -0.505 OA 
HETATM   35  H   UNL     1      -6.472  18.463  67.697  1.00  0.00     0.000 HD 
HETATM   36  O   UNL     1     -10.003  20.959  67.082  1.00  0.00    -0.361 OA 
HETATM   37  C   UNL     1      -9.391  19.989  67.953  1.00  0.00    -0.327 C  
HETATM   38  H   UNL     1      -6.621  18.338  65.486  1.00  0.00     0.000 HD 
HETATM   39  C   UNL     1     -10.431  18.910  68.288  1.00  0.00    -0.257 C  
HETATM   40  O   UNL     1     -10.742  18.174  67.108  1.00  0.00    -0.375 OA 
ENDBRANCH  27  28
ENDBRANCH   7  27
BRANCH  15  41
HETATM   41  C   UNL     1     -11.949  13.236  68.176  1.00  0.00    -0.304 C  
HETATM   42  H   UNL     1     -12.403  14.851  69.309  1.00  0.00     0.000 HD 
HETATM   43  O   UNL     1     -11.811  14.585  68.615  1.00  0.00    -0.319 OA 
ENDBRANCH  15  41
BRANCH  21  44
HETATM   44  C   UNL     1      -8.568   7.412  69.360  1.00  0.00    -0.134 C  
HETATM   45  C   UNL     1      -8.032   6.120  71.118  1.00  0.00    -0.116 C  
HETATM   46  O   UNL     1      -7.795   5.110  71.755  1.00  0.00    -0.104 OA 
HETATM   47  O   UNL     1      -7.980   7.371  71.604  1.00  0.00    -0.096 OA 
HETATM   48  C   UNL     1      -8.306   8.273  70.543  1.00  0.00    -0.124 C  
HETATM   49  C   UNL     1      -8.387   6.135  69.705  1.00  0.00    -0.124 C  
ENDBRANCH  21  44
TORSDOF 4
ENDMDL
MODEL        5
REMARK 921   NORMALIZED FREE ENERGY PREDICTED BY IDOCK:   -8.41 KCAL/MOL
REMARK 922        TOTAL FREE ENERGY PREDICTED BY IDOCK:  -11.33 KCAL/MOL
REMARK 923 INTER-LIGAND FREE ENERGY PREDICTED BY IDOCK:  -10.41 KCAL/MOL
REMARK 924 INTRA-LIGAND FREE ENERGY PREDICTED BY IDOCK:   -0.92 KCAL/MOL
REMARK 927      BINDING AFFINITY PREDICTED BY RF-SCORE:    0.00 PKD
ROOT
HETATM    1  C   UNL     1      -8.900  11.512  68.062  1.00  0.00    -0.158 C  
HETATM    2  C   UNL     1      -7.889  12.121  67.097  1.00  0.00    -0.160 C  
HETATM    3  C   UNL     1      -8.055  13.662  67.096  1.00  0.00    -0.094 C  
HETATM    4  C   UNL     1      -9.513  14.173  66.817  1.00  0.00    -0.279 C  
HETATM    5  O   UNL     1      -9.832  13.706  65.508  1.00  0.00    -0.455 OA 
HETATM    6  C   UNL     1      -9.668  15.695  66.818  1.00  0.00    -0.255 C  
HETATM    7  C   UNL     1      -8.916  16.301  67.974  1.00  0.00    -0.187 C  
HETATM    8  H   UNL     1     -10.714  14.015  65.340  1.00  0.00     0.000 HD 
HETATM    9  H   UNL     1      -8.053   9.729  70.269  1.00  0.00     0.000 HD 
HETATM   10  C   UNL     1      -9.347  15.670  69.310  1.00  0.00    -0.267 C  
HETATM   11  C   UNL     1     -10.112  14.292  69.287  1.00  0.00     0.030 C  
HETATM   12  O   UNL     1      -8.171  10.610  69.933  1.00  0.00     0.045 OA 
HETATM   13  C   UNL     1      -8.704  10.044  68.622  1.00  0.00    -0.127 C  
HETATM   14  O   UNL     1     -11.222  14.400  70.184  1.00  0.00    -0.417 OA 
HETATM   15  C   UNL     1     -10.509  13.614  67.885  1.00  0.00    -0.249 C  
HETATM   16  C   UNL     1     -10.348  12.027  67.788  1.00  0.00    -0.210 C  
HETATM   17  C   UNL     1      -7.723   8.873  68.705  1.00  0.00    -0.096 C  
HETATM   18  C   UNL     1      -8.346   8.143  70.059  1.00  0.00    -0.122 C  
HETATM   19  H   UNL     1     -11.684  13.569  70.170  1.00  0.00     0.000 HD 
HETATM   20  C   UNL     1     -10.166   7.753  67.975  1.00  0.00    -0.249 C  
HETATM   21  C   UNL     1      -9.840   8.736  70.230  1.00  0.00    -0.198 C  
HETATM   22  C   UNL     1     -11.424  11.271  68.555  1.00  0.00    -0.306 C  
HETATM   23  C   UNL     1     -10.052   9.143  68.757  1.00  0.00    -0.212 C  
HETATM   24  H   UNL     1     -12.097  11.005  70.423  1.00  0.00     0.000 HD 
HETATM   25  O   UNL     1     -11.425  11.477  69.944  1.00  0.00    -0.289 OA 
HETATM   26  C   UNL     1     -11.275   9.830  68.207  1.00  0.00    -0.074 C  
ENDROOT
BRANCH   7  27
HETATM   27  O   UNL     1      -9.142  17.700  67.882  1.00  0.00    -0.250 OA 
BRANCH  27  28
HETATM   28  C   UNL     1      -8.092  18.518  67.372  1.00  0.00    -0.240 C  
HETATM   29  C   UNL     1      -7.067  20.864  67.219  1.00  0.00    -0.370 C  
HETATM   30  H   UNL     1      -6.047  21.537  69.434  1.00  0.00     0.000 HD 
HETATM   31  C   UNL     1      -5.256  18.244  66.427  1.00  0.00    -0.179 C  
HETATM   32  O   UNL     1      -6.843  21.023  65.807  1.00  0.00    -0.487 OA 
HETATM   33  C   UNL     1      -8.351  20.049  67.459  1.00  0.00    -0.334 C  
HETATM   34  O   UNL     1      -9.328  20.473  66.482  1.00  0.00    -0.601 OA 
HETATM   35  H   UNL     1      -7.602  21.381  65.362  1.00  0.00     0.000 HD 
HETATM   36  O   UNL     1      -5.973  20.595  69.338  1.00  0.00    -0.351 OA 
HETATM   37  C   UNL     1      -5.844  20.287  67.937  1.00  0.00    -0.217 C  
HETATM   38  H   UNL     1      -9.486  21.408  66.536  1.00  0.00     0.000 HD 
HETATM   39  C   UNL     1      -5.723  18.765  67.781  1.00  0.00    -0.185 C  
HETATM   40  O   UNL     1      -6.954  18.154  68.161  1.00  0.00    -0.211 OA 
ENDBRANCH  27  28
ENDBRANCH   7  27
BRANCH  15  41
HETATM   41  C   UNL     1     -12.027  13.929  67.571  1.00  0.00    -0.386 C  
HETATM   42  H   UNL     1     -13.362  13.831  66.052  1.00  0.00     0.000 HD 
HETATM   43  O   UNL     1     -12.450  13.642  66.240  1.00  0.00    -0.422 OA 
ENDBRANCH  15  41
BRANCH  21  44
HETATM   44  C   UNL     1     -10.951   8.089  70.962  1.00  0.00    -0.263 C  
HETATM   45  C   UNL     1     -13.013   7.547  71.671  1.00  0.00    -0.358 C  
HETATM   46  O   UNL     1     -14.181   7.691  71.986  1.00  0.00    -0.331 OA 
HETATM   47  O   UNL     1     -12.350   6.379  71.674  1.00  0.00    -0.312 OA 
HETATM   48  C   UNL     1     -11.014   6.628  71.227  1.00  0.00    -0.253 C  
HETATM   49  C   UNL     1     -12.148   8.626  71.213  1.00  0.00    -0.333 C  
ENDBRANCH  21  44
TORSDOF 4
ENDMDL
MODEL        6
REMARK 921   NORMALIZED FREE ENERGY PREDICTED BY IDOCK:   -8.23 KCAL/MOL
REMARK 922        TOTAL FREE ENERGY PREDICTED BY IDOCK:  -11.10 KCAL/MOL
REMARK 923 INTER-LIGAND FREE ENERGY PREDICTED BY IDOCK:  -10.00 KCAL/MOL
REMARK 924 INTRA-LIGAND FREE ENERGY PREDICTED BY IDOCK:   -1.10 KCAL/MOL
REMARK 927      BINDING AFFINITY PREDICTED BY RF-SCORE:    0.00 PKD
ROOT
HETATM    1  C   UNL     1     -10.472  15.530  68.190  1.00  0.00    -0.259 C  
HETATM    2  C   UNL     1     -11.531  14.992  69.148  1.00  0.00    -0.320 C  
HETATM    3  C   UNL     1     -11.429  13.447  69.200  1.00  0.00    -0.351 C  
HETATM    4  C   UNL     1     -11.483  12.730  67.804  1.00  0.00    -0.326 C  
HETATM    5  O   UNL     1     -12.761  13.059  67.262  1.00  0.00     0.154 OA 
HETATM    6  C   UNL     1     -11.383  11.206  67.863  1.00  0.00    -0.378 C  
HETATM    7  C   UNL     1     -10.308  10.786  68.832  1.00  0.00    -0.202 C  
HETATM    8  H   UNL     1     -12.794  12.626  66.417  1.00  0.00     0.000 HD 
HETATM    9  H   UNL     1      -8.493  17.558  69.050  1.00  0.00     0.000 HD 
HETATM   10  C   UNL     1      -8.961  11.446  68.488  1.00  0.00    -0.158 C  
HETATM   11  C   UNL     1      -8.953  12.706  67.541  1.00  0.00    -0.187 C  
HETATM   12  O   UNL     1      -8.764  16.648  69.015  1.00  0.00    -0.250 OA 
HETATM   13  C   UNL     1     -10.020  17.046  68.248  1.00  0.00    -0.285 C  
HETATM   14  O   UNL     1      -7.912  12.517  66.578  1.00  0.00    -0.393 OA 
HETATM   15  C   UNL     1     -10.323  13.227  66.881  1.00  0.00    -0.255 C  
HETATM   16  C   UNL     1     -10.523  14.810  66.805  1.00  0.00    -0.282 C  
HETATM   17  C   UNL     1     -10.130  18.338  69.059  1.00  0.00    -0.283 C  
HETATM   18  C   UNL     1      -8.745  19.073  68.514  1.00  0.00    -0.392 C  
HETATM   19  H   UNL     1      -7.907  13.276  66.006  1.00  0.00     0.000 HD 
HETATM   20  C   UNL     1     -10.585  19.074  66.412  1.00  0.00    -0.492 C  
HETATM   21  C   UNL     1      -8.345  18.303  67.151  1.00  0.00    -0.250 C  
HETATM   22  C   UNL     1      -9.660  15.470  65.739  1.00  0.00    -0.332 C  
HETATM   23  C   UNL     1      -9.754  17.769  66.816  1.00  0.00    -0.309 C  
HETATM   24  H   UNL     1      -7.735  15.775  65.274  1.00  0.00     0.000 HD 
HETATM   25  O   UNL     1      -8.274  15.363  65.940  1.00  0.00     0.489 OA 
HETATM   26  C   UNL     1     -10.100  16.890  65.641  1.00  0.00    -0.175 C  
ENDROOT
BRANCH   7  27
HETATM   27  O   UNL     1     -10.296   9.366  68.793  1.00  0.00    -0.198 OA 
BRANCH  27  28
HETATM   28  C   UNL     1     -10.957   8.660  69.840  1.00  0.00    -0.168 C  
HETATM   29  C   UNL     1     -10.820   6.821  71.623  1.00  0.00    -0.229 C  
HETATM   30  H   UNL     1      -9.314   7.536  73.525  1.00  0.00     0.000 HD 
HETATM   31  C   UNL     1     -13.205   9.070  71.787  1.00  0.00    -0.445 C  
HETATM   32  O   UNL     1     -12.018   6.060  71.389  1.00  0.00    -0.133 OA 
HETATM   33  C   UNL     1     -10.260   7.343  70.287  1.00  0.00    -0.200 C  
HETATM   34  O   UNL     1     -10.430   6.300  69.303  1.00  0.00    -0.198 OA 
HETATM   35  H   UNL     1     -11.888   5.375  70.745  1.00  0.00     0.000 HD 
HETATM   36  O   UNL     1      -9.736   8.307  73.165  1.00  0.00    -0.254 OA 
HETATM   37  C   UNL     1     -11.030   7.926  72.661  1.00  0.00    -0.378 C  
HETATM   38  H   UNL     1     -10.004   5.495  69.576  1.00  0.00     0.000 HD 
HETATM   39  C   UNL     1     -11.712   9.172  72.078  1.00  0.00    -0.314 C  
HETATM   40  O   UNL     1     -10.998   9.600  70.920  1.00  0.00    -0.291 OA 
ENDBRANCH  27  28
ENDBRANCH   7  27
BRANCH  15  41
HETATM   41  C   UNL     1     -10.415  12.694  65.394  1.00  0.00    -0.283 C  
HETATM   42  H   UNL     1     -11.746  12.507  63.880  1.00  0.00     0.000 HD 
HETATM   43  O   UNL     1     -11.691  12.827  64.774  1.00  0.00    -0.322 OA 
ENDBRANCH  15  41
BRANCH  21  44
HETATM   44  C   UNL     1      -7.507  18.847  66.061  1.00  0.00    -0.273 C  
HETATM   45  C   UNL     1      -6.269  20.245  64.812  1.00  0.00    -0.280 C  
HETATM   46  O   UNL     1      -5.900  21.286  64.299  1.00  0.00    -0.234 OA 
HETATM   47  O   UNL     1      -5.666  19.054  64.663  1.00  0.00    -0.237 OA 
HETATM   48  C   UNL     1      -6.390  18.091  65.434  1.00  0.00    -0.088 C  
HETATM   49  C   UNL     1      -7.418  20.129  65.699  1.00  0.00    -0.240 C  
ENDBRANCH  21  44
TORSDOF 4
ENDMDL
MODEL        7
REMARK 921   NORMALIZED FREE ENERGY PREDICTED BY IDOCK:   -8.22 KCAL/MOL
REMARK 922        TOTAL FREE ENERGY PREDICTED BY IDOCK:  -11.09 KCAL/MOL
REMARK 923 INTER-LIGAND FREE ENERGY PREDICTED BY IDOCK:   -9.98 KCAL/MOL
REMARK 924 INTRA-LIGAND FREE ENERGY PREDICTED BY IDOCK:   -1.12 KCAL/MOL
REMARK 927      BINDING AFFINITY PREDICTED BY RF-SCORE:    0.00 PKD
ROOT
HETATM    1  C   UNL     1     -10.619  16.208  68.066  1.00  0.00    -0.304 C  
HETATM    2  C   UNL     1     -11.825  15.755  68.883  1.00  0.00    -0.354 C  
HETATM    3  C   UNL     1     -11.877  14.206  68.893  1.00  0.00    -0.382 C  
HETATM    4  C   UNL     1     -11.842  13.531  67.477  1.00  0.00    -0.368 C  
HETATM    5  O   UNL     1     -13.014  13.996  66.809  1.00  0.00    -0.299 OA 
HETATM    6  C   UNL     1     -11.894  12.002  67.495  1.00  0.00    -0.275 C  
HETATM    7  C   UNL     1     -10.979  11.457  68.560  1.00  0.00    -0.221 C  
HETATM    8  H   UNL     1     -12.993  13.587  65.952  1.00  0.00     0.000 HD 
HETATM    9  H   UNL     1      -8.566  18.012  69.205  1.00  0.00     0.000 HD 
HETATM   10  C   UNL     1      -9.545  11.990  68.388  1.00  0.00    -0.190 C  
HETATM   11  C   UNL     1      -9.312  13.265  67.491  1.00  0.00    -0.218 C  
HETATM   12  O   UNL     1      -8.917  17.134  69.110  1.00  0.00    -0.166 OA 
HETATM   13  C   UNL     1     -10.035  17.671  68.224  1.00  0.00    -0.339 C  
HETATM   14  O   UNL     1      -8.192  12.996  66.642  1.00  0.00    -0.409 OA 
HETATM   15  C   UNL     1     -10.544  13.933  66.704  1.00  0.00    -0.274 C  
HETATM   16  C   UNL     1     -10.583  15.529  66.660  1.00  0.00    -0.307 C  
HETATM   17  C   UNL     1     -10.112  18.949  69.062  1.00  0.00    -0.310 C  
HETATM   18  C   UNL     1      -8.612  19.556  68.697  1.00  0.00    -0.365 C  
HETATM   19  H   UNL     1      -8.052  13.765  66.101  1.00  0.00     0.000 HD 
HETATM   20  C   UNL     1     -10.196  19.786  66.407  1.00  0.00    -0.614 C  
HETATM   21  C   UNL     1      -8.137  18.782  67.361  1.00  0.00    -0.265 C  
HETATM   22  C   UNL     1      -9.547  16.125  65.718  1.00  0.00    -0.257 C  
HETATM   23  C   UNL     1      -9.543  18.397  66.855  1.00  0.00    -0.305 C  
HETATM   24  H   UNL     1      -7.562  16.251  65.477  1.00  0.00     0.000 HD 
HETATM   25  O   UNL     1      -8.209  15.879  66.065  1.00  0.00    -0.119 OA 
HETATM   26  C   UNL     1      -9.836  17.584  65.620  1.00  0.00     0.153 C  
ENDROOT
BRANCH   7  27
HETATM   27  O   UNL     1     -11.098  10.044  68.475  1.00  0.00    -0.223 OA 
BRANCH  27  28
HETATM   28  C   UNL     1      -9.994   9.308  67.956  1.00  0.00    -0.182 C  
HETATM   29  C   UNL     1      -8.431   7.291  68.221  1.00  0.00    -0.124 C  
HETATM   30  H   UNL     1      -9.660   5.139  67.715  1.00  0.00     0.000 HD 
HETATM   31  C   UNL     1      -8.604   8.845  65.336  1.00  0.00    -0.200 C  
HETATM   32  O   UNL     1      -7.126   7.877  68.075  1.00  0.00    -0.081 OA 
HETATM   33  C   UNL     1      -9.371   8.275  68.940  1.00  0.00    -0.147 C  
HETATM   34  O   UNL     1      -8.610   8.932  69.976  1.00  0.00    -0.124 OA 
HETATM   35  H   UNL     1      -6.779   8.191  68.901  1.00  0.00     0.000 HD 
HETATM   36  O   UNL     1     -10.030   5.833  67.183  1.00  0.00    -0.132 OA 
HETATM   37  C   UNL     1      -8.990   6.786  66.888  1.00  0.00    -0.128 C  
HETATM   38  H   UNL     1      -8.230   8.301  70.577  1.00  0.00     0.000 HD 
HETATM   39  C   UNL     1      -9.588   7.908  66.027  1.00  0.00     0.033 C  
HETATM   40  O   UNL     1     -10.529   8.645  66.804  1.00  0.00    -0.291 OA 
ENDBRANCH  27  28
ENDBRANCH   7  27
BRANCH  15  41
HETATM   41  C   UNL     1     -10.518  13.446  65.198  1.00  0.00    -0.347 C  
HETATM   42  H   UNL     1     -11.662  13.472  63.528  1.00  0.00     0.000 HD 
HETATM   43  O   UNL     1     -11.677  13.764  64.432  1.00  0.00    -0.382 OA 
ENDBRANCH  15  41
BRANCH  21  44
HETATM   44  C   UNL     1      -7.133  19.267  66.387  1.00  0.00    -0.239 C  
HETATM   45  C   UNL     1      -5.874  19.468  64.537  1.00  0.00    -0.271 C  
HETATM   46  O   UNL     1      -5.233  19.133  63.557  1.00  0.00    -0.234 OA 
HETATM   47  O   UNL     1      -6.094  20.736  64.922  1.00  0.00    -0.248 OA 
HETATM   48  C   UNL     1      -6.900  20.707  66.103  1.00  0.00    -0.185 C  
HETATM   49  C   UNL     1      -6.534  18.537  65.443  1.00  0.00    -0.282 C  
ENDBRANCH  21  44
TORSDOF 4
ENDMDL
MODEL        8
REMARK 921   NORMALIZED FREE ENERGY PREDICTED BY IDOCK:   -8.20 KCAL/MOL
REMARK 922        TOTAL FREE ENERGY PREDICTED BY IDOCK:  -11.07 KCAL/MOL
REMARK 923 INTER-LIGAND FREE ENERGY PREDICTED BY IDOCK:  -10.24 KCAL/MOL
REMARK 924 INTRA-LIGAND FREE ENERGY PREDICTED BY IDOCK:   -0.82 KCAL/MOL
REMARK 927      BINDING AFFINITY PREDICTED BY RF-SCORE:    0.00 PKD
ROOT
HETATM    1  C   UNL     1     -10.529  15.249  68.256  1.00  0.00    -0.244 C  
HETATM    2  C   UNL     1     -11.663  14.593  69.038  1.00  0.00    -0.339 C  
HETATM    3  C   UNL     1     -11.448  13.058  69.050  1.00  0.00    -0.353 C  
HETATM    4  C   UNL     1     -11.255  12.403  67.637  1.00  0.00    -0.288 C  
HETATM    5  O   UNL     1     -12.468  12.661  66.933  1.00  0.00    -0.301 OA 
HETATM    6  C   UNL     1     -11.044  10.889  67.657  1.00  0.00    -0.376 C  
HETATM    7  C   UNL     1     -10.081  10.506  68.751  1.00  0.00    -0.191 C  
HETATM    8  H   UNL     1     -12.351  12.265  66.078  1.00  0.00     0.000 HD 
HETATM    9  H   UNL     1      -8.852  17.376  69.453  1.00  0.00     0.000 HD 
HETATM   10  C   UNL     1      -8.756  11.277  68.622  1.00  0.00    -0.136 C  
HETATM   11  C   UNL     1      -8.718  12.576  67.729  1.00  0.00    -0.178 C  
HETATM   12  O   UNL     1      -9.043  16.451  69.349  1.00  0.00    -0.187 OA 
HETATM   13  C   UNL     1     -10.210  16.790  68.428  1.00  0.00    -0.296 C  
HETATM   14  O   UNL     1      -7.543  12.507  66.915  1.00  0.00    -0.363 OA 
HETATM   15  C   UNL     1     -10.022  13.024  66.902  1.00  0.00    -0.243 C  
HETATM   16  C   UNL     1     -10.334  14.590  66.854  1.00  0.00    -0.264 C  
HETATM   17  C   UNL     1     -10.531  18.033  69.260  1.00  0.00     0.179 C  
HETATM   18  C   UNL     1      -9.147  18.891  68.940  1.00  0.00    -0.278 C  
HETATM   19  H   UNL     1      -7.521  13.289  66.376  1.00  0.00     0.000 HD 
HETATM   20  C   UNL     1     -10.677  18.852  66.602  1.00  0.00    -0.392 C  
HETATM   21  C   UNL     1      -8.506  18.214  67.620  1.00  0.00    -0.245 C  
HETATM   22  C   UNL     1      -9.388  15.358  65.942  1.00  0.00    -0.294 C  
HETATM   23  C   UNL     1      -9.808  17.594  67.073  1.00  0.00    -0.307 C  
HETATM   24  H   UNL     1      -7.448  15.824  65.762  1.00  0.00     0.000 HD 
HETATM   25  O   UNL     1      -8.038  15.344  66.331  1.00  0.00    -0.112 OA 
HETATM   26  C   UNL     1      -9.920  16.746  65.832  1.00  0.00    -0.299 C  
ENDROOT
BRANCH   7  27
HETATM   27  O   UNL     1      -9.953   9.094  68.666  1.00  0.00    -0.161 OA 
BRANCH  27  28
HETATM   28  C   UNL     1     -10.148   8.329  69.852  1.00  0.00    -0.195 C  
HETATM   29  C   UNL     1     -10.531   8.342  72.389  1.00  0.00    -0.332 C  
HETATM   30  H   UNL     1     -12.869   9.141  72.932  1.00  0.00     0.000 HD 
HETATM   31  C   UNL     1     -11.147   5.618  70.666  1.00  0.00    -0.195 C  
HETATM   32  O   UNL     1      -9.544   7.411  72.865  1.00  0.00    -0.151 OA 
HETATM   33  C   UNL     1      -9.979   9.121  71.181  1.00  0.00    -0.307 C  
HETATM   34  O   UNL     1      -8.589   9.411  71.445  1.00  0.00    -0.292 OA 
HETATM   35  H   UNL     1      -8.710   7.831  73.040  1.00  0.00     0.000 HD 
HETATM   36  O   UNL     1     -12.888   8.690  72.096  1.00  0.00    -0.349 OA 
HETATM   37  C   UNL     1     -11.875   7.666  72.107  1.00  0.00    -0.309 C  
HETATM   38  H   UNL     1      -8.486   9.895  72.256  1.00  0.00     0.000 HD 
HETATM   39  C   UNL     1     -11.906   6.937  70.756  1.00  0.00    -0.377 C  
HETATM   40  O   UNL     1     -11.486   7.833  69.729  1.00  0.00    -0.003 OA 
ENDBRANCH  27  28
ENDBRANCH   7  27
BRANCH  15  41
HETATM   41  C   UNL     1      -9.867  12.553  65.400  1.00  0.00    -0.163 C  
HETATM   42  H   UNL     1     -10.951  12.374  63.699  1.00  0.00     0.000 HD 
HETATM   43  O   UNL     1     -11.044  12.657  64.602  1.00  0.00    -0.291 OA 
ENDBRANCH  15  41
BRANCH  21  44
HETATM   44  C   UNL     1      -7.571  18.866  66.677  1.00  0.00    -0.252 C  
HETATM   45  C   UNL     1      -6.263  19.258  64.893  1.00  0.00    -0.273 C  
HETATM   46  O   UNL     1      -5.495  19.031  63.975  1.00  0.00    -0.254 OA 
HETATM   47  O   UNL     1      -6.790  20.459  65.181  1.00  0.00    -0.300 OA 
HETATM   48  C   UNL     1      -7.650  20.306  66.314  1.00  0.00    -0.219 C  
HETATM   49  C   UNL     1      -6.758  18.247  65.817  1.00  0.00    -0.317 C  
ENDBRANCH  21  44
TORSDOF 4
ENDMDL
MODEL        9
REMARK 921   NORMALIZED FREE ENERGY PREDICTED BY IDOCK:   -7.94 KCAL/MOL
REMARK 922        TOTAL FREE ENERGY PREDICTED BY IDOCK:  -10.75 KCAL/MOL
REMARK 923 INTER-LIGAND FREE ENERGY PREDICTED BY IDOCK:  -10.02 KCAL/MOL
REMARK 924 INTRA-LIGAND FREE ENERGY PREDICTED BY IDOCK:   -0.73 KCAL/MOL
REMARK 927      BINDING AFFINITY PREDICTED BY RF-SCORE:    0.00 PKD
ROOT
HETATM    1  C   UNL     1     -10.511  15.222  68.242  1.00  0.00    -0.244 C  
HETATM    2  C   UNL     1     -11.625  14.557  69.044  1.00  0.00    -0.330 C  
HETATM    3  C   UNL     1     -11.419  13.021  69.020  1.00  0.00    -0.353 C  
HETATM    4  C   UNL     1     -11.271  12.393  67.590  1.00  0.00    -0.288 C  
HETATM    5  O   UNL     1     -12.504  12.671  66.927  1.00  0.00    -0.301 OA 
HETATM    6  C   UNL     1     -11.068  10.877  67.574  1.00  0.00    -0.375 C  
HETATM    7  C   UNL     1     -10.076  10.468  68.631  1.00  0.00    -0.180 C  
HETATM    8  H   UNL     1     -12.414  12.291  66.062  1.00  0.00     0.000 HD 
HETATM    9  H   UNL     1      -8.787  17.317  69.429  1.00  0.00     0.000 HD 
HETATM   10  C   UNL     1      -8.751  11.235  68.477  1.00  0.00    -0.156 C  
HETATM   11  C   UNL     1      -8.732  12.550  67.609  1.00  0.00    -0.177 C  
HETATM   12  O   UNL     1      -8.987  16.395  69.313  1.00  0.00    -0.229 OA 
HETATM   13  C   UNL     1     -10.178  16.758  68.435  1.00  0.00    -0.296 C  
HETATM   14  O   UNL     1      -7.583  12.491  66.758  1.00  0.00    -0.380 OA 
HETATM   15  C   UNL     1     -10.058  13.022  66.831  1.00  0.00    -0.243 C  
HETATM   16  C   UNL     1     -10.361  14.590  66.822  1.00  0.00    -0.269 C  
HETATM   17  C   UNL     1     -10.467  17.986  69.300  1.00  0.00     0.179 C  
HETATM   18  C   UNL     1      -9.088  18.842  68.955  1.00  0.00    -0.278 C  
HETATM   19  H   UNL     1      -7.572  13.284  66.235  1.00  0.00     0.000 HD 
HETATM   20  C   UNL     1     -10.687  18.857  66.664  1.00  0.00    -0.392 C  
HETATM   21  C   UNL     1      -8.490  18.188  67.604  1.00  0.00    -0.245 C  
HETATM   22  C   UNL     1      -9.439  15.371  65.898  1.00  0.00    -0.334 C  
HETATM   23  C   UNL     1      -9.813  17.586  67.084  1.00  0.00    -0.297 C  
HETATM   24  H   UNL     1      -7.502  15.830  65.668  1.00  0.00     0.000 HD 
HETATM   25  O   UNL     1      -8.078  15.342  66.245  1.00  0.00    -0.004 OA 
HETATM   26  C   UNL     1      -9.966  16.763  65.830  1.00  0.00    -0.299 C  
ENDROOT
BRANCH   7  27
HETATM   27  O   UNL     1      -9.958   9.057  68.515  1.00  0.00    -0.165 OA 
BRANCH  27  28
HETATM   28  C   UNL     1     -10.087   8.272  69.697  1.00  0.00    -0.199 C  
HETATM   29  C   UNL     1     -10.273   5.927  70.720  1.00  0.00    -0.211 C  
HETATM   30  H   UNL     1      -8.061   4.711  70.568  1.00  0.00     0.000 HD 
HETATM   31  C   UNL     1      -9.495   8.477  72.633  1.00  0.00    -0.295 C  
HETATM   32  O   UNL     1     -11.407   6.050  71.596  1.00  0.00    -0.278 OA 
HETATM   33  C   UNL     1     -10.486   6.788  69.461  1.00  0.00    -0.220 C  
HETATM   34  O   UNL     1     -11.874   6.672  69.080  1.00  0.00    -0.592 OA 
HETATM   35  H   UNL     1     -12.226   5.867  71.150  1.00  0.00     0.000 HD 
HETATM   36  O   UNL     1      -7.891   5.641  70.660  1.00  0.00    -0.095 OA 
HETATM   37  C   UNL     1      -8.954   6.224  71.437  1.00  0.00    -0.139 C  
HETATM   38  H   UNL     1     -12.118   5.765  68.936  1.00  0.00     0.000 HD 
HETATM   39  C   UNL     1      -8.680   7.728  71.586  1.00  0.00    -0.118 C  
HETATM   40  O   UNL     1      -8.795   8.354  70.311  1.00  0.00    -0.136 OA 
ENDBRANCH  27  28
ENDBRANCH   7  27
BRANCH  15  41
HETATM   41  C   UNL     1      -9.951  12.579  65.315  1.00  0.00    -0.207 C  
HETATM   42  H   UNL     1     -10.947  12.757  63.562  1.00  0.00     0.000 HD 
HETATM   43  O   UNL     1     -11.011  13.023  64.472  1.00  0.00    -0.320 OA 
ENDBRANCH  15  41
BRANCH  21  44
HETATM   44  C   UNL     1      -7.581  18.854  66.645  1.00  0.00    -0.252 C  
HETATM   45  C   UNL     1      -6.324  19.274  64.831  1.00  0.00    -0.232 C  
HETATM   46  O   UNL     1      -5.585  19.061  63.887  1.00  0.00    -0.285 OA 
HETATM   47  O   UNL     1      -6.836  20.472  65.158  1.00  0.00    -0.278 OA 
HETATM   48  C   UNL     1      -7.663  20.301  66.312  1.00  0.00    -0.199 C  
HETATM   49  C   UNL     1      -6.796  18.248  65.751  1.00  0.00    -0.310 C  
ENDBRANCH  21  44
TORSDOF 4
ENDMDL
MODEL       10
REMARK 921   NORMALIZED FREE ENERGY PREDICTED BY IDOCK:   -7.80 KCAL/MOL
REMARK 922        TOTAL FREE ENERGY PREDICTED BY IDOCK:  -10.58 KCAL/MOL
REMARK 923 INTER-LIGAND FREE ENERGY PREDICTED BY IDOCK:  -10.25 KCAL/MOL
REMARK 924 INTRA-LIGAND FREE ENERGY PREDICTED BY IDOCK:   -0.33 KCAL/MOL
REMARK 927      BINDING AFFINITY PREDICTED BY RF-SCORE:    0.00 PKD
ROOT
HETATM    1  C   UNL     1      -9.728  10.648  65.589  1.00  0.00    -0.283 C  
HETATM    2  C   UNL     1     -10.189  11.335  64.308  1.00  0.00    -0.383 C  
HETATM    3  C   UNL     1     -10.506  12.821  64.616  1.00  0.00    -0.373 C  
HETATM    4  C   UNL     1     -11.510  13.054  65.800  1.00  0.00    -0.332 C  
HETATM    5  O   UNL     1     -12.726  12.431  65.391  1.00  0.00    -0.582 OA 
HETATM    6  C   UNL     1     -11.818  14.522  66.097  1.00  0.00    -0.344 C  
HETATM    7  C   UNL     1     -10.554  15.341  66.070  1.00  0.00    -0.319 C  
HETATM    8  H   UNL     1     -13.333  12.572  66.108  1.00  0.00     0.000 HD 
HETATM    9  H   UNL     1      -7.135   9.226  65.737  1.00  0.00     0.000 HD 
HETATM   10  C   UNL     1      -9.496  14.763  67.026  1.00  0.00    -0.241 C  
HETATM   11  C   UNL     1      -9.660  13.279  67.532  1.00  0.00    -0.218 C  
HETATM   12  O   UNL     1      -7.619  10.043  65.770  1.00  0.00    -0.109 OA 
HETATM   13  C   UNL     1      -8.921   9.287  65.535  1.00  0.00    -0.205 C  
HETATM   14  O   UNL     1      -9.416  13.274  68.942  1.00  0.00    -0.403 OA 
HETATM   15  C   UNL     1     -10.961  12.427  67.123  1.00  0.00    -0.304 C  
HETATM   16  C   UNL     1     -10.724  10.888  66.768  1.00  0.00    -0.309 C  
HETATM   17  C   UNL     1      -8.208   8.309  64.599  1.00  0.00    -0.145 C  
HETATM   18  C   UNL     1      -7.209   7.602  65.720  1.00  0.00    -0.065 C  
HETATM   19  H   UNL     1      -9.516  12.380  69.247  1.00  0.00     0.000 HD 
HETATM   20  C   UNL     1      -9.813   6.736  66.245  1.00  0.00    -0.011 C  
HETATM   21  C   UNL     1      -7.851   7.947  67.162  1.00  0.00    -0.109 C  
HETATM   22  C   UNL     1     -10.443  10.030  67.992  1.00  0.00    -0.218 C  
HETATM   23  C   UNL     1      -9.295   8.187  66.674  1.00  0.00    -0.250 C  
HETATM   24  H   UNL     1      -9.092   9.813  69.456  1.00  0.00     0.000 HD 
HETATM   25  O   UNL     1      -9.267  10.349  68.691  1.00  0.00    -0.148 OA 
HETATM   26  C   UNL     1     -10.453   8.610  67.541  1.00  0.00    -0.335 C  
ENDROOT
BRANCH   7  27
HETATM   27  O   UNL     1     -10.957  16.670  66.371  1.00  0.00    -0.080 OA 
BRANCH  27  28
HETATM   28  C   UNL     1      -9.945  17.626  66.674  1.00  0.00    -0.328 C  
HETATM   29  C   UNL     1      -9.382  20.064  67.243  1.00  0.00    -0.374 C  
HETATM   30  H   UNL     1     -10.131  20.626  69.592  1.00  0.00     0.000 HD 
HETATM   31  C   UNL     1      -7.165  17.710  67.801  1.00  0.00    -0.196 C  
HETATM   32  O   UNL     1      -8.324  20.371  66.318  1.00  0.00    -0.528 OA 
HETATM   33  C   UNL     1     -10.397  19.112  66.582  1.00  0.00    -0.430 C  
HETATM   34  O   UNL     1     -10.558  19.528  65.208  1.00  0.00    -0.391 OA 
HETATM   35  H   UNL     1      -8.655  20.694  65.488  1.00  0.00     0.000 HD 
HETATM   36  O   UNL     1      -9.889  19.708  69.561  1.00  0.00    -0.326 OA 
HETATM   37  C   UNL     1      -8.848  19.542  68.580  1.00  0.00    -0.342 C  
HETATM   38  H   UNL     1     -10.834  20.436  65.153  1.00  0.00     0.000 HD 
HETATM   39  C   UNL     1      -8.457  18.058  68.529  1.00  0.00    -0.305 C  
HETATM   40  O   UNL     1      -9.549  17.302  68.012  1.00  0.00    -0.260 OA 
ENDBRANCH  27  28
ENDBRANCH   7  27
BRANCH  15  41
HETATM   41  C   UNL     1     -11.993  12.455  68.321  1.00  0.00    -0.214 C  
HETATM   42  H   UNL     1     -12.729  13.720  69.721  1.00  0.00     0.000 HD 
HETATM   43  O   UNL     1     -12.109  13.703  69.001  1.00  0.00    -0.344 OA 
ENDBRANCH  15  41
BRANCH  21  44
HETATM   44  C   UNL     1      -7.635   7.187  68.412  1.00  0.00    -0.118 C  
HETATM   45  C   UNL     1      -6.881   5.669  69.887  1.00  0.00    -0.060 C  
HETATM   46  O   UNL     1      -6.490   4.599  70.317  1.00  0.00    -0.032 OA 
HETATM   47  O   UNL     1      -6.989   6.798  70.607  1.00  0.00    -0.061 OA 
HETATM   48  C   UNL     1      -7.464   7.832  69.741  1.00  0.00    -0.089 C  
HETATM   49  C   UNL     1      -7.270   5.906  68.504  1.00  0.00    -0.083 C  
ENDBRANCH  21  44
TORSDOF 4
ENDMDL
MODEL       11
REMARK 921   NORMALIZED FREE ENERGY PREDICTED BY IDOCK:   -7.75 KCAL/MOL
REMARK 922        TOTAL FREE ENERGY PREDICTED BY IDOCK:  -10.51 KCAL/MOL
REMARK 923 INTER-LIGAND FREE ENERGY PREDICTED BY IDOCK:   -9.89 KCAL/MOL
REMARK 924 INTRA-LIGAND FREE ENERGY PREDICTED BY IDOCK:   -0.62 KCAL/MOL
REMARK 927      BINDING AFFINITY PREDICTED BY RF-SCORE:    0.00 PKD
ROOT
HETATM    1  C   UNL     1      -8.561  10.870  68.160  1.00  0.00    -0.133 C  
HETATM    2  C   UNL     1      -7.536  11.641  67.334  1.00  0.00    -0.135 C  
HETATM    3  C   UNL     1      -8.040  13.092  67.129  1.00  0.00    -0.107 C  
HETATM    4  C   UNL     1      -9.485  13.215  66.530  1.00  0.00    -0.243 C  
HETATM    5  O   UNL     1      -9.415  12.598  65.246  1.00  0.00    -0.459 OA 
HETATM    6  C   UNL     1      -9.975  14.650  66.330  1.00  0.00    -0.306 C  
HETATM    7  C   UNL     1      -9.632  15.495  67.528  1.00  0.00    -0.212 C  
HETATM    8  H   UNL     1     -10.290  12.672  64.884  1.00  0.00     0.000 HD 
HETATM    9  H   UNL     1      -7.809   9.496  70.673  1.00  0.00     0.000 HD 
HETATM   10  C   UNL     1     -10.176  14.870  68.825  1.00  0.00    -0.243 C  
HETATM   11  C   UNL     1     -10.592  13.349  68.817  1.00  0.00    -0.210 C  
HETATM   12  O   UNL     1      -8.050  10.298  70.223  1.00  0.00    -0.090 OA 
HETATM   13  C   UNL     1      -8.161   9.534  68.909  1.00  0.00    -0.096 C  
HETATM   14  O   UNL     1     -11.858  13.244  69.476  1.00  0.00    -0.299 OA 
HETATM   15  C   UNL     1     -10.528  12.503  67.452  1.00  0.00    -0.231 C  
HETATM   16  C   UNL     1     -10.000  11.000  67.567  1.00  0.00    -0.199 C  
HETATM   17  C   UNL     1      -6.980   8.644  69.303  1.00  0.00    -0.058 C  
HETATM   18  C   UNL     1      -7.689   7.877  70.593  1.00  0.00    -0.090 C  
HETATM   19  H   UNL     1     -12.108  12.327  69.471  1.00  0.00     0.000 HD 
HETATM   20  C   UNL     1      -8.906   6.919  68.267  1.00  0.00    -0.122 C  
HETATM   21  C   UNL     1      -9.280   8.099  70.417  1.00  0.00    -0.151 C  
HETATM   22  C   UNL     1     -11.012  10.059  68.202  1.00  0.00    -0.235 C  
HETATM   23  C   UNL     1      -9.270   8.345  68.894  1.00  0.00    -0.147 C  
HETATM   24  H   UNL     1     -11.979   9.762  69.932  1.00  0.00     0.000 HD 
HETATM   25  O   UNL     1     -11.346  10.350  69.535  1.00  0.00    -0.243 OA 
HETATM   26  C   UNL     1     -10.476   8.676  68.053  1.00  0.00    -0.254 C  
ENDROOT
BRANCH   7  27
HETATM   27  O   UNL     1     -10.143  16.789  67.238  1.00  0.00    -0.267 OA 
BRANCH  27  28
HETATM   28  C   UNL     1      -9.274  17.906  67.403  1.00  0.00    -0.253 C  
HETATM   29  C   UNL     1      -6.859  18.773  67.452  1.00  0.00    -0.204 C  
HETATM   30  H   UNL     1      -5.871  18.787  65.124  1.00  0.00     0.000 HD 
HETATM   31  C   UNL     1      -9.342  20.895  67.129  1.00  0.00    -0.310 C  
HETATM   32  O   UNL     1      -6.817  19.530  68.674  1.00  0.00    -0.281 OA 
HETATM   33  C   UNL     1      -7.776  17.547  67.625  1.00  0.00    -0.200 C  
HETATM   34  O   UNL     1      -7.555  17.018  68.950  1.00  0.00    -0.236 OA 
HETATM   35  H   UNL     1      -6.586  18.992  69.422  1.00  0.00     0.000 HD 
HETATM   36  O   UNL     1      -6.805  18.947  65.059  1.00  0.00    -0.491 OA 
HETATM   37  C   UNL     1      -7.233  19.640  66.247  1.00  0.00    -0.263 C  
HETATM   38  H   UNL     1      -6.640  16.798  69.085  1.00  0.00     0.000 HD 
HETATM   39  C   UNL     1      -8.743  19.899  66.143  1.00  0.00    -0.307 C  
HETATM   40  O   UNL     1      -9.437  18.656  66.193  1.00  0.00    -0.443 OA 
ENDBRANCH  27  28
ENDBRANCH   7  27
BRANCH  15  41
HETATM   41  C   UNL     1     -11.981  12.419  66.830  1.00  0.00    -0.212 C  
HETATM   42  H   UNL     1     -12.912  11.963  65.091  1.00  0.00     0.000 HD 
HETATM   43  O   UNL     1     -12.040  12.014  65.465  1.00  0.00    -0.479 OA 
ENDBRANCH  15  41
BRANCH  21  44
HETATM   44  C   UNL     1     -10.344   7.253  71.000  1.00  0.00    -0.208 C  
HETATM   45  C   UNL     1     -11.453   5.844  72.354  1.00  0.00    -0.306 C  
HETATM   46  O   UNL     1     -11.643   4.908  73.109  1.00  0.00    -0.324 OA 
HETATM   47  O   UNL     1     -12.386   6.731  71.972  1.00  0.00    -0.322 OA 
HETATM   48  C   UNL     1     -11.764   7.680  71.101  1.00  0.00    -0.290 C  
HETATM   49  C   UNL     1     -10.163   6.170  71.760  1.00  0.00    -0.236 C  
ENDBRANCH  21  44
TORSDOF 4
ENDMDL
MODEL       12
REMARK 921   NORMALIZED FREE ENERGY PREDICTED BY IDOCK:   -7.74 KCAL/MOL
REMARK 922        TOTAL FREE ENERGY PREDICTED BY IDOCK:  -10.51 KCAL/MOL
REMARK 923 INTER-LIGAND FREE ENERGY PREDICTED BY IDOCK:   -9.55 KCAL/MOL
REMARK 924 INTRA-LIGAND FREE ENERGY PREDICTED BY IDOCK:   -0.95 KCAL/MOL
REMARK 927      BINDING AFFINITY PREDICTED BY RF-SCORE:    0.00 PKD
ROOT
HETATM    1  C   UNL     1     -10.526  14.012  67.556  1.00  0.00    -0.252 C  
HETATM    2  C   UNL     1     -11.798  13.302  67.104  1.00  0.00    -0.424 C  
HETATM    3  C   UNL     1     -11.676  11.791  67.424  1.00  0.00    -0.304 C  
HETATM    4  C   UNL     1     -10.386  11.095  66.861  1.00  0.00    -0.231 C  
HETATM    5  O   UNL     1     -10.474  11.229  65.444  1.00  0.00    -0.259 OA 
HETATM    6  C   UNL     1     -10.273   9.604  67.180  1.00  0.00    -0.305 C  
HETATM    7  C   UNL     1     -10.648   9.342  68.615  1.00  0.00    -0.200 C  
HETATM    8  H   UNL     1      -9.693  10.809  65.104  1.00  0.00     0.000 HD 
HETATM    9  H   UNL     1     -10.613  16.310  69.421  1.00  0.00     0.000 HD 
HETATM   10  C   UNL     1      -9.813  10.209  69.575  1.00  0.00    -0.255 C  
HETATM   11  C   UNL     1      -9.060  11.468  69.000  1.00  0.00     0.141 C  
HETATM   12  O   UNL     1     -10.624  15.370  69.286  1.00  0.00    -0.226 OA 
HETATM   13  C   UNL     1     -10.506  15.579  67.780  1.00  0.00    -0.273 C  
HETATM   14  O   UNL     1      -7.731  11.457  69.531  1.00  0.00    -0.360 OA 
HETATM   15  C   UNL     1      -9.098  11.780  67.423  1.00  0.00    -0.175 C  
HETATM   16  C   UNL     1      -9.244  13.314  67.002  1.00  0.00    -0.237 C  
HETATM   17  C   UNL     1     -11.388  16.826  67.864  1.00  0.00     0.058 C  
HETATM   18  C   UNL     1     -10.363  17.775  68.761  1.00  0.00    -0.332 C  
HETATM   19  H   UNL     1      -7.277  12.217  69.184  1.00  0.00     0.000 HD 
HETATM   20  C   UNL     1      -9.262  17.521  66.205  1.00  0.00    -0.228 C  
HETATM   21  C   UNL     1      -8.903  17.097  68.623  1.00  0.00    -0.266 C  
HETATM   22  C   UNL     1      -7.968  14.115  67.215  1.00  0.00    -0.150 C  
HETATM   23  C   UNL     1      -9.162  16.355  67.295  1.00  0.00    -0.224 C  
HETATM   24  H   UNL     1      -6.748  14.722  68.684  1.00  0.00     0.000 HD 
HETATM   25  O   UNL     1      -7.544  14.222  68.550  1.00  0.00    -0.114 OA 
HETATM   26  C   UNL     1      -8.183  15.451  66.591  1.00  0.00    -0.199 C  
ENDROOT
BRANCH   7  27
HETATM   27  O   UNL     1     -10.493   7.942  68.799  1.00  0.00    -0.207 OA 
BRANCH  27  28
HETATM   28  C   UNL     1     -10.426   7.443  70.132  1.00  0.00    -0.220 C  
HETATM   29  C   UNL     1     -11.359   5.804  71.871  1.00  0.00    -0.204 C  
HETATM   30  H   UNL     1     -10.677   3.432  71.315  1.00  0.00     0.000 HD 
HETATM   31  C   UNL     1      -8.447   7.228  72.378  1.00  0.00    -0.127 C  
HETATM   32  O   UNL     1     -11.590   6.647  73.012  1.00  0.00    -0.490 OA 
HETATM   33  C   UNL     1     -11.645   6.584  70.574  1.00  0.00    -0.393 C  
HETATM   34  O   UNL     1     -12.810   7.406  70.806  1.00  0.00    -0.581 OA 
HETATM   35  H   UNL     1     -12.453   7.044  72.996  1.00  0.00     0.000 HD 
HETATM   36  O   UNL     1      -9.994   4.023  71.020  1.00  0.00    -0.179 OA 
HETATM   37  C   UNL     1      -9.968   5.166  71.896  1.00  0.00    -0.184 C  
HETATM   38  H   UNL     1     -13.554   6.882  71.076  1.00  0.00     0.000 HD 
HETATM   39  C   UNL     1      -8.864   6.120  71.418  1.00  0.00    -0.139 C  
HETATM   40  O   UNL     1      -9.226   6.660  70.149  1.00  0.00    -0.154 OA 
ENDBRANCH  27  28
ENDBRANCH   7  27
BRANCH  15  41
HETATM   41  C   UNL     1      -7.757  11.261  66.764  1.00  0.00    -0.155 C  
HETATM   42  H   UNL     1      -7.061  10.522  65.012  1.00  0.00     0.000 HD 
HETATM   43  O   UNL     1      -7.867  10.834  65.408  1.00  0.00    -0.111 OA 
ENDBRANCH  15  41
BRANCH  21  44
HETATM   44  C   UNL     1      -7.605  17.780  68.820  1.00  0.00    -0.260 C  
HETATM   45  C   UNL     1      -6.065  19.337  69.320  1.00  0.00    -0.267 C  
HETATM   46  O   UNL     1      -5.555  20.438  69.427  1.00  0.00    -0.268 OA 
HETATM   47  O   UNL     1      -5.500  18.183  69.710  1.00  0.00    -0.195 OA 
HETATM   48  C   UNL     1      -6.420  17.123  69.431  1.00  0.00    -0.233 C  
HETATM   49  C   UNL     1      -7.393  19.098  68.773  1.00  0.00    -0.372 C  
ENDBRANCH  21  44
TORSDOF 4
ENDMDL
MODEL       13
REMARK 921   NORMALIZED FREE ENERGY PREDICTED BY IDOCK:   -7.71 KCAL/MOL
REMARK 922        TOTAL FREE ENERGY PREDICTED BY IDOCK:  -10.47 KCAL/MOL
REMARK 923 INTER-LIGAND FREE ENERGY PREDICTED BY IDOCK:  -10.66 KCAL/MOL
REMARK 924 INTRA-LIGAND FREE ENERGY PREDICTED BY IDOCK:    0.19 KCAL/MOL
REMARK 927      BINDING AFFINITY PREDICTED BY RF-SCORE:    0.00 PKD
ROOT
HETATM    1  C   UNL     1     -10.027  10.764  65.705  1.00  0.00    -0.317 C  
HETATM    2  C   UNL     1     -10.374  11.234  64.296  1.00  0.00    -0.399 C  
HETATM    3  C   UNL     1     -10.528  12.776  64.300  1.00  0.00    -0.423 C  
HETATM    4  C   UNL     1     -11.529  13.340  65.369  1.00  0.00    -0.304 C  
HETATM    5  O   UNL     1     -12.797  12.782  65.029  1.00  0.00    -0.743 OA 
HETATM    6  C   UNL     1     -11.676  14.863  65.367  1.00  0.00    -0.238 C  
HETATM    7  C   UNL     1     -10.327  15.522  65.244  1.00  0.00    -0.386 C  
HETATM    8  H   UNL     1     -13.403  13.124  65.676  1.00  0.00     0.000 HD 
HETATM    9  H   UNL     1      -7.616   9.130  66.242  1.00  0.00     0.000 HD 
HETATM   10  C   UNL     1      -9.366  15.031  66.341  1.00  0.00    -0.334 C  
HETATM   11  C   UNL     1      -9.711  13.700  67.112  1.00  0.00    -0.245 C  
HETATM   12  O   UNL     1      -8.005   9.984  66.096  1.00  0.00    -0.107 OA 
HETATM   13  C   UNL     1      -9.379   9.340  65.949  1.00  0.00    -0.236 C  
HETATM   14  O   UNL     1      -9.506  13.943  68.507  1.00  0.00    -0.208 OA 
HETATM   15  C   UNL     1     -11.089  12.928  66.811  1.00  0.00    -0.315 C  
HETATM   16  C   UNL     1     -11.019  11.333  66.767  1.00  0.00    -0.339 C  
HETATM   17  C   UNL     1      -8.758   8.129  65.251  1.00  0.00    -0.093 C  
HETATM   18  C   UNL     1      -7.874   7.551  66.531  1.00  0.00    -0.102 C  
HETATM   19  H   UNL     1      -9.714  13.141  68.972  1.00  0.00     0.000 HD 
HETATM   20  C   UNL     1     -10.573   7.086  67.088  1.00  0.00    -0.412 C  
HETATM   21  C   UNL     1      -8.510   8.236  67.849  1.00  0.00    -0.132 C  
HETATM   22  C   UNL     1     -10.869  10.704  68.145  1.00  0.00    -0.245 C  
HETATM   23  C   UNL     1      -9.904   8.529  67.257  1.00  0.00    -0.259 C  
HETATM   24  H   UNL     1      -9.590  10.634  69.685  1.00  0.00     0.000 HD 
HETATM   25  O   UNL     1      -9.683  11.026  68.825  1.00  0.00    -0.188 OA 
HETATM   26  C   UNL     1     -11.029   9.233  67.972  1.00  0.00    -0.076 C  
ENDROOT
BRANCH   7  27
HETATM   27  O   UNL     1     -10.584  16.919  65.267  1.00  0.00    -0.633 OA 
BRANCH  27  28
HETATM   28  C   UNL     1      -9.790  17.734  66.125  1.00  0.00    -0.244 C  
HETATM   29  C   UNL     1      -8.738  18.038  68.445  1.00  0.00    -0.293 C  
HETATM   30  H   UNL     1      -6.816  16.426  68.769  1.00  0.00     0.000 HD 
HETATM   31  C   UNL     1      -7.666  19.845  65.924  1.00  0.00    -0.327 C  
HETATM   32  O   UNL     1      -9.128  19.376  68.799  1.00  0.00    -0.371 OA 
HETATM   33  C   UNL     1      -9.859  17.361  67.634  1.00  0.00    -0.282 C  
HETATM   34  O   UNL     1     -11.121  17.757  68.215  1.00  0.00    -0.176 OA 
HETATM   35  H   UNL     1      -9.972  19.400  69.234  1.00  0.00     0.000 HD 
HETATM   36  O   UNL     1      -6.868  16.656  67.849  1.00  0.00    -0.136 OA 
HETATM   37  C   UNL     1      -7.378  17.999  67.743  1.00  0.00    -0.213 C  
HETATM   38  H   UNL     1     -11.162  17.529  69.137  1.00  0.00     0.000 HD 
HETATM   39  C   UNL     1      -7.462  18.372  66.256  1.00  0.00    -0.259 C  
HETATM   40  O   UNL     1      -8.458  17.568  65.626  1.00  0.00    -0.451 OA 
ENDBRANCH  27  28
ENDBRANCH   7  27
BRANCH  15  41
HETATM   41  C   UNL     1     -12.142  13.298  67.933  1.00  0.00    -0.228 C  
HETATM   42  H   UNL     1     -12.743  14.874  69.053  1.00  0.00     0.000 HD 
HETATM   43  O   UNL     1     -12.111  14.652  68.379  1.00  0.00    -0.284 OA 
ENDBRANCH  15  41
BRANCH  21  44
HETATM   44  C   UNL     1      -8.414   7.715  69.231  1.00  0.00    -0.138 C  
HETATM   45  C   UNL     1      -8.000   6.373  70.984  1.00  0.00    -0.115 C  
HETATM   46  O   UNL     1      -7.895   5.345  71.628  1.00  0.00    -0.106 OA 
HETATM   47  O   UNL     1      -7.723   7.604  71.443  1.00  0.00    -0.079 OA 
HETATM   48  C   UNL     1      -7.956   8.535  70.383  1.00  0.00    -0.099 C  
HETATM   49  C   UNL     1      -8.421   6.429  69.591  1.00  0.00    -0.130 C  
ENDBRANCH  21  44
TORSDOF 4
ENDMDL
MODEL       14
REMARK 921   NORMALIZED FREE ENERGY PREDICTED BY IDOCK:   -7.68 KCAL/MOL
REMARK 922        TOTAL FREE ENERGY PREDICTED BY IDOCK:  -10.43 KCAL/MOL
REMARK 923 INTER-LIGAND FREE ENERGY PREDICTED BY IDOCK:   -9.25 KCAL/MOL
REMARK 924 INTRA-LIGAND FREE ENERGY PREDICTED BY IDOCK:   -1.18 KCAL/MOL
REMARK 927      BINDING AFFINITY PREDICTED BY RF-SCORE:    0.00 PKD
ROOT
HETATM    1  C   UNL     1     -10.141   8.616  67.920  1.00  0.00    -0.254 C  
HETATM    2  C   UNL     1     -10.748   9.238  69.174  1.00  0.00    -0.202 C  
HETATM    3  C   UNL     1     -11.129  10.710  68.875  1.00  0.00    -0.314 C  
HETATM    4  C   UNL     1      -9.970  11.590  68.285  1.00  0.00    -0.202 C  
HETATM    5  O   UNL     1      -8.958  11.603  69.291  1.00  0.00    -0.351 OA 
HETATM    6  C   UNL     1     -10.354  13.041  67.993  1.00  0.00    -0.237 C  
HETATM    7  C   UNL     1     -11.700  13.105  67.322  1.00  0.00    -0.374 C  
HETATM    8  H   UNL     1      -8.257  12.135  68.934  1.00  0.00     0.000 HD 
HETATM    9  H   UNL     1     -11.236   6.130  66.741  1.00  0.00     0.000 HD 
HETATM   10  C   UNL     1     -11.734  12.227  66.058  1.00  0.00    -0.451 C  
HETATM   11  C   UNL     1     -10.627  11.121  65.873  1.00  0.00    -0.234 C  
HETATM   12  O   UNL     1     -11.284   7.073  66.841  1.00  0.00    -0.302 OA 
HETATM   13  C   UNL     1     -10.061   7.043  67.752  1.00  0.00    -0.165 C  
HETATM   14  O   UNL     1     -10.150  11.208  64.526  1.00  0.00    -0.259 OA 
HETATM   15  C   UNL     1      -9.439  10.981  66.947  1.00  0.00    -0.197 C  
HETATM   16  C   UNL     1      -8.994   9.496  67.331  1.00  0.00    -0.141 C  
HETATM   17  C   UNL     1     -10.516   5.711  68.352  1.00  0.00    -0.263 C  
HETATM   18  C   UNL     1     -10.365   4.779  66.987  1.00  0.00    -0.171 C  
HETATM   19  H   UNL     1      -9.482  10.541  64.415  1.00  0.00     0.000 HD 
HETATM   20  C   UNL     1      -7.790   5.421  67.861  1.00  0.00    -0.092 C  
HETATM   21  C   UNL     1      -9.407   5.612  65.988  1.00  0.00    -0.150 C  
HETATM   22  C   UNL     1      -8.196   8.809  66.233  1.00  0.00    -0.115 C  
HETATM   23  C   UNL     1      -8.705   6.465  67.066  1.00  0.00    -0.115 C  
HETATM   24  H   UNL     1      -8.391   8.171  64.343  1.00  0.00     0.000 HD 
HETATM   25  O   UNL     1      -8.890   8.600  65.029  1.00  0.00    -0.165 OA 
HETATM   26  C   UNL     1      -7.677   7.534  66.804  1.00  0.00    -0.102 C  
ENDROOT
BRANCH   7  27
HETATM   27  O   UNL     1     -11.943  14.485  67.089  1.00  0.00    -0.406 OA 
BRANCH  27  28
HETATM   28  C   UNL     1     -10.828  15.372  67.088  1.00  0.00    -0.321 C  
HETATM   29  C   UNL     1      -9.720  17.442  66.055  1.00  0.00    -0.152 C  
HETATM   30  H   UNL     1     -10.952  19.544  66.735  1.00  0.00     0.000 HD 
HETATM   31  C   UNL     1      -8.679  16.319  68.957  1.00  0.00    -0.246 C  
HETATM   32  O   UNL     1      -8.384  16.986  65.780  1.00  0.00    -0.500 OA 
HETATM   33  C   UNL     1     -10.723  16.294  65.839  1.00  0.00    -0.229 C  
HETATM   34  O   UNL     1     -10.296  15.553  64.674  1.00  0.00    -0.553 OA 
HETATM   35  H   UNL     1      -8.312  16.582  64.923  1.00  0.00     0.000 HD 
HETATM   36  O   UNL     1     -11.022  18.909  67.437  1.00  0.00    -0.437 OA 
HETATM   37  C   UNL     1      -9.836  18.093  67.436  1.00  0.00    -0.313 C  
HETATM   38  H   UNL     1     -10.232  16.116  63.912  1.00  0.00     0.000 HD 
HETATM   39  C   UNL     1      -9.950  17.066  68.572  1.00  0.00    -0.293 C  
HETATM   40  O   UNL     1     -11.004  16.153  68.276  1.00  0.00    -0.312 OA 
ENDBRANCH  27  28
ENDBRANCH   7  27
BRANCH  15  41
HETATM   41  C   UNL     1      -8.148  11.702  66.383  1.00  0.00    -0.023 C  
HETATM   42  H   UNL     1      -6.318  12.324  66.984  1.00  0.00     0.000 HD 
HETATM   43  O   UNL     1      -7.093  11.891  67.323  1.00  0.00    -0.121 OA 
ENDBRANCH  15  41
BRANCH  21  44
HETATM   44  C   UNL     1      -8.600   5.046  64.885  1.00  0.00    -0.150 C  
HETATM   45  C   UNL     1      -7.783   3.629  63.345  1.00  0.00    -0.067 C  
HETATM   46  O   UNL     1      -7.431   2.577  62.841  1.00  0.00    -0.046 OA 
HETATM   47  O   UNL     1      -7.745   4.827  62.739  1.00  0.00    -0.058 OA 
HETATM   48  C   UNL     1      -8.256   5.802  63.653  1.00  0.00    -0.072 C  
HETATM   49  C   UNL     1      -8.331   3.752  64.689  1.00  0.00    -0.097 C  
ENDBRANCH  21  44
TORSDOF 4
ENDMDL
MODEL       15
REMARK 921   NORMALIZED FREE ENERGY PREDICTED BY IDOCK:   -7.49 KCAL/MOL
REMARK 922        TOTAL FREE ENERGY PREDICTED BY IDOCK:  -10.20 KCAL/MOL
REMARK 923 INTER-LIGAND FREE ENERGY PREDICTED BY IDOCK:   -9.22 KCAL/MOL
REMARK 924 INTRA-LIGAND FREE ENERGY PREDICTED BY IDOCK:   -0.98 KCAL/MOL
REMARK 927      BINDING AFFINITY PREDICTED BY RF-SCORE:    0.00 PKD
ROOT
HETATM    1  C   UNL     1      -8.726   8.038  66.219  1.00  0.00    -0.174 C  
HETATM    2  C   UNL     1      -8.351   8.803  64.954  1.00  0.00    -0.179 C  
HETATM    3  C   UNL     1      -8.207  10.308  65.296  1.00  0.00    -0.161 C  
HETATM    4  C   UNL     1      -9.445  10.946  66.020  1.00  0.00    -0.203 C  
HETATM    5  O   UNL     1     -10.528  10.815  65.100  1.00  0.00    -0.285 OA 
HETATM    6  C   UNL     1      -9.296  12.431  66.353  1.00  0.00    -0.219 C  
HETATM    7  C   UNL     1      -7.927  12.709  66.917  1.00  0.00     0.026 C  
HETATM    8  H   UNL     1     -11.277  11.200  65.539  1.00  0.00     0.000 HD 
HETATM    9  H   UNL     1      -7.115   5.747  67.179  1.00  0.00     0.000 HD 
HETATM   10  C   UNL     1      -7.630  11.807  68.128  1.00  0.00    -0.117 C  
HETATM   11  C   UNL     1      -8.506  10.515  68.345  1.00  0.00    -0.128 C  
HETATM   12  O   UNL     1      -7.242   6.687  67.123  1.00  0.00    -0.077 OA 
HETATM   13  C   UNL     1      -8.516   6.472  66.313  1.00  0.00    -0.129 C  
HETATM   14  O   UNL     1      -8.871  10.468  69.728  1.00  0.00    -0.390 OA 
HETATM   15  C   UNL     1      -9.742  10.205  67.364  1.00  0.00    -0.192 C  
HETATM   16  C   UNL     1      -9.953   8.679  66.942  1.00  0.00    -0.330 C  
HETATM   17  C   UNL     1      -7.890   5.265  65.612  1.00  0.00    -0.100 C  
HETATM   18  C   UNL     1      -7.755   4.272  66.935  1.00  0.00    -0.093 C  
HETATM   19  H   UNL     1      -9.400   9.689  69.859  1.00  0.00     0.000 HD 
HETATM   20  C   UNL     1     -10.470   4.476  66.305  1.00  0.00    -0.154 C  
HETATM   21  C   UNL     1      -8.753   4.885  68.049  1.00  0.00    -0.107 C  
HETATM   22  C   UNL     1     -10.519   7.822  68.065  1.00  0.00    -0.185 C  
HETATM   23  C   UNL     1      -9.685   5.637  67.075  1.00  0.00    -0.155 C  
HETATM   24  H   UNL     1     -10.050   7.162  69.898  1.00  0.00     0.000 HD 
HETATM   25  O   UNL     1      -9.696   7.697  69.196  1.00  0.00    -0.161 OA 
HETATM   26  C   UNL     1     -10.857   6.497  67.474  1.00  0.00    -0.433 C  
ENDROOT
BRANCH   7  27
HETATM   27  O   UNL     1      -7.909  14.101  67.199  1.00  0.00    -0.158 OA 
BRANCH  27  28
HETATM   28  C   UNL     1      -9.147  14.807  67.175  1.00  0.00    -0.217 C  
HETATM   29  C   UNL     1     -10.794  16.317  68.436  1.00  0.00    -0.334 C  
HETATM   30  H   UNL     1      -9.859  18.656  68.667  1.00  0.00     0.000 HD 
HETATM   31  C   UNL     1     -11.030  16.019  65.176  1.00  0.00    -0.360 C  
HETATM   32  O   UNL     1     -12.051  15.644  68.249  1.00  0.00    -0.447 OA 
HETATM   33  C   UNL     1      -9.659  15.284  68.565  1.00  0.00    -0.211 C  
HETATM   34  O   UNL     1     -10.159  14.179  69.347  1.00  0.00    -0.426 OA 
HETATM   35  H   UNL     1     -12.212  14.992  68.921  1.00  0.00     0.000 HD 
HETATM   36  O   UNL     1      -9.539  18.279  67.856  1.00  0.00    -0.275 OA 
HETATM   37  C   UNL     1     -10.533  17.367  67.352  1.00  0.00    -0.336 C  
HETATM   38  H   UNL     1     -10.472  14.470  70.196  1.00  0.00     0.000 HD 
HETATM   39  C   UNL     1     -10.016  16.757  66.041  1.00  0.00    -0.313 C  
HETATM   40  O   UNL     1      -8.891  15.929  66.321  1.00  0.00    -0.305 OA 
ENDBRANCH  27  28
ENDBRANCH   7  27
BRANCH  15  41
HETATM   41  C   UNL     1     -11.084  10.664  68.066  1.00  0.00    -0.301 C  
HETATM   42  H   UNL     1     -12.796  11.665  67.660  1.00  0.00     0.000 HD 
HETATM   43  O   UNL     1     -11.990  11.390  67.238  1.00  0.00    -0.580 OA 
ENDBRANCH  15  41
BRANCH  21  44
HETATM   44  C   UNL     1      -9.348   4.145  69.183  1.00  0.00    -0.235 C  
HETATM   45  C   UNL     1      -9.724   2.583  70.753  1.00  0.00    -0.030 C  
HETATM   46  O   UNL     1      -9.782   1.481  71.269  1.00  0.00    -0.125 OA 
HETATM   47  O   UNL     1     -10.035   3.739  71.362  1.00  0.00    -0.174 OA 
HETATM   48  C   UNL     1      -9.821   4.802  70.430  1.00  0.00    -0.239 C  
HETATM   49  C   UNL     1      -9.278   2.827  69.389  1.00  0.00    -0.208 C  
ENDBRANCH  21  44
TORSDOF 4
ENDMDL
MODEL       16
REMARK 921   NORMALIZED FREE ENERGY PREDICTED BY IDOCK:   -7.46 KCAL/MOL
REMARK 922        TOTAL FREE ENERGY PREDICTED BY IDOCK:  -10.15 KCAL/MOL
REMARK 923 INTER-LIGAND FREE ENERGY PREDICTED BY IDOCK:   -9.71 KCAL/MOL
REMARK 924 INTRA-LIGAND FREE ENERGY PREDICTED BY IDOCK:   -0.44 KCAL/MOL
REMARK 927      BINDING AFFINITY PREDICTED BY RF-SCORE:    0.00 PKD
ROOT
HETATM    1  C   UNL     1      -9.894  11.391  65.820  1.00  0.00    -0.270 C  
HETATM    2  C   UNL     1      -9.545  10.604  64.561  1.00  0.00    -0.341 C  
HETATM    3  C   UNL     1      -9.347   9.113  64.935  1.00  0.00    -0.050 C  
HETATM    4  C   UNL     1      -8.321   8.849  66.094  1.00  0.00    -0.122 C  
HETATM    5  O   UNL     1      -7.072   9.341  65.611  1.00  0.00    -0.081 OA 
HETATM    6  C   UNL     1      -8.131   7.376  66.457  1.00  0.00    -0.117 C  
HETATM    7  C   UNL     1      -9.461   6.672  66.517  1.00  0.00    -0.152 C  
HETATM    8  H   UNL     1      -6.452   9.182  66.312  1.00  0.00     0.000 HD 
HETATM    9  H   UNL     1     -12.346  13.044  65.983  1.00  0.00     0.000 HD 
HETATM   10  C   UNL     1     -10.427   7.389  67.477  1.00  0.00    -0.338 C  
HETATM   11  C   UNL     1     -10.114   8.875  67.899  1.00  0.00    -0.206 C  
HETATM   12  O   UNL     1     -11.934  12.190  66.041  1.00  0.00    -0.578 OA 
HETATM   13  C   UNL     1     -10.580  12.815  65.723  1.00  0.00    -0.273 C  
HETATM   14  O   UNL     1     -10.301   8.971  69.314  1.00  0.00    -0.209 OA 
HETATM   15  C   UNL     1      -8.761   9.587  67.400  1.00  0.00    -0.128 C  
HETATM   16  C   UNL     1      -8.877  11.122  66.974  1.00  0.00    -0.149 C  
HETATM   17  C   UNL     1     -11.241  13.805  64.762  1.00  0.00    -0.370 C  
HETATM   18  C   UNL     1     -12.131  14.652  65.878  1.00  0.00    -0.212 C  
HETATM   19  H   UNL     1     -10.112   9.867  69.569  1.00  0.00     0.000 HD 
HETATM   20  C   UNL     1      -9.442  15.307  66.266  1.00  0.00    -0.341 C  
HETATM   21  C   UNL     1     -11.465  14.322  67.313  1.00  0.00    -0.371 C  
HETATM   22  C   UNL     1      -9.034  12.060  68.161  1.00  0.00    -0.190 C  
HETATM   23  C   UNL     1     -10.068  13.931  66.788  1.00  0.00    -0.265 C  
HETATM   24  H   UNL     1     -10.303  12.468  69.657  1.00  0.00     0.000 HD 
HETATM   25  O   UNL     1     -10.205  11.882  68.916  1.00  0.00    -0.176 OA 
HETATM   26  C   UNL     1      -8.918  13.450  67.636  1.00  0.00    -0.202 C  
ENDROOT
BRANCH   7  27
HETATM   27  O   UNL     1      -9.164   5.330  66.872  1.00  0.00    -0.118 OA 
BRANCH  27  28
HETATM   28  C   UNL     1      -9.354   4.316  65.888  1.00  0.00    -0.163 C  
HETATM   29  C   UNL     1     -10.278   3.703  63.575  1.00  0.00    -0.210 C  
HETATM   30  H   UNL     1      -8.859   4.726  61.749  1.00  0.00     0.000 HD 
HETATM   31  C   UNL     1      -8.126   1.710  65.046  1.00  0.00    -0.074 C  
HETATM   32  O   UNL     1     -11.045   2.516  63.843  1.00  0.00    -0.543 OA 
HETATM   33  C   UNL     1     -10.375   4.671  64.768  1.00  0.00     0.156 C  
HETATM   34  O   UNL     1     -11.731   4.625  65.262  1.00  0.00    -0.988 OA 
HETATM   35  H   UNL     1     -11.940   2.716  64.091  1.00  0.00     0.000 HD 
HETATM   36  O   UNL     1      -8.303   4.532  62.494  1.00  0.00    -0.080 OA 
HETATM   37  C   UNL     1      -8.836   3.381  63.175  1.00  0.00    -0.093 C  
HETATM   38  H   UNL     1     -12.354   4.841  64.578  1.00  0.00     0.000 HD 
HETATM   39  C   UNL     1      -7.937   3.067  64.379  1.00  0.00    -0.082 C  
HETATM   40  O   UNL     1      -8.048   4.120  65.334  1.00  0.00    -0.100 OA 
ENDBRANCH  27  28
ENDBRANCH   7  27
BRANCH  15  41
HETATM   41  C   UNL     1      -7.689   9.526  68.562  1.00  0.00    -0.081 C  
HETATM   42  H   UNL     1      -6.931   8.232  69.922  1.00  0.00     0.000 HD 
HETATM   43  O   UNL     1      -7.575   8.268  69.224  1.00  0.00    -0.089 OA 
ENDBRANCH  15  41
BRANCH  21  44
HETATM   44  C   UNL     1     -11.565  15.159  68.529  1.00  0.00    -0.354 C  
HETATM   45  C   UNL     1     -11.732  15.794  70.677  1.00  0.00    -0.385 C  
HETATM   46  O   UNL     1     -12.072  15.770  71.847  1.00  0.00    -0.377 OA 
HETATM   47  O   UNL     1     -10.924  16.715  70.127  1.00  0.00    -0.321 OA 
HETATM   48  C   UNL     1     -10.755  16.387  68.745  1.00  0.00    -0.321 C  
HETATM   49  C   UNL     1     -12.129  14.804  69.687  1.00  0.00    -0.346 C  
ENDBRANCH  21  44
TORSDOF 4
ENDMDL
MODEL       17
REMARK 921   NORMALIZED FREE ENERGY PREDICTED BY IDOCK:   -7.38 KCAL/MOL
REMARK 922        TOTAL FREE ENERGY PREDICTED BY IDOCK:  -10.05 KCAL/MOL
REMARK 923 INTER-LIGAND FREE ENERGY PREDICTED BY IDOCK:   -9.37 KCAL/MOL
REMARK 924 INTRA-LIGAND FREE ENERGY PREDICTED BY IDOCK:   -0.68 KCAL/MOL
REMARK 927      BINDING AFFINITY PREDICTED BY RF-SCORE:    0.00 PKD
ROOT
HETATM    1  C   UNL     1      -9.978  11.781  64.958  1.00  0.00    -0.287 C  
HETATM    2  C   UNL     1      -9.742  11.212  63.562  1.00  0.00    -0.367 C  
HETATM    3  C   UNL     1      -9.100   9.807  63.691  1.00  0.00    -0.269 C  
HETATM    4  C   UNL     1      -7.805   9.747  64.575  1.00  0.00    -0.137 C  
HETATM    5  O   UNL     1      -6.861  10.593  63.919  1.00  0.00    -0.348 OA 
HETATM    6  C   UNL     1      -7.177   8.358  64.697  1.00  0.00    -0.082 C  
HETATM    7  C   UNL     1      -8.241   7.318  64.931  1.00  0.00    -0.073 C  
HETATM    8  H   UNL     1      -6.078  10.557  64.455  1.00  0.00     0.000 HD 
HETATM    9  H   UNL     1     -12.659  12.692  65.824  1.00  0.00     0.000 HD 
HETATM   10  C   UNL     1      -9.109   7.674  66.151  1.00  0.00    -0.189 C  
HETATM   11  C   UNL     1      -9.086   9.155  66.691  1.00  0.00    -0.148 C  
HETATM   12  O   UNL     1     -12.046  11.980  65.687  1.00  0.00    -0.508 OA 
HETATM   13  C   UNL     1     -11.000  12.969  65.187  1.00  0.00    -0.295 C  
HETATM   14  O   UNL     1      -8.963   9.093  68.116  1.00  0.00    -0.129 OA 
HETATM   15  C   UNL     1      -8.103  10.240  66.028  1.00  0.00    -0.139 C  
HETATM   16  C   UNL     1      -8.691  11.714  65.838  1.00  0.00     0.002 C  
HETATM   17  C   UNL     1     -12.087  13.811  64.517  1.00  0.00    -0.463 C  
HETATM   18  C   UNL     1     -12.880  14.302  65.889  1.00  0.00    -0.214 C  
HETATM   19  H   UNL     1      -8.950   9.986  68.442  1.00  0.00     0.000 HD 
HETATM   20  C   UNL     1     -10.423  15.630  65.811  1.00  0.00    -0.383 C  
HETATM   21  C   UNL     1     -11.844  14.061  67.106  1.00  0.00    -0.444 C  
HETATM   22  C   UNL     1      -8.800  12.486  67.145  1.00  0.00    -0.202 C  
HETATM   23  C   UNL     1     -10.551  14.102  66.264  1.00  0.00    -0.284 C  
HETATM   24  H   UNL     1      -9.754  12.424  68.905  1.00  0.00     0.000 HD 
HETATM   25  O   UNL     1      -9.686  11.942  68.089  1.00  0.00    -0.183 OA 
HETATM   26  C   UNL     1      -9.155  13.890  66.793  1.00  0.00    -0.238 C  
ENDROOT
BRANCH   7  27
HETATM   27  O   UNL     1      -7.547   6.084  65.041  1.00  0.00    -0.080 OA 
BRANCH  27  28
HETATM   28  C   UNL     1      -8.315   4.892  65.184  1.00  0.00    -0.133 C  
HETATM   29  C   UNL     1      -9.134   2.711  64.109  1.00  0.00    -0.112 C  
HETATM   30  H   UNL     1      -7.236   1.052  63.904  1.00  0.00     0.000 HD 
HETATM   31  C   UNL     1      -9.329   3.093  67.363  1.00  0.00    -0.232 C  
HETATM   32  O   UNL     1     -10.549   2.743  64.361  1.00  0.00    -0.402 OA 
HETATM   33  C   UNL     1      -8.612   4.138  63.856  1.00  0.00    -0.111 C  
HETATM   34  O   UNL     1      -9.603   4.833  63.069  1.00  0.00    -0.352 OA 
HETATM   35  H   UNL     1     -11.025   3.200  63.677  1.00  0.00     0.000 HD 
HETATM   36  O   UNL     1      -7.089   1.589  64.674  1.00  0.00    -0.044 OA 
HETATM   37  C   UNL     1      -8.367   1.976  65.212  1.00  0.00    -0.090 C  
HETATM   38  H   UNL     1      -9.785   4.372  62.258  1.00  0.00     0.000 HD 
HETATM   39  C   UNL     1      -8.130   2.844  66.456  1.00  0.00    -0.082 C  
HETATM   40  O   UNL     1      -7.529   4.076  66.061  1.00  0.00    -0.084 OA 
ENDBRANCH  27  28
ENDBRANCH   7  27
BRANCH  15  41
HETATM   41  C   UNL     1      -6.813  10.387  66.933  1.00  0.00    -0.088 C  
HETATM   42  H   UNL     1      -5.015  11.318  66.950  1.00  0.00     0.000 HD 
HETATM   43  O   UNL     1      -5.790  11.229  66.407  1.00  0.00    -0.134 OA 
ENDBRANCH  15  41
BRANCH  21  44
HETATM   44  C   UNL     1     -11.868  14.748  68.416  1.00  0.00    -0.319 C  
HETATM   45  C   UNL     1     -11.629  15.177  70.608  1.00  0.00    -0.309 C  
HETATM   46  O   UNL     1     -11.604  14.977  71.809  1.00  0.00    -0.377 OA 
HETATM   47  O   UNL     1     -11.348  16.349  70.013  1.00  0.00    -0.312 OA 
HETATM   48  C   UNL     1     -11.472  16.169  68.600  1.00  0.00    -0.340 C  
HETATM   49  C   UNL     1     -11.943  14.161  69.613  1.00  0.00    -0.389 C  
ENDBRANCH  21  44
TORSDOF 4
ENDMDL
MODEL       18
REMARK 921   NORMALIZED FREE ENERGY PREDICTED BY IDOCK:   -7.22 KCAL/MOL
REMARK 922        TOTAL FREE ENERGY PREDICTED BY IDOCK:   -9.86 KCAL/MOL
REMARK 923 INTER-LIGAND FREE ENERGY PREDICTED BY IDOCK:   -8.82 KCAL/MOL
REMARK 924 INTRA-LIGAND FREE ENERGY PREDICTED BY IDOCK:   -1.04 KCAL/MOL
REMARK 927      BINDING AFFINITY PREDICTED BY RF-SCORE:    0.00 PKD
ROOT
HETATM    1  C   UNL     1      -8.006  10.186  69.015  1.00  0.00    -0.115 C  
HETATM    2  C   UNL     1      -7.141  11.398  68.686  1.00  0.00    -0.095 C  
HETATM    3  C   UNL     1      -8.056  12.563  68.229  1.00  0.00    -0.165 C  
HETATM    4  C   UNL     1      -9.043  12.213  67.060  1.00  0.00    -0.198 C  
HETATM    5  O   UNL     1      -8.211  11.861  65.956  1.00  0.00    -0.378 OA 
HETATM    6  C   UNL     1      -9.942  13.367  66.614  1.00  0.00    -0.277 C  
HETATM    7  C   UNL     1     -10.493  14.098  67.811  1.00  0.00    -0.246 C  
HETATM    8  H   UNL     1      -8.809  11.649  65.249  1.00  0.00     0.000 HD 
HETATM    9  H   UNL     1      -7.863   8.854  71.656  1.00  0.00     0.000 HD 
HETATM   10  C   UNL     1     -11.216  13.133  68.767  1.00  0.00    -0.323 C  
HETATM   11  C   UNL     1     -10.938  11.587  68.638  1.00  0.00    -0.223 C  
HETATM   12  O   UNL     1      -8.200   9.560  71.117  1.00  0.00    -0.295 OA 
HETATM   13  C   UNL     1      -7.445   9.008  69.913  1.00  0.00    -0.065 C  
HETATM   14  O   UNL     1     -12.201  10.915  68.689  1.00  0.00    -0.785 OA 
HETATM   15  C   UNL     1      -9.986  11.034  67.466  1.00  0.00    -0.199 C  
HETATM   16  C   UNL     1      -8.993   9.844  67.855  1.00  0.00    -0.129 C  
HETATM   17  C   UNL     1      -6.281   8.586  70.812  1.00  0.00    -0.034 C  
HETATM   18  C   UNL     1      -7.078   7.430  71.696  1.00  0.00    -0.062 C  
HETATM   19  H   UNL     1     -12.033   9.983  68.610  1.00  0.00     0.000 HD 
HETATM   20  C   UNL     1      -6.735   6.429  69.110  1.00  0.00    -0.053 C  
HETATM   21  C   UNL     1      -8.398   7.056  70.843  1.00  0.00    -0.129 C  
HETATM   22  C   UNL     1      -9.701   8.508  68.025  1.00  0.00    -0.154 C  
HETATM   23  C   UNL     1      -7.866   7.503  69.465  1.00  0.00    -0.120 C  
HETATM   24  H   UNL     1     -11.080   7.621  69.177  1.00  0.00     0.000 HD 
HETATM   25  O   UNL     1     -10.637   8.455  69.071  1.00  0.00    -0.218 OA 
HETATM   26  C   UNL     1      -8.643   7.470  68.174  1.00  0.00    -0.123 C  
ENDROOT
BRANCH   7  27
HETATM   27  O   UNL     1     -11.315  15.128  67.281  1.00  0.00    -0.338 OA 
BRANCH  27  28
HETATM   28  C   UNL     1     -10.895  16.479  67.455  1.00  0.00    -0.202 C  
HETATM   29  C   UNL     1      -9.475  18.140  68.799  1.00  0.00    -0.272 C  
HETATM   30  H   UNL     1      -7.015  17.799  68.322  1.00  0.00     0.000 HD 
HETATM   31  C   UNL     1     -10.610  18.993  65.841  1.00  0.00    -0.466 C  
HETATM   32  O   UNL     1     -10.408  19.196  69.087  1.00  0.00    -0.540 OA 
HETATM   33  C   UNL     1     -10.200  16.781  68.813  1.00  0.00    -0.299 C  
HETATM   34  O   UNL     1     -11.154  16.804  69.897  1.00  0.00    -0.423 OA 
HETATM   35  H   UNL     1     -10.892  19.038  69.889  1.00  0.00     0.000 HD 
HETATM   36  O   UNL     1      -7.510  17.577  67.542  1.00  0.00    -0.183 OA 
HETATM   37  C   UNL     1      -8.696  18.394  67.506  1.00  0.00    -0.258 C  
HETATM   38  H   UNL     1     -10.729  16.989  70.727  1.00  0.00     0.000 HD 
HETATM   39  C   UNL     1      -9.496  18.036  66.246  1.00  0.00    -0.220 C  
HETATM   40  O   UNL     1      -9.991  16.705  66.366  1.00  0.00    -0.271 OA 
ENDBRANCH  27  28
ENDBRANCH   7  27
BRANCH  15  41
HETATM   41  C   UNL     1     -10.886  10.496  66.282  1.00  0.00     0.007 C  
HETATM   42  H   UNL     1     -10.723   9.800  64.387  1.00  0.00     0.000 HD 
HETATM   43  O   UNL     1     -10.183  10.124  65.099  1.00  0.00    -0.306 OA 
ENDBRANCH  15  41
BRANCH  21  44
HETATM   44  C   UNL     1      -9.165   5.794  70.939  1.00  0.00    -0.174 C  
HETATM   45  C   UNL     1      -9.736   3.671  71.398  1.00  0.00    -0.170 C  
HETATM   46  O   UNL     1      -9.612   2.469  71.557  1.00  0.00    -0.131 OA 
HETATM   47  O   UNL     1     -10.874   4.361  71.580  1.00  0.00     0.195 OA 
HETATM   48  C   UNL     1     -10.603   5.739  71.311  1.00  0.00    -0.257 C  
HETATM   49  C   UNL     1      -8.653   4.563  71.009  1.00  0.00    -0.126 C  
ENDBRANCH  21  44
TORSDOF 4
ENDMDL
MODEL       19
REMARK 921   NORMALIZED FREE ENERGY PREDICTED BY IDOCK:   -7.13 KCAL/MOL
REMARK 922        TOTAL FREE ENERGY PREDICTED BY IDOCK:   -9.74 KCAL/MOL
REMARK 923 INTER-LIGAND FREE ENERGY PREDICTED BY IDOCK:   -9.00 KCAL/MOL
REMARK 924 INTRA-LIGAND FREE ENERGY PREDICTED BY IDOCK:   -0.75 KCAL/MOL
REMARK 927      BINDING AFFINITY PREDICTED BY RF-SCORE:    0.00 PKD
ROOT
HETATM    1  C   UNL     1      -9.894  11.415  65.307  1.00  0.00    -0.290 C  
HETATM    2  C   UNL     1      -9.601  10.673  64.007  1.00  0.00    -0.351 C  
HETATM    3  C   UNL     1      -9.005   9.282  64.341  1.00  0.00    -0.163 C  
HETATM    4  C   UNL     1      -7.760   9.305  65.297  1.00  0.00    -0.103 C  
HETATM    5  O   UNL     1      -6.761  10.044  64.595  1.00  0.00    -0.118 OA 
HETATM    6  C   UNL     1      -7.177   7.929  65.622  1.00  0.00    -0.070 C  
HETATM    7  C   UNL     1      -8.280   6.948  65.922  1.00  0.00    -0.129 C  
HETATM    8  H   UNL     1      -6.008  10.058  65.174  1.00  0.00     0.000 HD 
HETATM    9  H   UNL     1     -12.591  12.482  65.906  1.00  0.00     0.000 HD 
HETATM   10  C   UNL     1      -9.200   7.470  67.040  1.00  0.00    -0.167 C  
HETATM   11  C   UNL     1      -9.166   9.006  67.395  1.00  0.00    -0.138 C  
HETATM   12  O   UNL     1     -11.991  11.745  65.891  1.00  0.00    -0.405 OA 
HETATM   13  C   UNL     1     -10.893  12.644  65.332  1.00  0.00    -0.287 C  
HETATM   14  O   UNL     1      -9.119   9.118  68.821  1.00  0.00    -0.135 OA 
HETATM   15  C   UNL     1      -8.120   9.980  66.660  1.00  0.00    -0.118 C  
HETATM   16  C   UNL     1      -8.657  11.431  66.258  1.00  0.00    -0.156 C  
HETATM   17  C   UNL     1     -11.921  13.418  64.505  1.00  0.00    -0.452 C  
HETATM   18  C   UNL     1     -12.771  14.091  65.762  1.00  0.00    -0.487 C  
HETATM   19  H   UNL     1      -9.098  10.044  69.036  1.00  0.00     0.000 HD 
HETATM   20  C   UNL     1     -10.277  15.349  65.657  1.00  0.00    -0.403 C  
HETATM   21  C   UNL     1     -11.806  13.981  67.053  1.00  0.00    -0.458 C  
HETATM   22  C   UNL     1      -8.813  12.361  67.453  1.00  0.00    -0.188 C  
HETATM   23  C   UNL     1     -10.471  13.891  66.286  1.00  0.00    -0.287 C  
HETATM   24  H   UNL     1      -9.859  12.537  69.153  1.00  0.00     0.000 HD 
HETATM   25  O   UNL     1      -9.761  11.956  68.407  1.00  0.00    -0.203 OA 
HETATM   26  C   UNL     1      -9.111  13.717  66.913  1.00  0.00    -0.249 C  
ENDROOT
BRANCH   7  27
HETATM   27  O   UNL     1      -7.627   5.723  66.221  1.00  0.00    -0.088 OA 
BRANCH  27  28
HETATM   28  C   UNL     1      -8.030   4.556  65.509  1.00  0.00    -0.095 C  
HETATM   29  C   UNL     1      -9.955   3.236  64.444  1.00  0.00    -0.145 C  
HETATM   30  H   UNL     1     -10.761   4.380  62.337  1.00  0.00     0.000 HD 
HETATM   31  C   UNL     1      -6.854   2.507  63.657  1.00  0.00    -0.032 C  
HETATM   32  O   UNL     1      -9.772   1.915  64.983  1.00  0.00    -0.334 OA 
HETATM   33  C   UNL     1      -9.563   4.291  65.496  1.00  0.00    -0.188 C  
HETATM   34  O   UNL     1     -10.025   3.821  66.781  1.00  0.00    -0.370 OA 
HETATM   35  H   UNL     1     -10.220   1.801  65.813  1.00  0.00     0.000 HD 
HETATM   36  O   UNL     1      -9.831   4.548  62.438  1.00  0.00    -0.123 OA 
HETATM   37  C   UNL     1      -9.234   3.421  63.107  1.00  0.00    -0.094 C  
HETATM   38  H   UNL     1     -10.961   3.660  66.773  1.00  0.00     0.000 HD 
HETATM   39  C   UNL     1      -7.731   3.692  63.271  1.00  0.00    -0.067 C  
HETATM   40  O   UNL     1      -7.546   4.776  64.178  1.00  0.00    -0.068 OA 
ENDBRANCH  27  28
ENDBRANCH   7  27
BRANCH  15  41
HETATM   41  C   UNL     1      -6.876  10.212  67.609  1.00  0.00    -0.076 C  
HETATM   42  H   UNL     1      -5.008  10.993  67.575  1.00  0.00     0.000 HD 
HETATM   43  O   UNL     1      -5.756  10.853  67.005  1.00  0.00    -0.048 OA 
ENDBRANCH  15  41
BRANCH  21  44
HETATM   44  C   UNL     1     -11.880  14.825  68.266  1.00  0.00    -0.316 C  
HETATM   45  C   UNL     1     -11.801  15.501  70.407  1.00  0.00    -0.351 C  
HETATM   46  O   UNL     1     -11.909  15.450  71.619  1.00  0.00    -0.326 OA 
HETATM   47  O   UNL     1     -11.347  16.558  69.715  1.00  0.00    -0.239 OA 
HETATM   48  C   UNL     1     -11.358  16.216  68.326  1.00  0.00    -0.316 C  
HETATM   49  C   UNL     1     -12.126  14.402  69.509  1.00  0.00    -0.366 C  
ENDBRANCH  21  44
TORSDOF 4
ENDMDL
MODEL       20
REMARK 921   NORMALIZED FREE ENERGY PREDICTED BY IDOCK:   -7.09 KCAL/MOL
REMARK 922        TOTAL FREE ENERGY PREDICTED BY IDOCK:   -9.70 KCAL/MOL
REMARK 923 INTER-LIGAND FREE ENERGY PREDICTED BY IDOCK:   -8.70 KCAL/MOL
REMARK 924 INTRA-LIGAND FREE ENERGY PREDICTED BY IDOCK:   -0.99 KCAL/MOL
REMARK 927      BINDING AFFINITY PREDICTED BY RF-SCORE:    0.00 PKD
ROOT
HETATM    1  C   UNL     1      -9.888  11.585  65.149  1.00  0.00    -0.294 C  
HETATM    2  C   UNL     1      -9.518  11.058  63.766  1.00  0.00    -0.286 C  
HETATM    3  C   UNL     1      -8.959   9.619  63.906  1.00  0.00    -0.254 C  
HETATM    4  C   UNL     1      -7.779   9.462  64.929  1.00  0.00    -0.111 C  
HETATM    5  O   UNL     1      -6.729  10.283  64.422  1.00  0.00    -0.194 OA 
HETATM    6  C   UNL     1      -7.233   8.039  65.061  1.00  0.00    -0.069 C  
HETATM    7  C   UNL     1      -8.363   7.045  65.127  1.00  0.00    -0.073 C  
HETATM    8  H   UNL     1      -6.015  10.188  65.041  1.00  0.00     0.000 HD 
HETATM    9  H   UNL     1     -12.608  12.595  65.743  1.00  0.00     0.000 HD 
HETATM   10  C   UNL     1      -9.349   7.398  66.254  1.00  0.00    -0.166 C  
HETATM   11  C   UNL     1      -9.323   8.854  66.858  1.00  0.00    -0.168 C  
HETATM   12  O   UNL     1     -12.016  11.859  65.646  1.00  0.00    -0.429 OA 
HETATM   13  C   UNL     1     -10.875  12.813  65.311  1.00  0.00    -0.291 C  
HETATM   14  O   UNL     1      -9.368   8.732  68.283  1.00  0.00    -0.137 OA 
HETATM   15  C   UNL     1      -8.221   9.914  66.359  1.00  0.00    -0.117 C  
HETATM   16  C   UNL     1      -8.716  11.421  66.166  1.00  0.00    -0.153 C  
HETATM   17  C   UNL     1     -11.838  13.733  64.559  1.00  0.00    -0.445 C  
HETATM   18  C   UNL     1     -12.762  14.210  65.852  1.00  0.00    -0.387 C  
HETATM   19  H   UNL     1      -9.352   9.610  68.646  1.00  0.00     0.000 HD 
HETATM   20  C   UNL     1     -10.255  15.416  66.112  1.00  0.00    -0.324 C  
HETATM   21  C   UNL     1     -11.885  13.872  67.167  1.00  0.00    -0.445 C  
HETATM   22  C   UNL     1      -8.941  12.147  67.484  1.00  0.00    -0.177 C  
HETATM   23  C   UNL     1     -10.503  13.880  66.481  1.00  0.00    -0.282 C  
HETATM   24  H   UNL     1     -10.094  12.066  69.121  1.00  0.00     0.000 HD 
HETATM   25  O   UNL     1      -9.954  11.613  68.298  1.00  0.00    -0.188 OA 
HETATM   26  C   UNL     1      -9.189  13.579  67.155  1.00  0.00    -0.236 C  
ENDROOT
BRANCH   7  27
HETATM   27  O   UNL     1      -7.742   5.775  65.262  1.00  0.00    -0.085 OA 
BRANCH  27  28
HETATM   28  C   UNL     1      -8.105   4.965  66.377  1.00  0.00    -0.107 C  
HETATM   29  C   UNL     1      -8.486   2.599  67.291  1.00  0.00    -0.097 C  
HETATM   30  H   UNL     1      -6.284   1.385  67.566  1.00  0.00     0.000 HD 
HETATM   31  C   UNL     1      -8.123   5.107  69.375  1.00  0.00    -0.087 C  
HETATM   32  O   UNL     1      -9.775   2.703  67.921  1.00  0.00    -0.313 OA 
HETATM   33  C   UNL     1      -8.442   3.486  66.033  1.00  0.00    -0.112 C  
HETATM   34  O   UNL     1      -9.724   3.379  65.376  1.00  0.00    -0.301 OA 
HETATM   35  H   UNL     1     -10.485   2.529  67.315  1.00  0.00     0.000 HD 
HETATM   36  O   UNL     1      -6.140   2.313  67.710  1.00  0.00    -0.023 OA 
HETATM   37  C   UNL     1      -7.341   2.880  68.268  1.00  0.00    -0.049 C  
HETATM   38  H   UNL     1      -9.929   2.475  65.166  1.00  0.00     0.000 HD 
HETATM   39  C   UNL     1      -7.109   4.380  68.500  1.00  0.00    -0.052 C  
HETATM   40  O   UNL     1      -6.965   5.033  67.242  1.00  0.00    -0.062 OA 
ENDBRANCH  27  28
ENDBRANCH   7  27
BRANCH  15  41
HETATM   41  C   UNL     1      -7.040   9.962  67.409  1.00  0.00    -0.085 C  
HETATM   42  H   UNL     1      -5.161  10.687  67.615  1.00  0.00     0.000 HD 
HETATM   43  O   UNL     1      -5.871  10.658  66.984  1.00  0.00    -0.049 OA 
ENDBRANCH  15  41
BRANCH  21  44
HETATM   44  C   UNL     1     -12.030  14.509  68.494  1.00  0.00    -0.321 C  
HETATM   45  C   UNL     1     -11.933  14.882  70.708  1.00  0.00    -0.314 C  
HETATM   46  O   UNL     1     -11.950  14.643  71.902  1.00  0.00    -0.337 OA 
HETATM   47  O   UNL     1     -11.724  16.092  70.164  1.00  0.00    -0.332 OA 
HETATM   48  C   UNL     1     -11.765  15.951  68.741  1.00  0.00    -0.349 C  
HETATM   49  C   UNL     1     -12.113  13.878  69.668  1.00  0.00    -0.404 C  
ENDBRANCH  21  44
TORSDOF 4
ENDMDL
MODEL       21
REMARK 921   NORMALIZED FREE ENERGY PREDICTED BY IDOCK:   -7.05 KCAL/MOL
REMARK 922        TOTAL FREE ENERGY PREDICTED BY IDOCK:   -9.64 KCAL/MOL
REMARK 923 INTER-LIGAND FREE ENERGY PREDICTED BY IDOCK:   -9.12 KCAL/MOL
REMARK 924 INTRA-LIGAND FREE ENERGY PREDICTED BY IDOCK:   -0.52 KCAL/MOL
REMARK 927      BINDING AFFINITY PREDICTED BY RF-SCORE:    0.00 PKD
ROOT
HETATM    1  C   UNL     1      -7.956  10.542  68.373  1.00  0.00    -0.116 C  
HETATM    2  C   UNL     1      -7.065  11.347  67.432  1.00  0.00    -0.114 C  
HETATM    3  C   UNL     1      -7.765  12.688  67.094  1.00  0.00    -0.094 C  
HETATM    4  C   UNL     1      -9.229  12.552  66.543  1.00  0.00    -0.210 C  
HETATM    5  O   UNL     1      -9.107  11.813  65.328  1.00  0.00    -0.413 OA 
HETATM    6  C   UNL     1      -9.913  13.879  66.212  1.00  0.00    -0.315 C  
HETATM    7  C   UNL     1      -9.659  14.889  67.301  1.00  0.00    -0.215 C  
HETATM    8  H   UNL     1      -9.992  11.731  64.995  1.00  0.00     0.000 HD 
HETATM    9  H   UNL     1      -6.964   9.563  70.985  1.00  0.00     0.000 HD 
HETATM   10  C   UNL     1     -10.081  14.342  68.676  1.00  0.00    -0.238 C  
HETATM   11  C   UNL     1     -10.287  12.788  68.844  1.00  0.00    -0.031 C  
HETATM   12  O   UNL     1      -7.322  10.271  70.463  1.00  0.00    -0.281 OA 
HETATM   13  C   UNL     1      -7.360   9.360  69.242  1.00  0.00    -0.071 C  
HETATM   14  O   UNL     1     -11.511  12.589  69.559  1.00  0.00    -0.344 OA 
HETATM   15  C   UNL     1     -10.143  11.814  67.574  1.00  0.00    -0.207 C  
HETATM   16  C   UNL     1      -9.413  10.415  67.826  1.00  0.00    -0.159 C  
HETATM   17  C   UNL     1      -6.061   8.683  69.681  1.00  0.00    -0.032 C  
HETATM   18  C   UNL     1      -6.628   7.974  71.071  1.00  0.00    -0.038 C  
HETATM   19  H   UNL     1     -11.635  11.652  69.660  1.00  0.00     0.000 HD 
HETATM   20  C   UNL     1      -7.760   6.616  68.907  1.00  0.00    -0.109 C  
HETATM   21  C   UNL     1      -8.238   7.964  70.935  1.00  0.00    -0.103 C  
HETATM   22  C   UNL     1     -10.273   9.424  68.595  1.00  0.00    -0.201 C  
HETATM   23  C   UNL     1      -8.298   8.041  69.395  1.00  0.00    -0.131 C  
HETATM   24  H   UNL     1     -11.148   9.193  70.383  1.00  0.00     0.000 HD 
HETATM   25  O   UNL     1     -10.611   9.812  69.902  1.00  0.00    -0.227 OA 
HETATM   26  C   UNL     1      -9.558   8.116  68.571  1.00  0.00    -0.153 C  
ENDROOT
BRANCH   7  27
HETATM   27  O   UNL     1     -10.346  16.064  66.896  1.00  0.00    -0.279 OA 
BRANCH  27  28
HETATM   28  C   UNL     1      -9.606  17.278  66.807  1.00  0.00    -0.272 C  
HETATM   29  C   UNL     1      -9.665  19.843  66.773  1.00  0.00    -0.416 C  
HETATM   30  H   UNL     1     -10.215  20.751  69.068  1.00  0.00     0.000 HD 
HETATM   31  C   UNL     1      -6.830  18.289  67.340  1.00  0.00    -0.206 C  
HETATM   32  O   UNL     1      -8.867  20.165  65.620  1.00  0.00    -0.474 OA 
HETATM   33  C   UNL     1     -10.458  18.548  66.518  1.00  0.00    -0.398 C  
HETATM   34  O   UNL     1     -10.911  18.574  65.147  1.00  0.00    -0.588 OA 
HETATM   35  H   UNL     1      -9.383  20.192  64.823  1.00  0.00     0.000 HD 
HETATM   36  O   UNL     1      -9.736  19.937  69.170  1.00  0.00    -0.301 OA 
HETATM   37  C   UNL     1      -8.833  19.797  68.057  1.00  0.00    -0.302 C  
HETATM   38  H   UNL     1     -11.431  19.349  64.970  1.00  0.00     0.000 HD 
HETATM   39  C   UNL     1      -8.058  18.481  68.221  1.00  0.00    -0.303 C  
HETATM   40  O   UNL     1      -8.959  17.386  68.081  1.00  0.00    -0.245 OA 
ENDBRANCH  27  28
ENDBRANCH   7  27
BRANCH  15  41
HETATM   41  C   UNL     1     -11.585  11.471  67.021  1.00  0.00    -0.122 C  
HETATM   42  H   UNL     1     -13.339  12.375  66.565  1.00  0.00     0.000 HD 
HETATM   43  O   UNL     1     -12.472  12.581  66.897  1.00  0.00    -0.280 OA 
ENDBRANCH  15  41
BRANCH  21  44
HETATM   44  C   UNL     1      -9.163   7.053  71.644  1.00  0.00    -0.144 C  
HETATM   45  C   UNL     1     -11.020   5.950  72.260  1.00  0.00    -0.265 C  
HETATM   46  O   UNL     1     -12.200   5.748  72.485  1.00  0.00    -0.196 OA 
HETATM   47  O   UNL     1     -10.040   5.043  72.403  1.00  0.00    -0.174 OA 
HETATM   48  C   UNL     1      -8.807   5.661  72.025  1.00  0.00    -0.138 C  
HETATM   49  C   UNL     1     -10.483   7.212  71.771  1.00  0.00    -0.219 C  
ENDBRANCH  21  44
TORSDOF 4
ENDMDL
MODEL       22
REMARK 921   NORMALIZED FREE ENERGY PREDICTED BY IDOCK:   -7.03 KCAL/MOL
REMARK 922        TOTAL FREE ENERGY PREDICTED BY IDOCK:   -9.63 KCAL/MOL
REMARK 923 INTER-LIGAND FREE ENERGY PREDICTED BY IDOCK:   -8.49 KCAL/MOL
REMARK 924 INTRA-LIGAND FREE ENERGY PREDICTED BY IDOCK:   -1.14 KCAL/MOL
REMARK 927      BINDING AFFINITY PREDICTED BY RF-SCORE:    0.00 PKD
ROOT
HETATM    1  C   UNL     1      -7.801  12.136  68.494  1.00  0.00    -0.122 C  
HETATM    2  C   UNL     1      -7.040  11.420  69.605  1.00  0.00     0.033 C  
HETATM    3  C   UNL     1      -6.851   9.932  69.213  1.00  0.00    -0.057 C  
HETATM    4  C   UNL     1      -8.171   9.176  68.825  1.00  0.00    -0.109 C  
HETATM    5  O   UNL     1      -8.984   9.212  69.997  1.00  0.00    -0.157 OA 
HETATM    6  C   UNL     1      -7.977   7.708  68.439  1.00  0.00    -0.123 C  
HETATM    7  C   UNL     1      -6.782   7.555  67.535  1.00  0.00    -0.067 C  
HETATM    8  H   UNL     1      -9.782   8.754  69.762  1.00  0.00     0.000 HD 
HETATM    9  H   UNL     1      -6.716  14.561  67.186  1.00  0.00     0.000 HD 
HETATM   10  C   UNL     1      -6.896   8.471  66.303  1.00  0.00    -0.073 C  
HETATM   11  C   UNL     1      -7.915   9.673  66.343  1.00  0.00    -0.108 C  
HETATM   12  O   UNL     1      -6.736  13.613  67.258  1.00  0.00    -0.222 OA 
HETATM   13  C   UNL     1      -7.769  13.714  68.375  1.00  0.00    -0.138 C  
HETATM   14  O   UNL     1      -8.630   9.675  65.104  1.00  0.00    -0.138 OA 
HETATM   15  C   UNL     1      -8.875   9.874  67.617  1.00  0.00    -0.126 C  
HETATM   16  C   UNL     1      -9.109  11.377  68.105  1.00  0.00    -0.174 C  
HETATM   17  C   UNL     1      -7.097  14.980  68.909  1.00  0.00    -0.119 C  
HETATM   18  C   UNL     1      -7.404  15.971  67.613  1.00  0.00    -0.173 C  
HETATM   19  H   UNL     1      -9.245  10.400  65.128  1.00  0.00     0.000 HD 
HETATM   20  C   UNL     1      -9.830  15.518  68.925  1.00  0.00    -0.219 C  
HETATM   21  C   UNL     1      -8.596  15.257  66.787  1.00  0.00    -0.300 C  
HETATM   22  C   UNL     1     -10.026  12.168  67.183  1.00  0.00    -0.200 C  
HETATM   23  C   UNL     1      -9.168  14.430  67.957  1.00  0.00    -0.193 C  
HETATM   24  H   UNL     1     -10.114  12.854  65.302  1.00  0.00     0.000 HD 
HETATM   25  O   UNL     1      -9.542  12.360  65.878  1.00  0.00    -0.244 OA 
HETATM   26  C   UNL     1     -10.319  13.460  67.863  1.00  0.00    -0.238 C  
ENDROOT
BRANCH   7  27
HETATM   27  O   UNL     1      -6.710   6.169  67.234  1.00  0.00    -0.057 OA 
BRANCH  27  28
HETATM   28  C   UNL     1      -7.918   5.413  67.252  1.00  0.00    -0.101 C  
HETATM   29  C   UNL     1      -9.566   3.949  65.940  1.00  0.00    -0.181 C  
HETATM   30  H   UNL     1      -8.559   1.677  65.469  1.00  0.00     0.000 HD 
HETATM   31  C   UNL     1      -9.660   3.963  69.220  1.00  0.00    -0.232 C  
HETATM   32  O   UNL     1     -10.837   4.553  66.238  1.00  0.00    -0.462 OA 
HETATM   33  C   UNL     1      -8.477   5.034  65.850  1.00  0.00    -0.121 C  
HETATM   34  O   UNL     1      -9.054   6.180  65.188  1.00  0.00    -0.369 OA 
HETATM   35  H   UNL     1     -11.053   5.251  65.632  1.00  0.00     0.000 HD 
HETATM   36  O   UNL     1      -8.215   1.998  66.295  1.00  0.00    -0.081 OA 
HETATM   37  C   UNL     1      -9.217   2.823  66.917  1.00  0.00    -0.115 C  
HETATM   38  H   UNL     1      -9.395   5.948  64.332  1.00  0.00     0.000 HD 
HETATM   39  C   UNL     1      -8.661   3.342  68.252  1.00  0.00    -0.104 C  
HETATM   40  O   UNL     1      -7.581   4.236  67.995  1.00  0.00    -0.068 OA 
ENDBRANCH  27  28
ENDBRANCH   7  27
BRANCH  15  41
HETATM   41  C   UNL     1     -10.305   9.286  67.281  1.00  0.00    -0.265 C  
HETATM   42  H   UNL     1     -11.168   7.637  66.484  1.00  0.00     0.000 HD 
HETATM   43  O   UNL     1     -10.309   7.990  66.686  1.00  0.00    -0.297 OA 
ENDBRANCH  15  41
BRANCH  21  44
HETATM   44  C   UNL     1      -9.533  15.929  65.860  1.00  0.00    -0.372 C  
HETATM   45  C   UNL     1     -11.333  16.374  64.592  1.00  0.00    -0.161 C  
HETATM   46  O   UNL     1     -12.285  16.172  63.860  1.00  0.00    -0.935 OA 
HETATM   47  O   UNL     1     -10.967  17.574  65.071  1.00  0.00    -0.754 OA 
HETATM   48  C   UNL     1      -9.818  17.388  65.902  1.00  0.00    -0.103 C  
HETATM   49  C   UNL     1     -10.448  15.332  65.093  1.00  0.00    -0.438 C  
ENDBRANCH  21  44
TORSDOF 4
ENDMDL
MODEL       23
REMARK 921   NORMALIZED FREE ENERGY PREDICTED BY IDOCK:   -7.00 KCAL/MOL
REMARK 922        TOTAL FREE ENERGY PREDICTED BY IDOCK:   -9.59 KCAL/MOL
REMARK 923 INTER-LIGAND FREE ENERGY PREDICTED BY IDOCK:   -8.77 KCAL/MOL
REMARK 924 INTRA-LIGAND FREE ENERGY PREDICTED BY IDOCK:   -0.82 KCAL/MOL
REMARK 927      BINDING AFFINITY PREDICTED BY RF-SCORE:    0.00 PKD
ROOT
HETATM    1  C   UNL     1      -9.482   9.860  65.607  1.00  0.00    -0.295 C  
HETATM    2  C   UNL     1      -9.798  10.770  64.424  1.00  0.00    -0.374 C  
HETATM    3  C   UNL     1     -10.130  12.189  64.951  1.00  0.00    -0.280 C  
HETATM    4  C   UNL     1     -11.251  12.244  66.049  1.00  0.00    -0.332 C  
HETATM    5  O   UNL     1     -12.424  11.735  65.416  1.00  0.00    -0.118 OA 
HETATM    6  C   UNL     1     -11.573  13.647  66.564  1.00  0.00    -0.392 C  
HETATM    7  C   UNL     1     -10.305  14.422  66.809  1.00  0.00    -0.273 C  
HETATM    8  H   UNL     1     -13.101  11.768  66.081  1.00  0.00     0.000 HD 
HETATM    9  H   UNL     1      -6.934   8.360  65.768  1.00  0.00     0.000 HD 
HETATM   10  C   UNL     1      -9.360  13.658  67.753  1.00  0.00    -0.218 C  
HETATM   11  C   UNL     1      -9.592  12.115  67.974  1.00  0.00    -0.204 C  
HETATM   12  O   UNL     1      -7.410   9.173  65.893  1.00  0.00    -0.091 OA 
HETATM   13  C   UNL     1      -8.688   8.505  65.399  1.00  0.00    -0.159 C  
HETATM   14  O   UNL     1      -9.498  11.861  69.379  1.00  0.00    -0.134 OA 
HETATM   15  C   UNL     1     -10.851  11.384  67.292  1.00  0.00    -0.311 C  
HETATM   16  C   UNL     1     -10.594   9.922  66.701  1.00  0.00    -0.186 C  
HETATM   17  C   UNL     1      -7.891   7.683  64.385  1.00  0.00    -0.137 C  
HETATM   18  C   UNL     1      -7.023   6.766  65.462  1.00  0.00    -0.063 C  
HETATM   19  H   UNL     1      -9.639  10.930  69.512  1.00  0.00     0.000 HD 
HETATM   20  C   UNL     1      -9.677   5.898  65.560  1.00  0.00     0.363 C  
HETATM   21  C   UNL     1      -7.810   6.877  66.869  1.00  0.00    -0.107 C  
HETATM   22  C   UNL     1     -10.453   8.859  67.780  1.00  0.00    -0.239 C  
HETATM   23  C   UNL     1      -9.192   7.238  66.285  1.00  0.00    -0.175 C  
HETATM   24  H   UNL     1      -9.266   8.355  69.313  1.00  0.00     0.000 HD 
HETATM   25  O   UNL     1      -9.354   9.020  68.639  1.00  0.00    -0.137 OA 
HETATM   26  C   UNL     1     -10.430   7.538  67.090  1.00  0.00    -0.407 C  
ENDROOT
BRANCH   7  27
HETATM   27  O   UNL     1     -10.724  15.691  67.294  1.00  0.00    -0.299 OA 
BRANCH  27  28
HETATM   28  C   UNL     1      -9.819  16.786  67.178  1.00  0.00    -0.259 C  
HETATM   29  C   UNL     1      -9.518  19.302  66.777  1.00  0.00    -0.329 C  
HETATM   30  H   UNL     1     -10.322  20.625  68.777  1.00  0.00     0.000 HD 
HETATM   31  C   UNL     1      -7.063  17.558  68.081  1.00  0.00    -0.206 C  
HETATM   32  O   UNL     1      -8.499  19.343  65.763  1.00  0.00    -0.419 OA 
HETATM   33  C   UNL     1     -10.427  18.077  66.559  1.00  0.00    -0.334 C  
HETATM   34  O   UNL     1     -10.631  17.931  65.137  1.00  0.00    -0.573 OA 
HETATM   35  H   UNL     1      -8.863  19.298  64.887  1.00  0.00     0.000 HD 
HETATM   36  O   UNL     1      -9.984  19.790  69.080  1.00  0.00    -0.434 OA 
HETATM   37  C   UNL     1      -8.932  19.373  68.189  1.00  0.00    -0.326 C  
HETATM   38  H   UNL     1     -11.003  18.720  64.759  1.00  0.00     0.000 HD 
HETATM   39  C   UNL     1      -8.385  18.025  68.678  1.00  0.00    -0.272 C  
HETATM   40  O   UNL     1      -9.391  17.026  68.524  1.00  0.00    -0.250 OA 
ENDBRANCH  27  28
ENDBRANCH   7  27
BRANCH  15  41
HETATM   41  C   UNL     1     -12.004  11.235  68.365  1.00  0.00    -0.185 C  
HETATM   42  H   UNL     1     -12.868  12.260  69.883  1.00  0.00     0.000 HD 
HETATM   43  O   UNL     1     -12.175  12.349  69.238  1.00  0.00    -0.195 OA 
ENDBRANCH  15  41
BRANCH  21  44
HETATM   44  C   UNL     1      -7.734   5.907  67.984  1.00  0.00    -0.100 C  
HETATM   45  C   UNL     1      -7.179   4.121  69.229  1.00  0.00    -0.050 C  
HETATM   46  O   UNL     1      -6.878   2.972  69.496  1.00  0.00    -0.033 OA 
HETATM   47  O   UNL     1      -7.292   5.119  70.121  1.00  0.00    -0.059 OA 
HETATM   48  C   UNL     1      -7.643   6.310  69.412  1.00  0.00    -0.098 C  
HETATM   49  C   UNL     1      -7.442   4.608  67.881  1.00  0.00    -0.077 C  
ENDBRANCH  21  44
TORSDOF 4
ENDMDL
MODEL       24
REMARK 921   NORMALIZED FREE ENERGY PREDICTED BY IDOCK:   -6.98 KCAL/MOL
REMARK 922        TOTAL FREE ENERGY PREDICTED BY IDOCK:   -9.57 KCAL/MOL
REMARK 923 INTER-LIGAND FREE ENERGY PREDICTED BY IDOCK:   -8.26 KCAL/MOL
REMARK 924 INTRA-LIGAND FREE ENERGY PREDICTED BY IDOCK:   -1.30 KCAL/MOL
REMARK 927      BINDING AFFINITY PREDICTED BY RF-SCORE:    0.00 PKD
ROOT
HETATM    1  C   UNL     1      -8.189   7.310  68.077  1.00  0.00    -0.120 C  
HETATM    2  C   UNL     1      -7.339   7.739  66.886  1.00  0.00    -0.090 C  
HETATM    3  C   UNL     1      -7.446   9.276  66.715  1.00  0.00    -0.087 C  
HETATM    4  C   UNL     1      -8.910   9.833  66.621  1.00  0.00    -0.138 C  
HETATM    5  O   UNL     1      -9.469   9.231  65.454  1.00  0.00    -0.322 OA 
HETATM    6  C   UNL     1      -9.008  11.350  66.452  1.00  0.00    -0.196 C  
HETATM    7  C   UNL     1      -8.045  12.046  67.377  1.00  0.00    -0.168 C  
HETATM    8  H   UNL     1     -10.355   9.568  65.398  1.00  0.00     0.000 HD 
HETATM    9  H   UNL     1      -7.037   5.760  70.323  1.00  0.00     0.000 HD 
HETATM   10  C   UNL     1      -8.261  11.608  68.837  1.00  0.00     0.017 C  
HETATM   11  C   UNL     1      -9.068  10.284  69.120  1.00  0.00    -0.191 C  
HETATM   12  O   UNL     1      -7.180   6.600  69.901  1.00  0.00    -0.075 OA 
HETATM   13  C   UNL     1      -7.952   5.911  68.781  1.00  0.00    -0.103 C  
HETATM   14  O   UNL     1     -10.001  10.562  70.168  1.00  0.00    -0.402 OA 
HETATM   15  C   UNL     1      -9.726   9.465  67.903  1.00  0.00    -0.177 C  
HETATM   16  C   UNL     1      -9.643   7.872  67.986  1.00  0.00    -0.168 C  
HETATM   17  C   UNL     1      -7.015   4.705  68.848  1.00  0.00    -0.052 C  
HETATM   18  C   UNL     1      -7.420   4.181  70.370  1.00  0.00    -0.045 C  
HETATM   19  H   UNL     1     -10.488   9.764  70.339  1.00  0.00     0.000 HD 
HETATM   20  C   UNL     1      -9.586   3.648  68.688  1.00  0.00    -0.159 C  
HETATM   21  C   UNL     1      -8.838   4.875  70.711  1.00  0.00    -0.154 C  
HETATM   22  C   UNL     1     -10.596   7.277  69.012  1.00  0.00    -0.201 C  
HETATM   23  C   UNL     1      -9.288   5.114  69.254  1.00  0.00    -0.172 C  
HETATM   24  H   UNL     1     -10.944   7.278  70.985  1.00  0.00     0.000 HD 
HETATM   25  O   UNL     1     -10.349   7.649  70.344  1.00  0.00    -0.208 OA 
HETATM   26  C   UNL     1     -10.562   5.799  68.833  1.00  0.00    -0.337 C  
ENDROOT
BRANCH   7  27
HETATM   27  O   UNL     1      -8.233  13.435  67.145  1.00  0.00    -0.174 OA 
BRANCH  27  28
HETATM   28  C   UNL     1      -9.565  13.915  66.981  1.00  0.00    -0.254 C  
HETATM   29  C   UNL     1     -11.470  15.352  67.921  1.00  0.00    -0.299 C  
HETATM   30  H   UNL     1     -10.925  17.812  67.696  1.00  0.00     0.000 HD 
HETATM   31  C   UNL     1     -11.548  14.402  64.781  1.00  0.00    -0.410 C  
HETATM   32  O   UNL     1     -12.599  14.462  67.866  1.00  0.00    -0.512 OA 
HETATM   33  C   UNL     1     -10.192  14.560  68.251  1.00  0.00    -0.234 C  
HETATM   34  O   UNL     1     -10.537  13.558  69.232  1.00  0.00    -0.431 OA 
HETATM   35  H   UNL     1     -12.678  13.934  68.651  1.00  0.00     0.000 HD 
HETATM   36  O   UNL     1     -10.522  17.343  66.974  1.00  0.00    -0.321 OA 
HETATM   37  C   UNL     1     -11.343  16.204  66.655  1.00  0.00     0.332 C  
HETATM   38  H   UNL     1     -10.920  13.953  70.007  1.00  0.00     0.000 HD 
HETATM   39  C   UNL     1     -10.692  15.446  65.489  1.00  0.00    -0.384 C  
HETATM   40  O   UNL     1      -9.460  14.879  65.927  1.00  0.00    -0.307 OA 
ENDBRANCH  27  28
ENDBRANCH   7  27
BRANCH  15  41
HETATM   41  C   UNL     1     -11.264   9.827  67.810  1.00  0.00     0.066 C  
HETATM   42  H   UNL     1     -12.511  11.410  68.011  1.00  0.00     0.000 HD 
HETATM   43  O   UNL     1     -11.587  11.192  68.067  1.00  0.00    -0.431 OA 
ENDBRANCH  15  41
BRANCH  21  44
HETATM   44  C   UNL     1      -9.829   4.387  71.695  1.00  0.00    -0.255 C  
HETATM   45  C   UNL     1     -10.827   3.172  73.300  1.00  0.00    -0.180 C  
HETATM   46  O   UNL     1     -11.146   2.194  73.952  1.00  0.00    -0.169 OA 
HETATM   47  O   UNL     1     -11.209   4.433  73.560  1.00  0.00    -0.291 OA 
HETATM   48  C   UNL     1     -10.613   5.287  72.581  1.00  0.00    -0.228 C  
HETATM   49  C   UNL     1      -9.948   3.133  72.140  1.00  0.00    -0.232 C  
ENDBRANCH  21  44
TORSDOF 4
ENDMDL
MODEL       25
REMARK 921   NORMALIZED FREE ENERGY PREDICTED BY IDOCK:   -6.89 KCAL/MOL
REMARK 922        TOTAL FREE ENERGY PREDICTED BY IDOCK:   -9.45 KCAL/MOL
REMARK 923 INTER-LIGAND FREE ENERGY PREDICTED BY IDOCK:   -8.61 KCAL/MOL
REMARK 924 INTRA-LIGAND FREE ENERGY PREDICTED BY IDOCK:   -0.85 KCAL/MOL
REMARK 927      BINDING AFFINITY PREDICTED BY RF-SCORE:    0.00 PKD
ROOT
HETATM    1  C   UNL     1      -9.952  11.374  65.533  1.00  0.00    -0.282 C  
HETATM    2  C   UNL     1      -9.753  10.510  64.292  1.00  0.00    -0.391 C  
HETATM    3  C   UNL     1      -9.202   9.126  64.722  1.00  0.00    -0.085 C  
HETATM    4  C   UNL     1      -7.913   9.173  65.617  1.00  0.00    -0.107 C  
HETATM    5  O   UNL     1      -6.917   9.801  64.811  1.00  0.00    -0.109 OA 
HETATM    6  C   UNL     1      -7.375   7.805  66.036  1.00  0.00    -0.074 C  
HETATM    7  C   UNL     1      -8.504   6.906  66.469  1.00  0.00    -0.125 C  
HETATM    8  H   UNL     1      -6.138   9.830  65.353  1.00  0.00     0.000 HD 
HETATM    9  H   UNL     1     -12.570  12.612  66.152  1.00  0.00     0.000 HD 
HETATM   10  C   UNL     1      -9.347   7.564  67.575  1.00  0.00    -0.157 C  
HETATM   11  C   UNL     1      -9.231   9.121  67.792  1.00  0.00    -0.133 C  
HETATM   12  O   UNL     1     -12.003  11.850  66.176  1.00  0.00    -0.537 OA 
HETATM   13  C   UNL     1     -10.896  12.645  65.494  1.00  0.00    -0.279 C  
HETATM   14  O   UNL     1      -9.112   9.353  69.200  1.00  0.00    -0.139 OA 
HETATM   15  C   UNL     1      -8.180   9.979  66.930  1.00  0.00    -0.121 C  
HETATM   16  C   UNL     1      -8.672  11.413  66.426  1.00  0.00    -0.185 C  
HETATM   17  C   UNL     1     -11.927  13.393  64.647  1.00  0.00    -0.441 C  
HETATM   18  C   UNL     1     -12.687  14.210  65.875  1.00  0.00    -0.387 C  
HETATM   19  H   UNL     1      -9.041  10.292  69.331  1.00  0.00     0.000 HD 
HETATM   20  C   UNL     1     -10.150  15.336  65.553  1.00  0.00    -0.408 C  
HETATM   21  C   UNL     1     -11.669  14.166  67.128  1.00  0.00    -0.430 C  
HETATM   22  C   UNL     1      -8.732  12.448  67.539  1.00  0.00    -0.179 C  
HETATM   23  C   UNL     1     -10.376  13.948  66.315  1.00  0.00    -0.293 C  
HETATM   24  H   UNL     1      -9.689  12.818  69.261  1.00  0.00     0.000 HD 
HETATM   25  O   UNL     1      -9.651  12.172  68.565  1.00  0.00    -0.198 OA 
HETATM   26  C   UNL     1      -8.997  13.766  66.896  1.00  0.00    -0.234 C  
ENDROOT
BRANCH   7  27
HETATM   27  O   UNL     1      -7.890   5.681  66.845  1.00  0.00    -0.100 OA 
BRANCH  27  28
HETATM   28  C   UNL     1      -8.170   5.160  68.142  1.00  0.00    -0.097 C  
HETATM   29  C   UNL     1      -8.373   3.084  69.635  1.00  0.00    -0.055 C  
HETATM   30  H   UNL     1      -6.090   2.105  70.113  1.00  0.00     0.000 HD 
HETATM   31  C   UNL     1      -8.118   6.054  71.007  1.00  0.00    -0.121 C  
HETATM   32  O   UNL     1      -9.649   3.272  70.271  1.00  0.00    -0.174 OA 
HETATM   33  C   UNL     1      -8.419   3.625  68.194  1.00  0.00    -0.093 C  
HETATM   34  O   UNL     1      -9.708   3.284  67.639  1.00  0.00    -0.265 OA 
HETATM   35  H   UNL     1     -10.362   2.911  69.758  1.00  0.00     0.000 HD 
HETATM   36  O   UNL     1      -6.003   3.045  70.014  1.00  0.00    -0.021 OA 
HETATM   37  C   UNL     1      -7.223   3.666  70.461  1.00  0.00    -0.041 C  
HETATM   38  H   UNL     1      -9.860   2.347  67.671  1.00  0.00     0.000 HD 
HETATM   39  C   UNL     1      -7.083   5.187  70.301  1.00  0.00    -0.054 C  
HETATM   40  O   UNL     1      -7.015   5.509  68.914  1.00  0.00    -0.056 OA 
ENDBRANCH  27  28
ENDBRANCH   7  27
BRANCH  15  41
HETATM   41  C   UNL     1      -6.884  10.233  67.801  1.00  0.00    -0.075 C  
HETATM   42  H   UNL     1      -5.007  10.974  67.630  1.00  0.00     0.000 HD 
HETATM   43  O   UNL     1      -5.786  10.822  67.107  1.00  0.00    -0.045 OA 
ENDBRANCH  15  41
BRANCH  21  44
HETATM   44  C   UNL     1     -11.649  15.114  68.264  1.00  0.00    -0.357 C  
HETATM   45  C   UNL     1     -11.462  15.963  70.336  1.00  0.00    -0.378 C  
HETATM   46  O   UNL     1     -11.537  16.024  71.550  1.00  0.00    -0.425 OA 
HETATM   47  O   UNL     1     -10.958  16.923  69.544  1.00  0.00    -0.251 OA 
HETATM   48  C   UNL     1     -11.033  16.465  68.191  1.00  0.00    -0.339 C  
HETATM   49  C   UNL     1     -11.887  14.816  69.544  1.00  0.00    -0.366 C  
ENDBRANCH  21  44
TORSDOF 4
ENDMDL
MODEL       26
REMARK 921   NORMALIZED FREE ENERGY PREDICTED BY IDOCK:   -6.86 KCAL/MOL
REMARK 922        TOTAL FREE ENERGY PREDICTED BY IDOCK:   -9.41 KCAL/MOL
REMARK 923 INTER-LIGAND FREE ENERGY PREDICTED BY IDOCK:   -8.07 KCAL/MOL
REMARK 924 INTRA-LIGAND FREE ENERGY PREDICTED BY IDOCK:   -1.35 KCAL/MOL
REMARK 927      BINDING AFFINITY PREDICTED BY RF-SCORE:    0.00 PKD
ROOT
HETATM    1  C   UNL     1     -10.569  13.500  67.880  1.00  0.00    -0.255 C  
HETATM    2  C   UNL     1     -11.862  12.774  67.525  1.00  0.00    -0.402 C  
HETATM    3  C   UNL     1     -11.716  11.273  67.885  1.00  0.00    -0.289 C  
HETATM    4  C   UNL     1     -10.457  10.563  67.272  1.00  0.00    -0.250 C  
HETATM    5  O   UNL     1     -10.626  10.652  65.858  1.00  0.00    -0.199 OA 
HETATM    6  C   UNL     1     -10.319   9.083  67.632  1.00  0.00    -0.317 C  
HETATM    7  C   UNL     1     -10.611   8.867  69.093  1.00  0.00    -0.195 C  
HETATM    8  H   UNL     1      -9.864  10.222  65.488  1.00  0.00     0.000 HD 
HETATM    9  H   UNL     1     -10.560  15.857  69.673  1.00  0.00     0.000 HD 
HETATM   10  C   UNL     1      -9.726   9.766  69.976  1.00  0.00    -0.292 C  
HETATM   11  C   UNL     1      -9.013  11.008  69.319  1.00  0.00     0.102 C  
HETATM   12  O   UNL     1     -10.574  14.913  69.569  1.00  0.00    -0.246 OA 
HETATM   13  C   UNL     1     -10.544  15.074  68.053  1.00  0.00    -0.250 C  
HETATM   14  O   UNL     1      -7.656  11.017  69.773  1.00  0.00    -0.365 OA 
HETATM   15  C   UNL     1      -9.142  11.269  67.738  1.00  0.00    -0.152 C  
HETATM   16  C   UNL     1      -9.318  12.788  67.276  1.00  0.00    -0.200 C  
HETATM   17  C   UNL     1     -11.424  16.321  68.148  1.00  0.00    -0.173 C  
HETATM   18  C   UNL     1     -10.354  17.301  68.953  1.00  0.00    -0.352 C  
HETATM   19  H   UNL     1      -7.226  11.766  69.376  1.00  0.00     0.000 HD 
HETATM   20  C   UNL     1      -9.399  16.968  66.348  1.00  0.00    -0.295 C  
HETATM   21  C   UNL     1      -8.901  16.622  68.754  1.00  0.00    -0.264 C  
HETATM   22  C   UNL     1      -8.035  13.599  67.391  1.00  0.00    -0.166 C  
HETATM   23  C   UNL     1      -9.233  15.837  67.467  1.00  0.00    -0.207 C  
HETATM   24  H   UNL     1      -6.736  14.256  68.767  1.00  0.00     0.000 HD 
HETATM   25  O   UNL     1      -7.537  13.749  68.695  1.00  0.00    -0.128 OA 
HETATM   26  C   UNL     1      -8.291  14.913  66.738  1.00  0.00    -0.158 C  
ENDROOT
BRANCH   7  27
HETATM   27  O   UNL     1     -10.440   7.474  69.312  1.00  0.00    -0.210 OA 
BRANCH  27  28
HETATM   28  C   UNL     1      -9.552   6.763  68.454  1.00  0.00    -0.125 C  
HETATM   29  C   UNL     1      -7.324   5.514  68.212  1.00  0.00    -0.073 C  
HETATM   30  H   UNL     1      -7.425   3.277  69.389  1.00  0.00     0.000 HD 
HETATM   31  C   UNL     1      -9.643   5.160  65.918  1.00  0.00    -0.163 C  
HETATM   32  O   UNL     1      -6.741   6.123  67.047  1.00  0.00    -0.056 OA 
HETATM   33  C   UNL     1      -8.114   6.564  69.015  1.00  0.00    -0.112 C  
HETATM   34  O   UNL     1      -7.363   7.797  68.981  1.00  0.00    -0.084 OA 
HETATM   35  H   UNL     1      -6.229   6.893  67.263  1.00  0.00     0.000 HD 
HETATM   36  O   UNL     1      -8.292   3.490  69.064  1.00  0.00    -0.060 OA 
HETATM   37  C   UNL     1      -8.151   4.273  67.864  1.00  0.00    -0.094 C  
HETATM   38  H   UNL     1      -6.485   7.676  69.324  1.00  0.00     0.000 HD 
HETATM   39  C   UNL     1      -9.552   4.618  67.339  1.00  0.00    -0.167 C  
HETATM   40  O   UNL     1     -10.195   5.498  68.259  1.00  0.00    -0.166 OA 
ENDBRANCH  27  28
ENDBRANCH   7  27
BRANCH  15  41
HETATM   41  C   UNL     1      -7.838  10.732  67.019  1.00  0.00    -0.121 C  
HETATM   42  H   UNL     1      -7.131  10.324  65.167  1.00  0.00     0.000 HD 
HETATM   43  O   UNL     1      -7.914  10.646  65.598  1.00  0.00    -0.160 OA 
ENDBRANCH  15  41
BRANCH  21  44
HETATM   44  C   UNL     1      -7.598  17.315  68.855  1.00  0.00    -0.235 C  
HETATM   45  C   UNL     1      -6.041  18.903  69.172  1.00  0.00    -0.246 C  
HETATM   46  O   UNL     1      -5.527  20.007  69.166  1.00  0.00    -0.200 OA 
HETATM   47  O   UNL     1      -5.469  17.786  69.649  1.00  0.00    -0.186 OA 
HETATM   48  C   UNL     1      -6.398  16.710  69.491  1.00  0.00    -0.227 C  
HETATM   49  C   UNL     1      -7.384  18.622  68.684  1.00  0.00    -0.329 C  
ENDBRANCH  21  44
TORSDOF 4
ENDMDL
MODEL       27
REMARK 921   NORMALIZED FREE ENERGY PREDICTED BY IDOCK:   -6.82 KCAL/MOL
REMARK 922        TOTAL FREE ENERGY PREDICTED BY IDOCK:   -9.37 KCAL/MOL
REMARK 923 INTER-LIGAND FREE ENERGY PREDICTED BY IDOCK:   -8.18 KCAL/MOL
REMARK 924 INTRA-LIGAND FREE ENERGY PREDICTED BY IDOCK:   -1.19 KCAL/MOL
REMARK 927      BINDING AFFINITY PREDICTED BY RF-SCORE:    0.00 PKD
ROOT
HETATM    1  C   UNL     1      -9.755   9.015  67.972  1.00  0.00    -0.179 C  
HETATM    2  C   UNL     1     -10.408   9.977  68.958  1.00  0.00    -0.223 C  
HETATM    3  C   UNL     1     -10.337  11.416  68.385  1.00  0.00    -0.209 C  
HETATM    4  C   UNL     1      -8.902  11.893  67.964  1.00  0.00    -0.177 C  
HETATM    5  O   UNL     1      -8.130  11.869  69.163  1.00  0.00    -0.353 OA 
HETATM    6  C   UNL     1      -8.839  13.312  67.399  1.00  0.00    -0.204 C  
HETATM    7  C   UNL     1      -9.973  13.546  66.435  1.00  0.00    -0.295 C  
HETATM    8  H   UNL     1      -7.262  12.157  68.908  1.00  0.00     0.000 HD 
HETATM    9  H   UNL     1     -11.204   6.657  66.919  1.00  0.00     0.000 HD 
HETATM   10  C   UNL     1      -9.990  12.478  65.327  1.00  0.00    -0.226 C  
HETATM   11  C   UNL     1      -9.188  11.140  65.550  1.00  0.00    -0.216 C  
HETATM   12  O   UNL     1     -11.028   7.590  66.878  1.00  0.00    -0.292 OA 
HETATM   13  C   UNL     1     -10.049   7.460  68.040  1.00  0.00    -0.179 C  
HETATM   14  O   UNL     1      -8.458  10.868  64.350  1.00  0.00    -0.360 OA 
HETATM   15  C   UNL     1      -8.300  10.944  66.876  1.00  0.00    -0.133 C  
HETATM   16  C   UNL     1      -8.331   9.495  67.548  1.00  0.00    -0.125 C  
HETATM   17  C   UNL     1     -10.933   6.397  68.693  1.00  0.00    -0.404 C  
HETATM   18  C   UNL     1     -10.770   5.218  67.537  1.00  0.00    -0.063 C  
HETATM   19  H   UNL     1      -7.975  10.061  64.485  1.00  0.00     0.000 HD 
HETATM   20  C   UNL     1      -8.330   5.426  68.882  1.00  0.00    -0.100 C  
HETATM   21  C   UNL     1      -9.460   5.618  66.681  1.00  0.00    -0.158 C  
HETATM   22  C   UNL     1      -7.541   8.457  66.764  1.00  0.00    -0.090 C  
HETATM   23  C   UNL     1      -8.781   6.480  67.767  1.00  0.00    -0.115 C  
HETATM   24  H   UNL     1      -7.532   7.538  64.984  1.00  0.00     0.000 HD 
HETATM   25  O   UNL     1      -8.025   8.187  65.473  1.00  0.00    -0.098 OA 
HETATM   26  C   UNL     1      -7.483   7.228  67.605  1.00  0.00    -0.101 C  
ENDROOT
BRANCH   7  27
HETATM   27  O   UNL     1      -9.806  14.877  65.969  1.00  0.00    -0.282 OA 
BRANCH  27  28
HETATM   28  C   UNL     1      -9.562  15.900  66.931  1.00  0.00    -0.229 C  
HETATM   29  C   UNL     1      -8.614  18.238  67.401  1.00  0.00    -0.249 C  
HETATM   30  H   UNL     1     -10.101  20.019  66.395  1.00  0.00     0.000 HD 
HETATM   31  C   UNL     1     -10.638  16.838  69.572  1.00  0.00    -0.283 C  
HETATM   32  O   UNL     1      -7.777  18.018  68.549  1.00  0.00    -0.285 OA 
HETATM   33  C   UNL     1      -8.570  17.008  66.475  1.00  0.00    -0.270 C  
HETATM   34  O   UNL     1      -7.210  16.521  66.459  1.00  0.00    -0.227 OA 
HETATM   35  H   UNL     1      -6.895  17.764  68.306  1.00  0.00     0.000 HD 
HETATM   36  O   UNL     1     -10.641  19.281  66.649  1.00  0.00    -0.409 OA 
HETATM   37  C   UNL     1     -10.037  18.646  67.792  1.00  0.00    -0.371 C  
HETATM   38  H   UNL     1      -6.604  17.198  66.180  1.00  0.00     0.000 HD 
HETATM   39  C   UNL     1     -10.910  17.451  68.204  1.00  0.00    -0.273 C  
HETATM   40  O   UNL     1     -10.857  16.458  67.183  1.00  0.00    -0.279 OA 
ENDBRANCH  27  28
ENDBRANCH   7  27
BRANCH  15  41
HETATM   41  C   UNL     1      -6.786  11.244  66.531  1.00  0.00    -0.105 C  
HETATM   42  H   UNL     1      -5.008  11.562  67.446  1.00  0.00     0.000 HD 
HETATM   43  O   UNL     1      -5.918  11.382  67.653  1.00  0.00    -0.047 OA 
ENDBRANCH  15  41
BRANCH  21  44
HETATM   44  C   UNL     1      -8.631   4.692  65.879  1.00  0.00    -0.117 C  
HETATM   45  C   UNL     1      -7.812   2.820  64.946  1.00  0.00    -0.081 C  
HETATM   46  O   UNL     1      -7.489   1.650  64.840  1.00  0.00    -0.055 OA 
HETATM   47  O   UNL     1      -7.688   3.746  63.981  1.00  0.00    -0.080 OA 
HETATM   48  C   UNL     1      -8.193   4.984  64.488  1.00  0.00    -0.126 C  
HETATM   49  C   UNL     1      -8.416   3.400  66.137  1.00  0.00    -0.110 C  
ENDBRANCH  21  44
TORSDOF 4
ENDMDL
MODEL       28
REMARK 921   NORMALIZED FREE ENERGY PREDICTED BY IDOCK:   -6.82 KCAL/MOL
REMARK 922        TOTAL FREE ENERGY PREDICTED BY IDOCK:   -9.36 KCAL/MOL
REMARK 923 INTER-LIGAND FREE ENERGY PREDICTED BY IDOCK:   -8.68 KCAL/MOL
REMARK 924 INTRA-LIGAND FREE ENERGY PREDICTED BY IDOCK:   -0.68 KCAL/MOL
REMARK 927      BINDING AFFINITY PREDICTED BY RF-SCORE:    0.00 PKD
ROOT
HETATM    1  C   UNL     1      -8.038  10.687  68.642  1.00  0.00    -0.132 C  
HETATM    2  C   UNL     1      -7.204  11.841  69.188  1.00  0.00    -0.043 C  
HETATM    3  C   UNL     1      -7.964  13.171  68.951  1.00  0.00     0.159 C  
HETATM    4  C   UNL     1      -8.414  13.423  67.468  1.00  0.00    -0.192 C  
HETATM    5  O   UNL     1      -7.206  13.478  66.712  1.00  0.00    -0.257 OA 
HETATM    6  C   UNL     1      -9.163  14.738  67.242  1.00  0.00    -0.211 C  
HETATM    7  C   UNL     1     -10.174  14.963  68.335  1.00  0.00    -0.231 C  
HETATM    8  H   UNL     1      -7.478  13.630  65.815  1.00  0.00     0.000 HD 
HETATM    9  H   UNL     1      -8.796   8.384  70.342  1.00  0.00     0.000 HD 
HETATM   10  C   UNL     1     -11.129  13.763  68.466  1.00  0.00    -0.292 C  
HETATM   11  C   UNL     1     -10.710  12.386  67.822  1.00  0.00    -0.221 C  
HETATM   12  O   UNL     1      -8.958   9.277  70.061  1.00  0.00    -0.163 OA 
HETATM   13  C   UNL     1      -7.769   9.198  69.110  1.00  0.00    -0.081 C  
HETATM   14  O   UNL     1     -11.847  11.874  67.120  1.00  0.00    -0.588 OA 
HETATM   15  C   UNL     1      -9.351  12.275  66.971  1.00  0.00    -0.205 C  
HETATM   16  C   UNL     1      -8.491  10.943  67.170  1.00  0.00    -0.128 C  
HETATM   17  C   UNL     1      -6.998   8.339  70.114  1.00  0.00    -0.040 C  
HETATM   18  C   UNL     1      -7.981   7.002  70.078  1.00  0.00    -0.115 C  
HETATM   19  H   UNL     1     -11.594  11.044  66.732  1.00  0.00     0.000 HD 
HETATM   20  C   UNL     1      -6.623   7.119  67.639  1.00  0.00    -0.056 C  
HETATM   21  C   UNL     1      -8.854   7.134  68.725  1.00  0.00    -0.130 C  
HETATM   22  C   UNL     1      -9.111   9.727  66.498  1.00  0.00    -0.153 C  
HETATM   23  C   UNL     1      -7.879   8.054  67.960  1.00  0.00    -0.126 C  
HETATM   24  H   UNL     1     -10.752   8.579  66.581  1.00  0.00     0.000 HD 
HETATM   25  O   UNL     1     -10.364   9.339  67.001  1.00  0.00    -0.243 OA 
HETATM   26  C   UNL     1      -8.112   8.625  66.584  1.00  0.00    -0.100 C  
ENDROOT
BRANCH   7  27
HETATM   27  O   UNL     1     -10.811  16.191  68.016  1.00  0.00    -0.312 OA 
BRANCH  27  28
HETATM   28  C   UNL     1      -9.991  17.295  67.640  1.00  0.00    -0.297 C  
HETATM   29  C   UNL     1      -9.826  19.536  66.403  1.00  0.00    -0.418 C  
HETATM   30  H   UNL     1     -11.081  21.340  67.656  1.00  0.00     0.000 HD 
HETATM   31  C   UNL     1      -7.513  18.706  68.578  1.00  0.00    -0.326 C  
HETATM   32  O   UNL     1      -8.648  19.369  65.595  1.00  0.00    -0.335 OA 
HETATM   33  C   UNL     1     -10.579  18.198  66.518  1.00  0.00    -0.272 C  
HETATM   34  O   UNL     1     -10.512  17.545  65.231  1.00  0.00    -0.643 OA 
HETATM   35  H   UNL     1      -8.843  18.976  64.753  1.00  0.00     0.000 HD 
HETATM   36  O   UNL     1     -10.736  20.716  68.284  1.00  0.00     0.104 OA 
HETATM   37  C   UNL     1      -9.511  20.169  67.760  1.00  0.00    -0.354 C  
HETATM   38  H   UNL     1     -10.871  18.097  64.545  1.00  0.00     0.000 HD 
HETATM   39  C   UNL     1      -8.955  19.160  68.775  1.00  0.00    -0.346 C  
HETATM   40  O   UNL     1      -9.833  18.040  68.853  1.00  0.00    -0.352 OA 
ENDBRANCH  27  28
ENDBRANCH   7  27
BRANCH  15  41
HETATM   41  C   UNL     1      -9.700  12.355  65.430  1.00  0.00    -0.113 C  
HETATM   42  H   UNL     1     -10.810  13.445  64.134  1.00  0.00     0.000 HD 
HETATM   43  O   UNL     1     -10.601  13.396  65.060  1.00  0.00    -0.319 OA 
ENDBRANCH  15  41
BRANCH  21  44
HETATM   44  C   UNL     1      -9.506   6.022  68.001  1.00  0.00    -0.113 C  
HETATM   45  C   UNL     1     -10.272   4.705  66.349  1.00  0.00    -0.260 C  
HETATM   46  O   UNL     1     -10.741   4.393  65.270  1.00  0.00    -0.262 OA 
HETATM   47  O   UNL     1      -9.889   3.841  67.304  1.00  0.00    -0.163 OA 
HETATM   48  C   UNL     1      -9.379   4.597  68.406  1.00  0.00    -0.137 C  
HETATM   49  C   UNL     1     -10.023   6.077  66.770  1.00  0.00    -0.215 C  
ENDBRANCH  21  44
TORSDOF 4
ENDMDL
MODEL       29
REMARK 921   NORMALIZED FREE ENERGY PREDICTED BY IDOCK:   -6.71 KCAL/MOL
REMARK 922        TOTAL FREE ENERGY PREDICTED BY IDOCK:   -9.23 KCAL/MOL
REMARK 923 INTER-LIGAND FREE ENERGY PREDICTED BY IDOCK:   -8.13 KCAL/MOL
REMARK 924 INTRA-LIGAND FREE ENERGY PREDICTED BY IDOCK:   -1.11 KCAL/MOL
REMARK 927      BINDING AFFINITY PREDICTED BY RF-SCORE:    0.00 PKD
ROOT
HETATM    1  C   UNL     1      -8.732  10.616  69.159  1.00  0.00    -0.135 C  
HETATM    2  C   UNL     1      -7.621  10.150  70.095  1.00  0.00    -0.119 C  
HETATM    3  C   UNL     1      -7.776   8.628  70.346  1.00  0.00    -0.081 C  
HETATM    4  C   UNL     1      -9.193   8.179  70.850  1.00  0.00    -0.151 C  
HETATM    5  O   UNL     1      -9.376   8.842  72.100  1.00  0.00    -0.348 OA 
HETATM    6  C   UNL     1      -9.338   6.677  71.096  1.00  0.00    -0.164 C  
HETATM    7  C   UNL     1      -8.707   5.896  69.973  1.00  0.00    -0.133 C  
HETATM    8  H   UNL     1     -10.233   8.571  72.405  1.00  0.00     0.000 HD 
HETATM    9  H   UNL     1      -8.134  12.036  66.631  1.00  0.00     0.000 HD 
HETATM   10  C   UNL     1      -9.280   6.321  68.610  1.00  0.00    -0.124 C  
HETATM   11  C   UNL     1     -10.048   7.693  68.504  1.00  0.00    -0.190 C  
HETATM   12  O   UNL     1      -8.210  11.218  67.107  1.00  0.00    -0.137 OA 
HETATM   13  C   UNL     1      -8.606  11.980  68.366  1.00  0.00    -0.147 C  
HETATM   14  O   UNL     1     -11.245   7.462  67.755  1.00  0.00    -0.497 OA 
HETATM   15  C   UNL     1     -10.299   8.580  69.821  1.00  0.00    -0.212 C  
HETATM   16  C   UNL     1     -10.140  10.161  69.659  1.00  0.00    -0.265 C  
HETATM   17  C   UNL     1      -7.647  13.115  68.004  1.00  0.00    -0.144 C  
HETATM   18  C   UNL     1      -8.414  13.638  66.629  1.00  0.00     0.138 C  
HETATM   19  H   UNL     1     -11.708   8.289  67.692  1.00  0.00     0.000 HD 
HETATM   20  C   UNL     1     -10.007  14.356  68.809  1.00  0.00    -0.223 C  
HETATM   21  C   UNL     1      -9.913  13.041  66.707  1.00  0.00    -0.245 C  
HETATM   22  C   UNL     1     -11.295  10.802  68.904  1.00  0.00    -0.284 C  
HETATM   23  C   UNL     1      -9.966  12.862  68.239  1.00  0.00    -0.234 C  
HETATM   24  H   UNL     1     -12.163  10.789  67.098  1.00  0.00     0.000 HD 
HETATM   25  O   UNL     1     -11.442  10.389  67.569  1.00  0.00    -0.386 OA 
HETATM   26  C   UNL     1     -11.121  12.278  69.012  1.00  0.00    -0.289 C  
ENDROOT
BRANCH   7  27
HETATM   27  O   UNL     1      -8.913   4.529  70.300  1.00  0.00    -0.084 OA 
BRANCH  27  28
HETATM   28  C   UNL     1      -8.624   4.105  71.629  1.00  0.00    -0.107 C  
HETATM   29  C   UNL     1      -8.439   2.146  73.276  1.00  0.00    -0.066 C  
HETATM   30  H   UNL     1      -6.408   0.732  72.753  1.00  0.00     0.000 HD 
HETATM   31  C   UNL     1      -7.061   5.031  74.019  1.00  0.00    -0.082 C  
HETATM   32  O   UNL     1      -9.204   2.605  74.404  1.00  0.00    -0.080 OA 
HETATM   33  C   UNL     1      -9.074   2.655  71.969  1.00  0.00    -0.088 C  
HETATM   34  O   UNL     1     -10.509   2.572  72.118  1.00  0.00    -0.092 OA 
HETATM   35  H   UNL     1     -10.125   2.387  74.326  1.00  0.00     0.000 HD 
HETATM   36  O   UNL     1      -6.221   1.632  72.516  1.00  0.00    -0.009 OA 
HETATM   37  C   UNL     1      -6.955   2.499  73.402  1.00  0.00    -0.031 C  
HETATM   38  H   UNL     1     -10.784   1.687  72.325  1.00  0.00     0.000 HD 
HETATM   39  C   UNL     1      -6.652   3.956  73.019  1.00  0.00    -0.037 C  
HETATM   40  O   UNL     1      -7.200   4.226  71.732  1.00  0.00    -0.051 OA 
ENDBRANCH  27  28
ENDBRANCH   7  27
BRANCH  15  41
HETATM   41  C   UNL     1     -11.774   8.330  70.336  1.00  0.00     0.015 C  
HETATM   42  H   UNL     1     -12.951   8.697  71.942  1.00  0.00     0.000 HD 
HETATM   43  O   UNL     1     -12.065   8.847  71.633  1.00  0.00    -0.304 OA 
ENDBRANCH  15  41
BRANCH  21  44
HETATM   44  C   UNL     1     -11.100  13.579  66.007  1.00  0.00    -0.300 C  
HETATM   45  C   UNL     1     -12.399  14.701  64.557  1.00  0.00    -0.398 C  
HETATM   46  O   UNL     1     -12.765  15.597  63.817  1.00  0.00    -0.611 OA 
HETATM   47  O   UNL     1     -13.061  13.551  64.766  1.00  0.00    -0.680 OA 
HETATM   48  C   UNL     1     -12.299  12.762  65.684  1.00  0.00    -0.382 C  
HETATM   49  C   UNL     1     -11.159  14.724  65.321  1.00  0.00    -0.374 C  
ENDBRANCH  21  44
TORSDOF 4
ENDMDL
MODEL       30
REMARK 921   NORMALIZED FREE ENERGY PREDICTED BY IDOCK:   -6.70 KCAL/MOL
REMARK 922        TOTAL FREE ENERGY PREDICTED BY IDOCK:   -9.22 KCAL/MOL
REMARK 923 INTER-LIGAND FREE ENERGY PREDICTED BY IDOCK:   -8.95 KCAL/MOL
REMARK 924 INTRA-LIGAND FREE ENERGY PREDICTED BY IDOCK:   -0.27 KCAL/MOL
REMARK 927      BINDING AFFINITY PREDICTED BY RF-SCORE:    0.00 PKD
ROOT
HETATM    1  C   UNL     1      -9.801   8.295  70.823  1.00  0.00    -0.205 C  
HETATM    2  C   UNL     1     -10.378   9.706  70.891  1.00  0.00    -0.334 C  
HETATM    3  C   UNL     1     -10.359  10.330  69.472  1.00  0.00    -0.267 C  
HETATM    4  C   UNL     1      -8.964  10.301  68.753  1.00  0.00    -0.155 C  
HETATM    5  O   UNL     1      -8.099  11.081  69.578  1.00  0.00    -0.371 OA 
HETATM    6  C   UNL     1      -8.952  10.919  67.354  1.00  0.00    -0.136 C  
HETATM    7  C   UNL     1     -10.160  10.473  66.572  1.00  0.00    -0.225 C  
HETATM    8  H   UNL     1      -7.255  11.063  69.143  1.00  0.00     0.000 HD 
HETATM    9  H   UNL     1     -11.320   5.952  71.809  1.00  0.00     0.000 HD 
HETATM   10  C   UNL     1     -10.260   8.937  66.531  1.00  0.00    -0.319 C  
HETATM   11  C   UNL     1      -9.437   8.095  67.578  1.00  0.00    -0.152 C  
HETATM   12  O   UNL     1     -11.151   6.581  71.117  1.00  0.00    -0.256 OA 
HETATM   13  C   UNL     1     -10.082   7.247  71.976  1.00  0.00    -0.184 C  
HETATM   14  O   UNL     1      -8.804   7.024  66.870  1.00  0.00    -0.118 OA 
HETATM   15  C   UNL     1      -8.446   8.833  68.607  1.00  0.00    -0.129 C  
HETATM   16  C   UNL     1      -8.417   8.268  70.101  1.00  0.00    -0.126 C  
HETATM   17  C   UNL     1     -10.908   6.990  73.238  1.00  0.00    -0.345 C  
HETATM   18  C   UNL     1     -10.832   5.332  73.231  1.00  0.00    -0.349 C  
HETATM   19  H   UNL     1      -8.307   6.517  67.502  1.00  0.00     0.000 HD 
HETATM   20  C   UNL     1      -8.294   6.291  73.897  1.00  0.00    -0.116 C  
HETATM   21  C   UNL     1      -9.595   4.952  72.263  1.00  0.00    -0.193 C  
HETATM   22  C   UNL     1      -7.688   6.938  70.221  1.00  0.00    -0.100 C  
HETATM   23  C   UNL     1      -8.836   6.290  72.393  1.00  0.00    -0.131 C  
HETATM   24  H   UNL     1      -7.816   5.039  69.596  1.00  0.00     0.000 HD 
HETATM   25  O   UNL     1      -8.271   5.870  69.521  1.00  0.00    -0.110 OA 
HETATM   26  C   UNL     1      -7.558   6.643  71.676  1.00  0.00    -0.093 C  
ENDROOT
BRANCH   7  27
HETATM   27  O   UNL     1     -10.036  11.090  65.299  1.00  0.00    -0.245 OA 
BRANCH  27  28
HETATM   28  C   UNL     1     -10.570  12.401  65.134  1.00  0.00    -0.292 C  
HETATM   29  C   UNL     1     -12.651  13.902  65.158  1.00  0.00    -0.434 C  
HETATM   30  H   UNL     1     -13.480  14.236  67.524  1.00  0.00     0.000 HD 
HETATM   31  C   UNL     1      -9.667  15.258  65.305  1.00  0.00    -0.152 C  
HETATM   32  O   UNL     1     -12.544  14.616  63.914  1.00  0.00    -0.931 OA 
HETATM   33  C   UNL     1     -12.118  12.467  64.988  1.00  0.00    -0.446 C  
HETATM   34  O   UNL     1     -12.543  11.993  63.691  1.00  0.00    -0.568 OA 
HETATM   35  H   UNL     1     -12.951  14.148  63.196  1.00  0.00     0.000 HD 
HETATM   36  O   UNL     1     -12.536  14.133  67.544  1.00  0.00    -0.174 OA 
HETATM   37  C   UNL     1     -11.993  14.656  66.317  1.00  0.00    -0.251 C  
HETATM   38  H   UNL     1     -13.488  12.033  63.602  1.00  0.00     0.000 HD 
HETATM   39  C   UNL     1     -10.467  14.489  66.348  1.00  0.00    -0.295 C  
HETATM   40  O   UNL     1     -10.146  13.100  66.310  1.00  0.00    -0.272 OA 
ENDBRANCH  27  28
ENDBRANCH   7  27
BRANCH  15  41
HETATM   41  C   UNL     1      -6.965   8.728  68.060  1.00  0.00    -0.078 C  
HETATM   42  H   UNL     1      -5.073   9.238  68.568  1.00  0.00     0.000 HD 
HETATM   43  O   UNL     1      -5.962   9.301  68.896  1.00  0.00    -0.043 OA 
ENDBRANCH  15  41
BRANCH  21  44
HETATM   44  C   UNL     1      -8.828   3.688  72.290  1.00  0.00    -0.117 C  
HETATM   45  C   UNL     1      -7.265   2.128  71.877  1.00  0.00    -0.038 C  
HETATM   46  O   UNL     1      -6.447   1.476  71.253  1.00  0.00    -0.018 OA 
HETATM   47  O   UNL     1      -7.552   1.966  73.180  1.00  0.00    -0.035 OA 
HETATM   48  C   UNL     1      -8.546   2.930  73.537  1.00  0.00    -0.073 C  
HETATM   49  C   UNL     1      -8.051   3.215  71.312  1.00  0.00    -0.067 C  
ENDBRANCH  21  44
TORSDOF 4
ENDMDL
MODEL       31
REMARK 921   NORMALIZED FREE ENERGY PREDICTED BY IDOCK:   -6.58 KCAL/MOL
REMARK 922        TOTAL FREE ENERGY PREDICTED BY IDOCK:   -9.07 KCAL/MOL
REMARK 923 INTER-LIGAND FREE ENERGY PREDICTED BY IDOCK:   -8.47 KCAL/MOL
REMARK 924 INTRA-LIGAND FREE ENERGY PREDICTED BY IDOCK:   -0.60 KCAL/MOL
REMARK 927      BINDING AFFINITY PREDICTED BY RF-SCORE:    0.00 PKD
ROOT
HETATM    1  C   UNL     1      -8.666   9.197  67.736  1.00  0.00    -0.121 C  
HETATM    2  C   UNL     1      -7.971   9.468  66.405  1.00  0.00    -0.111 C  
HETATM    3  C   UNL     1      -8.160  10.961  66.031  1.00  0.00    -0.142 C  
HETATM    4  C   UNL     1      -9.647  11.462  66.028  1.00  0.00    -0.221 C  
HETATM    5  O   UNL     1     -10.306  10.682  65.031  1.00  0.00    -0.310 OA 
HETATM    6  C   UNL     1      -9.825  12.935  65.657  1.00  0.00    -0.185 C  
HETATM    7  C   UNL     1      -8.795  13.782  66.357  1.00  0.00     0.126 C  
HETATM    8  H   UNL     1     -11.206  10.985  65.030  1.00  0.00     0.000 HD 
HETATM    9  H   UNL     1      -7.211   8.020  70.031  1.00  0.00     0.000 HD 
HETATM   10  C   UNL     1      -8.830  13.556  67.879  1.00  0.00    -0.190 C  
HETATM   11  C   UNL     1      -9.546  12.268  68.439  1.00  0.00    -0.183 C  
HETATM   12  O   UNL     1      -7.433   8.785  69.513  1.00  0.00    -0.072 OA 
HETATM   13  C   UNL     1      -8.296   7.922  68.599  1.00  0.00    -0.128 C  
HETATM   14  O   UNL     1     -10.368  12.674  69.538  1.00  0.00    -0.241 OA 
HETATM   15  C   UNL     1     -10.300  11.265  67.435  1.00  0.00    -0.233 C  
HETATM   16  C   UNL     1     -10.143   9.703  67.733  1.00  0.00    -0.232 C  
HETATM   17  C   UNL     1      -7.308   6.762  68.729  1.00  0.00    -0.094 C  
HETATM   18  C   UNL     1      -7.521   6.456  70.346  1.00  0.00    -0.094 C  
HETATM   19  H   UNL     1     -10.800  11.898  69.875  1.00  0.00     0.000 HD 
HETATM   20  C   UNL     1      -9.836   5.630  69.018  1.00  0.00    -0.210 C  
HETATM   21  C   UNL     1      -8.920   7.157  70.746  1.00  0.00    -0.152 C  
HETATM   22  C   UNL     1     -10.952   9.242  68.937  1.00  0.00    -0.017 C  
HETATM   23  C   UNL     1      -9.537   7.169  69.332  1.00  0.00    -0.153 C  
HETATM   24  H   UNL     1     -11.080   9.522  70.917  1.00  0.00     0.000 HD 
HETATM   25  O   UNL     1     -10.575   9.810  70.165  1.00  0.00    -0.243 OA 
HETATM   26  C   UNL     1     -10.878   7.754  68.967  1.00  0.00    -0.042 C  
ENDROOT
BRANCH   7  27
HETATM   27  O   UNL     1      -9.064  15.117  65.953  1.00  0.00    -0.259 OA 
BRANCH  27  28
HETATM   28  C   UNL     1      -9.138  16.122  66.961  1.00  0.00    -0.209 C  
HETATM   29  C   UNL     1      -8.843  18.598  67.563  1.00  0.00    -0.270 C  
HETATM   30  H   UNL     1     -10.680  19.993  66.524  1.00  0.00     0.000 HD 
HETATM   31  C   UNL     1     -10.552  16.633  69.558  1.00  0.00    -0.308 C  
HETATM   32  O   UNL     1      -8.038  18.543  68.753  1.00  0.00    -0.315 OA 
HETATM   33  C   UNL     1      -8.438  17.465  66.602  1.00  0.00    -0.261 C  
HETATM   34  O   UNL     1      -7.001  17.337  66.655  1.00  0.00    -0.186 OA 
HETATM   35  H   UNL     1      -7.108  18.532  68.558  1.00  0.00     0.000 HD 
HETATM   36  O   UNL     1     -11.026  19.130  66.721  1.00  0.00    -0.363 OA 
HETATM   37  C   UNL     1     -10.341  18.616  67.878  1.00  0.00    -0.398 C  
HETATM   38  H   UNL     1      -6.573  18.157  66.436  1.00  0.00     0.000 HD 
HETATM   39  C   UNL     1     -10.901  17.222  68.197  1.00  0.00    -0.294 C  
HETATM   40  O   UNL     1     -10.544  16.322  67.150  1.00  0.00    -0.312 OA 
ENDBRANCH  27  28
ENDBRANCH   7  27
BRANCH  15  41
HETATM   41  C   UNL     1     -11.852  11.572  67.469  1.00  0.00    -0.078 C  
HETATM   42  H   UNL     1     -13.341  12.234  66.267  1.00  0.00     0.000 HD 
HETATM   43  O   UNL     1     -12.409  12.050  66.247  1.00  0.00    -0.432 OA 
ENDBRANCH  15  41
BRANCH  21  44
HETATM   44  C   UNL     1      -9.776   6.793  71.897  1.00  0.00    -0.160 C  
HETATM   45  C   UNL     1     -10.675   5.663  73.618  1.00  0.00    -0.267 C  
HETATM   46  O   UNL     1     -11.068   4.715  74.273  1.00  0.00    -0.287 OA 
HETATM   47  O   UNL     1     -10.703   6.945  74.019  1.00  0.00    -0.277 OA 
HETATM   48  C   UNL     1     -10.140   7.747  72.978  1.00  0.00    -0.320 C  
HETATM   49  C   UNL     1     -10.082   5.555  72.292  1.00  0.00    -0.225 C  
ENDBRANCH  21  44
TORSDOF 4
ENDMDL
MODEL       32
REMARK 921   NORMALIZED FREE ENERGY PREDICTED BY IDOCK:   -6.57 KCAL/MOL
REMARK 922        TOTAL FREE ENERGY PREDICTED BY IDOCK:   -9.06 KCAL/MOL
REMARK 923 INTER-LIGAND FREE ENERGY PREDICTED BY IDOCK:   -8.24 KCAL/MOL
REMARK 924 INTRA-LIGAND FREE ENERGY PREDICTED BY IDOCK:   -0.82 KCAL/MOL
REMARK 927      BINDING AFFINITY PREDICTED BY RF-SCORE:    0.00 PKD
ROOT
HETATM    1  C   UNL     1      -7.824  11.579  68.717  1.00  0.00    -0.117 C  
HETATM    2  C   UNL     1      -7.571  10.342  69.572  1.00  0.00    -0.150 C  
HETATM    3  C   UNL     1      -8.348   9.143  68.971  1.00  0.00    -0.127 C  
HETATM    4  C   UNL     1      -9.881   9.393  68.741  1.00  0.00    -0.163 C  
HETATM    5  O   UNL     1     -10.419   9.648  70.037  1.00  0.00    -0.222 OA 
HETATM    6  C   UNL     1     -10.641   8.206  68.148  1.00  0.00    -0.168 C  
HETATM    7  C   UNL     1      -9.851   7.582  67.028  1.00  0.00    -0.214 C  
HETATM    8  H   UNL     1     -11.346   9.800  69.898  1.00  0.00     0.000 HD 
HETATM    9  H   UNL     1      -5.593  13.133  67.543  1.00  0.00     0.000 HD 
HETATM   10  C   UNL     1      -9.477   8.627  65.961  1.00  0.00    -0.278 C  
HETATM   11  C   UNL     1      -9.557  10.156  66.336  1.00  0.00    -0.191 C  
HETATM   12  O   UNL     1      -6.176  12.384  67.499  1.00  0.00    -0.117 OA 
HETATM   13  C   UNL     1      -6.853  12.828  68.790  1.00  0.00    -0.096 C  
HETATM   14  O   UNL     1     -10.213  10.831  65.258  1.00  0.00    -0.271 OA 
HETATM   15  C   UNL     1     -10.106  10.605  67.778  1.00  0.00    -0.203 C  
HETATM   16  C   UNL     1      -9.348  11.822  68.484  1.00  0.00    -0.158 C  
HETATM   17  C   UNL     1      -5.517  13.324  69.345  1.00  0.00    -0.079 C  
HETATM   18  C   UNL     1      -5.257  14.553  68.260  1.00  0.00    -0.113 C  
HETATM   19  H   UNL     1     -10.262  11.753  65.485  1.00  0.00     0.000 HD 
HETATM   20  C   UNL     1      -7.360  15.329  69.928  1.00  0.00    -0.068 C  
HETATM   21  C   UNL     1      -6.694  14.855  67.585  1.00  0.00    -0.200 C  
HETATM   22  C   UNL     1      -9.665  13.169  67.850  1.00  0.00    -0.221 C  
HETATM   23  C   UNL     1      -7.563  14.290  68.728  1.00  0.00    -0.130 C  
HETATM   24  H   UNL     1      -9.457  14.153  66.117  1.00  0.00     0.000 HD 
HETATM   25  O   UNL     1      -9.259  13.312  66.513  1.00  0.00    -0.240 OA 
HETATM   26  C   UNL     1      -9.068  14.214  68.728  1.00  0.00    -0.071 C  
ENDROOT
BRANCH   7  27
HETATM   27  O   UNL     1     -10.652   6.511  66.549  1.00  0.00    -0.172 OA 
BRANCH  27  28
HETATM   28  C   UNL     1     -10.140   5.186  66.662  1.00  0.00    -0.237 C  
HETATM   29  C   UNL     1      -8.923   3.240  65.516  1.00  0.00    -0.142 C  
HETATM   30  H   UNL     1      -6.476   3.788  65.188  1.00  0.00     0.000 HD 
HETATM   31  C   UNL     1      -9.180   3.297  68.787  1.00  0.00    -0.228 C  
HETATM   32  O   UNL     1      -9.773   2.117  65.808  1.00  0.00    -0.337 OA 
HETATM   33  C   UNL     1      -9.776   4.505  65.311  1.00  0.00    -0.172 C  
HETATM   34  O   UNL     1     -10.962   4.121  64.582  1.00  0.00    -0.625 OA 
HETATM   35  H   UNL     1     -10.457   2.006  65.157  1.00  0.00     0.000 HD 
HETATM   36  O   UNL     1      -6.782   4.222  65.975  1.00  0.00    -0.047 OA 
HETATM   37  C   UNL     1      -7.822   3.418  66.565  1.00  0.00    -0.081 C  
HETATM   38  H   UNL     1     -10.740   3.705  63.757  1.00  0.00     0.000 HD 
HETATM   39  C   UNL     1      -8.317   4.119  67.838  1.00  0.00    -0.094 C  
HETATM   40  O   UNL     1      -8.973   5.333  67.481  1.00  0.00    -0.110 OA 
ENDBRANCH  27  28
ENDBRANCH   7  27
BRANCH  15  41
HETATM   41  C   UNL     1     -11.620  11.040  67.640  1.00  0.00    -0.143 C  
HETATM   42  H   UNL     1     -13.204  11.570  68.785  1.00  0.00     0.000 HD 
HETATM   43  O   UNL     1     -12.295  11.307  68.868  1.00  0.00    -0.485 OA 
ENDBRANCH  15  41
BRANCH  21  44
HETATM   44  C   UNL     1      -7.099  16.121  66.936  1.00  0.00    -0.222 C  
HETATM   45  C   UNL     1      -7.081  17.966  65.653  1.00  0.00    -0.063 C  
HETATM   46  O   UNL     1      -6.642  18.942  65.073  1.00  0.00    -0.476 OA 
HETATM   47  O   UNL     1      -8.358  17.551  65.612  1.00  0.00    -0.479 OA 
HETATM   48  C   UNL     1      -8.466  16.367  66.406  1.00  0.00    -0.329 C  
HETATM   49  C   UNL     1      -6.278  17.067  66.470  1.00  0.00    -0.205 C  
ENDBRANCH  21  44
TORSDOF 4
ENDMDL
MODEL       33
REMARK 921   NORMALIZED FREE ENERGY PREDICTED BY IDOCK:   -6.55 KCAL/MOL
REMARK 922        TOTAL FREE ENERGY PREDICTED BY IDOCK:   -9.03 KCAL/MOL
REMARK 923 INTER-LIGAND FREE ENERGY PREDICTED BY IDOCK:   -7.90 KCAL/MOL
REMARK 924 INTRA-LIGAND FREE ENERGY PREDICTED BY IDOCK:   -1.13 KCAL/MOL
REMARK 927      BINDING AFFINITY PREDICTED BY RF-SCORE:    0.00 PKD
ROOT
HETATM    1  C   UNL     1     -10.255  10.524  66.775  1.00  0.00    -0.288 C  
HETATM    2  C   UNL     1     -10.367   9.229  65.978  1.00  0.00    -0.009 C  
HETATM    3  C   UNL     1     -10.038   8.033  66.907  1.00  0.00    -0.362 C  
HETATM    4  C   UNL     1      -8.668   8.138  67.665  1.00  0.00    -0.130 C  
HETATM    5  O   UNL     1      -7.673   8.174  66.643  1.00  0.00    -0.091 OA 
HETATM    6  C   UNL     1      -8.350   6.954  68.580  1.00  0.00    -0.121 C  
HETATM    7  C   UNL     1      -9.568   6.560  69.373  1.00  0.00    -0.144 C  
HETATM    8  H   UNL     1      -6.844   8.238  67.101  1.00  0.00     0.000 HD 
HETATM    9  H   UNL     1     -12.504  12.444  66.933  1.00  0.00     0.000 HD 
HETATM   10  C   UNL     1     -10.138   7.760  70.150  1.00  0.00    -0.197 C  
HETATM   11  C   UNL     1      -9.707   9.215  69.722  1.00  0.00    -0.181 C  
HETATM   12  O   UNL     1     -12.091  11.646  67.241  1.00  0.00    -0.595 OA 
HETATM   13  C   UNL     1     -10.943  11.855  66.261  1.00  0.00    -0.302 C  
HETATM   14  O   UNL     1      -9.384   9.938  70.914  1.00  0.00    -0.309 OA 
HETATM   15  C   UNL     1      -8.623   9.424  68.553  1.00  0.00    -0.123 C  
HETATM   16  C   UNL     1      -8.894  10.623  67.534  1.00  0.00    -0.132 C  
HETATM   17  C   UNL     1     -11.908  12.425  65.220  1.00  0.00    -0.451 C  
HETATM   18  C   UNL     1     -12.352  13.796  66.042  1.00  0.00    -0.499 C  
HETATM   19  H   UNL     1      -9.124  10.815  70.656  1.00  0.00     0.000 HD 
HETATM   20  C   UNL     1      -9.705  14.129  65.212  1.00  0.00    -0.060 C  
HETATM   21  C   UNL     1     -11.220  14.017  67.174  1.00  0.00    -0.327 C  
HETATM   22  C   UNL     1      -8.629  11.993  68.141  1.00  0.00    -0.173 C  
HETATM   23  C   UNL     1     -10.095  13.227  66.474  1.00  0.00    -0.275 C  
HETATM   24  H   UNL     1      -9.291  13.196  69.601  1.00  0.00     0.000 HD 
HETATM   25  O   UNL     1      -9.457  12.340  69.221  1.00  0.00     0.428 OA 
HETATM   26  C   UNL     1      -8.717  12.985  67.033  1.00  0.00    -0.195 C  
ENDROOT
BRANCH   7  27
HETATM   27  O   UNL     1      -9.154   5.473  70.188  1.00  0.00    -0.132 OA 
BRANCH  27  28
HETATM   28  C   UNL     1      -9.108   5.670  71.599  1.00  0.00    -0.139 C  
HETATM   29  C   UNL     1      -9.877   4.876  73.914  1.00  0.00    -0.153 C  
HETATM   30  H   UNL     1      -8.748   2.698  74.529  1.00  0.00     0.000 HD 
HETATM   31  C   UNL     1      -7.309   6.903  73.661  1.00  0.00    -0.083 C  
HETATM   32  O   UNL     1     -10.343   6.090  74.529  1.00  0.00    -0.289 OA 
HETATM   33  C   UNL     1     -10.190   4.897  72.406  1.00  0.00    -0.199 C  
HETATM   34  O   UNL     1     -11.495   5.492  72.238  1.00  0.00    -0.242 OA 
HETATM   35  H   UNL     1     -11.258   6.260  74.338  1.00  0.00     0.000 HD 
HETATM   36  O   UNL     1      -8.157   3.204  73.983  1.00  0.00    -0.068 OA 
HETATM   37  C   UNL     1      -8.402   4.603  74.220  1.00  0.00    -0.098 C  
HETATM   38  H   UNL     1     -12.156   5.020  72.731  1.00  0.00     0.000 HD 
HETATM   39  C   UNL     1      -7.447   5.420  73.338  1.00  0.00    -0.096 C  
HETATM   40  O   UNL     1      -7.795   5.231  71.969  1.00  0.00    -0.104 OA 
ENDBRANCH  27  28
ENDBRANCH   7  27
BRANCH  15  41
HETATM   41  C   UNL     1      -7.210   9.703  69.206  1.00  0.00    -0.069 C  
HETATM   42  H   UNL     1      -5.255   9.846  68.698  1.00  0.00     0.000 HD 
HETATM   43  O   UNL     1      -6.104   9.678  68.306  1.00  0.00    -0.050 OA 
ENDBRANCH  15  41
BRANCH  21  44
HETATM   44  C   UNL     1     -10.891  15.300  67.834  1.00  0.00    -0.288 C  
HETATM   45  C   UNL     1     -10.780  17.493  68.305  1.00  0.00    -0.309 C  
HETATM   46  O   UNL     1     -10.721  18.695  68.115  1.00  0.00    -0.300 OA 
HETATM   47  O   UNL     1     -10.837  16.903  69.511  1.00  0.00    -0.303 OA 
HETATM   48  C   UNL     1     -10.914  15.489  69.308  1.00  0.00    -0.268 C  
HETATM   49  C   UNL     1     -10.828  16.496  67.245  1.00  0.00    -0.173 C  
ENDBRANCH  21  44
TORSDOF 4
ENDMDL
MODEL       34
REMARK 921   NORMALIZED FREE ENERGY PREDICTED BY IDOCK:   -6.54 KCAL/MOL
REMARK 922        TOTAL FREE ENERGY PREDICTED BY IDOCK:   -9.02 KCAL/MOL
REMARK 923 INTER-LIGAND FREE ENERGY PREDICTED BY IDOCK:   -8.04 KCAL/MOL
REMARK 924 INTRA-LIGAND FREE ENERGY PREDICTED BY IDOCK:   -0.98 KCAL/MOL
REMARK 927      BINDING AFFINITY PREDICTED BY RF-SCORE:    0.00 PKD
ROOT
HETATM    1  C   UNL     1      -8.201   8.961  70.619  1.00  0.00    -0.183 C  
HETATM    2  C   UNL     1      -7.346  10.040  69.961  1.00  0.00    -0.172 C  
HETATM    3  C   UNL     1      -8.267  11.002  69.169  1.00  0.00    -0.052 C  
HETATM    4  C   UNL     1      -9.227  10.307  68.141  1.00  0.00    -0.136 C  
HETATM    5  O   UNL     1      -8.369   9.662  67.201  1.00  0.00    -0.119 OA 
HETATM    6  C   UNL     1     -10.133  11.263  67.363  1.00  0.00    -0.214 C  
HETATM    7  C   UNL     1     -10.717  12.302  68.284  1.00  0.00    -0.221 C  
HETATM    8  H   UNL     1      -8.951   9.241  66.579  1.00  0.00     0.000 HD 
HETATM    9  H   UNL     1      -8.091   8.465  73.536  1.00  0.00     0.000 HD 
HETATM   10  C   UNL     1     -11.445  11.646  69.471  1.00  0.00    -0.371 C  
HETATM   11  C   UNL     1     -11.144  10.135  69.805  1.00  0.00    -0.279 C  
HETATM   12  O   UNL     1      -8.427   8.975  72.809  1.00  0.00    -0.283 OA 
HETATM   13  C   UNL     1      -7.641   8.110  71.831  1.00  0.00    -0.097 C  
HETATM   14  O   UNL     1     -12.398   9.485  70.032  1.00  0.00    -0.383 OA 
HETATM   15  C   UNL     1     -10.162   9.281  68.861  1.00  0.00    -0.217 C  
HETATM   16  C   UNL     1      -9.161   8.276  69.596  1.00  0.00    -0.154 C  
HETATM   17  C   UNL     1      -6.489   7.991  72.831  1.00  0.00    -0.082 C  
HETATM   18  C   UNL     1      -7.288   7.131  74.004  1.00  0.00    -0.106 C  
HETATM   19  H   UNL     1     -12.217   8.574  70.233  1.00  0.00     0.000 HD 
HETATM   20  C   UNL     1      -6.882   5.422  71.831  1.00  0.00    -0.062 C  
HETATM   21  C   UNL     1      -8.586   6.498  73.279  1.00  0.00    -0.127 C  
HETATM   22  C   UNL     1      -9.854   7.036  70.141  1.00  0.00    -0.175 C  
HETATM   23  C   UNL     1      -8.033   6.531  71.838  1.00  0.00    -0.103 C  
HETATM   24  H   UNL     1     -11.242   6.500  71.482  1.00  0.00     0.000 HD 
HETATM   25  O   UNL     1     -10.809   7.275  71.142  1.00  0.00    -0.238 OA 
HETATM   26  C   UNL     1      -8.785   6.107  70.603  1.00  0.00    -0.139 C  
ENDROOT
BRANCH   7  27
HETATM   27  O   UNL     1     -11.542  13.116  67.463  1.00  0.00    -0.310 OA 
BRANCH  27  28
HETATM   28  C   UNL     1     -11.166  14.477  67.273  1.00  0.00    -0.332 C  
HETATM   29  C   UNL     1      -9.809  16.480  68.129  1.00  0.00    -0.244 C  
HETATM   30  H   UNL     1      -7.336  16.104  67.755  1.00  0.00     0.000 HD 
HETATM   31  C   UNL     1     -10.949  16.484  65.051  1.00  0.00    -0.222 C  
HETATM   32  O   UNL     1     -10.777  17.544  68.129  1.00  0.00    -0.381 OA 
HETATM   33  C   UNL     1     -10.490  15.150  68.503  1.00  0.00    -0.233 C  
HETATM   34  O   UNL     1     -11.453  15.429  69.543  1.00  0.00    -0.275 OA 
HETATM   35  H   UNL     1     -11.261  17.588  68.944  1.00  0.00     0.000 HD 
HETATM   36  O   UNL     1      -7.818  15.669  67.062  1.00  0.00    -0.200 OA 
HETATM   37  C   UNL     1      -9.029  16.408  66.813  1.00  0.00    -0.236 C  
HETATM   38  H   UNL     1     -11.040  15.839  70.294  1.00  0.00     0.000 HD 
HETATM   39  C   UNL     1      -9.808  15.704  65.693  1.00  0.00    -0.333 C  
HETATM   40  O   UNL     1     -10.262  14.437  66.163  1.00  0.00    -0.284 OA 
ENDBRANCH  27  28
ENDBRANCH   7  27
BRANCH  15  41
HETATM   41  C   UNL     1     -11.032   8.403  67.874  1.00  0.00     0.178 C  
HETATM   42  H   UNL     1     -10.844   7.302  66.185  1.00  0.00     0.000 HD 
HETATM   43  O   UNL     1     -10.322   7.830  66.778  1.00  0.00    -0.301 OA 
ENDBRANCH  15  41
BRANCH  21  44
HETATM   44  C   UNL     1      -9.337   5.306  73.730  1.00  0.00    -0.132 C  
HETATM   45  C   UNL     1     -10.723   3.538  73.757  1.00  0.00    -0.220 C  
HETATM   46  O   UNL     1     -11.704   2.859  73.511  1.00  0.00    -0.153 OA 
HETATM   47  O   UNL     1      -9.678   3.145  74.503  1.00  0.00    -0.099 OA 
HETATM   48  C   UNL     1      -8.731   4.216  74.539  1.00  0.00    -0.094 C  
HETATM   49  C   UNL     1     -10.514   4.889  73.255  1.00  0.00    -0.260 C  
ENDBRANCH  21  44
TORSDOF 4
ENDMDL
MODEL       35
REMARK 921   NORMALIZED FREE ENERGY PREDICTED BY IDOCK:   -6.50 KCAL/MOL
REMARK 922        TOTAL FREE ENERGY PREDICTED BY IDOCK:   -8.97 KCAL/MOL
REMARK 923 INTER-LIGAND FREE ENERGY PREDICTED BY IDOCK:   -8.02 KCAL/MOL
REMARK 924 INTRA-LIGAND FREE ENERGY PREDICTED BY IDOCK:   -0.95 KCAL/MOL
REMARK 927      BINDING AFFINITY PREDICTED BY RF-SCORE:    0.00 PKD
ROOT
HETATM    1  C   UNL     1     -10.045  11.247  66.185  1.00  0.00    -0.279 C  
HETATM    2  C   UNL     1      -9.593  10.589  64.885  1.00  0.00    -0.334 C  
HETATM    3  C   UNL     1      -9.470   9.060  65.107  1.00  0.00    -0.007 C  
HETATM    4  C   UNL     1      -8.571   8.635  66.321  1.00  0.00    -0.137 C  
HETATM    5  O   UNL     1      -7.269   9.132  66.017  1.00  0.00    -0.091 OA 
HETATM    6  C   UNL     1      -8.455   7.125  66.533  1.00  0.00    -0.125 C  
HETATM    7  C   UNL     1      -9.802   6.467  66.387  1.00  0.00    -0.052 C  
HETATM    8  H   UNL     1      -6.725   8.875  66.752  1.00  0.00     0.000 HD 
HETATM    9  H   UNL     1     -12.458  12.959  66.298  1.00  0.00     0.000 HD 
HETATM   10  C   UNL     1     -10.839   7.109  67.325  1.00  0.00    -0.382 C  
HETATM   11  C   UNL     1     -10.532   8.528  67.939  1.00  0.00    -0.201 C  
HETATM   12  O   UNL     1     -12.075  12.089  66.300  1.00  0.00    -0.596 OA 
HETATM   13  C   UNL     1     -10.682  12.696  66.183  1.00  0.00    -0.267 C  
HETATM   14  O   UNL     1     -10.855   8.476  69.332  1.00  0.00    -0.358 OA 
HETATM   15  C   UNL     1      -9.119   9.241  67.654  1.00  0.00    -0.136 C  
HETATM   16  C   UNL     1      -9.154  10.817  67.393  1.00  0.00    -0.148 C  
HETATM   17  C   UNL     1     -11.220  13.808  65.282  1.00  0.00    -0.311 C  
HETATM   18  C   UNL     1     -12.193  14.560  66.396  1.00  0.00    -0.274 C  
HETATM   19  H   UNL     1     -10.669   9.331  69.702  1.00  0.00     0.000 HD 
HETATM   20  C   UNL     1      -9.541  15.072  67.109  1.00  0.00    -0.222 C  
HETATM   21  C   UNL     1     -11.681  14.052  67.841  1.00  0.00    -0.397 C  
HETATM   22  C   UNL     1      -9.403  11.625  68.658  1.00  0.00    -0.114 C  
HETATM   23  C   UNL     1     -10.249  13.670  67.411  1.00  0.00    -0.241 C  
HETATM   24  H   UNL     1     -10.802  11.912  70.063  1.00  0.00     0.000 HD 
HETATM   25  O   UNL     1     -10.647  11.407  69.273  1.00  0.00    -0.193 OA 
HETATM   26  C   UNL     1      -9.200  13.059  68.305  1.00  0.00    -0.191 C  
ENDROOT
BRANCH   7  27
HETATM   27  O   UNL     1      -9.575   5.084  66.616  1.00  0.00    -0.134 OA 
BRANCH  27  28
HETATM   28  C   UNL     1      -8.401   4.705  67.329  1.00  0.00    -0.105 C  
HETATM   29  C   UNL     1      -7.317   3.078  68.990  1.00  0.00    -0.048 C  
HETATM   30  H   UNL     1      -6.987   0.807  67.926  1.00  0.00     0.000 HD 
HETATM   31  C   UNL     1      -5.420   4.976  67.102  1.00  0.00    -0.013 C  
HETATM   32  O   UNL     1      -6.680   3.960  69.931  1.00  0.00    -0.033 OA 
HETATM   33  C   UNL     1      -8.635   3.702  68.495  1.00  0.00    -0.091 C  
HETATM   34  O   UNL     1      -9.266   4.347  69.623  1.00  0.00    -0.107 OA 
HETATM   35  H   UNL     1      -7.263   4.213  70.637  1.00  0.00     0.000 HD 
HETATM   36  O   UNL     1      -6.910   1.473  67.253  1.00  0.00    -0.034 OA 
HETATM   37  C   UNL     1      -6.378   2.670  67.852  1.00  0.00    -0.032 C  
HETATM   38  H   UNL     1      -9.409   3.734  70.335  1.00  0.00     0.000 HD 
HETATM   39  C   UNL     1      -6.255   3.746  66.764  1.00  0.00    -0.028 C  
HETATM   40  O   UNL     1      -7.558   4.124  66.327  1.00  0.00    -0.087 OA 
ENDBRANCH  27  28
ENDBRANCH   7  27
BRANCH  15  41
HETATM   41  C   UNL     1      -8.168   9.015  68.899  1.00  0.00    -0.120 C  
HETATM   42  H   UNL     1      -6.222   9.184  69.428  1.00  0.00     0.000 HD 
HETATM   43  O   UNL     1      -6.793   9.320  68.681  1.00  0.00    -0.060 OA 
ENDBRANCH  15  41
BRANCH  21  44
HETATM   44  C   UNL     1     -11.879  14.754  69.129  1.00  0.00    -0.340 C  
HETATM   45  C   UNL     1     -11.870  15.236  71.323  1.00  0.00    -0.361 C  
HETATM   46  O   UNL     1     -11.932  15.057  72.526  1.00  0.00    -0.358 OA 
HETATM   47  O   UNL     1     -11.644  16.419  70.728  1.00  0.00    -0.334 OA 
HETATM   48  C   UNL     1     -11.628  16.208  69.313  1.00  0.00    -0.270 C  
HETATM   49  C   UNL     1     -12.005  14.181  70.328  1.00  0.00    -0.404 C  
ENDBRANCH  21  44
TORSDOF 4
ENDMDL
MODEL       36
REMARK 921   NORMALIZED FREE ENERGY PREDICTED BY IDOCK:   -6.44 KCAL/MOL
REMARK 922        TOTAL FREE ENERGY PREDICTED BY IDOCK:   -8.90 KCAL/MOL
REMARK 923 INTER-LIGAND FREE ENERGY PREDICTED BY IDOCK:   -7.92 KCAL/MOL
REMARK 924 INTRA-LIGAND FREE ENERGY PREDICTED BY IDOCK:   -0.97 KCAL/MOL
REMARK 927      BINDING AFFINITY PREDICTED BY RF-SCORE:    0.00 PKD
ROOT
HETATM    1  C   UNL     1      -9.257   7.584  69.715  1.00  0.00    -0.147 C  
HETATM    2  C   UNL     1      -9.501   8.549  70.871  1.00  0.00    -0.221 C  
HETATM    3  C   UNL     1      -9.985   9.907  70.303  1.00  0.00    -0.261 C  
HETATM    4  C   UNL     1      -9.059  10.534  69.201  1.00  0.00    -0.166 C  
HETATM    5  O   UNL     1      -7.806  10.760  69.845  1.00  0.00    -0.362 OA 
HETATM    6  C   UNL     1      -9.543  11.874  68.645  1.00  0.00    -0.101 C  
HETATM    7  C   UNL     1     -11.025  11.831  68.382  1.00  0.00    -0.231 C  
HETATM    8  H   UNL     1      -7.246  11.138  69.178  1.00  0.00     0.000 HD 
HETATM    9  H   UNL     1     -10.581   4.938  69.603  1.00  0.00     0.000 HD 
HETATM   10  C   UNL     1     -11.393  10.652  67.463  1.00  0.00    -0.241 C  
HETATM   11  C   UNL     1     -10.357   9.477  67.285  1.00  0.00    -0.255 C  
HETATM   12  O   UNL     1     -10.620   5.875  69.454  1.00  0.00    -0.244 OA 
HETATM   13  C   UNL     1      -9.191   6.021  69.964  1.00  0.00    -0.149 C  
HETATM   14  O   UNL     1     -10.280   9.177  65.888  1.00  0.00    -0.361 OA 
HETATM   15  C   UNL     1      -8.912   9.564  67.984  1.00  0.00    -0.123 C  
HETATM   16  C   UNL     1      -8.342   8.212  68.617  1.00  0.00    -0.126 C  
HETATM   17  C   UNL     1      -9.428   4.924  71.003  1.00  0.00    -0.225 C  
HETATM   18  C   UNL     1      -9.645   3.655  69.955  1.00  0.00    -0.238 C  
HETATM   19  H   UNL     1      -9.655   8.469  65.781  1.00  0.00     0.000 HD 
HETATM   20  C   UNL     1      -6.944   4.365  69.874  1.00  0.00    -0.042 C  
HETATM   21  C   UNL     1      -9.026   4.140  68.543  1.00  0.00    -0.159 C  
HETATM   22  C   UNL     1      -7.869   7.216  67.569  1.00  0.00    -0.112 C  
HETATM   23  C   UNL     1      -8.069   5.208  69.113  1.00  0.00    -0.084 C  
HETATM   24  H   UNL     1      -8.573   6.110  66.053  1.00  0.00     0.000 HD 
HETATM   25  O   UNL     1      -8.869   6.732  66.708  1.00  0.00    -0.116 OA 
HETATM   26  C   UNL     1      -7.181   6.112  68.296  1.00  0.00    -0.084 C  
ENDROOT
BRANCH   7  27
HETATM   27  O   UNL     1     -11.356  13.110  67.861  1.00  0.00    -0.255 OA 
BRANCH  27  28
HETATM   28  C   UNL     1     -10.316  14.078  67.747  1.00  0.00    -0.236 C  
HETATM   29  C   UNL     1      -9.329  16.037  66.416  1.00  0.00    -0.298 C  
HETATM   30  H   UNL     1     -10.756  18.107  66.689  1.00  0.00     0.000 HD 
HETATM   31  C   UNL     1      -8.341  15.504  69.500  1.00  0.00    -0.206 C  
HETATM   32  O   UNL     1      -7.950  15.658  66.268  1.00  0.00    -0.273 OA 
HETATM   33  C   UNL     1     -10.226  14.786  66.364  1.00  0.00    -0.291 C  
HETATM   34  O   UNL     1      -9.687  13.902  65.357  1.00  0.00    -0.535 OA 
HETATM   35  H   UNL     1      -7.805  15.126  65.495  1.00  0.00     0.000 HD 
HETATM   36  O   UNL     1     -10.809  17.594  67.487  1.00  0.00    -0.325 OA 
HETATM   37  C   UNL     1      -9.562  16.894  67.663  1.00  0.00    -0.248 C  
HETATM   38  H   UNL     1      -9.632  14.334  64.513  1.00  0.00     0.000 HD 
HETATM   39  C   UNL     1      -9.648  16.064  68.952  1.00  0.00    -0.236 C  
HETATM   40  O   UNL     1     -10.610  15.027  68.779  1.00  0.00    -0.226 OA 
ENDBRANCH  27  28
ENDBRANCH   7  27
BRANCH  15  41
HETATM   41  C   UNL     1      -7.849  10.037  66.912  1.00  0.00    -0.106 C  
HETATM   42  H   UNL     1      -7.676  11.290  65.330  1.00  0.00     0.000 HD 
HETATM   43  O   UNL     1      -8.315  11.005  65.974  1.00  0.00    -0.168 OA 
ENDBRANCH  15  41
BRANCH  21  44
HETATM   44  C   UNL     1      -8.548   3.257  67.456  1.00  0.00    -0.119 C  
HETATM   45  C   UNL     1      -7.650   2.538  65.527  1.00  0.00    -0.076 C  
HETATM   46  O   UNL     1      -7.355   2.527  64.345  1.00  0.00    -0.056 OA 
HETATM   47  O   UNL     1      -7.279   1.611  66.425  1.00  0.00    -0.049 OA 
HETATM   48  C   UNL     1      -7.808   1.991  67.698  1.00  0.00    -0.060 C  
HETATM   49  C   UNL     1      -8.435   3.584  66.166  1.00  0.00    -0.112 C  
ENDBRANCH  21  44
TORSDOF 4
ENDMDL
MODEL       37
REMARK 921   NORMALIZED FREE ENERGY PREDICTED BY IDOCK:   -6.43 KCAL/MOL
REMARK 922        TOTAL FREE ENERGY PREDICTED BY IDOCK:   -8.89 KCAL/MOL
REMARK 923 INTER-LIGAND FREE ENERGY PREDICTED BY IDOCK:   -9.08 KCAL/MOL
REMARK 924 INTRA-LIGAND FREE ENERGY PREDICTED BY IDOCK:    0.19 KCAL/MOL
REMARK 927      BINDING AFFINITY PREDICTED BY RF-SCORE:    0.00 PKD
ROOT
HETATM    1  C   UNL     1     -10.936  12.388  69.572  1.00  0.00     0.013 C  
HETATM    2  C   UNL     1     -11.349  13.755  70.106  1.00  0.00    -0.025 C  
HETATM    3  C   UNL     1     -11.054  14.830  69.029  1.00  0.00    -0.268 C  
HETATM    4  C   UNL     1      -9.583  14.835  68.481  1.00  0.00    -0.218 C  
HETATM    5  O   UNL     1      -8.761  15.122  69.611  1.00  0.00    -0.407 OA 
HETATM    6  C   UNL     1      -9.299  15.898  67.419  1.00  0.00    -0.214 C  
HETATM    7  C   UNL     1     -10.425  15.958  66.420  1.00  0.00    -0.308 C  
HETATM    8  H   UNL     1      -7.871  15.124  69.280  1.00  0.00     0.000 HD 
HETATM    9  H   UNL     1     -12.842  10.124  69.474  1.00  0.00     0.000 HD 
HETATM   10  C   UNL     1     -10.696  14.574  65.803  1.00  0.00    -0.320 C  
HETATM   11  C   UNL     1     -10.135  13.295  66.533  1.00  0.00    -0.275 C  
HETATM   12  O   UNL     1     -12.503  10.921  69.084  1.00  0.00    -0.409 OA 
HETATM   13  C   UNL     1     -11.499  11.059  70.223  1.00  0.00    -0.273 C  
HETATM   14  O   UNL     1      -9.535  12.458  65.539  1.00  0.00    -0.423 OA 
HETATM   15  C   UNL     1      -9.223  13.451  67.847  1.00  0.00    -0.216 C  
HETATM   16  C   UNL     1      -9.475  12.397  69.021  1.00  0.00     0.374 C  
HETATM   17  C   UNL     1     -12.522  10.507  71.217  1.00  0.00    -0.524 C  
HETATM   18  C   UNL     1     -12.638   8.970  70.602  1.00  0.00     0.181 C  
HETATM   19  H   UNL     1      -9.197  11.687  65.979  1.00  0.00     0.000 HD 
HETATM   20  C   UNL     1     -10.128   9.210  71.805  1.00  0.00    -0.279 C  
HETATM   21  C   UNL     1     -11.328   8.765  69.679  1.00  0.00     0.164 C  
HETATM   22  C   UNL     1      -8.930  11.012  68.705  1.00  0.00    -0.167 C  
HETATM   23  C   UNL     1     -10.445   9.829  70.365  1.00  0.00    -0.358 C  
HETATM   24  H   UNL     1      -9.186   9.505  67.409  1.00  0.00     0.000 HD 
HETATM   25  O   UNL     1      -9.526  10.370  67.607  1.00  0.00    -0.147 OA 
HETATM   26  C   UNL     1      -9.045  10.203  69.951  1.00  0.00    -0.110 C  
ENDROOT
BRANCH   7  27
HETATM   27  O   UNL     1     -10.049  16.958  65.485  1.00  0.00    -0.575 OA 
BRANCH  27  28
HETATM   28  C   UNL     1      -9.444  18.149  65.981  1.00  0.00    -0.031 C  
HETATM   29  C   UNL     1      -9.103  19.725  67.977  1.00  0.00    -0.318 C  
HETATM   30  H   UNL     1      -7.607  18.653  69.712  1.00  0.00     0.000 HD 
HETATM   31  C   UNL     1      -7.089  19.914  65.393  1.00  0.00    -0.289 C  
HETATM   32  O   UNL     1      -9.394  21.017  67.416  1.00  0.00    -0.539 OA 
HETATM   33  C   UNL     1     -10.011  18.658  67.337  1.00  0.00    -0.332 C  
HETATM   34  O   UNL     1     -11.322  19.241  67.172  1.00  0.00    -0.160 OA 
HETATM   35  H   UNL     1     -10.317  21.231  67.470  1.00  0.00     0.000 HD 
HETATM   36  O   UNL     1      -7.349  18.340  68.853  1.00  0.00    -0.285 OA 
HETATM   37  C   UNL     1      -7.614  19.379  67.890  1.00  0.00    -0.281 C  
HETATM   38  H   UNL     1     -11.669  19.552  68.001  1.00  0.00     0.000 HD 
HETATM   39  C   UNL     1      -7.198  18.874  66.501  1.00  0.00    -0.229 C  
HETATM   40  O   UNL     1      -8.059  17.807  66.112  1.00  0.00    -0.420 OA 
ENDBRANCH  27  28
ENDBRANCH   7  27
BRANCH  15  41
HETATM   41  C   UNL     1      -7.702  13.310  67.439  1.00  0.00    -0.140 C  
HETATM   42  H   UNL     1      -5.848  13.479  68.235  1.00  0.00     0.000 HD 
HETATM   43  O   UNL     1      -6.762  13.564  68.480  1.00  0.00    -0.080 OA 
ENDBRANCH  15  41
BRANCH  21  44
HETATM   44  C   UNL     1     -10.724   7.467  69.304  1.00  0.00    -0.185 C  
HETATM   45  C   UNL     1     -10.266   5.270  69.217  1.00  0.00    -0.231 C  
HETATM   46  O   UNL     1     -10.106   4.126  69.605  1.00  0.00    -0.121 OA 
HETATM   47  O   UNL     1     -10.146   5.678  67.944  1.00  0.00    -0.144 OA 
HETATM   48  C   UNL     1     -10.427   7.080  67.900  1.00  0.00    -0.214 C  
HETATM   49  C   UNL     1     -10.643   6.382  70.078  1.00  0.00    -0.291 C  
ENDBRANCH  21  44
TORSDOF 4
ENDMDL
MODEL       38
REMARK 921   NORMALIZED FREE ENERGY PREDICTED BY IDOCK:   -6.40 KCAL/MOL
REMARK 922        TOTAL FREE ENERGY PREDICTED BY IDOCK:   -8.84 KCAL/MOL
REMARK 923 INTER-LIGAND FREE ENERGY PREDICTED BY IDOCK:   -7.84 KCAL/MOL
REMARK 924 INTRA-LIGAND FREE ENERGY PREDICTED BY IDOCK:   -1.01 KCAL/MOL
REMARK 927      BINDING AFFINITY PREDICTED BY RF-SCORE:    0.00 PKD
ROOT
HETATM    1  C   UNL     1      -8.858  10.431  69.270  1.00  0.00    -0.166 C  
HETATM    2  C   UNL     1      -7.778   9.999  70.256  1.00  0.00    -0.093 C  
HETATM    3  C   UNL     1      -7.967   8.497  70.589  1.00  0.00    -0.104 C  
HETATM    4  C   UNL     1      -9.404   8.103  71.084  1.00  0.00    -0.154 C  
HETATM    5  O   UNL     1      -9.603   8.839  72.289  1.00  0.00    -0.301 OA 
HETATM    6  C   UNL     1      -9.583   6.619  71.410  1.00  0.00    -0.174 C  
HETATM    7  C   UNL     1      -8.942   5.765  70.349  1.00  0.00    -0.146 C  
HETATM    8  H   UNL     1     -10.472   8.600  72.588  1.00  0.00     0.000 HD 
HETATM    9  H   UNL     1      -8.175  11.695  66.681  1.00  0.00     0.000 HD 
HETATM   10  C   UNL     1      -9.475   6.122  68.950  1.00  0.00    -0.131 C  
HETATM   11  C   UNL     1     -10.214   7.500  68.749  1.00  0.00    -0.197 C  
HETATM   12  O   UNL     1      -8.278  10.906  67.200  1.00  0.00    -0.121 OA 
HETATM   13  C   UNL     1      -8.688  11.746  68.404  1.00  0.00    -0.155 C  
HETATM   14  O   UNL     1     -11.398   7.248  67.985  1.00  0.00    -0.438 OA 
HETATM   15  C   UNL     1     -10.479   8.464  70.007  1.00  0.00    -0.224 C  
HETATM   16  C   UNL     1     -10.286  10.031  69.760  1.00  0.00    -0.286 C  
HETATM   17  C   UNL     1      -7.699  12.841  68.002  1.00  0.00    -0.137 C  
HETATM   18  C   UNL     1      -8.424  13.299  66.581  1.00  0.00     0.127 C  
HETATM   19  H   UNL     1     -11.844   8.078  67.864  1.00  0.00     0.000 HD 
HETATM   20  C   UNL     1     -10.053  14.167  68.679  1.00  0.00    -0.229 C  
HETATM   21  C   UNL     1      -9.936  12.733  66.657  1.00  0.00    -0.246 C  
HETATM   22  C   UNL     1     -11.411  10.648  68.943  1.00  0.00    -0.274 C  
HETATM   23  C   UNL     1     -10.028  12.643  68.195  1.00  0.00    -0.225 C  
HETATM   24  H   UNL     1     -12.237  10.548  67.120  1.00  0.00     0.000 HD 
HETATM   25  O   UNL     1     -11.534  10.162  67.631  1.00  0.00    -0.271 OA 
HETATM   26  C   UNL     1     -11.210  12.125  68.972  1.00  0.00    -0.314 C  
ENDROOT
BRANCH   7  27
HETATM   27  O   UNL     1      -9.181   4.423  70.746  1.00  0.00    -0.119 OA 
BRANCH  27  28
HETATM   28  C   UNL     1      -8.154   3.740  71.461  1.00  0.00    -0.069 C  
HETATM   29  C   UNL     1      -5.759   3.802  72.379  1.00  0.00    -0.008 C  
HETATM   30  H   UNL     1      -5.601   5.382  74.348  1.00  0.00     0.000 HD 
HETATM   31  C   UNL     1      -7.874   1.557  73.502  1.00  0.00    -0.040 C  
HETATM   32  O   UNL     1      -5.208   2.557  71.916  1.00  0.00     0.000 OA 
HETATM   33  C   UNL     1      -6.736   4.367  71.331  1.00  0.00    -0.030 C  
HETATM   34  O   UNL     1      -6.170   4.117  70.026  1.00  0.00    -0.025 OA 
HETATM   35  H   UNL     1      -4.824   2.635  71.051  1.00  0.00     0.000 HD 
HETATM   36  O   UNL     1      -6.471   5.000  74.333  1.00  0.00    -0.061 OA 
HETATM   37  C   UNL     1      -6.379   3.676  73.774  1.00  0.00    -0.028 C  
HETATM   38  H   UNL     1      -5.303   4.500  69.947  1.00  0.00     0.000 HD 
HETATM   39  C   UNL     1      -7.784   3.058  73.750  1.00  0.00    -0.060 C  
HETATM   40  O   UNL     1      -8.596   3.774  72.823  1.00  0.00    -0.093 OA 
ENDBRANCH  27  28
ENDBRANCH   7  27
BRANCH  15  41
HETATM   41  C   UNL     1     -11.970   8.270  70.500  1.00  0.00     0.072 C  
HETATM   42  H   UNL     1     -13.184   8.773  72.040  1.00  0.00     0.000 HD 
HETATM   43  O   UNL     1     -12.288   8.890  71.744  1.00  0.00    -0.313 OA 
ENDBRANCH  15  41
BRANCH  21  44
HETATM   44  C   UNL     1     -11.096  13.253  65.899  1.00  0.00    -0.301 C  
HETATM   45  C   UNL     1     -12.359  14.464  64.491  1.00  0.00    -0.418 C  
HETATM   46  O   UNL     1     -12.755  15.431  63.865  1.00  0.00    -0.695 OA 
HETATM   47  O   UNL     1     -12.879  13.228  64.415  1.00  0.00    -0.657 OA 
HETATM   48  C   UNL     1     -12.128  12.377  65.285  1.00  0.00    -0.391 C  
HETATM   49  C   UNL     1     -11.229  14.488  65.410  1.00  0.00    -0.342 C  
ENDBRANCH  21  44
TORSDOF 4
ENDMDL
MODEL       39
REMARK 921   NORMALIZED FREE ENERGY PREDICTED BY IDOCK:   -6.22 KCAL/MOL
REMARK 922        TOTAL FREE ENERGY PREDICTED BY IDOCK:   -8.63 KCAL/MOL
REMARK 923 INTER-LIGAND FREE ENERGY PREDICTED BY IDOCK:   -8.11 KCAL/MOL
REMARK 924 INTRA-LIGAND FREE ENERGY PREDICTED BY IDOCK:   -0.52 KCAL/MOL
REMARK 927      BINDING AFFINITY PREDICTED BY RF-SCORE:    0.00 PKD
ROOT
HETATM    1  C   UNL     1     -10.738  12.008  68.243  1.00  0.00    -0.252 C  
HETATM    2  C   UNL     1     -11.830  11.050  68.706  1.00  0.00    -0.352 C  
HETATM    3  C   UNL     1     -11.172   9.762  69.262  1.00  0.00    -0.128 C  
HETATM    4  C   UNL     1     -10.153   9.065  68.293  1.00  0.00    -0.192 C  
HETATM    5  O   UNL     1     -10.916   8.696  67.146  1.00  0.00    -0.387 OA 
HETATM    6  C   UNL     1      -9.507   7.795  68.849  1.00  0.00    -0.150 C  
HETATM    7  C   UNL     1      -9.092   7.999  70.283  1.00  0.00    -0.148 C  
HETATM    8  H   UNL     1     -10.299   8.275  66.559  1.00  0.00     0.000 HD 
HETATM    9  H   UNL     1     -10.574  14.781  69.272  1.00  0.00     0.000 HD 
HETATM   10  C   UNL     1      -8.179   9.229  70.428  1.00  0.00    -0.199 C  
HETATM   11  C   UNL     1      -8.147  10.292  69.265  1.00  0.00    -0.155 C  
HETATM   12  O   UNL     1     -10.391  13.856  69.390  1.00  0.00    -0.009 OA 
HETATM   13  C   UNL     1     -11.041  13.550  68.045  1.00  0.00    -0.258 C  
HETATM   14  O   UNL     1      -6.776  10.612  69.009  1.00  0.00    -0.057 OA 
HETATM   15  C   UNL     1      -8.989  10.040  67.919  1.00  0.00    -0.131 C  
HETATM   16  C   UNL     1      -9.721  11.311  67.285  1.00  0.00    -0.192 C  
HETATM   17  C   UNL     1     -12.085  14.644  68.279  1.00  0.00    -0.214 C  
HETATM   18  C   UNL     1     -11.061  15.950  68.253  1.00  0.00    -0.345 C  
HETATM   19  H   UNL     1      -6.757  11.253  68.307  1.00  0.00     0.000 HD 
HETATM   20  C   UNL     1     -11.239  14.964  65.644  1.00  0.00    -0.347 C  
HETATM   21  C   UNL     1      -9.707  15.433  67.539  1.00  0.00    -0.208 C  
HETATM   22  C   UNL     1      -8.760  12.275  66.604  1.00  0.00    -0.132 C  
HETATM   23  C   UNL     1     -10.338  14.259  66.762  1.00  0.00    -0.274 C  
HETATM   24  H   UNL     1      -7.216  13.480  67.026  1.00  0.00     0.000 HD 
HETATM   25  O   UNL     1      -7.816  12.878  67.452  1.00  0.00    -0.165 OA 
HETATM   26  C   UNL     1      -9.590  13.284  65.889  1.00  0.00    -0.122 C  
ENDROOT
BRANCH   7  27
HETATM   27  O   UNL     1      -8.499   6.773  70.684  1.00  0.00    -0.134 OA 
BRANCH  27  28
HETATM   28  C   UNL     1      -9.011   6.128  71.847  1.00  0.00    -0.140 C  
HETATM   29  C   UNL     1     -10.926   4.787  72.904  1.00  0.00    -0.238 C  
HETATM   30  H   UNL     1     -10.965   2.426  72.000  1.00  0.00     0.000 HD 
HETATM   31  C   UNL     1      -7.998   4.881  74.383  1.00  0.00    -0.096 C  
HETATM   32  O   UNL     1     -11.185   5.508  74.122  1.00  0.00    -0.360 OA 
HETATM   33  C   UNL     1     -10.523   5.769  71.788  1.00  0.00    -0.228 C  
HETATM   34  O   UNL     1     -11.347   6.948  71.924  1.00  0.00    -0.245 OA 
HETATM   35  H   UNL     1     -11.813   6.210  73.996  1.00  0.00     0.000 HD 
HETATM   36  O   UNL     1     -10.066   2.732  72.012  1.00  0.00    -0.166 OA 
HETATM   37  C   UNL     1      -9.914   3.657  73.106  1.00  0.00    -0.133 C  
HETATM   38  H   UNL     1     -12.271   6.729  71.887  1.00  0.00     0.000 HD 
HETATM   39  C   UNL     1      -8.460   4.152  73.127  1.00  0.00    -0.093 C  
HETATM   40  O   UNL     1      -8.217   4.941  71.965  1.00  0.00    -0.110 OA 
ENDBRANCH  27  28
ENDBRANCH   7  27
BRANCH  15  41
HETATM   41  C   UNL     1      -8.019   9.481  66.801  1.00  0.00    -0.109 C  
HETATM   42  H   UNL     1      -6.504   8.159  66.567  1.00  0.00     0.000 HD 
HETATM   43  O   UNL     1      -7.086   8.495  67.238  1.00  0.00    -0.074 OA 
ENDBRANCH  15  41
BRANCH  21  44
HETATM   44  C   UNL     1      -8.704  16.284  66.861  1.00  0.00    -0.237 C  
HETATM   45  C   UNL     1      -7.644  18.073  66.010  1.00  0.00    -0.205 C  
HETATM   46  O   UNL     1      -7.494  19.157  65.475  1.00  0.00    -0.462 OA 
HETATM   47  O   UNL     1      -6.652  17.296  66.474  1.00  0.00    -0.205 OA 
HETATM   48  C   UNL     1      -7.238  16.122  67.043  1.00  0.00    -0.221 C  
HETATM   49  C   UNL     1      -8.938  17.454  66.260  1.00  0.00    -0.239 C  
ENDBRANCH  21  44
TORSDOF 4
ENDMDL
MODEL       40
REMARK 921   NORMALIZED FREE ENERGY PREDICTED BY IDOCK:   -6.19 KCAL/MOL
REMARK 922        TOTAL FREE ENERGY PREDICTED BY IDOCK:   -8.59 KCAL/MOL
REMARK 923 INTER-LIGAND FREE ENERGY PREDICTED BY IDOCK:   -7.31 KCAL/MOL
REMARK 924 INTRA-LIGAND FREE ENERGY PREDICTED BY IDOCK:   -1.28 KCAL/MOL
REMARK 927      BINDING AFFINITY PREDICTED BY RF-SCORE:    0.00 PKD
ROOT
HETATM    1  C   UNL     1     -10.468   9.753  68.322  1.00  0.00    -0.255 C  
HETATM    2  C   UNL     1     -11.744  10.573  68.482  1.00  0.00    -0.125 C  
HETATM    3  C   UNL     1     -11.545  11.957  67.812  1.00  0.00    -0.393 C  
HETATM    4  C   UNL     1     -10.275  12.748  68.288  1.00  0.00    -0.244 C  
HETATM    5  O   UNL     1     -10.471  12.971  69.684  1.00  0.00    -0.201 OA 
HETATM    6  C   UNL     1     -10.085  14.112  67.623  1.00  0.00    -0.236 C  
HETATM    7  C   UNL     1     -10.344  14.017  66.142  1.00  0.00    -0.297 C  
HETATM    8  H   UNL     1      -9.703  13.449  69.971  1.00  0.00     0.000 HD 
HETATM    9  H   UNL     1     -10.501   7.066  67.077  1.00  0.00     0.000 HD 
HETATM   10  C   UNL     1      -9.473  12.926  65.494  1.00  0.00     0.124 C  
HETATM   11  C   UNL     1      -8.811  11.835  66.419  1.00  0.00    -0.170 C  
HETATM   12  O   UNL     1     -10.488   8.011  66.976  1.00  0.00    -0.316 OA 
HETATM   13  C   UNL     1     -10.489   8.179  68.491  1.00  0.00    -0.162 C  
HETATM   14  O   UNL     1      -7.447  11.692  66.010  1.00  0.00    -0.352 OA 
HETATM   15  C   UNL     1      -8.975  11.924  68.016  1.00  0.00    -0.185 C  
HETATM   16  C   UNL     1      -9.206  10.545  68.789  1.00  0.00    -0.177 C  
HETATM   17  C   UNL     1     -11.406   6.965  68.646  1.00  0.00     0.013 C  
HETATM   18  C   UNL     1     -10.353   5.807  68.095  1.00  0.00    -0.264 C  
HETATM   19  H   UNL     1      -7.047  11.035  66.568  1.00  0.00     0.000 HD 
HETATM   20  C   UNL     1      -9.434   6.667  70.589  1.00  0.00    -0.174 C  
HETATM   21  C   UNL     1      -8.883   6.473  68.177  1.00  0.00    -0.115 C  
HETATM   22  C   UNL     1      -7.948   9.695  68.881  1.00  0.00    -0.089 C  
HETATM   23  C   UNL     1      -9.213   7.525  69.258  1.00  0.00    -0.144 C  
HETATM   24  H   UNL     1      -6.646   8.723  67.709  1.00  0.00     0.000 HD 
HETATM   25  O   UNL     1      -7.432   9.254  67.651  1.00  0.00    -0.087 OA 
HETATM   26  C   UNL     1      -8.256   8.558  69.794  1.00  0.00    -0.121 C  
ENDROOT
BRANCH   7  27
HETATM   27  O   UNL     1     -10.126  15.325  65.634  1.00  0.00    -0.319 OA 
BRANCH  27  28
HETATM   28  C   UNL     1      -9.602  16.311  66.519  1.00  0.00    -0.264 C  
HETATM   29  C   UNL     1      -7.875  18.170  66.898  1.00  0.00    -0.229 C  
HETATM   30  H   UNL     1      -8.447  20.211  65.517  1.00  0.00     0.000 HD 
HETATM   31  C   UNL     1     -10.488  17.953  68.870  1.00  0.00    -0.162 C  
HETATM   32  O   UNL     1      -7.307  17.823  68.173  1.00  0.00    -0.222 OA 
HETATM   33  C   UNL     1      -8.218  16.892  66.110  1.00  0.00    -0.260 C  
HETATM   34  O   UNL     1      -7.159  15.937  66.342  1.00  0.00    -0.130 OA 
HETATM   35  H   UNL     1      -6.573  17.227  68.088  1.00  0.00     0.000 HD 
HETATM   36  O   UNL     1      -9.253  19.771  65.759  1.00  0.00    -0.368 OA 
HETATM   37  C   UNL     1      -9.060  19.130  67.034  1.00  0.00    -0.294 C  
HETATM   38  H   UNL     1      -6.314  16.292  66.092  1.00  0.00     0.000 HD 
HETATM   39  C   UNL     1     -10.363  18.419  67.425  1.00  0.00    -0.391 C  
HETATM   40  O   UNL     1     -10.598  17.340  66.523  1.00  0.00    -0.279 OA 
ENDBRANCH  27  28
ENDBRANCH   7  27
BRANCH  15  41
HETATM   41  C   UNL     1      -7.668  12.568  68.633  1.00  0.00    -0.063 C  
HETATM   42  H   UNL     1      -6.285  13.991  68.228  1.00  0.00     0.000 HD 
HETATM   43  O   UNL     1      -7.070  13.604  67.857  1.00  0.00    -0.113 OA 
ENDBRANCH  15  41
BRANCH  21  44
HETATM   44  C   UNL     1      -7.601   5.741  68.259  1.00  0.00    -0.085 C  
HETATM   45  C   UNL     1      -6.060   4.110  68.139  1.00  0.00    -0.032 C  
HETATM   46  O   UNL     1      -5.585   2.990  68.192  1.00  0.00    -0.017 OA 
HETATM   47  O   UNL     1      -5.389   5.219  67.788  1.00  0.00    -0.010 OA 
HETATM   48  C   UNL     1      -6.300   6.321  67.833  1.00  0.00    -0.033 C  
HETATM   49  C   UNL     1      -7.454   4.423  68.423  1.00  0.00    -0.064 C  
ENDBRANCH  21  44
TORSDOF 4
ENDMDL
MODEL       41
REMARK 921   NORMALIZED FREE ENERGY PREDICTED BY IDOCK:   -6.18 KCAL/MOL
REMARK 922        TOTAL FREE ENERGY PREDICTED BY IDOCK:   -8.57 KCAL/MOL
REMARK 923 INTER-LIGAND FREE ENERGY PREDICTED BY IDOCK:   -7.64 KCAL/MOL
REMARK 924 INTRA-LIGAND FREE ENERGY PREDICTED BY IDOCK:   -0.93 KCAL/MOL
REMARK 927      BINDING AFFINITY PREDICTED BY RF-SCORE:    0.00 PKD
ROOT
HETATM    1  C   UNL     1      -8.134  11.084  68.966  1.00  0.00    -0.105 C  
HETATM    2  C   UNL     1      -7.012  10.773  69.951  1.00  0.00    -0.127 C  
HETATM    3  C   UNL     1      -6.762   9.244  69.968  1.00  0.00    -0.054 C  
HETATM    4  C   UNL     1      -8.036   8.366  70.235  1.00  0.00    -0.102 C  
HETATM    5  O   UNL     1      -8.488   8.742  71.534  1.00  0.00    -0.171 OA 
HETATM    6  C   UNL     1      -7.782   6.858  70.250  1.00  0.00    -0.100 C  
HETATM    7  C   UNL     1      -6.878   6.464  69.111  1.00  0.00    -0.062 C  
HETATM    8  H   UNL     1      -9.258   8.211  71.695  1.00  0.00     0.000 HD 
HETATM    9  H   UNL     1      -7.759  13.010  66.748  1.00  0.00     0.000 HD 
HETATM   10  C   UNL     1      -7.440   6.947  67.762  1.00  0.00    -0.098 C  
HETATM   11  C   UNL     1      -8.545   8.071  67.759  1.00  0.00    -0.128 C  
HETATM   12  O   UNL     1      -7.643  12.132  67.093  1.00  0.00    -0.148 OA 
HETATM   13  C   UNL     1      -8.328  12.547  68.391  1.00  0.00    -0.132 C  
HETATM   14  O   UNL     1      -9.573   7.665  66.850  1.00  0.00    -0.167 OA 
HETATM   15  C   UNL     1      -9.129   8.631  69.149  1.00  0.00    -0.142 C  
HETATM   16  C   UNL     1      -9.397  10.204  69.228  1.00  0.00    -0.227 C  
HETATM   17  C   UNL     1      -7.691  13.935  68.306  1.00  0.00    -0.136 C  
HETATM   18  C   UNL     1      -8.466  14.462  66.936  1.00  0.00    -0.156 C  
HETATM   19  H   UNL     1     -10.239   8.343  66.849  1.00  0.00     0.000 HD 
HETATM   20  C   UNL     1     -10.355  14.371  68.993  1.00  0.00    -0.204 C  
HETATM   21  C   UNL     1      -9.745  13.492  66.754  1.00  0.00    -0.271 C  
HETATM   22  C   UNL     1     -10.623  10.640  68.439  1.00  0.00    -0.199 C  
HETATM   23  C   UNL     1      -9.864  13.055  68.229  1.00  0.00    -0.225 C  
HETATM   24  H   UNL     1     -11.315  10.703  66.560  1.00  0.00     0.000 HD 
HETATM   25  O   UNL     1     -10.549  10.430  67.053  1.00  0.00    -0.243 OA 
HETATM   26  C   UNL     1     -10.869  12.072  68.772  1.00  0.00    -0.267 C  
ENDROOT
BRANCH   7  27
HETATM   27  O   UNL     1      -6.725   5.056  69.217  1.00  0.00    -0.048 OA 
BRANCH  27  28
HETATM   28  C   UNL     1      -7.378   4.235  68.252  1.00  0.00    -0.064 C  
HETATM   29  C   UNL     1      -7.793   1.865  67.364  1.00  0.00    -0.060 C  
HETATM   30  H   UNL     1      -9.259   0.559  68.959  1.00  0.00     0.000 HD 
HETATM   31  C   UNL     1      -9.796   4.307  66.474  1.00  0.00    -0.238 C  
HETATM   32  O   UNL     1      -7.548   2.005  65.954  1.00  0.00    -0.068 OA 
HETATM   33  C   UNL     1      -6.840   2.779  68.156  1.00  0.00    -0.048 C  
HETATM   34  O   UNL     1      -5.551   2.738  67.506  1.00  0.00    -0.017 OA 
HETATM   35  H   UNL     1      -6.634   1.874  65.734  1.00  0.00     0.000 HD 
HETATM   36  O   UNL     1      -9.499   1.477  69.007  1.00  0.00    -0.126 OA 
HETATM   37  C   UNL     1      -9.267   2.078  67.719  1.00  0.00    -0.171 C  
HETATM   38  H   UNL     1      -5.223   1.848  67.447  1.00  0.00     0.000 HD 
HETATM   39  C   UNL     1      -9.655   3.561  67.796  1.00  0.00    -0.123 C  
HETATM   40  O   UNL     1      -8.750   4.238  68.665  1.00  0.00    -0.091 OA 
ENDBRANCH  27  28
ENDBRANCH   7  27
BRANCH  15  41
HETATM   41  C   UNL     1     -10.513   7.926  69.447  1.00  0.00    -0.220 C  
HETATM   42  H   UNL     1     -11.871   7.716  70.934  1.00  0.00     0.000 HD 
HETATM   43  O   UNL     1     -11.040   8.140  70.755  1.00  0.00    -0.251 OA 
ENDBRANCH  15  41
BRANCH  21  44
HETATM   44  C   UNL     1     -10.978  13.814  66.001  1.00  0.00    -0.284 C  
HETATM   45  C   UNL     1     -12.399  14.719  64.515  1.00  0.00    -0.366 C  
HETATM   46  O   UNL     1     -12.900  15.556  63.786  1.00  0.00    -0.526 OA 
HETATM   47  O   UNL     1     -12.823  13.451  64.641  1.00  0.00    -0.668 OA 
HETATM   48  C   UNL     1     -11.966  12.788  65.575  1.00  0.00    -0.449 C  
HETATM   49  C   UNL     1     -11.232  14.954  65.354  1.00  0.00    -0.359 C  
ENDBRANCH  21  44
TORSDOF 4
ENDMDL
MODEL       42
REMARK 921   NORMALIZED FREE ENERGY PREDICTED BY IDOCK:   -6.17 KCAL/MOL
REMARK 922        TOTAL FREE ENERGY PREDICTED BY IDOCK:   -8.56 KCAL/MOL
REMARK 923 INTER-LIGAND FREE ENERGY PREDICTED BY IDOCK:   -8.84 KCAL/MOL
REMARK 924 INTRA-LIGAND FREE ENERGY PREDICTED BY IDOCK:    0.28 KCAL/MOL
REMARK 927      BINDING AFFINITY PREDICTED BY RF-SCORE:    0.00 PKD
ROOT
HETATM    1  C   UNL     1      -9.849  11.312  65.668  1.00  0.00    -0.277 C  
HETATM    2  C   UNL     1      -9.587  10.410  64.466  1.00  0.00    -0.369 C  
HETATM    3  C   UNL     1      -9.145   9.012  64.968  1.00  0.00    -0.171 C  
HETATM    4  C   UNL     1      -7.937   9.018  65.970  1.00  0.00    -0.103 C  
HETATM    5  O   UNL     1      -6.846   9.578  65.241  1.00  0.00    -0.081 OA 
HETATM    6  C   UNL     1      -7.506   7.635  66.460  1.00  0.00    -0.092 C  
HETATM    7  C   UNL     1      -8.711   6.802  66.811  1.00  0.00    -0.122 C  
HETATM    8  H   UNL     1      -6.115   9.582  65.848  1.00  0.00     0.000 HD 
HETATM    9  H   UNL     1     -12.445  12.689  66.035  1.00  0.00     0.000 HD 
HETATM   10  C   UNL     1      -9.612   7.526  67.827  1.00  0.00    -0.166 C  
HETATM   11  C   UNL     1      -9.437   9.080  68.024  1.00  0.00    -0.142 C  
HETATM   12  O   UNL     1     -11.921  11.901  66.122  1.00  0.00    -0.537 OA 
HETATM   13  C   UNL     1     -10.721  12.626  65.523  1.00  0.00    -0.274 C  
HETATM   14  O   UNL     1      -9.427   9.339  69.432  1.00  0.00    -0.158 OA 
HETATM   15  C   UNL     1      -8.274   9.866  67.239  1.00  0.00    -0.121 C  
HETATM   16  C   UNL     1      -8.649  11.310  66.667  1.00  0.00    -0.167 C  
HETATM   17  C   UNL     1     -11.637  13.402  64.576  1.00  0.00    -0.405 C  
HETATM   18  C   UNL     1     -12.457  14.284  65.718  1.00  0.00    -0.421 C  
HETATM   19  H   UNL     1      -9.321  10.276  69.550  1.00  0.00     0.000 HD 
HETATM   20  C   UNL     1      -9.849  15.278  65.595  1.00  0.00    -0.383 C  
HETATM   21  C   UNL     1     -11.554  14.220  67.056  1.00  0.00    -0.406 C  
HETATM   22  C   UNL     1      -8.752  12.373  67.751  1.00  0.00    -0.176 C  
HETATM   23  C   UNL     1     -10.208  13.921  66.361  1.00  0.00    -0.292 C  
HETATM   24  H   UNL     1      -9.832  12.829  69.376  1.00  0.00     0.000 HD 
HETATM   25  O   UNL     1      -9.768  12.165  68.699  1.00  0.00    -0.178 OA 
HETATM   26  C   UNL     1      -8.895  13.686  67.062  1.00  0.00    -0.233 C  
ENDROOT
BRANCH   7  27
HETATM   27  O   UNL     1      -8.194   5.558  67.262  1.00  0.00    -0.102 OA 
BRANCH  27  28
HETATM   28  C   UNL     1      -8.306   5.248  68.649  1.00  0.00    -0.089 C  
HETATM   29  C   UNL     1      -8.257   6.113  71.063  1.00  0.00    -0.123 C  
HETATM   30  H   UNL     1     -10.322   7.488  71.559  1.00  0.00     0.000 HD 
HETATM   31  C   UNL     1      -9.562   3.172  70.416  1.00  0.00    -0.192 C  
HETATM   32  O   UNL     1      -7.360   5.195  71.713  1.00  0.00    -0.079 OA 
HETATM   33  C   UNL     1      -7.799   6.358  69.614  1.00  0.00    -0.108 C  
HETATM   34  O   UNL     1      -6.357   6.433  69.617  1.00  0.00    -0.035 OA 
HETATM   35  H   UNL     1      -6.454   5.473  71.648  1.00  0.00     0.000 HD 
HETATM   36  O   UNL     1     -10.548   6.816  70.926  1.00  0.00    -0.214 OA 
HETATM   37  C   UNL     1      -9.718   5.664  71.167  1.00  0.00    -0.172 C  
HETATM   38  H   UNL     1      -6.048   7.111  70.206  1.00  0.00     0.000 HD 
HETATM   39  C   UNL     1     -10.083   4.578  70.145  1.00  0.00    -0.149 C  
HETATM   40  O   UNL     1      -9.706   5.015  68.841  1.00  0.00    -0.143 OA 
ENDBRANCH  27  28
ENDBRANCH   7  27
BRANCH  15  41
HETATM   41  C   UNL     1      -7.046  10.077  68.214  1.00  0.00    -0.072 C  
HETATM   42  H   UNL     1      -5.110  10.670  68.182  1.00  0.00     0.000 HD 
HETATM   43  O   UNL     1      -5.848  10.543  67.597  1.00  0.00    -0.044 OA 
ENDBRANCH  15  41
BRANCH  21  44
HETATM   44  C   UNL     1     -11.583  15.192  68.171  1.00  0.00    -0.358 C  
HETATM   45  C   UNL     1     -11.466  16.089  70.227  1.00  0.00    -0.359 C  
HETATM   46  O   UNL     1     -11.571  16.174  71.437  1.00  0.00    -0.445 OA 
HETATM   47  O   UNL     1     -10.966  17.044  69.425  1.00  0.00    -0.197 OA 
HETATM   48  C   UNL     1     -10.998  16.556  68.081  1.00  0.00    -0.336 C  
HETATM   49  C   UNL     1     -11.844  14.916  69.451  1.00  0.00    -0.356 C  
ENDBRANCH  21  44
TORSDOF 4
ENDMDL
MODEL       43
REMARK 921   NORMALIZED FREE ENERGY PREDICTED BY IDOCK:   -6.14 KCAL/MOL
REMARK 922        TOTAL FREE ENERGY PREDICTED BY IDOCK:   -8.53 KCAL/MOL
REMARK 923 INTER-LIGAND FREE ENERGY PREDICTED BY IDOCK:   -8.12 KCAL/MOL
REMARK 924 INTRA-LIGAND FREE ENERGY PREDICTED BY IDOCK:   -0.40 KCAL/MOL
REMARK 927      BINDING AFFINITY PREDICTED BY RF-SCORE:    0.00 PKD
ROOT
HETATM    1  C   UNL     1      -9.152  10.118  65.697  1.00  0.00    -0.216 C  
HETATM    2  C   UNL     1      -9.870  11.159  64.844  1.00  0.00    -0.316 C  
HETATM    3  C   UNL     1     -10.041  12.459  65.670  1.00  0.00    -0.277 C  
HETATM    4  C   UNL     1     -10.729  12.272  67.069  1.00  0.00    -0.231 C  
HETATM    5  O   UNL     1     -12.033  11.770  66.783  1.00  0.00    -0.584 OA 
HETATM    6  C   UNL     1     -10.894  13.559  67.878  1.00  0.00    -0.262 C  
HETATM    7  C   UNL     1      -9.637  14.387  67.814  1.00  0.00    -0.216 C  
HETATM    8  H   UNL     1     -12.449  11.656  67.629  1.00  0.00     0.000 HD 
HETATM    9  H   UNL     1      -6.662   8.810  64.772  1.00  0.00     0.000 HD 
HETATM   10  C   UNL     1      -8.411  13.571  68.260  1.00  0.00    -0.165 C  
HETATM   11  C   UNL     1      -8.517  11.999  68.297  1.00  0.00    -0.167 C  
HETATM   12  O   UNL     1      -7.088   9.558  65.174  1.00  0.00    -0.096 OA 
HETATM   13  C   UNL     1      -8.441   8.871  65.027  1.00  0.00    -0.176 C  
HETATM   14  O   UNL     1      -7.950  11.556  69.534  1.00  0.00    -0.337 OA 
HETATM   15  C   UNL     1      -9.913  11.277  67.958  1.00  0.00    -0.191 C  
HETATM   16  C   UNL     1      -9.834   9.939  67.090  1.00  0.00    -0.235 C  
HETATM   17  C   UNL     1      -8.011   8.265  63.691  1.00  0.00    -0.153 C  
HETATM   18  C   UNL     1      -6.809   7.273  64.262  1.00  0.00    -0.048 C  
HETATM   19  H   UNL     1      -8.015  10.608  69.555  1.00  0.00     0.000 HD 
HETATM   20  C   UNL     1      -9.254   6.199  65.085  1.00  0.00     0.393 C  
HETATM   21  C   UNL     1      -7.080   7.122  65.848  1.00  0.00    -0.069 C  
HETATM   22  C   UNL     1      -9.312   8.747  67.879  1.00  0.00    -0.142 C  
HETATM   23  C   UNL     1      -8.586   7.456  65.815  1.00  0.00    -0.150 C  
HETATM   24  H   UNL     1      -7.667   8.123  68.837  1.00  0.00     0.000 HD 
HETATM   25  O   UNL     1      -7.992   8.868  68.345  1.00  0.00    -0.102 OA 
HETATM   26  C   UNL     1      -9.490   7.543  67.018  1.00  0.00    -0.206 C  
ENDROOT
BRANCH   7  27
HETATM   27  O   UNL     1      -9.900  15.537  68.604  1.00  0.00    -0.196 OA 
BRANCH  27  28
HETATM   28  C   UNL     1      -9.534  16.811  68.079  1.00  0.00    -0.233 C  
HETATM   29  C   UNL     1      -8.723  18.155  66.050  1.00  0.00     0.030 C  
HETATM   30  H   UNL     1     -10.561  18.357  64.324  1.00  0.00     0.000 HD 
HETATM   31  C   UNL     1     -10.048  19.719  68.613  1.00  0.00    -0.546 C  
HETATM   32  O   UNL     1      -7.625  18.913  66.588  1.00  0.00    -0.224 OA 
HETATM   33  C   UNL     1      -8.781  16.769  66.718  1.00  0.00    -0.230 C  
HETATM   34  O   UNL     1      -7.424  16.304  66.883  1.00  0.00    -0.197 OA 
HETATM   35  H   UNL     1      -6.804  18.439  66.538  1.00  0.00     0.000 HD 
HETATM   36  O   UNL     1     -10.956  18.322  65.187  1.00  0.00    -0.628 OA 
HETATM   37  C   UNL     1     -10.047  18.919  66.131  1.00  0.00    -0.393 C  
HETATM   38  H   UNL     1      -6.965  16.279  66.051  1.00  0.00     0.000 HD 
HETATM   39  C   UNL     1     -10.686  18.862  67.526  1.00  0.00    -0.434 C  
HETATM   40  O   UNL     1     -10.781  17.502  67.944  1.00  0.00    -0.384 OA 
ENDBRANCH  27  28
ENDBRANCH   7  27
BRANCH  15  41
HETATM   41  C   UNL     1     -10.634  10.890  69.312  1.00  0.00    -0.217 C  
HETATM   42  H   UNL     1     -12.468  10.411  70.024  1.00  0.00     0.000 HD 
HETATM   43  O   UNL     1     -12.035  10.644  69.211  1.00  0.00    -0.274 OA 
ENDBRANCH  15  41
BRANCH  21  44
HETATM   44  C   UNL     1      -6.611   6.013  66.707  1.00  0.00    -0.056 C  
HETATM   45  C   UNL     1      -6.575   4.336  68.201  1.00  0.00    -0.042 C  
HETATM   46  O   UNL     1      -6.853   3.699  69.201  1.00  0.00    -0.043 OA 
HETATM   47  O   UNL     1      -5.721   3.939  67.244  1.00  0.00    -0.021 OA 
HETATM   48  C   UNL     1      -5.681   4.953  66.237  1.00  0.00    -0.018 C  
HETATM   49  C   UNL     1      -7.150   5.631  67.867  1.00  0.00    -0.071 C  
ENDBRANCH  21  44
TORSDOF 4
ENDMDL
MODEL       44
REMARK 921   NORMALIZED FREE ENERGY PREDICTED BY IDOCK:   -6.11 KCAL/MOL
REMARK 922        TOTAL FREE ENERGY PREDICTED BY IDOCK:   -8.50 KCAL/MOL
REMARK 923 INTER-LIGAND FREE ENERGY PREDICTED BY IDOCK:   -7.56 KCAL/MOL
REMARK 924 INTRA-LIGAND FREE ENERGY PREDICTED BY IDOCK:   -0.93 KCAL/MOL
REMARK 927      BINDING AFFINITY PREDICTED BY RF-SCORE:    0.00 PKD
ROOT
HETATM    1  C   UNL     1      -8.037  12.422  68.198  1.00  0.00    -0.163 C  
HETATM    2  C   UNL     1      -7.318  11.277  68.905  1.00  0.00    -0.115 C  
HETATM    3  C   UNL     1      -7.598   9.956  68.144  1.00  0.00    -0.081 C  
HETATM    4  C   UNL     1      -9.117   9.636  67.907  1.00  0.00    -0.125 C  
HETATM    5  O   UNL     1      -9.684   9.511  69.210  1.00  0.00    -0.163 OA 
HETATM    6  C   UNL     1      -9.385   8.332  67.156  1.00  0.00    -0.189 C  
HETATM    7  C   UNL     1      -8.443   8.191  65.990  1.00  0.00    -0.141 C  
HETATM    8  H   UNL     1     -10.602   9.318  69.065  1.00  0.00     0.000 HD 
HETATM    9  H   UNL     1      -6.582  14.831  67.277  1.00  0.00     0.000 HD 
HETATM   10  C   UNL     1      -8.513   9.420  65.066  1.00  0.00    -0.171 C  
HETATM   11  C   UNL     1      -9.155  10.749  65.619  1.00  0.00    -0.194 C  
HETATM   12  O   UNL     1      -6.840  13.928  67.129  1.00  0.00    -0.146 OA 
HETATM   13  C   UNL     1      -7.608  13.926  68.446  1.00  0.00    -0.130 C  
HETATM   14  O   UNL     1     -10.041  11.252  64.614  1.00  0.00    -0.250 OA 
HETATM   15  C   UNL     1      -9.802  10.780  67.091  1.00  0.00    -0.216 C  
HETATM   16  C   UNL     1      -9.545  12.098  67.956  1.00  0.00    -0.204 C  
HETATM   17  C   UNL     1      -6.545  14.818  69.090  1.00  0.00    -0.114 C  
HETATM   18  C   UNL     1      -6.791  16.175  68.167  1.00  0.00    -0.132 C  
HETATM   19  H   UNL     1     -10.429  12.053  64.948  1.00  0.00     0.000 HD 
HETATM   20  C   UNL     1      -8.995  15.894  69.861  1.00  0.00     0.331 C  
HETATM   21  C   UNL     1      -8.249  15.993  67.496  1.00  0.00    -0.171 C  
HETATM   22  C   UNL     1     -10.360  13.292  67.480  1.00  0.00    -0.229 C  
HETATM   23  C   UNL     1      -8.817  15.009  68.541  1.00  0.00    -0.181 C  
HETATM   24  H   UNL     1     -10.575  14.484  65.884  1.00  0.00     0.000 HD 
HETATM   25  O   UNL     1     -10.066  13.738  66.181  1.00  0.00    -0.291 OA 
HETATM   26  C   UNL     1     -10.182  14.372  68.492  1.00  0.00    -0.243 C  
ENDROOT
BRANCH   7  27
HETATM   27  O   UNL     1      -8.791   6.964  65.366  1.00  0.00    -0.043 OA 
BRANCH  27  28
HETATM   28  C   UNL     1      -8.770   5.778  66.157  1.00  0.00    -0.139 C  
HETATM   29  C   UNL     1      -8.968   3.221  66.216  1.00  0.00    -0.149 C  
HETATM   30  H   UNL     1      -6.933   2.145  65.169  1.00  0.00     0.000 HD 
HETATM   31  C   UNL     1      -7.641   4.809  68.763  1.00  0.00    -0.069 C  
HETATM   32  O   UNL     1      -9.910   2.999  67.281  1.00  0.00    -0.343 OA 
HETATM   33  C   UNL     1      -9.331   4.509  65.454  1.00  0.00    -0.163 C  
HETATM   34  O   UNL     1     -10.770   4.563  65.345  1.00  0.00    -0.522 OA 
HETATM   35  H   UNL     1     -10.808   3.011  66.973  1.00  0.00     0.000 HD 
HETATM   36  O   UNL     1      -6.670   2.963  65.575  1.00  0.00    -0.038 OA 
HETATM   37  C   UNL     1      -7.520   3.202  66.713  1.00  0.00    -0.075 C  
HETATM   38  H   UNL     1     -11.113   3.787  64.915  1.00  0.00     0.000 HD 
HETATM   39  C   UNL     1      -7.096   4.524  67.369  1.00  0.00    -0.065 C  
HETATM   40  O   UNL     1      -7.386   5.603  66.482  1.00  0.00    -0.076 OA 
ENDBRANCH  27  28
ENDBRANCH   7  27
BRANCH  15  41
HETATM   41  C   UNL     1     -11.372  10.627  66.967  1.00  0.00     0.107 C  
HETATM   42  H   UNL     1     -13.041  10.669  68.112  1.00  0.00     0.000 HD 
HETATM   43  O   UNL     1     -12.098  10.761  68.186  1.00  0.00    -0.493 OA 
ENDBRANCH  15  41
BRANCH  21  44
HETATM   44  C   UNL     1      -9.116  17.082  66.993  1.00  0.00    -0.234 C  
HETATM   45  C   UNL     1      -9.807  19.049  66.158  1.00  0.00    -0.329 C  
HETATM   46  O   UNL     1      -9.837  20.250  65.955  1.00  0.00    -0.389 OA 
HETATM   47  O   UNL     1     -10.638  18.150  65.606  1.00  0.00    -0.611 OA 
HETATM   48  C   UNL     1     -10.268  16.853  66.082  1.00  0.00    -0.341 C  
HETATM   49  C   UNL     1      -8.838  18.387  67.020  1.00  0.00    -0.271 C  
ENDBRANCH  21  44
TORSDOF 4
ENDMDL
MODEL       45
REMARK 921   NORMALIZED FREE ENERGY PREDICTED BY IDOCK:   -6.09 KCAL/MOL
REMARK 922        TOTAL FREE ENERGY PREDICTED BY IDOCK:   -8.47 KCAL/MOL
REMARK 923 INTER-LIGAND FREE ENERGY PREDICTED BY IDOCK:   -7.80 KCAL/MOL
REMARK 924 INTRA-LIGAND FREE ENERGY PREDICTED BY IDOCK:   -0.66 KCAL/MOL
REMARK 927      BINDING AFFINITY PREDICTED BY RF-SCORE:    0.00 PKD
ROOT
HETATM    1  C   UNL     1     -10.360  13.244  68.072  1.00  0.00    -0.243 C  
HETATM    2  C   UNL     1     -11.492  12.223  68.014  1.00  0.00    -0.378 C  
HETATM    3  C   UNL     1     -10.927  10.821  68.357  1.00  0.00    -0.299 C  
HETATM    4  C   UNL     1      -9.690  10.375  67.499  1.00  0.00    -0.169 C  
HETATM    5  O   UNL     1     -10.162  10.331  66.153  1.00  0.00    -0.236 OA 
HETATM    6  C   UNL     1      -9.138   8.991  67.842  1.00  0.00    -0.141 C  
HETATM    7  C   UNL     1      -9.064   8.810  69.336  1.00  0.00    -0.145 C  
HETATM    8  H   UNL     1      -9.414  10.062  65.634  1.00  0.00     0.000 HD 
HETATM    9  H   UNL     1     -10.536  15.653  69.785  1.00  0.00     0.000 HD 
HETATM   10  C   UNL     1      -8.254   9.940  69.994  1.00  0.00    -0.187 C  
HETATM   11  C   UNL     1      -8.002  11.266  69.180  1.00  0.00     0.003 C  
HETATM   12  O   UNL     1     -10.350  14.725  69.701  1.00  0.00    -0.172 OA 
HETATM   13  C   UNL     1     -10.670  14.791  68.212  1.00  0.00    -0.242 C  
HETATM   14  O   UNL     1      -6.621  11.611  69.332  1.00  0.00    -0.099 OA 
HETATM   15  C   UNL     1      -8.510  11.388  67.660  1.00  0.00    -0.130 C  
HETATM   16  C   UNL     1      -9.129  12.795  67.224  1.00  0.00    -0.200 C  
HETATM   17  C   UNL     1     -11.779  15.810  68.474  1.00  0.00    -0.328 C  
HETATM   18  C   UNL     1     -10.826  17.056  69.016  1.00  0.00    -0.206 C  
HETATM   19  H   UNL     1      -6.470  12.411  68.841  1.00  0.00     0.000 HD 
HETATM   20  C   UNL     1     -10.377  16.779  66.272  1.00  0.00    -0.316 C  
HETATM   21  C   UNL     1      -9.328  16.711  68.520  1.00  0.00    -0.236 C  
HETATM   22  C   UNL     1      -8.077  13.880  67.048  1.00  0.00     0.008 C  
HETATM   23  C   UNL     1      -9.724  15.791  67.346  1.00  0.00    -0.223 C  
HETATM   24  H   UNL     1      -6.713  14.901  68.103  1.00  0.00     0.000 HD 
HETATM   25  O   UNL     1      -7.370  14.224  68.213  1.00  0.00    -0.104 OA 
HETATM   26  C   UNL     1      -8.762  15.058  66.446  1.00  0.00    -0.169 C  
ENDROOT
BRANCH   7  27
HETATM   27  O   UNL     1      -8.530   7.508  69.534  1.00  0.00    -0.130 OA 
BRANCH  27  28
HETATM   28  C   UNL     1      -9.229   6.621  70.403  1.00  0.00    -0.156 C  
HETATM   29  C   UNL     1      -9.089   4.645  72.033  1.00  0.00    -0.127 C  
HETATM   30  H   UNL     1      -7.994   5.353  74.200  1.00  0.00     0.000 HD 
HETATM   31  C   UNL     1     -11.770   6.538  71.999  1.00  0.00    -0.367 C  
HETATM   32  O   UNL     1     -10.119   3.763  71.554  1.00  0.00    -0.157 OA 
HETATM   33  C   UNL     1      -8.422   5.367  70.848  1.00  0.00    -0.119 C  
HETATM   34  O   UNL     1      -8.296   4.415  69.769  1.00  0.00    -0.062 OA 
HETATM   35  H   UNL     1      -9.800   3.169  70.885  1.00  0.00     0.000 HD 
HETATM   36  O   UNL     1      -8.465   6.095  73.840  1.00  0.00    -0.119 OA 
HETATM   37  C   UNL     1      -9.605   5.603  73.111  1.00  0.00    -0.150 C  
HETATM   38  H   UNL     1      -7.804   3.649  70.041  1.00  0.00     0.000 HD 
HETATM   39  C   UNL     1     -10.366   6.803  72.529  1.00  0.00    -0.198 C  
HETATM   40  O   UNL     1      -9.560   7.433  71.536  1.00  0.00    -0.153 OA 
ENDBRANCH  27  28
ENDBRANCH   7  27
BRANCH  15  41
HETATM   41  C   UNL     1      -7.293  11.114  66.686  1.00  0.00    -0.145 C  
HETATM   42  H   UNL     1      -5.592  10.022  66.581  1.00  0.00     0.000 HD 
HETATM   43  O   UNL     1      -6.323  10.187  67.166  1.00  0.00    -0.065 OA 
ENDBRANCH  15  41
BRANCH  21  44
HETATM   44  C   UNL     1      -8.231  17.686  68.327  1.00  0.00    -0.276 C  
HETATM   45  C   UNL     1      -7.080  19.612  68.209  1.00  0.00    -0.302 C  
HETATM   46  O   UNL     1      -6.856  20.790  67.999  1.00  0.00    -0.294 OA 
HETATM   47  O   UNL     1      -6.194  18.732  68.702  1.00  0.00    -0.211 OA 
HETATM   48  C   UNL     1      -6.845  17.463  68.817  1.00  0.00    -0.228 C  
HETATM   49  C   UNL     1      -8.368  18.969  67.983  1.00  0.00    -0.335 C  
ENDBRANCH  21  44
TORSDOF 4
ENDMDL
MODEL       46
REMARK 921   NORMALIZED FREE ENERGY PREDICTED BY IDOCK:   -6.06 KCAL/MOL
REMARK 922        TOTAL FREE ENERGY PREDICTED BY IDOCK:   -8.43 KCAL/MOL
REMARK 923 INTER-LIGAND FREE ENERGY PREDICTED BY IDOCK:   -8.35 KCAL/MOL
REMARK 924 INTRA-LIGAND FREE ENERGY PREDICTED BY IDOCK:   -0.08 KCAL/MOL
REMARK 927      BINDING AFFINITY PREDICTED BY RF-SCORE:    0.00 PKD
ROOT
HETATM    1  C   UNL     1      -8.570   9.893  68.494  1.00  0.00    -0.117 C  
HETATM    2  C   UNL     1      -7.634   9.399  69.592  1.00  0.00    -0.095 C  
HETATM    3  C   UNL     1      -7.300   7.907  69.339  1.00  0.00    -0.081 C  
HETATM    4  C   UNL     1      -8.546   6.968  69.165  1.00  0.00    -0.133 C  
HETATM    5  O   UNL     1      -9.253   7.047  70.401  1.00  0.00    -0.156 OA 
HETATM    6  C   UNL     1      -8.208   5.497  68.915  1.00  0.00    -0.099 C  
HETATM    7  C   UNL     1      -7.087   5.376  67.917  1.00  0.00    -0.067 C  
HETATM    8  H   UNL     1     -10.007   6.479  70.295  1.00  0.00     0.000 HD 
HETATM    9  H   UNL     1      -7.906  12.259  66.842  1.00  0.00     0.000 HD 
HETATM   10  C   UNL     1      -7.417   6.127  66.615  1.00  0.00    -0.090 C  
HETATM   11  C   UNL     1      -8.567   7.205  66.631  1.00  0.00    -0.124 C  
HETATM   12  O   UNL     1      -7.804  11.330  67.013  1.00  0.00    -0.135 OA 
HETATM   13  C   UNL     1      -8.741  11.442  68.210  1.00  0.00    -0.160 C  
HETATM   14  O   UNL     1      -9.382   6.985  65.476  1.00  0.00    -0.361 OA 
HETATM   15  C   UNL     1      -9.432   7.441  67.966  1.00  0.00    -0.146 C  
HETATM   16  C   UNL     1      -9.805   8.954  68.317  1.00  0.00    -0.187 C  
HETATM   17  C   UNL     1      -8.185  12.828  68.541  1.00  0.00    -0.068 C  
HETATM   18  C   UNL     1      -8.722  13.623  67.187  1.00  0.00    -0.224 C  
HETATM   19  H   UNL     1     -10.076   7.634  65.486  1.00  0.00     0.000 HD 
HETATM   20  C   UNL     1     -10.951  13.055  68.772  1.00  0.00    -0.295 C  
HETATM   21  C   UNL     1      -9.884  12.691  66.561  1.00  0.00    -0.258 C  
HETATM   22  C   UNL     1     -10.887   9.526  67.414  1.00  0.00    -0.145 C  
HETATM   23  C   UNL     1     -10.248  11.944  67.861  1.00  0.00    -0.203 C  
HETATM   24  H   UNL     1     -11.220   9.979  65.490  1.00  0.00     0.000 HD 
HETATM   25  O   UNL     1     -10.544   9.622  66.055  1.00  0.00    -0.068 OA 
HETATM   26  C   UNL     1     -11.275  10.848  67.983  1.00  0.00    -0.378 C  
ENDROOT
BRANCH   7  27
HETATM   27  O   UNL     1      -6.872   3.981  67.756  1.00  0.00    -0.049 OA 
BRANCH  27  28
HETATM   28  C   UNL     1      -7.468   3.335  66.634  1.00  0.00    -0.076 C  
HETATM   29  C   UNL     1      -9.506   3.144  65.088  1.00  0.00    -0.122 C  
HETATM   30  H   UNL     1      -9.669   5.163  63.574  1.00  0.00     0.000 HD 
HETATM   31  C   UNL     1      -6.635   1.852  64.161  1.00  0.00    -0.022 C  
HETATM   32  O   UNL     1      -9.762   1.728  65.072  1.00  0.00    -0.333 OA 
HETATM   33  C   UNL     1      -8.998   3.570  66.478  1.00  0.00    -0.147 C  
HETATM   34  O   UNL     1      -9.746   2.827  67.465  1.00  0.00    -0.369 OA 
HETATM   35  H   UNL     1     -10.337   1.460  65.779  1.00  0.00     0.000 HD 
HETATM   36  O   UNL     1      -8.752   4.993  63.758  1.00  0.00    -0.135 OA 
HETATM   37  C   UNL     1      -8.580   3.576  63.948  1.00  0.00    -0.090 C  
HETATM   38  H   UNL     1     -10.681   2.970  67.369  1.00  0.00     0.000 HD 
HETATM   39  C   UNL     1      -7.099   3.301  64.245  1.00  0.00    -0.057 C  
HETATM   40  O   UNL     1      -6.760   3.869  65.509  1.00  0.00    -0.046 OA 
ENDBRANCH  27  28
ENDBRANCH   7  27
BRANCH  15  41
HETATM   41  C   UNL     1     -10.803   6.661  67.837  1.00  0.00    -0.277 C  
HETATM   42  H   UNL     1     -12.320   5.969  68.983  1.00  0.00     0.000 HD 
HETATM   43  O   UNL     1     -11.497   6.437  69.061  1.00  0.00    -0.337 OA 
ENDBRANCH  15  41
BRANCH  21  44
HETATM   44  C   UNL     1     -10.972  13.144  65.667  1.00  0.00    -0.295 C  
HETATM   45  C   UNL     1     -12.238  14.418  64.318  1.00  0.00    -0.423 C  
HETATM   46  O   UNL     1     -12.777  15.416  63.874  1.00  0.00    -0.695 OA 
HETATM   47  O   UNL     1     -12.331  13.188  63.787  1.00  0.00    -0.608 OA 
HETATM   48  C   UNL     1     -11.545  12.300  64.586  1.00  0.00    -0.344 C  
HETATM   49  C   UNL     1     -11.376  14.405  65.491  1.00  0.00    -0.334 C  
ENDBRANCH  21  44
TORSDOF 4
ENDMDL
MODEL       47
REMARK 921   NORMALIZED FREE ENERGY PREDICTED BY IDOCK:   -6.05 KCAL/MOL
REMARK 922        TOTAL FREE ENERGY PREDICTED BY IDOCK:   -8.42 KCAL/MOL
REMARK 923 INTER-LIGAND FREE ENERGY PREDICTED BY IDOCK:   -7.98 KCAL/MOL
REMARK 924 INTRA-LIGAND FREE ENERGY PREDICTED BY IDOCK:   -0.44 KCAL/MOL
REMARK 927      BINDING AFFINITY PREDICTED BY RF-SCORE:    0.00 PKD
ROOT
HETATM    1  C   UNL     1      -9.287   8.651  66.504  1.00  0.00    -0.257 C  
HETATM    2  C   UNL     1      -9.458   9.800  65.515  1.00  0.00    -0.324 C  
HETATM    3  C   UNL     1      -9.224  11.142  66.253  1.00  0.00    -0.211 C  
HETATM    4  C   UNL     1     -10.089  11.349  67.546  1.00  0.00    -0.183 C  
HETATM    5  O   UNL     1     -11.444  11.334  67.100  1.00  0.00    -0.460 OA 
HETATM    6  C   UNL     1      -9.853  12.676  68.268  1.00  0.00    -0.227 C  
HETATM    7  C   UNL     1      -8.379  12.977  68.348  1.00  0.00    -0.118 C  
HETATM    8  H   UNL     1     -11.967  11.459  67.882  1.00  0.00     0.000 HD 
HETATM    9  H   UNL     1      -7.378   6.444  65.998  1.00  0.00     0.000 HD 
HETATM   10  C   UNL     1      -7.608  11.815  68.998  1.00  0.00     0.004 C  
HETATM   11  C   UNL     1      -8.299  10.401  69.086  1.00  0.00    -0.158 C  
HETATM   12  O   UNL     1      -7.537   7.330  66.304  1.00  0.00    -0.087 OA 
HETATM   13  C   UNL     1      -9.022   7.175  65.996  1.00  0.00    -0.111 C  
HETATM   14  O   UNL     1      -8.087   9.897  70.408  1.00  0.00    -0.262 OA 
HETATM   15  C   UNL     1      -9.815  10.212  68.583  1.00  0.00    -0.170 C  
HETATM   16  C   UNL     1     -10.142   8.863  67.793  1.00  0.00    -0.263 C  
HETATM   17  C   UNL     1      -8.698   6.333  64.760  1.00  0.00     0.203 C  
HETATM   18  C   UNL     1      -8.031   5.028  65.538  1.00  0.00    -0.104 C  
HETATM   19  H   UNL     1      -8.504   9.045  70.461  1.00  0.00     0.000 HD 
HETATM   20  C   UNL     1     -10.777   5.003  66.051  1.00  0.00    -0.241 C  
HETATM   21  C   UNL     1      -8.520   5.133  67.074  1.00  0.00    -0.106 C  
HETATM   22  C   UNL     1     -10.200   7.641  68.698  1.00  0.00    -0.199 C  
HETATM   23  C   UNL     1      -9.777   5.990  66.814  1.00  0.00    -0.182 C  
HETATM   24  H   UNL     1      -9.031   6.550  69.905  1.00  0.00     0.000 HD 
HETATM   25  O   UNL     1      -8.995   7.313  69.340  1.00  0.00    -0.140 OA 
HETATM   26  C   UNL     1     -10.715   6.512  67.872  1.00  0.00    -0.357 C  
ENDROOT
BRANCH   7  27
HETATM   27  O   UNL     1      -8.281  14.212  69.044  1.00  0.00    -0.063 OA 
BRANCH  27  28
HETATM   28  C   UNL     1      -8.593  15.408  68.335  1.00  0.00    -0.162 C  
HETATM   29  C   UNL     1      -8.775  16.584  66.063  1.00  0.00    -0.220 C  
HETATM   30  H   UNL     1     -10.760  15.707  64.763  1.00  0.00     0.000 HD 
HETATM   31  C   UNL     1     -10.235  17.896  68.693  1.00  0.00    -0.387 C  
HETATM   32  O   UNL     1      -8.049  17.807  66.277  1.00  0.00    -0.332 OA 
HETATM   33  C   UNL     1      -8.119  15.438  66.854  1.00  0.00    -0.224 C  
HETATM   34  O   UNL     1      -6.687  15.607  66.765  1.00  0.00    -0.198 OA 
HETATM   35  H   UNL     1      -7.122  17.710  66.096  1.00  0.00     0.000 HD 
HETATM   36  O   UNL     1     -10.961  15.666  65.690  1.00  0.00    -0.323 OA 
HETATM   37  C   UNL     1     -10.270  16.741  66.355  1.00  0.00    -0.323 C  
HETATM   38  H   UNL     1      -6.398  15.625  65.860  1.00  0.00     0.000 HD 
HETATM   39  C   UNL     1     -10.595  16.675  67.855  1.00  0.00    -0.342 C  
HETATM   40  O   UNL     1     -10.021  15.493  68.408  1.00  0.00    -0.209 OA 
ENDBRANCH  27  28
ENDBRANCH   7  27
BRANCH  15  41
HETATM   41  C   UNL     1     -10.780  10.241  69.836  1.00  0.00    -0.294 C  
HETATM   42  H   UNL     1     -12.729  10.533  70.301  1.00  0.00     0.000 HD 
HETATM   43  O   UNL     1     -12.149  10.516  69.548  1.00  0.00    -0.236 OA 
ENDBRANCH  15  41
BRANCH  21  44
HETATM   44  C   UNL     1      -8.603   4.013  68.038  1.00  0.00    -0.110 C  
HETATM   45  C   UNL     1      -9.274   2.695  69.728  1.00  0.00    -0.128 C  
HETATM   46  O   UNL     1      -9.723   2.383  70.817  1.00  0.00    -0.127 OA 
HETATM   47  O   UNL     1      -8.877   1.832  68.779  1.00  0.00    -0.068 OA 
HETATM   48  C   UNL     1      -8.432   2.588  67.650  1.00  0.00    -0.089 C  
HETATM   49  C   UNL     1      -9.120   4.068  69.268  1.00  0.00    -0.194 C  
ENDBRANCH  21  44
TORSDOF 4
ENDMDL
MODEL       48
REMARK 921   NORMALIZED FREE ENERGY PREDICTED BY IDOCK:   -6.05 KCAL/MOL
REMARK 922        TOTAL FREE ENERGY PREDICTED BY IDOCK:   -8.42 KCAL/MOL
REMARK 923 INTER-LIGAND FREE ENERGY PREDICTED BY IDOCK:   -7.51 KCAL/MOL
REMARK 924 INTRA-LIGAND FREE ENERGY PREDICTED BY IDOCK:   -0.91 KCAL/MOL
REMARK 927      BINDING AFFINITY PREDICTED BY RF-SCORE:    0.00 PKD
ROOT
HETATM    1  C   UNL     1      -9.791  12.069  67.525  1.00  0.00    -0.190 C  
HETATM    2  C   UNL     1     -10.415  10.784  66.987  1.00  0.00    -0.297 C  
HETATM    3  C   UNL     1      -9.627   9.569  67.540  1.00  0.00    -0.176 C  
HETATM    4  C   UNL     1      -8.077   9.616  67.295  1.00  0.00    -0.110 C  
HETATM    5  O   UNL     1      -7.920   9.621  65.877  1.00  0.00    -0.109 OA 
HETATM    6  C   UNL     1      -7.307   8.414  67.843  1.00  0.00    -0.096 C  
HETATM    7  C   UNL     1      -7.794   8.061  69.224  1.00  0.00    -0.114 C  
HETATM    8  H   UNL     1      -6.982   9.650  65.730  1.00  0.00     0.000 HD 
HETATM    9  H   UNL     1     -11.400  14.073  68.996  1.00  0.00     0.000 HD 
HETATM   10  C   UNL     1      -7.725   9.276  70.166  1.00  0.00    -0.122 C  
HETATM   11  C   UNL     1      -7.597  10.716  69.538  1.00  0.00    -0.124 C  
HETATM   12  O   UNL     1     -10.914  13.257  69.000  1.00  0.00    -0.247 OA 
HETATM   13  C   UNL     1     -10.602  13.429  67.517  1.00  0.00    -0.250 C  
HETATM   14  O   UNL     1      -6.584  11.417  70.268  1.00  0.00    -0.423 OA 
HETATM   15  C   UNL     1      -7.452  10.892  67.947  1.00  0.00    -0.090 C  
HETATM   16  C   UNL     1      -8.249  12.109  67.287  1.00  0.00    -0.180 C  
HETATM   17  C   UNL     1     -11.982  14.044  67.278  1.00  0.00    -0.448 C  
HETATM   18  C   UNL     1     -11.780  15.425  68.176  1.00  0.00    -0.276 C  
HETATM   19  H   UNL     1      -6.507  12.285  69.889  1.00  0.00     0.000 HD 
HETATM   20  C   UNL     1     -10.190  15.662  65.890  1.00  0.00    -0.372 C  
HETATM   21  C   UNL     1     -10.184  15.593  68.371  1.00  0.00    -0.222 C  
HETATM   22  C   UNL     1      -7.618  13.463  67.579  1.00  0.00    -0.169 C  
HETATM   23  C   UNL     1      -9.755  14.765  67.141  1.00  0.00    -0.234 C  
HETATM   24  H   UNL     1      -7.202  14.679  69.117  1.00  0.00     0.000 HD 
HETATM   25  O   UNL     1      -7.596  13.833  68.934  1.00  0.00    -0.113 OA 
HETATM   26  C   UNL     1      -8.333  14.466  66.741  1.00  0.00    -0.005 C  
ENDROOT
BRANCH   7  27
HETATM   27  O   UNL     1      -7.006   6.952  69.633  1.00  0.00    -0.059 OA 
BRANCH  27  28
HETATM   28  C   UNL     1      -7.567   5.648  69.510  1.00  0.00    -0.072 C  
HETATM   29  C   UNL     1      -7.987   3.368  70.610  1.00  0.00    -0.053 C  
HETATM   30  H   UNL     1      -9.723   3.568  72.439  1.00  0.00     0.000 HD 
HETATM   31  C   UNL     1      -9.715   4.237  67.960  1.00  0.00    -0.168 C  
HETATM   32  O   UNL     1      -7.547   2.442  69.602  1.00  0.00    -0.043 OA 
HETATM   33  C   UNL     1      -7.101   4.628  70.589  1.00  0.00    -0.041 C  
HETATM   34  O   UNL     1      -5.740   4.203  70.356  1.00  0.00    -0.012 OA 
HETATM   35  H   UNL     1      -6.619   2.249  69.673  1.00  0.00     0.000 HD 
HETATM   36  O   UNL     1      -9.917   4.208  71.764  1.00  0.00    -0.177 OA 
HETATM   37  C   UNL     1      -9.481   3.680  70.496  1.00  0.00    -0.185 C  
HETATM   38  H   UNL     1      -5.456   3.580  71.015  1.00  0.00     0.000 HD 
HETATM   39  C   UNL     1      -9.794   4.714  69.405  1.00  0.00    -0.202 C  
HETATM   40  O   UNL     1      -8.980   5.867  69.603  1.00  0.00    -0.128 OA 
ENDBRANCH  27  28
ENDBRANCH   7  27
BRANCH  15  41
HETATM   41  C   UNL     1      -5.926  11.111  67.590  1.00  0.00    -0.049 C  
HETATM   42  H   UNL     1      -4.698  11.222  65.984  1.00  0.00     0.000 HD 
HETATM   43  O   UNL     1      -5.614  11.090  66.199  1.00  0.00    -0.122 OA 
ENDBRANCH  15  41
BRANCH  21  44
HETATM   44  C   UNL     1      -9.474  16.857  68.667  1.00  0.00    -0.268 C  
HETATM   45  C   UNL     1      -7.924  18.483  68.685  1.00  0.00    -0.309 C  
HETATM   46  O   UNL     1      -6.824  19.004  68.670  1.00  0.00    -0.258 OA 
HETATM   47  O   UNL     1      -9.092  19.145  68.727  1.00  0.00    -0.363 OA 
HETATM   48  C   UNL     1     -10.149  18.180  68.715  1.00  0.00    -0.376 C  
HETATM   49  C   UNL     1      -8.153  17.045  68.633  1.00  0.00    -0.254 C  
ENDBRANCH  21  44
TORSDOF 4
ENDMDL
MODEL       49
REMARK 921   NORMALIZED FREE ENERGY PREDICTED BY IDOCK:   -6.04 KCAL/MOL
REMARK 922        TOTAL FREE ENERGY PREDICTED BY IDOCK:   -8.40 KCAL/MOL
REMARK 923 INTER-LIGAND FREE ENERGY PREDICTED BY IDOCK:   -7.35 KCAL/MOL
REMARK 924 INTRA-LIGAND FREE ENERGY PREDICTED BY IDOCK:   -1.05 KCAL/MOL
REMARK 927      BINDING AFFINITY PREDICTED BY RF-SCORE:    0.00 PKD
ROOT
HETATM    1  C   UNL     1      -7.426  12.165  68.684  1.00  0.00    -0.105 C  
HETATM    2  C   UNL     1      -6.495  11.433  69.645  1.00  0.00    -0.133 C  
HETATM    3  C   UNL     1      -6.409   9.942  69.230  1.00  0.00    -0.044 C  
HETATM    4  C   UNL     1      -7.792   9.213  69.083  1.00  0.00    -0.092 C  
HETATM    5  O   UNL     1      -8.384   9.264  70.379  1.00  0.00    -0.161 OA 
HETATM    6  C   UNL     1      -7.699   7.742  68.673  1.00  0.00    -0.118 C  
HETATM    7  C   UNL     1      -6.686   7.566  67.572  1.00  0.00    -0.067 C  
HETATM    8  H   UNL     1      -9.221   8.823  70.290  1.00  0.00     0.000 HD 
HETATM    9  H   UNL     1      -6.539  14.569  67.200  1.00  0.00     0.000 HD 
HETATM   10  C   UNL     1      -6.996   8.485  66.377  1.00  0.00    -0.078 C  
HETATM   11  C   UNL     1      -7.967   9.708  66.593  1.00  0.00    -0.109 C  
HETATM   12  O   UNL     1      -6.566  13.622  67.276  1.00  0.00    -0.254 OA 
HETATM   13  C   UNL     1      -7.383  13.743  68.557  1.00  0.00    -0.117 C  
HETATM   14  O   UNL     1      -8.890   9.726  65.500  1.00  0.00    -0.146 OA 
HETATM   15  C   UNL     1      -8.684   9.927  68.016  1.00  0.00    -0.125 C  
HETATM   16  C   UNL     1      -8.797  11.434  68.534  1.00  0.00    -0.151 C  
HETATM   17  C   UNL     1      -6.602  14.994  68.961  1.00  0.00    -0.109 C  
HETATM   18  C   UNL     1      -7.112  15.992  67.737  1.00  0.00    -0.163 C  
HETATM   19  H   UNL     1      -9.475  10.463  65.630  1.00  0.00     0.000 HD 
HETATM   20  C   UNL     1      -9.277  15.588  69.457  1.00  0.00    -0.265 C  
HETATM   21  C   UNL     1      -8.446  15.304  67.137  1.00  0.00    -0.235 C  
HETATM   22  C   UNL     1      -9.846  12.244  67.786  1.00  0.00    -0.201 C  
HETATM   23  C   UNL     1      -8.819  14.487  68.391  1.00  0.00    -0.180 C  
HETATM   24  H   UNL     1     -10.250  12.934  65.949  1.00  0.00     0.000 HD 
HETATM   25  O   UNL     1      -9.595  12.428  66.416  1.00  0.00    -0.237 OA 
HETATM   26  C   UNL     1      -9.988  13.542  68.504  1.00  0.00    -0.202 C  
ENDROOT
BRANCH   7  27
HETATM   27  O   UNL     1      -6.696   6.178  67.266  1.00  0.00    -0.057 OA 
BRANCH  27  28
HETATM   28  C   UNL     1      -7.658   5.704  66.328  1.00  0.00    -0.091 C  
HETATM   29  C   UNL     1      -8.098   4.394  64.166  1.00  0.00    -0.095 C  
HETATM   30  H   UNL     1      -7.752   1.917  64.541  1.00  0.00     0.000 HD 
HETATM   31  C   UNL     1     -10.581   5.031  66.216  1.00  0.00    -0.332 C  
HETATM   32  O   UNL     1      -8.935   5.291  63.415  1.00  0.00    -0.338 OA 
HETATM   33  C   UNL     1      -7.067   5.196  64.981  1.00  0.00    -0.062 C  
HETATM   34  O   UNL     1      -6.617   6.295  64.158  1.00  0.00    -0.032 OA 
HETATM   35  H   UNL     1      -8.428   5.895  62.886  1.00  0.00     0.000 HD 
HETATM   36  O   UNL     1      -8.064   2.306  65.349  1.00  0.00    -0.077 OA 
HETATM   37  C   UNL     1      -8.915   3.420  65.020  1.00  0.00    -0.135 C  
HETATM   38  H   UNL     1      -6.256   5.985  63.336  1.00  0.00     0.000 HD 
HETATM   39  C   UNL     1      -9.420   4.050  66.326  1.00  0.00    -0.190 C  
HETATM   40  O   UNL     1      -8.322   4.640  67.019  1.00  0.00    -0.106 OA 
ENDBRANCH  27  28
ENDBRANCH   7  27
BRANCH  15  41
HETATM   41  C   UNL     1     -10.162   9.368  67.939  1.00  0.00    -0.211 C  
HETATM   42  H   UNL     1     -11.741   8.957  69.138  1.00  0.00     0.000 HD 
HETATM   43  O   UNL     1     -10.853   9.292  69.184  1.00  0.00    -0.213 OA 
ENDBRANCH  15  41
BRANCH  21  44
HETATM   44  C   UNL     1      -9.517  15.997  66.387  1.00  0.00    -0.322 C  
HETATM   45  C   UNL     1     -10.671  17.566  65.268  1.00  0.00     0.086 C  
HETATM   46  O   UNL     1     -11.079  18.671  64.957  1.00  0.00    -0.488 OA 
HETATM   47  O   UNL     1     -11.000  16.419  64.653  1.00  0.00    -0.707 OA 
HETATM   48  C   UNL     1     -10.302  15.352  65.302  1.00  0.00    -0.390 C  
HETATM   49  C   UNL     1      -9.729  17.315  66.350  1.00  0.00    -0.303 C  
ENDBRANCH  21  44
TORSDOF 4
ENDMDL
MODEL       50
REMARK 921   NORMALIZED FREE ENERGY PREDICTED BY IDOCK:   -6.01 KCAL/MOL
REMARK 922        TOTAL FREE ENERGY PREDICTED BY IDOCK:   -8.37 KCAL/MOL
REMARK 923 INTER-LIGAND FREE ENERGY PREDICTED BY IDOCK:   -8.10 KCAL/MOL
REMARK 924 INTRA-LIGAND FREE ENERGY PREDICTED BY IDOCK:   -0.26 KCAL/MOL
REMARK 927      BINDING AFFINITY PREDICTED BY RF-SCORE:    0.00 PKD
ROOT
HETATM    1  C   UNL     1      -9.738  11.536  65.273  1.00  0.00    -0.268 C  
HETATM    2  C   UNL     1      -9.567  10.847  63.922  1.00  0.00    -0.326 C  
HETATM    3  C   UNL     1      -8.728   9.558  64.114  1.00  0.00    -0.239 C  
HETATM    4  C   UNL     1      -7.355   9.762  64.846  1.00  0.00    -0.129 C  
HETATM    5  O   UNL     1      -6.607  10.640  64.007  1.00  0.00    -0.354 OA 
HETATM    6  C   UNL     1      -6.533   8.485  65.032  1.00  0.00    -0.060 C  
HETATM    7  C   UNL     1      -7.415   7.352  65.487  1.00  0.00    -0.088 C  
HETATM    8  H   UNL     1      -5.776  10.764  64.451  1.00  0.00     0.000 HD 
HETATM    9  H   UNL     1     -12.418  12.193  66.346  1.00  0.00     0.000 HD 
HETATM   10  C   UNL     1      -8.197   7.732  66.757  1.00  0.00    -0.120 C  
HETATM   11  C   UNL     1      -8.324   9.255  67.143  1.00  0.00    -0.124 C  
HETATM   12  O   UNL     1     -11.730  11.553  66.210  1.00  0.00    -0.384 OA 
HETATM   13  C   UNL     1     -10.885  12.604  65.499  1.00  0.00    -0.279 C  
HETATM   14  O   UNL     1      -8.052   9.370  68.543  1.00  0.00    -0.103 OA 
HETATM   15  C   UNL     1      -7.571  10.374  66.269  1.00  0.00    -0.127 C  
HETATM   16  C   UNL     1      -8.372  11.730  66.003  1.00  0.00     0.186 C  
HETATM   17  C   UNL     1     -12.139  13.221  64.878  1.00  0.00    -0.440 C  
HETATM   18  C   UNL     1     -12.850  13.759  66.277  1.00  0.00    -0.081 C  
HETATM   19  H   UNL     1      -8.128  10.288  68.776  1.00  0.00     0.000 HD 
HETATM   20  C   UNL     1     -10.619  15.369  65.789  1.00  0.00    -0.361 C  
HETATM   21  C   UNL     1     -11.674  13.789  67.385  1.00  0.00    -0.417 C  
HETATM   22  C   UNL     1      -8.454  12.625  67.231  1.00  0.00    -0.193 C  
HETATM   23  C   UNL     1     -10.490  13.898  66.401  1.00  0.00    -0.284 C  
HETATM   24  H   UNL     1      -9.210  12.642  69.087  1.00  0.00     0.000 HD 
HETATM   25  O   UNL     1      -9.158  12.084  68.319  1.00  0.00    -0.188 OA 
HETATM   26  C   UNL     1      -9.033  13.924  66.786  1.00  0.00    -0.206 C  
ENDROOT
BRANCH   7  27
HETATM   27  O   UNL     1      -6.550   6.236  65.638  1.00  0.00    -0.044 OA 
BRANCH  27  28
HETATM   28  C   UNL     1      -7.127   4.933  65.620  1.00  0.00    -0.067 C  
HETATM   29  C   UNL     1      -7.772   2.841  66.958  1.00  0.00    -0.071 C  
HETATM   30  H   UNL     1      -9.751   3.319  68.459  1.00  0.00     0.000 HD 
HETATM   31  C   UNL     1      -9.067   3.331  63.982  1.00  0.00    -0.103 C  
HETATM   32  O   UNL     1      -7.218   1.774  66.168  1.00  0.00    -0.050 OA 
HETATM   33  C   UNL     1      -6.855   4.076  66.890  1.00  0.00    -0.055 C  
HETATM   34  O   UNL     1      -5.489   3.609  66.925  1.00  0.00    -0.015 OA 
HETATM   35  H   UNL     1      -6.317   1.585  66.403  1.00  0.00     0.000 HD 
HETATM   36  O   UNL     1      -9.824   3.856  67.679  1.00  0.00    -0.143 OA 
HETATM   37  C   UNL     1      -9.224   3.146  66.579  1.00  0.00    -0.139 C  
HETATM   38  H   UNL     1      -5.323   3.086  67.701  1.00  0.00     0.000 HD 
HETATM   39  C   UNL     1      -9.342   4.013  65.317  1.00  0.00    -0.163 C  
HETATM   40  O   UNL     1      -8.531   5.176  65.468  1.00  0.00    -0.126 OA 
ENDBRANCH  27  28
ENDBRANCH   7  27
BRANCH  15  41
HETATM   41  C   UNL     1      -6.230  10.783  67.001  1.00  0.00    -0.070 C  
HETATM   42  H   UNL     1      -4.573  11.911  66.712  1.00  0.00     0.000 HD 
HETATM   43  O   UNL     1      -5.379  11.665  66.272  1.00  0.00    -0.292 OA 
ENDBRANCH  15  41
BRANCH  21  44
HETATM   44  C   UNL     1     -11.661  14.611  68.615  1.00  0.00    -0.343 C  
HETATM   45  C   UNL     1     -11.384  15.260  70.748  1.00  0.00    -0.331 C  
HETATM   46  O   UNL     1     -11.354  15.187  71.963  1.00  0.00    -0.418 OA 
HETATM   47  O   UNL     1     -11.071  16.352  70.031  1.00  0.00    -0.350 OA 
HETATM   48  C   UNL     1     -11.215  16.029  68.645  1.00  0.00    -0.366 C  
HETATM   49  C   UNL     1     -11.743  14.157  69.868  1.00  0.00    -0.372 C  
ENDBRANCH  21  44
TORSDOF 4
ENDMDL
MODEL       51
REMARK 921   NORMALIZED FREE ENERGY PREDICTED BY IDOCK:   -6.00 KCAL/MOL
REMARK 922        TOTAL FREE ENERGY PREDICTED BY IDOCK:   -8.36 KCAL/MOL
REMARK 923 INTER-LIGAND FREE ENERGY PREDICTED BY IDOCK:   -8.77 KCAL/MOL
REMARK 924 INTRA-LIGAND FREE ENERGY PREDICTED BY IDOCK:    0.41 KCAL/MOL
REMARK 927      BINDING AFFINITY PREDICTED BY RF-SCORE:    0.00 PKD
ROOT
HETATM    1  C   UNL     1     -10.146  10.254  66.966  1.00  0.00    -0.268 C  
HETATM    2  C   UNL     1      -9.768   9.144  65.991  1.00  0.00    -0.358 C  
HETATM    3  C   UNL     1      -9.741   7.792  66.749  1.00  0.00    -0.296 C  
HETATM    4  C   UNL     1      -8.845   7.771  68.037  1.00  0.00    -0.124 C  
HETATM    5  O   UNL     1      -7.520   8.033  67.579  1.00  0.00    -0.093 OA 
HETATM    6  C   UNL     1      -8.824   6.434  68.779  1.00  0.00    -0.124 C  
HETATM    7  C   UNL     1     -10.214   5.862  68.876  1.00  0.00    -0.198 C  
HETATM    8  H   UNL     1      -6.978   8.020  68.359  1.00  0.00     0.000 HD 
HETATM    9  H   UNL     1     -12.439  12.056  66.447  1.00  0.00     0.000 HD 
HETATM   10  C   UNL     1     -11.186   6.869  69.517  1.00  0.00    -0.246 C  
HETATM   11  C   UNL     1     -10.772   8.389  69.579  1.00  0.00    -0.175 C  
HETATM   12  O   UNL     1     -12.114  11.220  66.763  1.00  0.00    -0.019 OA 
HETATM   13  C   UNL     1     -10.687  11.647  66.440  1.00  0.00    -0.272 C  
HETATM   14  O   UNL     1     -11.067   8.863  70.897  1.00  0.00    -0.245 OA 
HETATM   15  C   UNL     1      -9.322   8.851  69.061  1.00  0.00    -0.144 C  
HETATM   16  C   UNL     1      -9.259  10.226  68.250  1.00  0.00    -0.139 C  
HETATM   17  C   UNL     1     -11.170  12.395  65.196  1.00  0.00    -0.356 C  
HETATM   18  C   UNL     1     -12.067  13.562  65.962  1.00  0.00    -0.489 C  
HETATM   19  H   UNL     1     -10.818   9.779  70.934  1.00  0.00     0.000 HD 
HETATM   20  C   UNL     1      -9.371  14.111  66.451  1.00  0.00    -0.254 C  
HETATM   21  C   UNL     1     -11.557  13.574  67.495  1.00  0.00    -0.385 C  
HETATM   22  C   UNL     1      -9.426  11.451  69.138  1.00  0.00     0.142 C  
HETATM   23  C   UNL     1     -10.163  12.964  67.236  1.00  0.00    -0.234 C  
HETATM   24  H   UNL     1     -10.772  12.320  70.341  1.00  0.00     0.000 HD 
HETATM   25  O   UNL     1     -10.668  11.555  69.786  1.00  0.00    -0.020 OA 
HETATM   26  C   UNL     1      -9.138  12.644  68.293  1.00  0.00    -0.181 C  
ENDROOT
BRANCH   7  27
HETATM   27  O   UNL     1     -10.074   4.642  69.589  1.00  0.00    -0.233 OA 
BRANCH  27  28
HETATM   28  C   UNL     1      -9.841   4.707  70.993  1.00  0.00    -0.198 C  
HETATM   29  C   UNL     1      -8.514   5.774  72.912  1.00  0.00    -0.122 C  
HETATM   30  H   UNL     1      -9.237   8.171  73.270  1.00  0.00     0.000 HD 
HETATM   31  C   UNL     1     -11.286   4.143  73.563  1.00  0.00    -0.297 C  
HETATM   32  O   UNL     1      -8.066   4.632  73.663  1.00  0.00    -0.103 OA 
HETATM   33  C   UNL     1      -8.533   5.439  71.409  1.00  0.00    -0.126 C  
HETATM   34  O   UNL     1      -7.368   4.634  71.124  1.00  0.00    -0.059 OA 
HETATM   35  H   UNL     1      -7.237   4.296  73.344  1.00  0.00     0.000 HD 
HETATM   36  O   UNL     1      -9.982   7.671  72.959  1.00  0.00    -0.231 OA 
HETATM   37  C   UNL     1      -9.850   6.316  73.426  1.00  0.00    -0.174 C  
HETATM   38  H   UNL     1      -6.569   5.082  71.378  1.00  0.00     0.000 HD 
HETATM   39  C   UNL     1     -11.056   5.507  72.924  1.00  0.00    -0.299 C  
HETATM   40  O   UNL     1     -10.988   5.397  71.504  1.00  0.00    -0.199 OA 
ENDBRANCH  27  28
ENDBRANCH   7  27
BRANCH  15  41
HETATM   41  C   UNL     1      -8.361   9.023  70.306  1.00  0.00    -0.157 C  
HETATM   42  H   UNL     1      -6.400   9.273  70.744  1.00  0.00     0.000 HD 
HETATM   43  O   UNL     1      -6.978   9.170  69.996  1.00  0.00    -0.045 OA 
ENDBRANCH  15  41
BRANCH  21  44
HETATM   44  C   UNL     1     -11.680  14.703  68.443  1.00  0.00    -0.352 C  
HETATM   45  C   UNL     1     -11.672  15.917  70.333  1.00  0.00    -0.354 C  
HETATM   46  O   UNL     1     -11.809  16.182  71.514  1.00  0.00    -0.456 OA 
HETATM   47  O   UNL     1     -11.222  16.769  69.397  1.00  0.00    -0.182 OA 
HETATM   48  C   UNL     1     -11.190  16.075  68.146  1.00  0.00    -0.325 C  
HETATM   49  C   UNL     1     -11.949  14.613  69.748  1.00  0.00    -0.378 C  
ENDBRANCH  21  44
TORSDOF 4
ENDMDL
MODEL       52
REMARK 921   NORMALIZED FREE ENERGY PREDICTED BY IDOCK:   -5.98 KCAL/MOL
REMARK 922        TOTAL FREE ENERGY PREDICTED BY IDOCK:   -8.33 KCAL/MOL
REMARK 923 INTER-LIGAND FREE ENERGY PREDICTED BY IDOCK:   -7.26 KCAL/MOL
REMARK 924 INTRA-LIGAND FREE ENERGY PREDICTED BY IDOCK:   -1.07 KCAL/MOL
REMARK 927      BINDING AFFINITY PREDICTED BY RF-SCORE:    0.00 PKD
ROOT
HETATM    1  C   UNL     1     -10.070  10.692  66.691  1.00  0.00    -0.270 C  
HETATM    2  C   UNL     1     -10.278   9.346  66.004  1.00  0.00    -0.204 C  
HETATM    3  C   UNL     1      -9.692   8.225  66.899  1.00  0.00    -0.291 C  
HETATM    4  C   UNL     1      -8.199   8.436  67.335  1.00  0.00    -0.120 C  
HETATM    5  O   UNL     1      -7.450   8.452  66.120  1.00  0.00    -0.086 OA 
HETATM    6  C   UNL     1      -7.627   7.326  68.218  1.00  0.00    -0.118 C  
HETATM    7  C   UNL     1      -8.623   6.929  69.276  1.00  0.00    -0.132 C  
HETATM    8  H   UNL     1      -6.547   8.580  66.385  1.00  0.00     0.000 HD 
HETATM    9  H   UNL     1     -12.336  12.519  67.235  1.00  0.00     0.000 HD 
HETATM   10  C   UNL     1      -9.079   8.149  70.096  1.00  0.00    -0.147 C  
HETATM   11  C   UNL     1      -8.832   9.591  69.511  1.00  0.00    -0.179 C  
HETATM   12  O   UNL     1     -11.823  11.760  67.487  1.00  0.00    -0.577 OA 
HETATM   13  C   UNL     1     -10.925  11.957  66.271  1.00  0.00    -0.302 C  
HETATM   14  O   UNL     1      -8.301  10.400  70.566  1.00  0.00    -0.265 OA 
HETATM   15  C   UNL     1      -8.037   9.775  68.126  1.00  0.00    -0.108 C  
HETATM   16  C   UNL     1      -8.586  10.896  67.130  1.00  0.00    -0.130 C  
HETATM   17  C   UNL     1     -12.121  12.419  65.437  1.00  0.00    -0.428 C  
HETATM   18  C   UNL     1     -12.454  13.818  66.265  1.00  0.00    -0.441 C  
HETATM   19  H   UNL     1      -8.151  11.270  70.213  1.00  0.00     0.000 HD 
HETATM   20  C   UNL     1     -10.069  14.214  64.864  1.00  0.00    -0.280 C  
HETATM   21  C   UNL     1     -11.120  14.157  67.111  1.00  0.00    -0.315 C  
HETATM   22  C   UNL     1      -8.273  12.311  67.594  1.00  0.00    -0.166 C  
HETATM   23  C   UNL     1     -10.129  13.375  66.224  1.00  0.00    -0.299 C  
HETATM   24  H   UNL     1      -8.673  13.572  69.099  1.00  0.00     0.000 HD 
HETATM   25  O   UNL     1      -8.868  12.688  68.809  1.00  0.00    -0.000 OA 
HETATM   26  C   UNL     1      -8.652  13.228  66.482  1.00  0.00     0.168 C  
ENDROOT
BRANCH   7  27
HETATM   27  O   UNL     1      -7.984   5.913  70.036  1.00  0.00    -0.100 OA 
BRANCH  27  28
HETATM   28  C   UNL     1      -7.730   4.661  69.404  1.00  0.00    -0.059 C  
HETATM   29  C   UNL     1      -6.282   2.545  69.313  1.00  0.00    -0.025 C  
HETATM   30  H   UNL     1      -6.757   1.055  71.301  1.00  0.00     0.000 HD 
HETATM   31  C   UNL     1      -9.197   2.586  67.806  1.00  0.00    -0.240 C  
HETATM   32  O   UNL     1      -5.943   2.451  67.919  1.00  0.00    -0.023 OA 
HETATM   33  C   UNL     1      -6.351   4.024  69.739  1.00  0.00    -0.028 C  
HETATM   34  O   UNL     1      -5.276   4.722  69.073  1.00  0.00    -0.003 OA 
HETATM   35  H   UNL     1      -5.155   2.938  67.708  1.00  0.00     0.000 HD 
HETATM   36  O   UNL     1      -7.553   1.522  71.073  1.00  0.00    -0.033 OA 
HETATM   37  C   UNL     1      -7.552   1.760  69.653  1.00  0.00    -0.042 C  
HETATM   38  H   UNL     1      -4.433   4.332  69.278  1.00  0.00     0.000 HD 
HETATM   39  C   UNL     1      -8.838   2.515  69.285  1.00  0.00    -0.095 C  
HETATM   40  O   UNL     1      -8.797   3.819  69.860  1.00  0.00    -0.075 OA 
ENDBRANCH  27  28
ENDBRANCH   7  27
BRANCH  15  41
HETATM   41  C   UNL     1      -6.534  10.155  68.441  1.00  0.00    -0.053 C  
HETATM   42  H   UNL     1      -4.741  10.334  67.517  1.00  0.00     0.000 HD 
HETATM   43  O   UNL     1      -5.644  10.106  67.328  1.00  0.00    -0.042 OA 
ENDBRANCH  15  41
BRANCH  21  44
HETATM   44  C   UNL     1     -10.729  15.491  67.618  1.00  0.00    -0.302 C  
HETATM   45  C   UNL     1     -10.639  17.713  67.939  1.00  0.00    -0.387 C  
HETATM   46  O   UNL     1     -10.685  18.902  67.677  1.00  0.00    -0.432 OA 
HETATM   47  O   UNL     1     -10.410  17.198  69.158  1.00  0.00    -0.312 OA 
HETATM   48  C   UNL     1     -10.453  15.772  69.051  1.00  0.00    -0.225 C  
HETATM   49  C   UNL     1     -10.854  16.650  66.966  1.00  0.00    -0.091 C  
ENDBRANCH  21  44
TORSDOF 4
ENDMDL
MODEL       53
REMARK 921   NORMALIZED FREE ENERGY PREDICTED BY IDOCK:   -5.95 KCAL/MOL
REMARK 922        TOTAL FREE ENERGY PREDICTED BY IDOCK:   -8.29 KCAL/MOL
REMARK 923 INTER-LIGAND FREE ENERGY PREDICTED BY IDOCK:   -7.55 KCAL/MOL
REMARK 924 INTRA-LIGAND FREE ENERGY PREDICTED BY IDOCK:   -0.74 KCAL/MOL
REMARK 927      BINDING AFFINITY PREDICTED BY RF-SCORE:    0.00 PKD
ROOT
HETATM    1  C   UNL     1      -9.896  11.026  66.727  1.00  0.00    -0.229 C  
HETATM    2  C   UNL     1     -10.137   9.679  66.054  1.00  0.00    -0.318 C  
HETATM    3  C   UNL     1      -9.340   8.585  66.809  1.00  0.00    -0.232 C  
HETATM    4  C   UNL     1      -7.809   8.884  66.990  1.00  0.00    -0.102 C  
HETATM    5  O   UNL     1      -7.282   8.964  65.667  1.00  0.00    -0.083 OA 
HETATM    6  C   UNL     1      -7.030   7.800  67.736  1.00  0.00    -0.081 C  
HETATM    7  C   UNL     1      -7.804   7.328  68.939  1.00  0.00    -0.118 C  
HETATM    8  H   UNL     1      -6.356   9.145  65.777  1.00  0.00     0.000 HD 
HETATM    9  H   UNL     1     -12.141  12.698  67.692  1.00  0.00     0.000 HD 
HETATM   10  C   UNL     1      -8.186   8.505  69.853  1.00  0.00    -0.121 C  
HETATM   11  C   UNL     1      -8.129   9.968  69.270  1.00  0.00    -0.141 C  
HETATM   12  O   UNL     1     -11.547  11.970  67.835  1.00  0.00    -0.308 OA 
HETATM   13  C   UNL     1     -10.883  12.240  66.489  1.00  0.00    -0.259 C  
HETATM   14  O   UNL     1      -7.475  10.795  70.238  1.00  0.00    -0.441 OA 
HETATM   15  C   UNL     1      -7.595  10.220  67.774  1.00  0.00    -0.089 C  
HETATM   16  C   UNL     1      -8.373  11.318  66.913  1.00  0.00    -0.155 C  
HETATM   17  C   UNL     1     -12.230  12.637  65.882  1.00  0.00    -0.375 C  
HETATM   18  C   UNL     1     -12.500  14.001  66.788  1.00  0.00    -0.238 C  
HETATM   19  H   UNL     1      -7.441  11.677  69.886  1.00  0.00     0.000 HD 
HETATM   20  C   UNL     1     -10.418  14.565  65.012  1.00  0.00    -0.454 C  
HETATM   21  C   UNL     1     -11.064  14.412  67.404  1.00  0.00    -0.317 C  
HETATM   22  C   UNL     1      -8.071  12.743  67.351  1.00  0.00    -0.185 C  
HETATM   23  C   UNL     1     -10.194  13.706  66.343  1.00  0.00    -0.292 C  
HETATM   24  H   UNL     1      -8.282  13.956  68.932  1.00  0.00     0.000 HD 
HETATM   25  O   UNL     1      -8.471  13.065  68.659  1.00  0.00    -0.088 OA 
HETATM   26  C   UNL     1      -8.688  13.649  66.342  1.00  0.00     0.219 C  
ENDROOT
BRANCH   7  27
HETATM   27  O   UNL     1      -6.985   6.344  69.554  1.00  0.00    -0.066 OA 
BRANCH  27  28
HETATM   28  C   UNL     1      -7.577   5.495  70.534  1.00  0.00    -0.084 C  
HETATM   29  C   UNL     1      -8.502   5.269  72.916  1.00  0.00    -0.116 C  
HETATM   30  H   UNL     1     -10.712   6.481  73.133  1.00  0.00     0.000 HD 
HETATM   31  C   UNL     1      -9.218   2.985  70.671  1.00  0.00    -0.208 C  
HETATM   32  O   UNL     1      -7.835   4.092  73.407  1.00  0.00    -0.083 OA 
HETATM   33  C   UNL     1      -7.561   6.056  71.985  1.00  0.00    -0.097 C  
HETATM   34  O   UNL     1      -6.235   6.001  72.554  1.00  0.00    -0.050 OA 
HETATM   35  H   UNL     1      -6.997   4.295  73.806  1.00  0.00     0.000 HD 
HETATM   36  O   UNL     1     -10.629   6.155  72.244  1.00  0.00    -0.203 OA 
HETATM   37  C   UNL     1      -9.852   4.942  72.273  1.00  0.00    -0.169 C  
HETATM   38  H   UNL     1      -6.226   6.344  73.441  1.00  0.00     0.000 HD 
HETATM   39  C   UNL     1      -9.718   4.415  70.837  1.00  0.00    -0.197 C  
HETATM   40  O   UNL     1      -8.923   5.321  70.077  1.00  0.00    -0.122 OA 
ENDBRANCH  27  28
ENDBRANCH   7  27
BRANCH  15  41
HETATM   41  C   UNL     1      -6.086  10.690  67.838  1.00  0.00    -0.050 C  
HETATM   42  H   UNL     1      -4.501  11.025  66.624  1.00  0.00     0.000 HD 
HETATM   43  O   UNL     1      -5.407  10.743  66.586  1.00  0.00    -0.050 OA 
ENDBRANCH  15  41
BRANCH  21  44
HETATM   44  C   UNL     1     -10.672  15.761  67.868  1.00  0.00    -0.302 C  
HETATM   45  C   UNL     1     -10.593  17.991  68.131  1.00  0.00    -0.319 C  
HETATM   46  O   UNL     1     -10.653  19.172  67.840  1.00  0.00    -0.404 OA 
HETATM   47  O   UNL     1     -10.336  17.508  69.357  1.00  0.00    -0.288 OA 
HETATM   48  C   UNL     1     -10.369  16.080  69.288  1.00  0.00    -0.251 C  
HETATM   49  C   UNL     1     -10.820  16.903  67.190  1.00  0.00    -0.088 C  
ENDBRANCH  21  44
TORSDOF 4
ENDMDL
MODEL       54
REMARK 921   NORMALIZED FREE ENERGY PREDICTED BY IDOCK:   -5.89 KCAL/MOL
REMARK 922        TOTAL FREE ENERGY PREDICTED BY IDOCK:   -8.22 KCAL/MOL
REMARK 923 INTER-LIGAND FREE ENERGY PREDICTED BY IDOCK:   -7.26 KCAL/MOL
REMARK 924 INTRA-LIGAND FREE ENERGY PREDICTED BY IDOCK:   -0.96 KCAL/MOL
REMARK 927      BINDING AFFINITY PREDICTED BY RF-SCORE:    0.00 PKD
ROOT
HETATM    1  C   UNL     1     -10.976  12.002  68.557  1.00  0.00    -0.280 C  
HETATM    2  C   UNL     1     -12.149  11.066  68.830  1.00  0.00    -0.239 C  
HETATM    3  C   UNL     1     -11.619   9.776  69.508  1.00  0.00     0.017 C  
HETATM    4  C   UNL     1     -10.458   9.051  68.741  1.00  0.00    -0.206 C  
HETATM    5  O   UNL     1     -11.013   8.678  67.481  1.00  0.00    -0.488 OA 
HETATM    6  C   UNL     1      -9.941   7.780  69.415  1.00  0.00    -0.188 C  
HETATM    7  C   UNL     1      -9.781   7.997  70.897  1.00  0.00    -0.164 C  
HETATM    8  H   UNL     1     -10.310   8.240  67.017  1.00  0.00     0.000 HD 
HETATM    9  H   UNL     1     -10.949  14.785  69.568  1.00  0.00     0.000 HD 
HETATM   10  C   UNL     1      -8.887   9.216  71.187  1.00  0.00    -0.233 C  
HETATM   11  C   UNL     1      -8.634  10.263  70.036  1.00  0.00     0.140 C  
HETATM   12  O   UNL     1     -10.805  13.860  69.726  1.00  0.00    -0.029 OA 
HETATM   13  C   UNL     1     -11.214  13.545  68.292  1.00  0.00    -0.274 C  
HETATM   14  O   UNL     1      -7.234  10.559  70.021  1.00  0.00    -0.202 OA 
HETATM   15  C   UNL     1      -9.230  10.004  68.566  1.00  0.00    -0.141 C  
HETATM   16  C   UNL     1      -9.819  11.277  67.800  1.00  0.00    -0.186 C  
HETATM   17  C   UNL     1     -12.264  14.657  68.326  1.00  0.00    -0.112 C  
HETATM   18  C   UNL     1     -11.230  15.948  68.466  1.00  0.00    -0.362 C  
HETATM   19  H   UNL     1      -7.081  11.190  69.327  1.00  0.00     0.000 HD 
HETATM   20  C   UNL     1     -10.964  14.928  65.878  1.00  0.00    -0.338 C  
HETATM   21  C   UNL     1      -9.780  15.402  68.007  1.00  0.00    -0.207 C  
HETATM   22  C   UNL     1      -8.737  12.217  67.288  1.00  0.00    -0.188 C  
HETATM   23  C   UNL     1     -10.285  14.226  67.144  1.00  0.00    -0.254 C  
HETATM   24  H   UNL     1      -7.271  13.405  67.962  1.00  0.00     0.000 HD 
HETATM   25  O   UNL     1      -7.946  12.818  68.282  1.00  0.00    -0.139 OA 
HETATM   26  C   UNL     1      -9.412  13.229  66.427  1.00  0.00    -0.225 C  
ENDROOT
BRANCH   7  27
HETATM   27  O   UNL     1      -9.288   6.768  71.410  1.00  0.00    -0.157 OA 
BRANCH  27  28
HETATM   28  C   UNL     1      -8.671   5.860  70.501  1.00  0.00    -0.140 C  
HETATM   29  C   UNL     1      -6.610   4.441  69.935  1.00  0.00    -0.033 C  
HETATM   30  H   UNL     1      -6.442   2.455  71.493  1.00  0.00     0.000 HD 
HETATM   31  C   UNL     1      -9.458   3.849  68.416  1.00  0.00    -0.210 C  
HETATM   32  O   UNL     1      -6.343   4.796  68.568  1.00  0.00    -0.034 OA 
HETATM   33  C   UNL     1      -7.141   5.666  70.703  1.00  0.00    -0.066 C  
HETATM   34  O   UNL     1      -6.401   6.821  70.250  1.00  0.00    -0.037 OA 
HETATM   35  H   UNL     1      -5.777   5.556  68.498  1.00  0.00     0.000 HD 
HETATM   36  O   UNL     1      -7.359   2.666  71.367  1.00  0.00    -0.032 OA 
HETATM   37  C   UNL     1      -7.524   3.217  70.047  1.00  0.00    -0.044 C  
HETATM   38  H   UNL     1      -5.466   6.702  70.374  1.00  0.00     0.000 HD 
HETATM   39  C   UNL     1      -9.007   3.559  69.842  1.00  0.00    -0.107 C  
HETATM   40  O   UNL     1      -9.368   4.627  70.715  1.00  0.00    -0.131 OA 
ENDBRANCH  27  28
ENDBRANCH   7  27
BRANCH  15  41
HETATM   41  C   UNL     1      -8.089   9.416  67.643  1.00  0.00    -0.106 C  
HETATM   42  H   UNL     1      -6.560   8.089  67.701  1.00  0.00     0.000 HD 
HETATM   43  O   UNL     1      -7.246   8.443  68.256  1.00  0.00    -0.082 OA 
ENDBRANCH  15  41
BRANCH  21  44
HETATM   44  C   UNL     1      -8.660  16.228  67.507  1.00  0.00    -0.189 C  
HETATM   45  C   UNL     1      -7.460  17.697  66.302  1.00  0.00    -0.305 C  
HETATM   46  O   UNL     1      -7.078  18.329  65.334  1.00  0.00    -0.537 OA 
HETATM   47  O   UNL     1      -6.987  17.835  67.552  1.00  0.00    -0.173 OA 
HETATM   48  C   UNL     1      -7.702  16.932  68.399  1.00  0.00    -0.219 C  
HETATM   49  C   UNL     1      -8.521  16.701  66.265  1.00  0.00    -0.355 C  
ENDBRANCH  21  44
TORSDOF 4
ENDMDL
MODEL       55
REMARK 921   NORMALIZED FREE ENERGY PREDICTED BY IDOCK:   -5.82 KCAL/MOL
REMARK 922        TOTAL FREE ENERGY PREDICTED BY IDOCK:   -8.13 KCAL/MOL
REMARK 923 INTER-LIGAND FREE ENERGY PREDICTED BY IDOCK:   -7.99 KCAL/MOL
REMARK 924 INTRA-LIGAND FREE ENERGY PREDICTED BY IDOCK:   -0.14 KCAL/MOL
REMARK 927      BINDING AFFINITY PREDICTED BY RF-SCORE:    0.00 PKD
ROOT
HETATM    1  C   UNL     1      -9.635   9.453  68.235  1.00  0.00    -0.156 C  
HETATM    2  C   UNL     1     -10.217  10.534  69.141  1.00  0.00    -0.241 C  
HETATM    3  C   UNL     1     -10.172  11.894  68.400  1.00  0.00    -0.205 C  
HETATM    4  C   UNL     1      -8.763  12.297  67.838  1.00  0.00    -0.177 C  
HETATM    5  O   UNL     1      -7.917  12.402  68.982  1.00  0.00    -0.335 OA 
HETATM    6  C   UNL     1      -8.726  13.641  67.108  1.00  0.00    -0.224 C  
HETATM    7  C   UNL     1      -9.916  13.778  66.196  1.00  0.00    -0.308 C  
HETATM    8  H   UNL     1      -7.064  12.646  68.641  1.00  0.00     0.000 HD 
HETATM    9  H   UNL     1     -11.166   7.011  67.557  1.00  0.00     0.000 HD 
HETATM   10  C   UNL     1     -10.011  12.589  65.223  1.00  0.00    -0.226 C  
HETATM   11  C   UNL     1      -9.207  11.274  65.551  1.00  0.00    -0.202 C  
HETATM   12  O   UNL     1     -10.985   7.930  67.397  1.00  0.00    -0.173 OA 
HETATM   13  C   UNL     1      -9.936   7.922  68.503  1.00  0.00    -0.187 C  
HETATM   14  O   UNL     1      -8.556  10.853  64.348  1.00  0.00    -0.348 OA 
HETATM   15  C   UNL     1      -8.238  11.220  66.834  1.00  0.00    -0.153 C  
HETATM   16  C   UNL     1      -8.237   9.860  67.671  1.00  0.00    -0.114 C  
HETATM   17  C   UNL     1     -10.785   6.955  69.329  1.00  0.00    -0.265 C  
HETATM   18  C   UNL     1     -10.704   5.646  68.312  1.00  0.00    -0.227 C  
HETATM   19  H   UNL     1      -8.071  10.060  64.546  1.00  0.00     0.000 HD 
HETATM   20  C   UNL     1      -8.183   5.974  69.469  1.00  0.00    -0.115 C  
HETATM   21  C   UNL     1      -9.448   5.926  67.335  1.00  0.00    -0.112 C  
HETATM   22  C   UNL     1      -7.507   8.726  66.966  1.00  0.00    -0.091 C  
HETATM   23  C   UNL     1      -8.695   6.897  68.268  1.00  0.00    -0.123 C  
HETATM   24  H   UNL     1      -7.617   7.606  65.309  1.00  0.00     0.000 HD 
HETATM   25  O   UNL     1      -8.073   8.314  65.749  1.00  0.00    -0.097 OA 
HETATM   26  C   UNL     1      -7.404   7.602  67.940  1.00  0.00    -0.102 C  
ENDROOT
BRANCH   7  27
HETATM   27  O   UNL     1      -9.769  15.043  65.568  1.00  0.00    -0.337 OA 
BRANCH  27  28
HETATM   28  C   UNL     1      -9.690  16.199  66.397  1.00  0.00    -0.286 C  
HETATM   29  C   UNL     1      -9.656  17.145  68.782  1.00  0.00    -0.269 C  
HETATM   30  H   UNL     1      -7.467  16.598  69.926  1.00  0.00     0.000 HD 
HETATM   31  C   UNL     1      -8.645  19.011  66.279  1.00  0.00    -0.281 C  
HETATM   32  O   UNL     1     -10.639  18.193  68.723  1.00  0.00    -0.374 OA 
HETATM   33  C   UNL     1     -10.086  15.970  67.884  1.00  0.00    -0.241 C  
HETATM   34  O   UNL     1     -11.514  15.809  68.027  1.00  0.00    -0.338 OA 
HETATM   35  H   UNL     1     -11.514  17.876  68.916  1.00  0.00     0.000 HD 
HETATM   36  O   UNL     1      -7.308  16.699  68.995  1.00  0.00    -0.212 OA 
HETATM   37  C   UNL     1      -8.247  17.657  68.471  1.00  0.00    -0.292 C  
HETATM   38  H   UNL     1     -11.756  15.669  68.936  1.00  0.00     0.000 HD 
HETATM   39  C   UNL     1      -7.989  17.820  66.966  1.00  0.00    -0.218 C  
HETATM   40  O   UNL     1      -8.319  16.604  66.299  1.00  0.00    -0.290 OA 
ENDBRANCH  27  28
ENDBRANCH   7  27
BRANCH  15  41
HETATM   41  C   UNL     1      -6.746  11.456  66.362  1.00  0.00    -0.014 C  
HETATM   42  H   UNL     1      -4.897  11.768  67.126  1.00  0.00     0.000 HD 
HETATM   43  O   UNL     1      -5.794  11.626  67.409  1.00  0.00    -0.067 OA 
ENDBRANCH  15  41
BRANCH  21  44
HETATM   44  C   UNL     1      -8.678   4.900  66.597  1.00  0.00    -0.108 C  
HETATM   45  C   UNL     1      -8.037   2.941  65.705  1.00  0.00    -0.087 C  
HETATM   46  O   UNL     1      -7.870   1.739  65.604  1.00  0.00    -0.070 OA 
HETATM   47  O   UNL     1      -7.688   3.850  64.779  1.00  0.00    -0.079 OA 
HETATM   48  C   UNL     1      -8.065   5.142  65.264  1.00  0.00    -0.120 C  
HETATM   49  C   UNL     1      -8.671   3.588  66.844  1.00  0.00    -0.126 C  
ENDBRANCH  21  44
TORSDOF 4
ENDMDL
MODEL       56
REMARK 921   NORMALIZED FREE ENERGY PREDICTED BY IDOCK:   -5.77 KCAL/MOL
REMARK 922        TOTAL FREE ENERGY PREDICTED BY IDOCK:   -8.07 KCAL/MOL
REMARK 923 INTER-LIGAND FREE ENERGY PREDICTED BY IDOCK:   -8.16 KCAL/MOL
REMARK 924 INTRA-LIGAND FREE ENERGY PREDICTED BY IDOCK:    0.09 KCAL/MOL
REMARK 927      BINDING AFFINITY PREDICTED BY RF-SCORE:    0.00 PKD
ROOT
HETATM    1  C   UNL     1      -9.475  12.988  68.053  1.00  0.00    -0.217 C  
HETATM    2  C   UNL     1      -9.424  11.800  69.009  1.00  0.00     0.172 C  
HETATM    3  C   UNL     1      -9.276  10.495  68.187  1.00  0.00    -0.148 C  
HETATM    4  C   UNL     1     -10.351  10.294  67.061  1.00  0.00    -0.243 C  
HETATM    5  O   UNL     1     -11.603  10.234  67.741  1.00  0.00    -0.651 OA 
HETATM    6  C   UNL     1     -10.199   9.003  66.255  1.00  0.00    -0.237 C  
HETATM    7  C   UNL     1      -8.753   8.770  65.902  1.00  0.00    -0.170 C  
HETATM    8  H   UNL     1     -12.253  10.113  67.059  1.00  0.00     0.000 HD 
HETATM    9  H   UNL     1      -7.590  15.258  68.301  1.00  0.00     0.000 HD 
HETATM   10  C   UNL     1      -8.155   9.986  65.173  1.00  0.00    -0.144 C  
HETATM   11  C   UNL     1      -8.902  11.371  65.268  1.00  0.00     0.064 C  
HETATM   12  O   UNL     1      -7.768  14.377  67.993  1.00  0.00    -0.114 OA 
HETATM   13  C   UNL     1      -9.179  14.456  68.566  1.00  0.00    -0.198 C  
HETATM   14  O   UNL     1      -8.949  11.927  63.950  1.00  0.00    -0.267 OA 
HETATM   15  C   UNL     1     -10.309  11.476  66.039  1.00  0.00    -0.290 C  
HETATM   16  C   UNL     1     -10.539  12.783  66.929  1.00  0.00    -0.257 C  
HETATM   17  C   UNL     1      -8.670  15.270  69.758  1.00  0.00     0.009 C  
HETATM   18  C   UNL     1      -8.201  16.628  68.928  1.00  0.00    -0.231 C  
HETATM   19  H   UNL     1      -9.400  12.762  64.008  1.00  0.00     0.000 HD 
HETATM   20  C   UNL     1     -10.994  16.551  68.912  1.00  0.00    -0.325 C  
HETATM   21  C   UNL     1      -8.954  16.553  67.500  1.00  0.00    -0.201 C  
HETATM   22  C   UNL     1     -10.804  14.030  66.100  1.00  0.00    -0.291 C  
HETATM   23  C   UNL     1     -10.111  15.634  67.944  1.00  0.00    -0.225 C  
HETATM   24  H   UNL     1      -9.911  15.211  64.749  1.00  0.00     0.000 HD 
HETATM   25  O   UNL     1      -9.746  14.432  65.267  1.00  0.00    -0.243 OA 
HETATM   26  C   UNL     1     -11.204  15.108  67.049  1.00  0.00    -0.308 C  
ENDROOT
BRANCH   7  27
HETATM   27  O   UNL     1      -8.736   7.565  65.150  1.00  0.00    -0.024 OA 
BRANCH  27  28
HETATM   28  C   UNL     1      -8.789   6.330  65.860  1.00  0.00    -0.139 C  
HETATM   29  C   UNL     1      -8.536   3.778  65.770  1.00  0.00    -0.110 C  
HETATM   30  H   UNL     1      -6.103   3.133  65.520  1.00  0.00     0.000 HD 
HETATM   31  C   UNL     1      -8.517   5.313  68.671  1.00  0.00    -0.088 C  
HETATM   32  O   UNL     1      -9.741   3.316  66.405  1.00  0.00    -0.402 OA 
HETATM   33  C   UNL     1      -8.824   5.058  64.964  1.00  0.00    -0.149 C  
HETATM   34  O   UNL     1     -10.113   4.897  64.333  1.00  0.00    -0.308 OA 
HETATM   35  H   UNL     1     -10.456   3.216  65.787  1.00  0.00     0.000 HD 
HETATM   36  O   UNL     1      -6.154   3.941  66.017  1.00  0.00    -0.026 OA 
HETATM   37  C   UNL     1      -7.384   3.940  66.766  1.00  0.00    -0.072 C  
HETATM   38  H   UNL     1     -10.135   4.121  63.785  1.00  0.00     0.000 HD 
HETATM   39  C   UNL     1      -7.467   5.246  67.569  1.00  0.00    -0.084 C  
HETATM   40  O   UNL     1      -7.607   6.343  66.669  1.00  0.00    -0.091 OA 
ENDBRANCH  27  28
ENDBRANCH   7  27
BRANCH  15  41
HETATM   41  C   UNL     1     -11.482  11.447  64.977  1.00  0.00     0.059 C  
HETATM   42  H   UNL     1     -13.354  12.164  64.697  1.00  0.00     0.000 HD 
HETATM   43  O   UNL     1     -12.650  12.182  65.335  1.00  0.00    -0.480 OA 
ENDBRANCH  15  41
BRANCH  21  44
HETATM   44  C   UNL     1      -9.250  17.700  66.613  1.00  0.00    -0.284 C  
HETATM   45  C   UNL     1     -10.319  19.392  65.594  1.00  0.00    -0.216 C  
HETATM   46  O   UNL     1     -11.235  20.021  65.095  1.00  0.00    -0.247 OA 
HETATM   47  O   UNL     1      -9.057  19.833  65.721  1.00  0.00    -0.369 OA 
HETATM   48  C   UNL     1      -8.294  18.812  66.370  1.00  0.00    -0.280 C  
HETATM   49  C   UNL     1     -10.455  18.059  66.164  1.00  0.00    -0.336 C  
ENDBRANCH  21  44
TORSDOF 4
ENDMDL
MODEL       57
REMARK 921   NORMALIZED FREE ENERGY PREDICTED BY IDOCK:   -5.75 KCAL/MOL
REMARK 922        TOTAL FREE ENERGY PREDICTED BY IDOCK:   -8.04 KCAL/MOL
REMARK 923 INTER-LIGAND FREE ENERGY PREDICTED BY IDOCK:   -8.19 KCAL/MOL
REMARK 924 INTRA-LIGAND FREE ENERGY PREDICTED BY IDOCK:    0.15 KCAL/MOL
REMARK 927      BINDING AFFINITY PREDICTED BY RF-SCORE:    0.00 PKD
ROOT
HETATM    1  C   UNL     1     -10.621  14.898  68.195  1.00  0.00    -0.244 C  
HETATM    2  C   UNL     1     -11.823  14.307  68.925  1.00  0.00    -0.372 C  
HETATM    3  C   UNL     1     -11.634  12.774  69.052  1.00  0.00    -0.366 C  
HETATM    4  C   UNL     1     -11.342  12.026  67.703  1.00  0.00    -0.307 C  
HETATM    5  O   UNL     1     -12.493  12.252  66.891  1.00  0.00    -0.221 OA 
HETATM    6  C   UNL     1     -11.157  10.514  67.837  1.00  0.00    -0.367 C  
HETATM    7  C   UNL     1     -10.289  10.193  69.025  1.00  0.00    -0.212 C  
HETATM    8  H   UNL     1     -12.315  11.800  66.075  1.00  0.00     0.000 HD 
HETATM    9  H   UNL     1      -9.009  17.080  69.382  1.00  0.00     0.000 HD 
HETATM   10  C   UNL     1      -8.945  10.940  68.951  1.00  0.00    -0.146 C  
HETATM   11  C   UNL     1      -8.818  12.177  67.983  1.00  0.00    -0.181 C  
HETATM   12  O   UNL     1      -9.206  16.153  69.323  1.00  0.00    -0.255 OA 
HETATM   13  C   UNL     1     -10.292  16.444  68.293  1.00  0.00    -0.279 C  
HETATM   14  O   UNL     1      -7.584  12.042  67.270  1.00  0.00    -0.141 OA 
HETATM   15  C   UNL     1     -10.046  12.585  67.030  1.00  0.00    -0.222 C  
HETATM   16  C   UNL     1     -10.328  14.148  66.858  1.00  0.00    -0.269 C  
HETATM   17  C   UNL     1     -10.657  17.741  69.016  1.00  0.00    -0.015 C  
HETATM   18  C   UNL     1      -9.238  18.561  68.752  1.00  0.00    -0.292 C  
HETATM   19  H   UNL     1      -7.507  12.788  66.686  1.00  0.00     0.000 HD 
HETATM   20  C   UNL     1     -10.582  18.388  66.308  1.00  0.00    -0.343 C  
HETATM   21  C   UNL     1      -8.507  17.793  67.533  1.00  0.00    -0.227 C  
HETATM   22  C   UNL     1      -9.302  14.845  65.976  1.00  0.00    -0.241 C  
HETATM   23  C   UNL     1      -9.773  17.154  66.925  1.00  0.00    -0.270 C  
HETATM   24  H   UNL     1      -7.346  15.277  65.919  1.00  0.00     0.000 HD 
HETATM   25  O   UNL     1      -7.987  14.842  66.470  1.00  0.00     0.174 OA 
HETATM   26  C   UNL     1      -9.802  16.228  65.736  1.00  0.00    -0.332 C  
ENDROOT
BRANCH   7  27
HETATM   27  O   UNL     1     -10.176   8.777  69.040  1.00  0.00    -0.197 OA 
BRANCH  27  28
HETATM   28  C   UNL     1      -8.991   8.203  69.584  1.00  0.00    -0.154 C  
HETATM   29  C   UNL     1      -6.428   8.249  69.699  1.00  0.00    -0.037 C  
HETATM   30  H   UNL     1      -5.631  10.270  70.994  1.00  0.00     0.000 HD 
HETATM   31  C   UNL     1      -8.129   6.626  71.988  1.00  0.00    -0.102 C  
HETATM   32  O   UNL     1      -6.074   6.874  69.471  1.00  0.00    -0.031 OA 
HETATM   33  C   UNL     1      -7.673   8.616  68.869  1.00  0.00    -0.100 C  
HETATM   34  O   UNL     1      -7.548   7.969  67.584  1.00  0.00    -0.098 OA 
HETATM   35  H   UNL     1      -5.979   6.677  68.547  1.00  0.00     0.000 HD 
HETATM   36  O   UNL     1      -6.469   9.994  71.347  1.00  0.00    -0.323 OA 
HETATM   37  C   UNL     1      -6.582   8.567  71.189  1.00  0.00    -0.055 C  
HETATM   38  H   UNL     1      -6.743   8.221  67.147  1.00  0.00     0.000 HD 
HETATM   39  C   UNL     1      -7.937   8.120  71.758  1.00  0.00    -0.121 C  
HETATM   40  O   UNL     1      -8.984   8.646  70.947  1.00  0.00    -0.154 OA 
ENDBRANCH  27  28
ENDBRANCH   7  27
BRANCH  15  41
HETATM   41  C   UNL     1      -9.782  12.016  65.577  1.00  0.00    -0.202 C  
HETATM   42  H   UNL     1      -9.019  10.384  64.654  1.00  0.00     0.000 HD 
HETATM   43  O   UNL     1      -9.177  10.726  65.526  1.00  0.00    -0.186 OA 
ENDBRANCH  15  41
BRANCH  21  44
HETATM   44  C   UNL     1      -7.492  18.373  66.626  1.00  0.00    -0.253 C  
HETATM   45  C   UNL     1      -6.057  19.810  65.665  1.00  0.00    -0.190 C  
HETATM   46  O   UNL     1      -5.606  20.867  65.263  1.00  0.00    -0.205 OA 
HETATM   47  O   UNL     1      -5.436  18.622  65.579  1.00  0.00    -0.154 OA 
HETATM   48  C   UNL     1      -6.282  17.636  66.176  1.00  0.00    -0.233 C  
HETATM   49  C   UNL     1      -7.344  19.668  66.333  1.00  0.00    -0.266 C  
ENDBRANCH  21  44
TORSDOF 4
ENDMDL
MODEL       58
REMARK 921   NORMALIZED FREE ENERGY PREDICTED BY IDOCK:   -5.75 KCAL/MOL
REMARK 922        TOTAL FREE ENERGY PREDICTED BY IDOCK:   -8.04 KCAL/MOL
REMARK 923 INTER-LIGAND FREE ENERGY PREDICTED BY IDOCK:   -7.53 KCAL/MOL
REMARK 924 INTRA-LIGAND FREE ENERGY PREDICTED BY IDOCK:   -0.51 KCAL/MOL
REMARK 927      BINDING AFFINITY PREDICTED BY RF-SCORE:    0.00 PKD
ROOT
HETATM    1  C   UNL     1      -9.844  10.842  66.534  1.00  0.00    -0.245 C  
HETATM    2  C   UNL     1      -9.952   9.545  65.739  1.00  0.00    -0.316 C  
HETATM    3  C   UNL     1      -9.274   8.404  66.539  1.00  0.00    -0.238 C  
HETATM    4  C   UNL     1      -7.798   8.694  66.989  1.00  0.00    -0.096 C  
HETATM    5  O   UNL     1      -7.062   8.868  65.779  1.00  0.00    -0.082 OA 
HETATM    6  C   UNL     1      -7.135   7.564  67.777  1.00  0.00    -0.085 C  
HETATM    7  C   UNL     1      -8.089   7.005  68.800  1.00  0.00    -0.121 C  
HETATM    8  H   UNL     1      -6.170   9.044  66.052  1.00  0.00     0.000 HD 
HETATM    9  H   UNL     1     -12.242  12.436  67.229  1.00  0.00     0.000 HD 
HETATM   10  C   UNL     1      -8.633   8.115  69.718  1.00  0.00    -0.133 C  
HETATM   11  C   UNL     1      -8.503   9.615  69.254  1.00  0.00    -0.150 C  
HETATM   12  O   UNL     1     -11.669  11.701  67.417  1.00  0.00    -0.556 OA 
HETATM   13  C   UNL     1     -10.798  12.067  66.221  1.00  0.00    -0.279 C  
HETATM   14  O   UNL     1      -8.029  10.374  70.371  1.00  0.00    -0.411 OA 
HETATM   15  C   UNL     1      -7.735   9.973  67.887  1.00  0.00    -0.090 C  
HETATM   16  C   UNL     1      -8.378  11.126  66.987  1.00  0.00    -0.144 C  
HETATM   17  C   UNL     1     -12.033  12.501  65.429  1.00  0.00    -0.492 C  
HETATM   18  C   UNL     1     -12.468  13.797  66.370  1.00  0.00    -0.404 C  
HETATM   19  H   UNL     1      -7.950  11.279  70.090  1.00  0.00     0.000 HD 
HETATM   20  C   UNL     1     -10.131  14.491  65.004  1.00  0.00    -0.325 C  
HETATM   21  C   UNL     1     -11.158  14.169  67.240  1.00  0.00    -0.315 C  
HETATM   22  C   UNL     1      -8.172  12.518  67.566  1.00  0.00    -0.175 C  
HETATM   23  C   UNL     1     -10.116  13.541  66.290  1.00  0.00    -0.298 C  
HETATM   24  H   UNL     1      -8.658  13.616  69.170  1.00  0.00     0.000 HD 
HETATM   25  O   UNL     1      -8.786  12.746  68.809  1.00  0.00     0.004 OA 
HETATM   26  C   UNL     1      -8.629  13.490  66.534  1.00  0.00     0.184 C  
ENDROOT
BRANCH   7  27
HETATM   27  O   UNL     1      -7.368   5.983  69.474  1.00  0.00    -0.072 OA 
BRANCH  27  28
HETATM   28  C   UNL     1      -7.595   4.632  69.083  1.00  0.00    -0.056 C  
HETATM   29  C   UNL     1      -9.130   2.962  67.884  1.00  0.00    -0.180 C  
HETATM   30  H   UNL     1      -9.040   3.308  65.380  1.00  0.00     0.000 HD 
HETATM   31  C   UNL     1      -6.026   2.129  68.548  1.00  0.00    -0.024 C  
HETATM   32  O   UNL     1      -9.263   1.903  68.848  1.00  0.00    -0.121 OA 
HETATM   33  C   UNL     1      -9.042   4.320  68.605  1.00  0.00    -0.129 C  
HETATM   34  O   UNL     1      -9.965   4.288  69.715  1.00  0.00    -0.222 OA 
HETATM   35  H   UNL     1      -9.982   2.055  69.450  1.00  0.00     0.000 HD 
HETATM   36  O   UNL     1      -8.195   3.535  65.750  1.00  0.00    -0.096 OA 
HETATM   37  C   UNL     1      -7.971   2.718  66.914  1.00  0.00    -0.076 C  
HETATM   38  H   UNL     1     -10.849   4.098  69.422  1.00  0.00     0.000 HD 
HETATM   39  C   UNL     1      -6.604   3.085  67.511  1.00  0.00    -0.037 C  
HETATM   40  O   UNL     1      -6.657   4.415  68.022  1.00  0.00    -0.041 OA 
ENDBRANCH  27  28
ENDBRANCH   7  27
BRANCH  15  41
HETATM   41  C   UNL     1      -6.264  10.442  68.231  1.00  0.00    -0.051 C  
HETATM   42  H   UNL     1      -4.776  10.076  69.555  1.00  0.00     0.000 HD 
HETATM   43  O   UNL     1      -5.660   9.794  69.348  1.00  0.00    -0.035 OA 
ENDBRANCH  15  41
BRANCH  21  44
HETATM   44  C   UNL     1     -10.868  15.484  67.853  1.00  0.00    -0.307 C  
HETATM   45  C   UNL     1     -10.752  17.700  68.202  1.00  0.00    -0.307 C  
HETATM   46  O   UNL     1     -10.642  18.886  67.949  1.00  0.00    -0.395 OA 
HETATM   47  O   UNL     1     -10.951  17.187  69.428  1.00  0.00    -0.116 OA 
HETATM   48  C   UNL     1     -11.042  15.765  69.303  1.00  0.00    -0.297 C  
HETATM   49  C   UNL     1     -10.712  16.640  67.204  1.00  0.00    -0.202 C  
ENDBRANCH  21  44
TORSDOF 4
ENDMDL
MODEL       59
REMARK 921   NORMALIZED FREE ENERGY PREDICTED BY IDOCK:   -5.75 KCAL/MOL
REMARK 922        TOTAL FREE ENERGY PREDICTED BY IDOCK:   -8.04 KCAL/MOL
REMARK 923 INTER-LIGAND FREE ENERGY PREDICTED BY IDOCK:   -8.51 KCAL/MOL
REMARK 924 INTRA-LIGAND FREE ENERGY PREDICTED BY IDOCK:    0.47 KCAL/MOL
REMARK 927      BINDING AFFINITY PREDICTED BY RF-SCORE:    0.00 PKD
ROOT
HETATM    1  C   UNL     1     -10.259  15.026  66.998  1.00  0.00    -0.257 C  
HETATM    2  C   UNL     1     -11.471  14.486  66.247  1.00  0.00    -0.358 C  
HETATM    3  C   UNL     1     -11.542  12.949  66.439  1.00  0.00    -0.425 C  
HETATM    4  C   UNL     1     -10.230  12.172  66.070  1.00  0.00    -0.237 C  
HETATM    5  O   UNL     1     -10.022  12.422  64.681  1.00  0.00    -0.418 OA 
HETATM    6  C   UNL     1     -10.308  10.657  66.262  1.00  0.00    -0.296 C  
HETATM    7  C   UNL     1     -10.981  10.326  67.568  1.00  0.00    -0.280 C  
HETATM    8  H   UNL     1      -9.227  11.952  64.458  1.00  0.00     0.000 HD 
HETATM    9  H   UNL     1     -10.522  17.173  69.020  1.00  0.00     0.000 HD 
HETATM   10  C   UNL     1     -10.285  11.028  68.747  1.00  0.00    -0.211 C  
HETATM   11  C   UNL     1      -9.329  12.245  68.448  1.00  0.00    -0.162 C  
HETATM   12  O   UNL     1     -10.585  16.252  68.798  1.00  0.00    -0.261 OA 
HETATM   13  C   UNL     1     -10.153  16.562  67.369  1.00  0.00    -0.279 C  
HETATM   14  O   UNL     1      -8.138  12.060  69.220  1.00  0.00    -0.325 OA 
HETATM   15  C   UNL     1      -9.026  12.678  66.930  1.00  0.00    -0.213 C  
HETATM   16  C   UNL     1      -8.956  14.247  66.635  1.00  0.00    -0.212 C  
HETATM   17  C   UNL     1     -10.925  17.882  67.401  1.00  0.00    -0.089 C  
HETATM   18  C   UNL     1     -10.023  18.651  68.562  1.00  0.00    -0.430 C  
HETATM   19  H   UNL     1      -7.562  12.794  69.039  1.00  0.00     0.000 HD 
HETATM   20  C   UNL     1      -8.461  18.483  66.251  1.00  0.00    -0.227 C  
HETATM   21  C   UNL     1      -8.627  17.841  68.642  1.00  0.00    -0.264 C  
HETATM   22  C   UNL     1      -7.685  14.897  67.163  1.00  0.00    -0.142 C  
HETATM   23  C   UNL     1      -8.679  17.233  67.225  1.00  0.00    -0.221 C  
HETATM   24  H   UNL     1      -6.735  15.264  68.888  1.00  0.00     0.000 HD 
HETATM   25  O   UNL     1      -7.528  14.858  68.558  1.00  0.00    -0.107 OA 
HETATM   26  C   UNL     1      -7.659  16.291  66.639  1.00  0.00    -0.268 C  
ENDROOT
BRANCH   7  27
HETATM   27  O   UNL     1     -10.984   8.908  67.645  1.00  0.00    -0.129 OA 
BRANCH  27  28
HETATM   28  C   UNL     1      -9.928   8.271  68.359  1.00  0.00    -0.190 C  
HETATM   29  C   UNL     1      -7.517   8.413  69.224  1.00  0.00    -0.084 C  
HETATM   30  H   UNL     1      -7.353  10.062  71.135  1.00  0.00     0.000 HD 
HETATM   31  C   UNL     1      -9.559   6.164  70.465  1.00  0.00    -0.192 C  
HETATM   32  O   UNL     1      -6.949   7.165  68.790  1.00  0.00    -0.076 OA 
HETATM   33  C   UNL     1      -8.527   8.922  68.179  1.00  0.00    -0.129 C  
HETATM   34  O   UNL     1      -7.983   8.641  66.871  1.00  0.00    -0.094 OA 
HETATM   35  H   UNL     1      -6.585   7.222  67.915  1.00  0.00     0.000 HD 
HETATM   36  O   UNL     1      -8.214   9.661  71.152  1.00  0.00    -0.239 OA 
HETATM   37  C   UNL     1      -8.105   8.322  70.635  1.00  0.00    -0.110 C  
HETATM   38  H   UNL     1      -7.127   9.039  66.761  1.00  0.00     0.000 HD 
HETATM   39  C   UNL     1      -9.497   7.674  70.661  1.00  0.00    -0.163 C  
HETATM   40  O   UNL     1     -10.343   8.342  69.728  1.00  0.00    -0.207 OA 
ENDBRANCH  27  28
ENDBRANCH   7  27
BRANCH  15  41
HETATM   41  C   UNL     1      -7.629  12.078  66.492  1.00  0.00     0.203 C  
HETATM   42  H   UNL     1      -6.829  10.819  65.124  1.00  0.00     0.000 HD 
HETATM   43  O   UNL     1      -7.668  11.179  65.387  1.00  0.00     0.123 OA 
ENDBRANCH  15  41
BRANCH  21  44
HETATM   44  C   UNL     1      -7.342  18.374  69.147  1.00  0.00    -0.155 C  
HETATM   45  C   UNL     1      -5.824  19.666  70.183  1.00  0.00    -0.280 C  
HETATM   46  O   UNL     1      -5.293  20.675  70.610  1.00  0.00    -0.373 OA 
HETATM   47  O   UNL     1      -5.355  18.417  70.345  1.00  0.00    -0.222 OA 
HETATM   48  C   UNL     1      -6.269  17.516  69.714  1.00  0.00    -0.183 C  
HETATM   49  C   UNL     1      -7.079  19.649  69.444  1.00  0.00    -0.326 C  
ENDBRANCH  21  44
TORSDOF 4
ENDMDL
MODEL       60
REMARK 921   NORMALIZED FREE ENERGY PREDICTED BY IDOCK:   -5.73 KCAL/MOL
REMARK 922        TOTAL FREE ENERGY PREDICTED BY IDOCK:   -8.03 KCAL/MOL
REMARK 923 INTER-LIGAND FREE ENERGY PREDICTED BY IDOCK:   -6.79 KCAL/MOL
REMARK 924 INTRA-LIGAND FREE ENERGY PREDICTED BY IDOCK:   -1.24 KCAL/MOL
REMARK 927      BINDING AFFINITY PREDICTED BY RF-SCORE:    0.00 PKD
ROOT
HETATM    1  C   UNL     1      -9.789  12.870  66.133  1.00  0.00    -0.270 C  
HETATM    2  C   UNL     1      -9.759  11.766  65.081  1.00  0.00    -0.228 C  
HETATM    3  C   UNL     1      -9.979  10.398  65.776  1.00  0.00    -0.334 C  
HETATM    4  C   UNL     1      -9.007  10.096  66.970  1.00  0.00    -0.135 C  
HETATM    5  O   UNL     1      -7.700  10.082  66.398  1.00  0.00    -0.100 OA 
HETATM    6  C   UNL     1      -9.230   8.745  67.651  1.00  0.00    -0.148 C  
HETATM    7  C   UNL     1     -10.701   8.495  67.856  1.00  0.00    -0.082 C  
HETATM    8  H   UNL     1      -7.112   9.899  67.122  1.00  0.00     0.000 HD 
HETATM    9  H   UNL     1     -11.643  15.168  65.911  1.00  0.00     0.000 HD 
HETATM   10  C   UNL     1     -11.359   9.652  68.629  1.00  0.00     0.099 C  
HETATM   11  C   UNL     1     -10.605  11.033  68.714  1.00  0.00    -0.202 C  
HETATM   12  O   UNL     1     -11.493  14.264  66.160  1.00  0.00    -0.338 OA 
HETATM   13  C   UNL     1     -10.038  14.378  65.719  1.00  0.00    -0.340 C  
HETATM   14  O   UNL     1     -10.671  11.479  70.073  1.00  0.00    -0.385 OA 
HETATM   15  C   UNL     1      -9.136  11.190  68.079  1.00  0.00    -0.153 C  
HETATM   16  C   UNL     1      -8.827  12.563  67.324  1.00  0.00    -0.195 C  
HETATM   17  C   UNL     1     -10.440  15.291  64.560  1.00  0.00     0.188 C  
HETATM   18  C   UNL     1     -10.978  16.581  65.456  1.00  0.00    -0.096 C  
HETATM   19  H   UNL     1     -10.216  12.312  70.124  1.00  0.00     0.000 HD 
HETATM   20  C   UNL     1      -8.197  16.478  65.706  1.00  0.00     0.439 C  
HETATM   21  C   UNL     1     -10.352  16.382  66.932  1.00  0.00    -0.300 C  
HETATM   22  C   UNL     1      -8.634  13.736  68.273  1.00  0.00    -0.175 C  
HETATM   23  C   UNL     1      -9.162  15.492  66.515  1.00  0.00    -0.324 C  
HETATM   24  H   UNL     1      -9.639  14.809  69.635  1.00  0.00     0.000 HD 
HETATM   25  O   UNL     1      -9.760  14.077  69.042  1.00  0.00    -0.098 OA 
HETATM   26  C   UNL     1      -8.152  14.885  67.455  1.00  0.00    -0.200 C  
ENDROOT
BRANCH   7  27
HETATM   27  O   UNL     1     -10.786   7.232  68.501  1.00  0.00    -0.194 OA 
BRANCH  27  28
HETATM   28  C   UNL     1     -10.665   7.194  69.921  1.00  0.00    -0.239 C  
HETATM   29  C   UNL     1     -11.439   6.130  72.123  1.00  0.00    -0.311 C  
HETATM   30  H   UNL     1     -10.558   3.768  72.329  1.00  0.00     0.000 HD 
HETATM   31  C   UNL     1      -8.657   7.869  72.048  1.00  0.00    -0.173 C  
HETATM   32  O   UNL     1     -11.734   7.273  72.944  1.00  0.00    -0.543 OA 
HETATM   33  C   UNL     1     -11.802   6.428  70.656  1.00  0.00    -0.250 C  
HETATM   34  O   UNL     1     -13.031   7.185  70.654  1.00  0.00    -0.597 OA 
HETATM   35  H   UNL     1     -12.628   7.573  72.832  1.00  0.00     0.000 HD 
HETATM   36  O   UNL     1      -9.931   4.285  71.837  1.00  0.00    -0.174 OA 
HETATM   37  C   UNL     1      -9.997   5.646  72.301  1.00  0.00    -0.172 C  
HETATM   38  H   UNL     1     -13.726   6.717  71.103  1.00  0.00     0.000 HD 
HETATM   39  C   UNL     1      -8.984   6.482  71.506  1.00  0.00    -0.140 C  
HETATM   40  O   UNL     1      -9.402   6.556  70.145  1.00  0.00    -0.157 OA 
ENDBRANCH  27  28
ENDBRANCH   7  27
BRANCH  15  41
HETATM   41  C   UNL     1      -8.060  11.063  69.233  1.00  0.00    -0.003 C  
HETATM   42  H   UNL     1      -6.063  10.849  69.490  1.00  0.00     0.000 HD 
HETATM   43  O   UNL     1      -6.710  10.925  68.797  1.00  0.00    -0.056 OA 
ENDBRANCH  15  41
BRANCH  21  44
HETATM   44  C   UNL     1     -10.133  17.449  67.933  1.00  0.00    -0.326 C  
HETATM   45  C   UNL     1     -10.021  19.466  68.916  1.00  0.00    -0.445 C  
HETATM   46  O   UNL     1      -9.842  20.665  69.033  1.00  0.00     0.296 OA 
HETATM   47  O   UNL     1     -10.427  18.646  69.899  1.00  0.00     0.576 OA 
HETATM   48  C   UNL     1     -10.532  17.325  69.360  1.00  0.00    -0.142 C  
HETATM   49  C   UNL     1      -9.846  18.727  67.674  1.00  0.00    -0.365 C  
ENDBRANCH  21  44
TORSDOF 4
ENDMDL
MODEL       61
REMARK 921   NORMALIZED FREE ENERGY PREDICTED BY IDOCK:   -5.63 KCAL/MOL
REMARK 922        TOTAL FREE ENERGY PREDICTED BY IDOCK:   -7.90 KCAL/MOL
REMARK 923 INTER-LIGAND FREE ENERGY PREDICTED BY IDOCK:   -7.58 KCAL/MOL
REMARK 924 INTRA-LIGAND FREE ENERGY PREDICTED BY IDOCK:   -0.31 KCAL/MOL
REMARK 927      BINDING AFFINITY PREDICTED BY RF-SCORE:    0.00 PKD
ROOT
HETATM    1  C   UNL     1     -10.497  12.086  68.549  1.00  0.00    -0.244 C  
HETATM    2  C   UNL     1     -11.632  12.811  69.264  1.00  0.00    -0.372 C  
HETATM    3  C   UNL     1     -11.568  14.320  68.915  1.00  0.00    -0.340 C  
HETATM    4  C   UNL     1     -10.180  15.004  69.175  1.00  0.00    -0.241 C  
HETATM    5  O   UNL     1      -9.955  14.878  70.578  1.00  0.00    -0.328 OA 
HETATM    6  C   UNL     1     -10.125  16.492  68.828  1.00  0.00    -0.255 C  
HETATM    7  C   UNL     1     -10.803  16.751  67.508  1.00  0.00    -0.216 C  
HETATM    8  H   UNL     1      -9.114  15.291  70.735  1.00  0.00     0.000 HD 
HETATM    9  H   UNL     1     -11.015   9.779  66.766  1.00  0.00     0.000 HD 
HETATM   10  C   UNL     1     -10.209  15.871  66.395  1.00  0.00    -0.311 C  
HETATM   11  C   UNL     1      -9.360  14.605  66.799  1.00  0.00    -0.257 C  
HETATM   12  O   UNL     1     -10.987  10.720  66.893  1.00  0.00    -0.256 OA 
HETATM   13  C   UNL     1     -10.543  10.517  68.337  1.00  0.00    -0.199 C  
HETATM   14  O   UNL     1      -8.181  14.599  65.989  1.00  0.00     0.221 OA 
HETATM   15  C   UNL     1      -9.053  14.302  68.348  1.00  0.00    -0.194 C  
HETATM   16  C   UNL     1      -9.118  12.772  68.803  1.00  0.00     0.168 C  
HETATM   17  C   UNL     1     -11.433   9.279  68.458  1.00  0.00     0.562 C  
HETATM   18  C   UNL     1     -10.639   8.315  67.365  1.00  0.00    -0.324 C  
HETATM   19  H   UNL     1      -7.669  13.837  66.234  1.00  0.00     0.000 HD 
HETATM   20  C   UNL     1      -9.001   8.569  69.614  1.00  0.00    -0.145 C  
HETATM   21  C   UNL     1      -9.178   8.978  67.173  1.00  0.00    -0.164 C  
HETATM   22  C   UNL     1      -7.928  11.956  68.320  1.00  0.00    -0.148 C  
HETATM   23  C   UNL     1      -9.133   9.729  68.521  1.00  0.00    -0.128 C  
HETATM   24  H   UNL     1      -7.066  11.328  66.623  1.00  0.00     0.000 HD 
HETATM   25  O   UNL     1      -7.810  11.838  66.925  1.00  0.00    -0.160 OA 
HETATM   26  C   UNL     1      -8.014  10.625  68.985  1.00  0.00    -0.140 C  
ENDROOT
BRANCH   7  27
HETATM   27  O   UNL     1     -10.679  18.148  67.285  1.00  0.00    -0.390 OA 
BRANCH  27  28
HETATM   28  C   UNL     1      -9.418  18.649  66.850  1.00  0.00    -0.301 C  
HETATM   29  C   UNL     1      -7.814  20.648  66.737  1.00  0.00    -0.146 C  
HETATM   30  H   UNL     1      -6.828  21.128  69.017  1.00  0.00     0.000 HD 
HETATM   31  C   UNL     1      -6.685  17.622  66.153  1.00  0.00    -0.321 C  
HETATM   32  O   UNL     1      -7.449  20.686  65.346  1.00  0.00    -0.525 OA 
HETATM   33  C   UNL     1      -9.279  20.198  66.884  1.00  0.00    -0.377 C  
HETATM   34  O   UNL     1     -10.036  20.817  65.820  1.00  0.00    -0.452 OA 
HETATM   35  H   UNL     1      -8.054  21.207  64.831  1.00  0.00     0.000 HD 
HETATM   36  O   UNL     1      -6.991  20.195  68.946  1.00  0.00    -0.278 OA 
HETATM   37  C   UNL     1      -6.839  19.808  67.567  1.00  0.00    -0.222 C  
HETATM   38  H   UNL     1      -9.951  21.763  65.842  1.00  0.00     0.000 HD 
HETATM   39  C   UNL     1      -7.104  18.299  67.453  1.00  0.00    -0.200 C  
HETATM   40  O   UNL     1      -8.476  18.040  67.740  1.00  0.00    -0.240 OA 
ENDBRANCH  27  28
ENDBRANCH   7  27
BRANCH  15  41
HETATM   41  C   UNL     1      -7.595  14.810  68.693  1.00  0.00    -0.126 C  
HETATM   42  H   UNL     1      -6.374  15.092  70.284  1.00  0.00     0.000 HD 
HETATM   43  O   UNL     1      -7.250  14.787  70.076  1.00  0.00    -0.136 OA 
ENDBRANCH  15  41
BRANCH  21  44
HETATM   44  C   UNL     1      -7.963   8.279  66.701  1.00  0.00    -0.098 C  
HETATM   45  C   UNL     1      -6.603   6.775  65.733  1.00  0.00    -0.051 C  
HETATM   46  O   UNL     1      -6.192   5.693  65.355  1.00  0.00    -0.028 OA 
HETATM   47  O   UNL     1      -5.993   7.952  65.519  1.00  0.00    -0.037 OA 
HETATM   48  C   UNL     1      -6.797   8.981  66.103  1.00  0.00    -0.081 C  
HETATM   49  C   UNL     1      -7.848   6.970  66.463  1.00  0.00    -0.106 C  
ENDBRANCH  21  44
TORSDOF 4
ENDMDL
MODEL       62
REMARK 921   NORMALIZED FREE ENERGY PREDICTED BY IDOCK:   -5.59 KCAL/MOL
REMARK 922        TOTAL FREE ENERGY PREDICTED BY IDOCK:   -7.84 KCAL/MOL
REMARK 923 INTER-LIGAND FREE ENERGY PREDICTED BY IDOCK:   -6.82 KCAL/MOL
REMARK 924 INTRA-LIGAND FREE ENERGY PREDICTED BY IDOCK:   -1.03 KCAL/MOL
REMARK 927      BINDING AFFINITY PREDICTED BY RF-SCORE:    0.00 PKD
ROOT
HETATM    1  C   UNL     1      -7.927   7.319  67.568  1.00  0.00    -0.113 C  
HETATM    2  C   UNL     1      -7.473   7.738  66.173  1.00  0.00    -0.079 C  
HETATM    3  C   UNL     1      -7.266   9.274  66.148  1.00  0.00    -0.091 C  
HETATM    4  C   UNL     1      -8.493  10.118  66.644  1.00  0.00    -0.126 C  
HETATM    5  O   UNL     1      -9.551   9.812  65.737  1.00  0.00    -0.213 OA 
HETATM    6  C   UNL     1      -8.281  11.632  66.616  1.00  0.00    -0.140 C  
HETATM    7  C   UNL     1      -6.919  11.983  67.155  1.00  0.00    -0.134 C  
HETATM    8  H   UNL     1     -10.293  10.322  66.037  1.00  0.00     0.000 HD 
HETATM    9  H   UNL     1      -6.464   5.265  69.120  1.00  0.00     0.000 HD 
HETATM   10  C   UNL     1      -6.706  11.390  68.559  1.00  0.00    -0.069 C  
HETATM   11  C   UNL     1      -7.652  10.226  69.042  1.00  0.00    -0.102 C  
HETATM   12  O   UNL     1      -6.542   6.167  68.834  1.00  0.00    -0.047 OA 
HETATM   13  C   UNL     1      -7.798   5.814  68.045  1.00  0.00    -0.100 C  
HETATM   14  O   UNL     1      -8.063  10.530  70.379  1.00  0.00    -0.331 OA 
HETATM   15  C   UNL     1      -8.870   9.738  68.113  1.00  0.00    -0.119 C  
HETATM   16  C   UNL     1      -9.143   8.164  68.061  1.00  0.00    -0.134 C  
HETATM   17  C   UNL     1      -7.211   4.449  67.683  1.00  0.00    -0.068 C  
HETATM   18  C   UNL     1      -7.169   3.802  69.211  1.00  0.00    -0.049 C  
HETATM   19  H   UNL     1      -8.634   9.828  70.670  1.00  0.00     0.000 HD 
HETATM   20  C   UNL     1      -9.848   3.957  68.433  1.00  0.00    -0.012 C  
HETATM   21  C   UNL     1      -8.169   4.707  70.100  1.00  0.00    -0.068 C  
HETATM   22  C   UNL     1      -9.787   7.629  69.332  1.00  0.00    -0.171 C  
HETATM   23  C   UNL     1      -9.031   5.237  68.934  1.00  0.00    -0.120 C  
HETATM   24  H   UNL     1      -9.410   7.415  71.288  1.00  0.00     0.000 HD 
HETATM   25  O   UNL     1      -9.008   7.749  70.495  1.00  0.00    -0.147 OA 
HETATM   26  C   UNL     1     -10.171   6.215  69.063  1.00  0.00    -0.237 C  
ENDROOT
BRANCH   7  27
HETATM   27  O   UNL     1      -6.841  13.400  67.094  1.00  0.00    -0.129 OA 
BRANCH  27  28
HETATM   28  C   UNL     1      -7.909  14.156  67.659  1.00  0.00    -0.179 C  
HETATM   29  C   UNL     1      -8.609  16.066  69.221  1.00  0.00    -0.224 C  
HETATM   30  H   UNL     1      -8.016  18.307  68.209  1.00  0.00     0.000 HD 
HETATM   31  C   UNL     1     -10.748  14.895  67.026  1.00  0.00    -0.307 C  
HETATM   32  O   UNL     1      -9.627  15.457  70.034  1.00  0.00    -0.422 OA 
HETATM   33  C   UNL     1      -7.518  15.033  68.882  1.00  0.00    -0.143 C  
HETATM   34  O   UNL     1      -7.300  14.225  70.059  1.00  0.00    -0.375 OA 
HETATM   35  H   UNL     1      -9.265  15.029  70.801  1.00  0.00     0.000 HD 
HETATM   36  O   UNL     1      -8.215  17.699  67.507  1.00  0.00    -0.212 OA 
HETATM   37  C   UNL     1      -9.192  16.755  67.984  1.00  0.00    -0.228 C  
HETATM   38  H   UNL     1      -7.061  14.761  70.806  1.00  0.00     0.000 HD 
HETATM   39  C   UNL     1      -9.515  15.772  66.849  1.00  0.00    -0.228 C  
HETATM   40  O   UNL     1      -8.363  14.977  66.576  1.00  0.00    -0.172 OA 
ENDBRANCH  27  28
ENDBRANCH   7  27
BRANCH  15  41
HETATM   41  C   UNL     1     -10.209  10.407  68.624  1.00  0.00    -0.181 C  
HETATM   42  H   UNL     1     -12.129  10.696  68.051  1.00  0.00     0.000 HD 
HETATM   43  O   UNL     1     -11.324  10.294  67.744  1.00  0.00    -0.322 OA 
ENDBRANCH  15  41
BRANCH  21  44
HETATM   44  C   UNL     1      -8.838   4.288  71.352  1.00  0.00    -0.149 C  
HETATM   45  C   UNL     1     -10.111   4.304  73.202  1.00  0.00    -0.148 C  
HETATM   46  O   UNL     1     -10.662   4.736  74.199  1.00  0.00    -0.285 OA 
HETATM   47  O   UNL     1     -10.229   3.050  72.735  1.00  0.00    -0.144 OA 
HETATM   48  C   UNL     1      -9.446   2.946  71.543  1.00  0.00    -0.146 C  
HETATM   49  C   UNL     1      -9.251   5.094  72.333  1.00  0.00    -0.148 C  
ENDBRANCH  21  44
TORSDOF 4
ENDMDL
MODEL       63
REMARK 921   NORMALIZED FREE ENERGY PREDICTED BY IDOCK:   -5.58 KCAL/MOL
REMARK 922        TOTAL FREE ENERGY PREDICTED BY IDOCK:   -7.84 KCAL/MOL
REMARK 923 INTER-LIGAND FREE ENERGY PREDICTED BY IDOCK:   -6.94 KCAL/MOL
REMARK 924 INTRA-LIGAND FREE ENERGY PREDICTED BY IDOCK:   -0.90 KCAL/MOL
REMARK 927      BINDING AFFINITY PREDICTED BY RF-SCORE:    0.00 PKD
ROOT
HETATM    1  C   UNL     1      -7.232   8.602  69.734  1.00  0.00    -0.051 C  
HETATM    2  C   UNL     1      -6.412   9.845  70.064  1.00  0.00    -0.082 C  
HETATM    3  C   UNL     1      -7.082  11.081  69.411  1.00  0.00    -0.128 C  
HETATM    4  C   UNL     1      -7.356  10.951  67.871  1.00  0.00    -0.088 C  
HETATM    5  O   UNL     1      -6.072  10.791  67.272  1.00  0.00    -0.052 OA 
HETATM    6  C   UNL     1      -8.017  12.174  67.234  1.00  0.00    -0.176 C  
HETATM    7  C   UNL     1      -9.130  12.687  68.109  1.00  0.00    -0.204 C  
HETATM    8  H   UNL     1      -6.238  10.712  66.340  1.00  0.00     0.000 HD 
HETATM    9  H   UNL     1      -8.272   6.824  71.862  1.00  0.00     0.000 HD 
HETATM   10  C   UNL     1     -10.146  11.576  68.427  1.00  0.00    -0.207 C  
HETATM   11  C   UNL     1      -9.721  10.074  68.206  1.00  0.00    -0.141 C  
HETATM   12  O   UNL     1      -8.363   7.617  71.347  1.00  0.00    -0.104 OA 
HETATM   13  C   UNL     1      -7.081   7.279  70.593  1.00  0.00    -0.065 C  
HETATM   14  O   UNL     1     -10.796   9.416  67.529  1.00  0.00    -0.396 OA 
HETATM   15  C   UNL     1      -8.284   9.727  67.575  1.00  0.00    -0.114 C  
HETATM   16  C   UNL     1      -7.510   8.479  68.203  1.00  0.00    -0.097 C  
HETATM   17  C   UNL     1      -6.463   6.695  71.864  1.00  0.00    -0.050 C  
HETATM   18  C   UNL     1      -7.495   5.409  72.053  1.00  0.00    -0.098 C  
HETATM   19  H   UNL     1     -10.540   8.510  67.395  1.00  0.00     0.000 HD 
HETATM   20  C   UNL     1      -5.875   4.875  69.840  1.00  0.00    -0.017 C  
HETATM   21  C   UNL     1      -8.209   5.202  70.619  1.00  0.00    -0.107 C  
HETATM   22  C   UNL     1      -8.107   7.140  67.794  1.00  0.00    -0.115 C  
HETATM   23  C   UNL     1      -7.117   5.880  69.765  1.00  0.00    -0.068 C  
HETATM   24  H   UNL     1      -9.796   6.077  67.973  1.00  0.00     0.000 HD 
HETATM   25  O   UNL     1      -9.423   6.913  68.228  1.00  0.00    -0.128 OA 
HETATM   26  C   UNL     1      -7.173   6.082  68.272  1.00  0.00    -0.084 C  
ENDROOT
BRANCH   7  27
HETATM   27  O   UNL     1      -9.674  13.803  67.417  1.00  0.00    -0.226 OA 
BRANCH  27  28
HETATM   28  C   UNL     1     -10.674  13.559  66.432  1.00  0.00    -0.287 C  
HETATM   29  C   UNL     1     -12.900  14.296  65.391  1.00  0.00    -0.302 C  
HETATM   30  H   UNL     1     -12.600  16.427  64.061  1.00  0.00     0.000 HD 
HETATM   31  C   UNL     1     -10.951  12.220  63.760  1.00  0.00    -0.495 C  
HETATM   32  O   UNL     1     -13.658  13.074  65.361  1.00  0.00    -0.124 OA 
HETATM   33  C   UNL     1     -12.008  14.331  66.645  1.00  0.00    -0.430 C  
HETATM   34  O   UNL     1     -12.768  13.771  67.739  1.00  0.00    -0.138 OA 
HETATM   35  H   UNL     1     -14.140  12.932  66.167  1.00  0.00     0.000 HD 
HETATM   36  O   UNL     1     -11.794  15.926  64.019  1.00  0.00    -0.608 OA 
HETATM   37  C   UNL     1     -12.123  14.525  64.092  1.00  0.00    -0.350 C  
HETATM   38  H   UNL     1     -13.583  14.243  67.869  1.00  0.00     0.000 HD 
HETATM   39  C   UNL     1     -10.821  13.715  64.024  1.00  0.00     0.001 C  
HETATM   40  O   UNL     1     -10.055  13.956  65.202  1.00  0.00    -0.346 OA 
ENDBRANCH  27  28
ENDBRANCH   7  27
BRANCH  15  41
HETATM   41  C   UNL     1      -8.459   9.415  66.034  1.00  0.00    -0.124 C  
HETATM   42  H   UNL     1      -7.367   9.263  64.336  1.00  0.00     0.000 HD 
HETATM   43  O   UNL     1      -7.261   9.451  65.262  1.00  0.00    -0.092 OA 
ENDBRANCH  15  41
BRANCH  21  44
HETATM   44  C   UNL     1      -8.827   3.951  70.129  1.00  0.00    -0.138 C  
HETATM   45  C   UNL     1      -9.309   2.159  68.862  1.00  0.00    -0.145 C  
HETATM   46  O   UNL     1      -9.480   1.490  67.859  1.00  0.00    -0.165 OA 
HETATM   47  O   UNL     1      -9.429   1.710  70.122  1.00  0.00    -0.109 OA 
HETATM   48  C   UNL     1      -9.133   2.792  71.008  1.00  0.00    -0.111 C  
HETATM   49  C   UNL     1      -8.918   3.562  68.854  1.00  0.00    -0.181 C  
ENDBRANCH  21  44
TORSDOF 4
ENDMDL
MODEL       64
REMARK 921   NORMALIZED FREE ENERGY PREDICTED BY IDOCK:   -5.56 KCAL/MOL
REMARK 922        TOTAL FREE ENERGY PREDICTED BY IDOCK:   -7.81 KCAL/MOL
REMARK 923 INTER-LIGAND FREE ENERGY PREDICTED BY IDOCK:   -7.64 KCAL/MOL
REMARK 924 INTRA-LIGAND FREE ENERGY PREDICTED BY IDOCK:   -0.17 KCAL/MOL
REMARK 927      BINDING AFFINITY PREDICTED BY RF-SCORE:    0.00 PKD
ROOT
HETATM    1  C   UNL     1      -9.257   8.497  69.280  1.00  0.00    -0.153 C  
HETATM    2  C   UNL     1      -9.223   9.776  70.109  1.00  0.00    -0.253 C  
HETATM    3  C   UNL     1      -9.425  10.993  69.171  1.00  0.00    -0.064 C  
HETATM    4  C   UNL     1      -8.441  11.060  67.950  1.00  0.00    -0.128 C  
HETATM    5  O   UNL     1      -7.138  11.169  68.521  1.00  0.00    -0.070 OA 
HETATM    6  C   UNL     1      -8.646  12.264  67.029  1.00  0.00    -0.191 C  
HETATM    7  C   UNL     1     -10.113  12.483  66.767  1.00  0.00    -0.223 C  
HETATM    8  H   UNL     1      -6.543  11.209  67.782  1.00  0.00     0.000 HD 
HETATM    9  H   UNL     1     -11.135   6.295  69.907  1.00  0.00     0.000 HD 
HETATM   10  C   UNL     1     -10.777  11.209  66.217  1.00  0.00    -0.298 C  
HETATM   11  C   UNL     1     -10.035   9.829  66.396  1.00  0.00    -0.247 C  
HETATM   12  O   UNL     1     -10.975   7.136  69.496  1.00  0.00    -0.238 OA 
HETATM   13  C   UNL     1      -9.524   7.093  69.964  1.00  0.00    -0.164 C  
HETATM   14  O   UNL     1     -10.097   9.140  65.143  1.00  0.00    -0.234 OA 
HETATM   15  C   UNL     1      -8.573   9.780  67.062  1.00  0.00    -0.127 C  
HETATM   16  C   UNL     1      -8.284   8.568  68.062  1.00  0.00    -0.120 C  
HETATM   17  C   UNL     1      -9.943   6.414  71.268  1.00  0.00    -0.204 C  
HETATM   18  C   UNL     1     -10.488   4.986  70.622  1.00  0.00    -0.227 C  
HETATM   19  H   UNL     1      -9.650   8.308  65.251  1.00  0.00     0.000 HD 
HETATM   20  C   UNL     1      -7.704   5.016  70.382  1.00  0.00    -0.070 C  
HETATM   21  C   UNL     1      -9.850   4.902  69.140  1.00  0.00    -0.263 C  
HETATM   22  C   UNL     1      -8.096   7.238  67.347  1.00  0.00    -0.113 C  
HETATM   23  C   UNL     1      -8.653   5.843  69.395  1.00  0.00    -0.113 C  
HETATM   24  H   UNL     1      -9.102   5.940  66.199  1.00  0.00     0.000 HD 
HETATM   25  O   UNL     1      -9.219   6.771  66.645  1.00  0.00    -0.149 OA 
HETATM   26  C   UNL     1      -7.631   6.257  68.368  1.00  0.00    -0.096 C  
ENDROOT
BRANCH   7  27
HETATM   27  O   UNL     1     -10.180  13.605  65.899  1.00  0.00    -0.296 OA 
BRANCH  27  28
HETATM   28  C   UNL     1     -10.017  14.903  66.465  1.00  0.00    -0.265 C  
HETATM   29  C   UNL     1     -10.358  16.427  68.500  1.00  0.00    -0.270 C  
HETATM   30  H   UNL     1      -8.769  15.794  70.363  1.00  0.00     0.000 HD 
HETATM   31  C   UNL     1      -8.273  17.324  66.129  1.00  0.00    -0.258 C  
HETATM   32  O   UNL     1     -10.979  17.591  67.927  1.00  0.00    -0.323 OA 
HETATM   33  C   UNL     1     -10.833  15.161  67.764  1.00  0.00    -0.292 C  
HETATM   34  O   UNL     1     -12.239  15.324  67.476  1.00  0.00    -0.253 OA 
HETATM   35  H   UNL     1     -11.925  17.511  67.891  1.00  0.00     0.000 HD 
HETATM   36  O   UNL     1      -8.351  15.609  69.530  1.00  0.00    -0.246 OA 
HETATM   37  C   UNL     1      -8.833  16.555  68.557  1.00  0.00    -0.228 C  
HETATM   38  H   UNL     1     -12.738  15.481  68.269  1.00  0.00     0.000 HD 
HETATM   39  C   UNL     1      -8.158  16.256  67.211  1.00  0.00    -0.176 C  
HETATM   40  O   UNL     1      -8.612  14.994  66.727  1.00  0.00    -0.244 OA 
ENDBRANCH  27  28
ENDBRANCH   7  27
BRANCH  15  41
HETATM   41  C   UNL     1      -7.488   9.682  65.915  1.00  0.00    -0.099 C  
HETATM   42  H   UNL     1      -7.057  10.469  64.099  1.00  0.00     0.000 HD 
HETATM   43  O   UNL     1      -7.709  10.528  64.789  1.00  0.00    -0.109 OA 
ENDBRANCH  15  41
BRANCH  21  44
HETATM   44  C   UNL     1      -9.634   3.666  68.356  1.00  0.00    -0.164 C  
HETATM   45  C   UNL     1      -9.021   2.252  66.721  1.00  0.00    -0.119 C  
HETATM   46  O   UNL     1      -8.804   1.843  65.595  1.00  0.00    -0.116 OA 
HETATM   47  O   UNL     1      -8.806   1.558  67.851  1.00  0.00    -0.087 OA 
HETATM   48  C   UNL     1      -9.168   2.389  68.957  1.00  0.00    -0.142 C  
HETATM   49  C   UNL     1      -9.528   3.583  67.028  1.00  0.00    -0.207 C  
ENDBRANCH  21  44
TORSDOF 4
ENDMDL
MODEL       65
REMARK 921   NORMALIZED FREE ENERGY PREDICTED BY IDOCK:   -5.55 KCAL/MOL
REMARK 922        TOTAL FREE ENERGY PREDICTED BY IDOCK:   -7.79 KCAL/MOL
REMARK 923 INTER-LIGAND FREE ENERGY PREDICTED BY IDOCK:   -7.37 KCAL/MOL
REMARK 924 INTRA-LIGAND FREE ENERGY PREDICTED BY IDOCK:   -0.42 KCAL/MOL
REMARK 927      BINDING AFFINITY PREDICTED BY RF-SCORE:    0.00 PKD
ROOT
HETATM    1  C   UNL     1      -7.317   8.720  70.995  1.00  0.00    -0.096 C  
HETATM    2  C   UNL     1      -6.724  10.065  70.587  1.00  0.00    -0.074 C  
HETATM    3  C   UNL     1      -7.791  10.873  69.806  1.00  0.00     0.234 C  
HETATM    4  C   UNL     1      -8.432  10.120  68.586  1.00  0.00    -0.122 C  
HETATM    5  O   UNL     1      -7.351   9.861  67.693  1.00  0.00    -0.088 OA 
HETATM    6  C   UNL     1      -9.484  10.924  67.820  1.00  0.00    -0.165 C  
HETATM    7  C   UNL     1     -10.406  11.632  68.777  1.00  0.00    -0.195 C  
HETATM    8  H   UNL     1      -7.739   9.405  66.956  1.00  0.00     0.000 HD 
HETATM    9  H   UNL     1      -7.348   7.835  73.821  1.00  0.00     0.000 HD 
HETATM   10  C   UNL     1     -11.039  10.644  69.774  1.00  0.00    -0.358 C  
HETATM   11  C   UNL     1     -10.379   9.225  69.959  1.00  0.00    -0.217 C  
HETATM   12  O   UNL     1      -7.740   8.348  73.124  1.00  0.00    -0.265 OA 
HETATM   13  C   UNL     1      -6.665   7.865  72.157  1.00  0.00    -0.063 C  
HETATM   14  O   UNL     1     -11.429   8.254  69.943  1.00  0.00    -0.455 OA 
HETATM   15  C   UNL     1      -9.122   8.797  69.052  1.00  0.00    -0.141 C  
HETATM   16  C   UNL     1      -7.961   7.977  69.782  1.00  0.00    -0.115 C  
HETATM   17  C   UNL     1      -5.620   7.891  73.274  1.00  0.00    -0.046 C  
HETATM   18  C   UNL     1      -6.265   6.692  74.223  1.00  0.00    -0.065 C  
HETATM   19  H   UNL     1     -11.031   7.398  70.054  1.00  0.00     0.000 HD 
HETATM   20  C   UNL     1      -5.219   5.485  71.930  1.00  0.00    -0.012 C  
HETATM   21  C   UNL     1      -7.275   5.869  73.267  1.00  0.00    -0.086 C  
HETATM   22  C   UNL     1      -8.345   6.535  70.080  1.00  0.00    -0.134 C  
HETATM   23  C   UNL     1      -6.621   6.256  71.923  1.00  0.00    -0.062 C  
HETATM   24  H   UNL     1      -9.658   5.473  71.158  1.00  0.00     0.000 HD 
HETATM   25  O   UNL     1      -9.418   6.374  70.972  1.00  0.00    -0.169 OA 
HETATM   26  C   UNL     1      -7.114   5.846  70.560  1.00  0.00    -0.071 C  
ENDROOT
BRANCH   7  27
HETATM   27  O   UNL     1     -11.339  12.326  67.962  1.00  0.00    -0.250 OA 
BRANCH  27  28
HETATM   28  C   UNL     1     -10.868  12.910  66.750  1.00  0.00    -0.267 C  
HETATM   29  C   UNL     1     -11.168  13.152  64.214  1.00  0.00    -0.388 C  
HETATM   30  H   UNL     1     -13.211  14.548  63.688  1.00  0.00     0.000 HD 
HETATM   31  C   UNL     1      -9.300  15.303  65.842  1.00  0.00    -0.308 C  
HETATM   32  O   UNL     1      -9.845  12.898  63.711  1.00  0.00    -0.700 OA 
HETATM   33  C   UNL     1     -11.438  12.274  65.449  1.00  0.00    -0.354 C  
HETATM   34  O   UNL     1     -10.853  10.976  65.201  1.00  0.00    -0.221 OA 
HETATM   35  H   UNL     1      -9.692  11.974  63.553  1.00  0.00     0.000 HD 
HETATM   36  O   UNL     1     -12.839  14.850  64.508  1.00  0.00    -0.447 OA 
HETATM   37  C   UNL     1     -11.414  14.642  64.468  1.00  0.00    -0.335 C  
HETATM   38  H   UNL     1     -11.201  10.588  64.406  1.00  0.00     0.000 HD 
HETATM   39  C   UNL     1     -10.813  15.129  65.794  1.00  0.00    -0.353 C  
HETATM   40  O   UNL     1     -11.260  14.284  66.851  1.00  0.00    -0.307 OA 
ENDBRANCH  27  28
ENDBRANCH   7  27
BRANCH  15  41
HETATM   41  C   UNL     1      -9.631   7.886  67.863  1.00  0.00    -0.147 C  
HETATM   42  H   UNL     1      -8.923   6.861  66.267  1.00  0.00     0.000 HD 
HETATM   43  O   UNL     1      -8.618   7.408  66.981  1.00  0.00    -0.116 OA 
ENDBRANCH  15  41
BRANCH  21  44
HETATM   44  C   UNL     1      -7.719   4.473  73.471  1.00  0.00    -0.087 C  
HETATM   45  C   UNL     1      -8.637   2.451  73.128  1.00  0.00    -0.070 C  
HETATM   46  O   UNL     1      -9.423   1.614  72.721  1.00  0.00    -0.072 OA 
HETATM   47  O   UNL     1      -7.534   2.191  73.848  1.00  0.00    -0.035 OA 
HETATM   48  C   UNL     1      -6.875   3.432  74.113  1.00  0.00    -0.045 C  
HETATM   49  C   UNL     1      -8.756   3.880  72.873  1.00  0.00    -0.102 C  
ENDBRANCH  21  44
TORSDOF 4
ENDMDL
MODEL       66
REMARK 921   NORMALIZED FREE ENERGY PREDICTED BY IDOCK:   -5.49 KCAL/MOL
REMARK 922        TOTAL FREE ENERGY PREDICTED BY IDOCK:   -7.72 KCAL/MOL
REMARK 923 INTER-LIGAND FREE ENERGY PREDICTED BY IDOCK:   -7.45 KCAL/MOL
REMARK 924 INTRA-LIGAND FREE ENERGY PREDICTED BY IDOCK:   -0.27 KCAL/MOL
REMARK 927      BINDING AFFINITY PREDICTED BY RF-SCORE:    0.00 PKD
ROOT
HETATM    1  C   UNL     1      -6.674  10.609  69.319  1.00  0.00    -0.075 C  
HETATM    2  C   UNL     1      -5.302  11.258  69.171  1.00  0.00    -0.040 C  
HETATM    3  C   UNL     1      -5.486  12.762  68.843  1.00  0.00    -0.067 C  
HETATM    4  C   UNL     1      -6.412  13.064  67.612  1.00  0.00    -0.160 C  
HETATM    5  O   UNL     1      -5.766  12.456  66.496  1.00  0.00    -0.449 OA 
HETATM    6  C   UNL     1      -6.589  14.550  67.294  1.00  0.00     0.233 C  
HETATM    7  C   UNL     1      -6.814  15.336  68.559  1.00  0.00    -0.112 C  
HETATM    8  H   UNL     1      -6.327  12.639  65.751  1.00  0.00     0.000 HD 
HETATM    9  H   UNL     1      -7.432   9.130  71.770  1.00  0.00     0.000 HD 
HETATM   10  C   UNL     1      -7.996  14.768  69.364  1.00  0.00    -0.065 C  
HETATM   11  C   UNL     1      -8.501  13.309  69.045  1.00  0.00     0.409 C  
HETATM   12  O   UNL     1      -7.332   9.959  71.317  1.00  0.00    -0.223 OA 
HETATM   13  C   UNL     1      -6.841   9.227  70.073  1.00  0.00    -0.053 C  
HETATM   14  O   UNL     1      -9.929  13.351  68.975  1.00  0.00    -0.424 OA 
HETATM   15  C   UNL     1      -7.843  12.475  67.838  1.00  0.00    -0.144 C  
HETATM   16  C   UNL     1      -7.597  10.918  68.098  1.00  0.00    -0.094 C  
HETATM   17  C   UNL     1      -6.116   8.197  70.941  1.00  0.00    -0.033 C  
HETATM   18  C   UNL     1      -7.450   7.509  71.648  1.00  0.00    -0.083 C  
HETATM   19  H   UNL     1     -10.233  12.472  68.782  1.00  0.00     0.000 HD 
HETATM   20  C   UNL     1      -7.418   6.728  68.966  1.00  0.00    -0.096 C  
HETATM   21  C   UNL     1      -8.705   7.924  70.718  1.00  0.00    -0.134 C  
HETATM   22  C   UNL     1      -8.880  10.100  68.076  1.00  0.00    -0.125 C  
HETATM   23  C   UNL     1      -7.904   8.181  69.424  1.00  0.00    -0.105 C  
HETATM   24  H   UNL     1     -10.610   9.906  69.067  1.00  0.00     0.000 HD 
HETATM   25  O   UNL     1      -9.809  10.416  69.081  1.00  0.00    -0.203 OA 
HETATM   26  C   UNL     1      -8.482   8.664  68.119  1.00  0.00    -0.131 C  
ENDROOT
BRANCH   7  27
HETATM   27  O   UNL     1      -6.977  16.684  68.143  1.00  0.00    -0.145 OA 
BRANCH  27  28
HETATM   28  C   UNL     1      -8.235  17.312  68.377  1.00  0.00    -0.260 C  
HETATM   29  C   UNL     1      -9.619  19.470  68.281  1.00  0.00    -0.379 C  
HETATM   30  H   UNL     1     -10.149  20.082  65.885  1.00  0.00     0.000 HD 
HETATM   31  C   UNL     1     -11.138  16.575  68.574  1.00  0.00    -0.335 C  
HETATM   32  O   UNL     1     -10.209  19.529  69.592  1.00  0.00    -0.550 OA 
HETATM   33  C   UNL     1      -8.205  18.868  68.368  1.00  0.00    -0.342 C  
HETATM   34  O   UNL     1      -7.580  19.387  69.562  1.00  0.00    -0.206 OA 
HETATM   35  H   UNL     1      -9.650  19.975  70.217  1.00  0.00     0.000 HD 
HETATM   36  O   UNL     1     -10.097  19.136  65.953  1.00  0.00    -0.465 OA 
HETATM   37  C   UNL     1     -10.520  18.750  67.274  1.00  0.00    -0.431 C  
HETATM   38  H   UNL     1      -7.562  20.337  69.556  1.00  0.00     0.000 HD 
HETATM   39  C   UNL     1     -10.437  17.220  67.384  1.00  0.00    -0.338 C  
HETATM   40  O   UNL     1      -9.070  16.819  67.323  1.00  0.00    -0.215 OA 
ENDBRANCH  27  28
ENDBRANCH   7  27
BRANCH  15  41
HETATM   41  C   UNL     1      -8.784  12.573  66.570  1.00  0.00    -0.030 C  
HETATM   42  H   UNL     1     -10.038  13.871  65.653  1.00  0.00     0.000 HD 
HETATM   43  O   UNL     1      -9.473  13.812  66.414  1.00  0.00    -0.278 OA 
ENDBRANCH  15  41
BRANCH  21  44
HETATM   44  C   UNL     1      -9.996   7.207  70.631  1.00  0.00    -0.195 C  
HETATM   45  C   UNL     1     -12.193   6.747  70.703  1.00  0.00    -0.254 C  
HETATM   46  O   UNL     1     -13.349   6.780  71.085  1.00  0.00    -0.179 OA 
HETATM   47  O   UNL     1     -11.748   6.046  69.648  1.00  0.00    -0.196 OA 
HETATM   48  C   UNL     1     -10.343   6.282  69.520  1.00  0.00    -0.212 C  
HETATM   49  C   UNL     1     -11.104   7.491  71.320  1.00  0.00    -0.267 C  
ENDBRANCH  21  44
TORSDOF 4
ENDMDL
MODEL       67
REMARK 921   NORMALIZED FREE ENERGY PREDICTED BY IDOCK:   -5.48 KCAL/MOL
REMARK 922        TOTAL FREE ENERGY PREDICTED BY IDOCK:   -7.71 KCAL/MOL
REMARK 923 INTER-LIGAND FREE ENERGY PREDICTED BY IDOCK:   -7.28 KCAL/MOL
REMARK 924 INTRA-LIGAND FREE ENERGY PREDICTED BY IDOCK:   -0.44 KCAL/MOL
REMARK 927      BINDING AFFINITY PREDICTED BY RF-SCORE:    0.00 PKD
ROOT
HETATM    1  C   UNL     1      -8.589   8.141  67.760  1.00  0.00    -0.131 C  
HETATM    2  C   UNL     1      -8.702   9.280  68.768  1.00  0.00    -0.132 C  
HETATM    3  C   UNL     1      -9.078  10.584  68.020  1.00  0.00    -0.138 C  
HETATM    4  C   UNL     1      -8.138  10.956  66.819  1.00  0.00    -0.142 C  
HETATM    5  O   UNL     1      -6.848  11.148  67.397  1.00  0.00    -0.078 OA 
HETATM    6  C   UNL     1      -8.515  12.243  66.086  1.00  0.00     0.307 C  
HETATM    7  C   UNL     1     -10.003  12.306  65.863  1.00  0.00    -0.254 C  
HETATM    8  H   UNL     1      -6.279  11.373  66.670  1.00  0.00     0.000 HD 
HETATM    9  H   UNL     1     -10.155   5.646  68.060  1.00  0.00     0.000 HD 
HETATM   10  C   UNL     1     -10.510  11.049  65.132  1.00  0.00    -0.329 C  
HETATM   11  C   UNL     1      -9.594   9.767  65.105  1.00  0.00    -0.287 C  
HETATM   12  O   UNL     1     -10.113   6.552  67.778  1.00  0.00    -0.131 OA 
HETATM   13  C   UNL     1      -8.659   6.631  68.230  1.00  0.00    -0.119 C  
HETATM   14  O   UNL     1      -9.593   9.265  63.764  1.00  0.00    -0.335 OA 
HETATM   15  C   UNL     1      -8.123   9.812  65.753  1.00  0.00    -0.119 C  
HETATM   16  C   UNL     1      -7.659   8.516  66.563  1.00  0.00    -0.088 C  
HETATM   17  C   UNL     1      -8.960   5.721  69.422  1.00  0.00    -0.121 C  
HETATM   18  C   UNL     1      -9.330   4.343  68.574  1.00  0.00    -0.203 C  
HETATM   19  H   UNL     1      -9.041   8.492  63.748  1.00  0.00     0.000 HD 
HETATM   20  C   UNL     1      -6.579   4.770  68.334  1.00  0.00    -0.046 C  
HETATM   21  C   UNL     1      -8.718   4.559  67.094  1.00  0.00    -0.104 C  
HETATM   22  C   UNL     1      -7.317   7.340  65.660  1.00  0.00    -0.075 C  
HETATM   23  C   UNL     1      -7.648   5.601  67.482  1.00  0.00    -0.089 C  
HETATM   24  H   UNL     1      -8.173   6.103  64.336  1.00  0.00     0.000 HD 
HETATM   25  O   UNL     1      -8.386   6.837  64.900  1.00  0.00    -0.112 OA 
HETATM   26  C   UNL     1      -6.709   6.290  66.525  1.00  0.00    -0.060 C  
ENDROOT
BRANCH   7  27
HETATM   27  O   UNL     1     -10.232  13.524  65.169  1.00  0.00    -0.330 OA 
BRANCH  27  28
HETATM   28  C   UNL     1      -9.893  14.744  65.823  1.00  0.00    -0.342 C  
HETATM   29  C   UNL     1     -10.665  17.067  66.589  1.00  0.00    -0.092 C  
HETATM   30  H   UNL     1     -12.276  16.876  68.530  1.00  0.00     0.000 HD 
HETATM   31  C   UNL     1      -7.938  15.759  67.862  1.00  0.00    -0.147 C  
HETATM   32  O   UNL     1      -9.619  17.927  66.103  1.00  0.00    -0.454 OA 
HETATM   33  C   UNL     1     -10.897  15.911  65.599  1.00  0.00    -0.284 C  
HETATM   34  O   UNL     1     -10.786  16.449  64.263  1.00  0.00    -1.042 OA 
HETATM   35  H   UNL     1      -9.781  18.221  65.215  1.00  0.00     0.000 HD 
HETATM   36  O   UNL     1     -11.659  16.154  68.573  1.00  0.00    -0.377 OA 
HETATM   37  C   UNL     1     -10.404  16.592  68.021  1.00  0.00    -0.294 C  
HETATM   38  H   UNL     1     -11.400  17.161  64.127  1.00  0.00     0.000 HD 
HETATM   39  C   UNL     1      -9.407  15.426  68.091  1.00  0.00    -0.197 C  
HETATM   40  O   UNL     1      -9.835  14.389  67.210  1.00  0.00    -0.240 OA 
ENDBRANCH  27  28
ENDBRANCH   7  27
BRANCH  15  41
HETATM   41  C   UNL     1      -7.059  10.024  64.601  1.00  0.00    -0.140 C  
HETATM   42  H   UNL     1      -5.153  10.650  64.331  1.00  0.00     0.000 HD 
HETATM   43  O   UNL     1      -5.792  10.523  65.023  1.00  0.00    -0.131 OA 
ENDBRANCH  15  41
BRANCH  21  44
HETATM   44  C   UNL     1      -8.362   3.489  66.137  1.00  0.00    -0.102 C  
HETATM   45  C   UNL     1      -7.433   2.385  64.415  1.00  0.00    -0.063 C  
HETATM   46  O   UNL     1      -6.980   2.191  63.301  1.00  0.00    -0.033 OA 
HETATM   47  O   UNL     1      -7.493   1.469  65.396  1.00  0.00    -0.055 OA 
HETATM   48  C   UNL     1      -8.074   2.090  66.546  1.00  0.00    -0.080 C  
HETATM   49  C   UNL     1      -7.964   3.661  64.874  1.00  0.00    -0.090 C  
ENDBRANCH  21  44
TORSDOF 4
ENDMDL
MODEL       68
REMARK 921   NORMALIZED FREE ENERGY PREDICTED BY IDOCK:   -5.35 KCAL/MOL
REMARK 922        TOTAL FREE ENERGY PREDICTED BY IDOCK:   -7.55 KCAL/MOL
REMARK 923 INTER-LIGAND FREE ENERGY PREDICTED BY IDOCK:   -6.72 KCAL/MOL
REMARK 924 INTRA-LIGAND FREE ENERGY PREDICTED BY IDOCK:   -0.83 KCAL/MOL
REMARK 927      BINDING AFFINITY PREDICTED BY RF-SCORE:    0.00 PKD
ROOT
HETATM    1  C   UNL     1      -6.437  14.157  68.332  1.00  0.00    -0.103 C  
HETATM    2  C   UNL     1      -5.308  13.271  68.849  1.00  0.00    -0.073 C  
HETATM    3  C   UNL     1      -5.575  11.807  68.416  1.00  0.00    -0.045 C  
HETATM    4  C   UNL     1      -6.987  11.246  68.808  1.00  0.00    -0.091 C  
HETATM    5  O   UNL     1      -7.026  11.286  70.234  1.00  0.00    -0.470 OA 
HETATM    6  C   UNL     1      -7.243   9.801  68.378  1.00  0.00    -0.077 C  
HETATM    7  C   UNL     1      -6.760   9.577  66.969  1.00  0.00    -0.072 C  
HETATM    8  H   UNL     1      -7.881  10.947  70.471  1.00  0.00     0.000 HD 
HETATM    9  H   UNL     1      -5.894  16.531  66.647  1.00  0.00     0.000 HD 
HETATM   10  C   UNL     1      -7.387  10.594  65.998  1.00  0.00    -0.132 C  
HETATM   11  C   UNL     1      -8.040  11.902  66.587  1.00  0.00    -0.063 C  
HETATM   12  O   UNL     1      -6.007  15.590  66.717  1.00  0.00     0.003 OA 
HETATM   13  C   UNL     1      -6.249  15.725  68.216  1.00  0.00    -0.114 C  
HETATM   14  O   UNL     1      -9.302  12.086  65.937  1.00  0.00    -0.302 OA 
HETATM   15  C   UNL     1      -8.123  12.116  68.179  1.00  0.00    -0.161 C  
HETATM   16  C   UNL     1      -7.841  13.593  68.717  1.00  0.00    -0.043 C  
HETATM   17  C   UNL     1      -5.223  16.857  68.299  1.00  0.00    -0.115 C  
HETATM   18  C   UNL     1      -6.035  17.975  67.380  1.00  0.00    -0.160 C  
HETATM   19  H   UNL     1      -9.695  12.875  66.293  1.00  0.00     0.000 HD 
HETATM   20  C   UNL     1      -7.407  17.713  69.800  1.00  0.00     0.671 C  
HETATM   21  C   UNL     1      -7.571  17.476  67.336  1.00  0.00    -0.213 C  
HETATM   22  C   UNL     1      -8.986  14.557  68.443  1.00  0.00    -0.186 C  
HETATM   23  C   UNL     1      -7.534  16.633  68.628  1.00  0.00    -0.211 C  
HETATM   24  H   UNL     1      -9.974  15.394  66.914  1.00  0.00     0.000 HD 
HETATM   25  O   UNL     1      -9.259  14.792  67.085  1.00  0.00    -0.203 OA 
HETATM   26  C   UNL     1      -8.678  15.818  69.174  1.00  0.00    -0.253 C  
ENDROOT
BRANCH   7  27
HETATM   27  O   UNL     1      -7.060   8.220  66.676  1.00  0.00    -0.074 OA 
BRANCH  27  28
HETATM   28  C   UNL     1      -8.208   7.638  67.288  1.00  0.00    -0.119 C  
HETATM   29  C   UNL     1     -10.436   6.410  66.962  1.00  0.00    -0.282 C  
HETATM   30  H   UNL     1     -10.038   4.020  66.238  1.00  0.00     0.000 HD 
HETATM   31  C   UNL     1      -9.019   6.448  69.922  1.00  0.00    -0.142 C  
HETATM   32  O   UNL     1     -11.347   7.184  67.763  1.00  0.00    -0.514 OA 
HETATM   33  C   UNL     1      -9.386   7.335  66.319  1.00  0.00    -0.108 C  
HETATM   34  O   UNL     1     -10.059   8.547  65.915  1.00  0.00    -0.445 OA 
HETATM   35  H   UNL     1     -11.730   7.904  67.276  1.00  0.00     0.000 HD 
HETATM   36  O   UNL     1      -9.319   4.293  66.795  1.00  0.00    -0.142 OA 
HETATM   37  C   UNL     1      -9.818   5.250  67.748  1.00  0.00    -0.152 C  
HETATM   38  H   UNL     1     -10.779   8.362  65.323  1.00  0.00     0.000 HD 
HETATM   39  C   UNL     1      -8.656   5.692  68.649  1.00  0.00    -0.104 C  
HETATM   40  O   UNL     1      -7.713   6.428  67.874  1.00  0.00    -0.100 OA 
ENDBRANCH  27  28
ENDBRANCH   7  27
BRANCH  15  41
HETATM   41  C   UNL     1      -9.575  11.730  68.675  1.00  0.00    -0.115 C  
HETATM   42  H   UNL     1     -11.161  10.594  68.133  1.00  0.00     0.000 HD 
HETATM   43  O   UNL     1     -10.289  10.826  67.834  1.00  0.00    -0.172 OA 
ENDBRANCH  15  41
BRANCH  21  44
HETATM   44  C   UNL     1      -8.753  18.325  67.068  1.00  0.00    -0.265 C  
HETATM   45  C   UNL     1     -10.275  19.597  66.014  1.00  0.00    -0.493 C  
HETATM   46  O   UNL     1     -10.730  20.406  65.225  1.00  0.00    -0.143 OA 
HETATM   47  O   UNL     1     -10.995  18.900  66.908  1.00  0.00    -0.330 OA 
HETATM   48  C   UNL     1     -10.101  18.050  67.631  1.00  0.00    -0.347 C  
HETATM   49  C   UNL     1      -8.867  19.234  66.097  1.00  0.00    -0.260 C  
ENDBRANCH  21  44
TORSDOF 4
ENDMDL
MODEL       69
REMARK 921   NORMALIZED FREE ENERGY PREDICTED BY IDOCK:   -5.30 KCAL/MOL
REMARK 922        TOTAL FREE ENERGY PREDICTED BY IDOCK:   -7.49 KCAL/MOL
REMARK 923 INTER-LIGAND FREE ENERGY PREDICTED BY IDOCK:   -6.66 KCAL/MOL
REMARK 924 INTRA-LIGAND FREE ENERGY PREDICTED BY IDOCK:   -0.83 KCAL/MOL
REMARK 927      BINDING AFFINITY PREDICTED BY RF-SCORE:    0.00 PKD
ROOT
HETATM    1  C   UNL     1      -7.596   8.595  69.807  1.00  0.00    -0.079 C  
HETATM    2  C   UNL     1      -6.893   9.838  70.343  1.00  0.00    -0.135 C  
HETATM    3  C   UNL     1      -7.327  11.066  69.502  1.00  0.00    -0.064 C  
HETATM    4  C   UNL     1      -7.139  10.909  67.952  1.00  0.00    -0.081 C  
HETATM    5  O   UNL     1      -5.737  10.729  67.759  1.00  0.00    -0.043 OA 
HETATM    6  C   UNL     1      -7.568  12.125  67.129  1.00  0.00    -0.132 C  
HETATM    7  C   UNL     1      -8.883  12.663  67.631  1.00  0.00    -0.184 C  
HETATM    8  H   UNL     1      -5.623  10.634  66.820  1.00  0.00     0.000 HD 
HETATM    9  H   UNL     1      -9.236   6.865  71.564  1.00  0.00     0.000 HD 
HETATM   10  C   UNL     1      -9.961  11.564  67.654  1.00  0.00    -0.199 C  
HETATM   11  C   UNL     1      -9.508  10.056  67.591  1.00  0.00    -0.144 C  
HETATM   12  O   UNL     1      -9.162   7.649  71.032  1.00  0.00    -0.147 OA 
HETATM   13  C   UNL     1      -7.720   7.288  70.693  1.00  0.00    -0.093 C  
HETATM   14  O   UNL     1     -10.345   9.392  66.639  1.00  0.00    -0.249 OA 
HETATM   15  C   UNL     1      -7.953   9.687  67.416  1.00  0.00    -0.106 C  
HETATM   16  C   UNL     1      -7.414   8.445  68.264  1.00  0.00    -0.096 C  
HETATM   17  C   UNL     1      -7.509   6.723  72.099  1.00  0.00    -0.093 C  
HETATM   18  C   UNL     1      -8.567   5.448  71.997  1.00  0.00    -0.131 C  
HETATM   19  H   UNL     1     -10.072   8.483  66.601  1.00  0.00     0.000 HD 
HETATM   20  C   UNL     1      -6.376   4.861  70.366  1.00  0.00    -0.026 C  
HETATM   21  C   UNL     1      -8.831   5.220  70.420  1.00  0.00    -0.146 C  
HETATM   22  C   UNL     1      -7.880   7.103  67.718  1.00  0.00    -0.114 C  
HETATM   23  C   UNL     1      -7.528   5.874  69.913  1.00  0.00    -0.079 C  
HETATM   24  H   UNL     1      -9.560   6.056  67.411  1.00  0.00     0.000 HD 
HETATM   25  O   UNL     1      -9.269   6.894  67.751  1.00  0.00    -0.122 OA 
HETATM   26  C   UNL     1      -7.141   6.048  68.467  1.00  0.00    -0.082 C  
ENDROOT
BRANCH   7  27
HETATM   27  O   UNL     1      -9.185  13.768  66.792  1.00  0.00    -0.246 OA 
BRANCH  27  28
HETATM   28  C   UNL     1      -9.128  15.075  67.357  1.00  0.00    -0.186 C  
HETATM   29  C   UNL     1      -8.512  17.543  67.025  1.00  0.00    -0.234 C  
HETATM   30  H   UNL     1     -10.148  18.667  65.458  1.00  0.00     0.000 HD 
HETATM   31  C   UNL     1     -10.468  16.677  69.513  1.00  0.00    -0.281 C  
HETATM   32  O   UNL     1      -7.723  17.835  68.192  1.00  0.00    -0.236 OA 
HETATM   33  C   UNL     1      -8.258  16.095  66.567  1.00  0.00    -0.308 C  
HETATM   34  O   UNL     1      -6.849  15.823  66.735  1.00  0.00    -0.229 OA 
HETATM   35  H   UNL     1      -6.803  17.639  68.061  1.00  0.00     0.000 HD 
HETATM   36  O   UNL     1     -10.605  17.987  65.939  1.00  0.00    -0.451 OA 
HETATM   37  C   UNL     1      -9.995  17.858  67.237  1.00  0.00    -0.325 C  
HETATM   38  H   UNL     1      -6.318  16.446  66.253  1.00  0.00     0.000 HD 
HETATM   39  C   UNL     1     -10.734  16.759  68.015  1.00  0.00    -0.355 C  
HETATM   40  O   UNL     1     -10.496  15.500  67.389  1.00  0.00    -0.269 OA 
ENDBRANCH  27  28
ENDBRANCH   7  27
BRANCH  15  41
HETATM   41  C   UNL     1      -7.673   9.346  65.897  1.00  0.00    -0.099 C  
HETATM   42  H   UNL     1      -6.129   9.034  64.625  1.00  0.00     0.000 HD 
HETATM   43  O   UNL     1      -6.297   9.239  65.537  1.00  0.00    -0.063 OA 
ENDBRANCH  15  41
BRANCH  21  44
HETATM   44  C   UNL     1      -9.293   3.964  69.790  1.00  0.00    -0.242 C  
HETATM   45  C   UNL     1      -9.485   2.224  68.381  1.00  0.00    -0.165 C  
HETATM   46  O   UNL     1      -9.480   1.606  67.332  1.00  0.00    -0.082 OA 
HETATM   47  O   UNL     1      -9.733   1.694  69.590  1.00  0.00    -0.038 OA 
HETATM   48  C   UNL     1      -9.628   2.738  70.562  1.00  0.00    -0.088 C  
HETATM   49  C   UNL     1      -9.194   3.647  68.496  1.00  0.00    -0.220 C  
ENDBRANCH  21  44
TORSDOF 4
ENDMDL
MODEL       70
REMARK 921   NORMALIZED FREE ENERGY PREDICTED BY IDOCK:   -5.23 KCAL/MOL
REMARK 922        TOTAL FREE ENERGY PREDICTED BY IDOCK:   -7.41 KCAL/MOL
REMARK 923 INTER-LIGAND FREE ENERGY PREDICTED BY IDOCK:   -6.14 KCAL/MOL
REMARK 924 INTRA-LIGAND FREE ENERGY PREDICTED BY IDOCK:   -1.27 KCAL/MOL
REMARK 927      BINDING AFFINITY PREDICTED BY RF-SCORE:    0.00 PKD
ROOT
HETATM    1  C   UNL     1      -7.404   9.770  69.478  1.00  0.00    -0.092 C  
HETATM    2  C   UNL     1      -5.914   9.900  69.182  1.00  0.00    -0.034 C  
HETATM    3  C   UNL     1      -5.618  11.342  68.698  1.00  0.00    -0.042 C  
HETATM    4  C   UNL     1      -6.499  11.834  67.496  1.00  0.00    -0.095 C  
HETATM    5  O   UNL     1      -6.195  10.948  66.420  1.00  0.00    -0.105 OA 
HETATM    6  C   UNL     1      -6.201  13.257  67.024  1.00  0.00     0.723 C  
HETATM    7  C   UNL     1      -6.037  14.180  68.204  1.00  0.00    -0.133 C  
HETATM    8  H   UNL     1      -6.729  11.245  65.692  1.00  0.00     0.000 HD 
HETATM    9  H   UNL     1      -8.384   8.853  72.118  1.00  0.00     0.000 HD 
HETATM   10  C   UNL     1      -7.263  14.118  69.132  1.00  0.00    -0.086 C  
HETATM   11  C   UNL     1      -8.249  12.895  69.007  1.00  0.00     0.392 C  
HETATM   12  O   UNL     1      -8.056   9.557  71.570  1.00  0.00    -0.206 OA 
HETATM   13  C   UNL     1      -7.951   8.597  70.391  1.00  0.00    -0.101 C  
HETATM   14  O   UNL     1      -9.583  13.413  69.013  1.00  0.00    -0.401 OA 
HETATM   15  C   UNL     1      -8.017  11.786  67.867  1.00  0.00    -0.141 C  
HETATM   16  C   UNL     1      -8.279  10.266  68.284  1.00  0.00    -0.115 C  
HETATM   17  C   UNL     1      -7.532   7.462  71.327  1.00  0.00    -0.081 C  
HETATM   18  C   UNL     1      -8.949   7.330  72.180  1.00  0.00    -0.148 C  
HETATM   19  H   UNL     1     -10.177  12.675  68.938  1.00  0.00     0.000 HD 
HETATM   20  C   UNL     1      -9.421   6.356  69.604  1.00  0.00    -0.154 C  
HETATM   21  C   UNL     1     -10.074   8.064  71.282  1.00  0.00    -0.222 C  
HETATM   22  C   UNL     1      -9.757   9.933  68.426  1.00  0.00    -0.149 C  
HETATM   23  C   UNL     1      -9.354   7.921  69.924  1.00  0.00    -0.156 C  
HETATM   24  H   UNL     1     -11.356  10.424  69.529  1.00  0.00     0.000 HD 
HETATM   25  O   UNL     1     -10.433  10.632  69.440  1.00  0.00    -0.219 OA 
HETATM   26  C   UNL     1      -9.855   8.457  68.607  1.00  0.00    -0.180 C  
ENDROOT
BRANCH   7  27
HETATM   27  O   UNL     1      -5.781  15.462  67.649  1.00  0.00    -0.220 OA 
BRANCH  27  28
HETATM   28  C   UNL     1      -6.814  16.441  67.715  1.00  0.00    -0.134 C  
HETATM   29  C   UNL     1      -7.429  18.932  67.716  1.00  0.00    -0.239 C  
HETATM   30  H   UNL     1      -7.102  19.931  65.416  1.00  0.00     0.000 HD 
HETATM   31  C   UNL     1      -9.750  16.685  67.137  1.00  0.00    -0.250 C  
HETATM   32  O   UNL     1      -8.300  19.044  68.855  1.00  0.00    -0.335 OA 
HETATM   33  C   UNL     1      -6.329  17.892  67.997  1.00  0.00    -0.178 C  
HETATM   34  O   UNL     1      -5.919  18.049  69.373  1.00  0.00    -0.219 OA 
HETATM   35  H   UNL     1      -7.821  19.214  69.658  1.00  0.00     0.000 HD 
HETATM   36  O   UNL     1      -7.350  19.019  65.319  1.00  0.00    -0.425 OA 
HETATM   37  C   UNL     1      -8.202  18.658  66.423  1.00  0.00    -0.277 C  
HETATM   38  H   UNL     1      -5.622  18.935  69.545  1.00  0.00     0.000 HD 
HETATM   39  C   UNL     1      -8.602  17.184  66.267  1.00  0.00    -0.241 C  
HETATM   40  O   UNL     1      -7.448  16.363  66.432  1.00  0.00    -0.234 OA 
ENDBRANCH  27  28
ENDBRANCH   7  27
BRANCH  15  41
HETATM   41  C   UNL     1      -8.983  12.088  66.651  1.00  0.00    -0.204 C  
HETATM   42  H   UNL     1      -9.245  11.598  64.704  1.00  0.00     0.000 HD 
HETATM   43  O   UNL     1      -8.664  11.417  65.434  1.00  0.00    -0.072 OA 
ENDBRANCH  15  41
BRANCH  21  44
HETATM   44  C   UNL     1     -11.532   7.822  71.348  1.00  0.00    -0.289 C  
HETATM   45  C   UNL     1     -13.547   7.082  72.011  1.00  0.00    -0.056 C  
HETATM   46  O   UNL     1     -14.386   6.330  72.473  1.00  0.00    -0.105 OA 
HETATM   47  O   UNL     1     -13.787   8.326  71.564  1.00  0.00    -0.358 OA 
HETATM   48  C   UNL     1     -12.547   8.884  71.120  1.00  0.00    -0.185 C  
HETATM   49  C   UNL     1     -12.132   6.761  71.893  1.00  0.00    -0.375 C  
ENDBRANCH  21  44
TORSDOF 4
ENDMDL
MODEL       71
REMARK 921   NORMALIZED FREE ENERGY PREDICTED BY IDOCK:   -5.21 KCAL/MOL
REMARK 922        TOTAL FREE ENERGY PREDICTED BY IDOCK:   -7.38 KCAL/MOL
REMARK 923 INTER-LIGAND FREE ENERGY PREDICTED BY IDOCK:   -7.05 KCAL/MOL
REMARK 924 INTRA-LIGAND FREE ENERGY PREDICTED BY IDOCK:   -0.33 KCAL/MOL
REMARK 927      BINDING AFFINITY PREDICTED BY RF-SCORE:    0.00 PKD
ROOT
HETATM    1  C   UNL     1      -7.622  12.526  68.766  1.00  0.00    -0.024 C  
HETATM    2  C   UNL     1      -6.766  11.869  69.843  1.00  0.00     0.119 C  
HETATM    3  C   UNL     1      -6.780  10.333  69.634  1.00  0.00    -0.085 C  
HETATM    4  C   UNL     1      -8.208   9.688  69.546  1.00  0.00    -0.136 C  
HETATM    5  O   UNL     1      -8.821   9.956  70.806  1.00  0.00    -0.345 OA 
HETATM    6  C   UNL     1      -8.214   8.173  69.340  1.00  0.00    -0.121 C  
HETATM    7  C   UNL     1      -7.195   7.778  68.303  1.00  0.00    -0.089 C  
HETATM    8  H   UNL     1      -9.685   9.566  70.752  1.00  0.00     0.000 HD 
HETATM    9  H   UNL     1      -6.535  14.639  66.999  1.00  0.00     0.000 HD 
HETATM   10  C   UNL     1      -7.414   8.546  66.987  1.00  0.00    -0.084 C  
HETATM   11  C   UNL     1      -8.298   9.851  67.009  1.00  0.00    -0.121 C  
HETATM   12  O   UNL     1      -6.631  13.716  67.200  1.00  0.00    -0.184 OA 
HETATM   13  C   UNL     1      -7.463  14.066  68.429  1.00  0.00    -0.119 C  
HETATM   14  O   UNL     1      -9.196   9.784  65.896  1.00  0.00    -0.162 OA 
HETATM   15  C   UNL     1      -9.025  10.310  68.367  1.00  0.00    -0.132 C  
HETATM   16  C   UNL     1      -9.040  11.878  68.675  1.00  0.00    -0.047 C  
HETATM   17  C   UNL     1      -6.601  15.303  68.685  1.00  0.00    -0.097 C  
HETATM   18  C   UNL     1      -7.014  16.158  67.323  1.00  0.00    -0.234 C  
HETATM   19  H   UNL     1      -9.729  10.571  65.909  1.00  0.00     0.000 HD 
HETATM   20  C   UNL     1      -9.236  16.142  69.018  1.00  0.00    -0.252 C  
HETATM   21  C   UNL     1      -8.381  15.489  66.781  1.00  0.00    -0.301 C  
HETATM   22  C   UNL     1     -10.012  12.650  67.794  1.00  0.00    -0.218 C  
HETATM   23  C   UNL     1      -8.838  14.878  68.123  1.00  0.00    -0.174 C  
HETATM   24  H   UNL     1     -10.329  13.110  65.870  1.00  0.00     0.000 HD 
HETATM   25  O   UNL     1      -9.722  12.628  66.420  1.00  0.00    -0.249 OA 
HETATM   26  C   UNL     1     -10.073  14.040  68.327  1.00  0.00    -0.246 C  
ENDROOT
BRANCH   7  27
HETATM   27  O   UNL     1      -7.300   6.367  68.186  1.00  0.00    -0.085 OA 
BRANCH  27  28
HETATM   28  C   UNL     1      -7.902   5.647  69.258  1.00  0.00    -0.089 C  
HETATM   29  C   UNL     1      -8.914   3.433  70.070  1.00  0.00    -0.104 C  
HETATM   30  H   UNL     1      -7.109   1.687  70.370  1.00  0.00     0.000 HD 
HETATM   31  C   UNL     1      -8.004   5.705  72.257  1.00  0.00    -0.107 C  
HETATM   32  O   UNL     1     -10.157   3.849  70.662  1.00  0.00    -0.106 OA 
HETATM   33  C   UNL     1      -8.593   4.314  68.849  1.00  0.00    -0.084 C  
HETATM   34  O   UNL     1      -9.832   4.559  68.148  1.00  0.00    -0.147 OA 
HETATM   35  H   UNL     1     -10.863   3.881  70.028  1.00  0.00     0.000 HD 
HETATM   36  O   UNL     1      -6.738   2.542  70.553  1.00  0.00    -0.031 OA 
HETATM   37  C   UNL     1      -7.775   3.383  71.093  1.00  0.00    -0.051 C  
HETATM   38  H   UNL     1     -10.253   3.745  67.898  1.00  0.00     0.000 HD 
HETATM   39  C   UNL     1      -7.176   4.766  71.389  1.00  0.00    -0.060 C  
HETATM   40  O   UNL     1      -6.819   5.395  70.161  1.00  0.00    -0.045 OA 
ENDBRANCH  27  28
ENDBRANCH   7  27
BRANCH  15  41
HETATM   41  C   UNL     1     -10.538   9.850  68.323  1.00  0.00    -0.229 C  
HETATM   42  H   UNL     1     -11.774   8.466  69.132  1.00  0.00     0.000 HD 
HETATM   43  O   UNL     1     -10.865   8.742  69.158  1.00  0.00    -0.173 OA 
ENDBRANCH  15  41
BRANCH  21  44
HETATM   44  C   UNL     1      -9.385  16.145  65.915  1.00  0.00    -0.316 C  
HETATM   45  C   UNL     1     -11.213  16.511  64.662  1.00  0.00    -0.115 C  
HETATM   46  O   UNL     1     -12.125  16.282  63.888  1.00  0.00    -0.986 OA 
HETATM   47  O   UNL     1     -11.005  17.683  65.286  1.00  0.00    -0.524 OA 
HETATM   48  C   UNL     1      -9.851  17.542  66.118  1.00  0.00    -0.242 C  
HETATM   49  C   UNL     1     -10.210  15.534  65.061  1.00  0.00    -0.251 C  
ENDBRANCH  21  44
TORSDOF 4
ENDMDL
MODEL       72
REMARK 921   NORMALIZED FREE ENERGY PREDICTED BY IDOCK:   -5.14 KCAL/MOL
REMARK 922        TOTAL FREE ENERGY PREDICTED BY IDOCK:   -7.29 KCAL/MOL
REMARK 923 INTER-LIGAND FREE ENERGY PREDICTED BY IDOCK:   -7.86 KCAL/MOL
REMARK 924 INTRA-LIGAND FREE ENERGY PREDICTED BY IDOCK:    0.57 KCAL/MOL
REMARK 927      BINDING AFFINITY PREDICTED BY RF-SCORE:    0.00 PKD
ROOT
HETATM    1  C   UNL     1     -10.030   9.955  66.485  1.00  0.00    -0.291 C  
HETATM    2  C   UNL     1     -10.625  10.378  65.146  1.00  0.00    -0.034 C  
HETATM    3  C   UNL     1     -10.473  11.912  64.986  1.00  0.00    -0.333 C  
HETATM    4  C   UNL     1     -11.043  12.763  66.176  1.00  0.00    -0.290 C  
HETATM    5  O   UNL     1     -12.438  12.471  66.213  1.00  0.00    -0.475 OA 
HETATM    6  C   UNL     1     -10.889  14.276  66.012  1.00  0.00    -0.303 C  
HETATM    7  C   UNL     1      -9.514  14.613  65.497  1.00  0.00     0.044 C  
HETATM    8  H   UNL     1     -12.783  12.986  66.933  1.00  0.00     0.000 HD 
HETATM    9  H   UNL     1      -7.925   7.880  66.657  1.00  0.00     0.000 HD 
HETATM   10  C   UNL     1      -8.420  14.010  66.396  1.00  0.00     0.464 C  
HETATM   11  C   UNL     1      -8.809  12.851  67.391  1.00  0.00    -0.199 C  
HETATM   12  O   UNL     1      -8.166   8.784  66.496  1.00  0.00    -0.108 OA 
HETATM   13  C   UNL     1      -9.630   8.446  66.754  1.00  0.00    -0.219 C  
HETATM   14  O   UNL     1      -8.214  13.150  68.658  1.00  0.00    -0.292 OA 
HETATM   15  C   UNL     1     -10.340  12.378  67.519  1.00  0.00    -0.223 C  
HETATM   16  C   UNL     1     -10.593  10.807  67.666  1.00  0.00    -0.271 C  
HETATM   17  C   UNL     1      -9.451   7.078  66.094  1.00  0.00    -0.055 C  
HETATM   18  C   UNL     1      -8.401   6.422  67.199  1.00  0.00    -0.112 C  
HETATM   19  H   UNL     1      -8.449  12.452  69.258  1.00  0.00     0.000 HD 
HETATM   20  C   UNL     1     -10.908   6.604  68.419  1.00  0.00    -0.320 C  
HETATM   21  C   UNL     1      -8.538   7.330  68.529  1.00  0.00    -0.124 C  
HETATM   22  C   UNL     1     -10.224  10.270  69.041  1.00  0.00    -0.210 C  
HETATM   23  C   UNL     1      -9.953   7.874  68.241  1.00  0.00    -0.204 C  
HETATM   24  H   UNL     1      -8.635  10.041  70.239  1.00  0.00     0.000 HD 
HETATM   25  O   UNL     1      -8.865  10.377  69.380  1.00  0.00    -0.167 OA 
HETATM   26  C   UNL     1     -10.703   8.860  69.100  1.00  0.00    -0.162 C  
ENDROOT
BRANCH   7  27
HETATM   27  O   UNL     1      -9.482  16.029  65.398  1.00  0.00    -0.378 OA 
BRANCH  27  28
HETATM   28  C   UNL     1      -9.335  16.783  66.599  1.00  0.00    -0.254 C  
HETATM   29  C   UNL     1     -10.384  18.452  68.240  1.00  0.00    -0.355 C  
HETATM   30  H   UNL     1     -12.235  17.351  69.567  1.00  0.00     0.000 HD 
HETATM   31  C   UNL     1      -7.774  16.689  69.161  1.00  0.00    -0.186 C  
HETATM   32  O   UNL     1      -9.350  19.438  68.398  1.00  0.00    -0.336 OA 
HETATM   33  C   UNL     1     -10.384  17.915  66.797  1.00  0.00    -0.355 C  
HETATM   34  O   UNL     1     -10.126  19.029  65.915  1.00  0.00    -0.484 OA 
HETATM   35  H   UNL     1      -9.406  20.124  67.743  1.00  0.00     0.000 HD 
HETATM   36  O   UNL     1     -11.578  16.697  69.362  1.00  0.00    -0.021 OA 
HETATM   37  C   UNL     1     -10.294  17.346  69.295  1.00  0.00    -0.212 C  
HETATM   38  H   UNL     1     -10.767  19.720  66.036  1.00  0.00     0.000 HD 
HETATM   39  C   UNL     1      -9.231  16.289  68.963  1.00  0.00    -0.253 C  
HETATM   40  O   UNL     1      -9.447  15.805  67.639  1.00  0.00    -0.216 OA 
ENDBRANCH  27  28
ENDBRANCH   7  27
BRANCH  15  41
HETATM   41  C   UNL     1     -10.984  13.055  68.796  1.00  0.00    -0.258 C  
HETATM   42  H   UNL     1     -12.791  13.379  69.649  1.00  0.00     0.000 HD 
HETATM   43  O   UNL     1     -12.404  12.973  68.882  1.00  0.00    -0.122 OA 
ENDBRANCH  15  41
BRANCH  21  44
HETATM   44  C   UNL     1      -8.198   6.910  69.906  1.00  0.00    -0.127 C  
HETATM   45  C   UNL     1      -7.321   5.784  71.641  1.00  0.00    -0.092 C  
HETATM   46  O   UNL     1      -6.916   4.840  72.295  1.00  0.00    -0.057 OA 
HETATM   47  O   UNL     1      -7.308   7.066  72.043  1.00  0.00    -0.080 OA 
HETATM   48  C   UNL     1      -7.851   7.866  70.989  1.00  0.00    -0.089 C  
HETATM   49  C   UNL     1      -7.865   5.676  70.295  1.00  0.00    -0.098 C  
ENDBRANCH  21  44
TORSDOF 4
ENDMDL
MODEL       73
REMARK 921   NORMALIZED FREE ENERGY PREDICTED BY IDOCK:   -5.13 KCAL/MOL
REMARK 922        TOTAL FREE ENERGY PREDICTED BY IDOCK:   -7.28 KCAL/MOL
REMARK 923 INTER-LIGAND FREE ENERGY PREDICTED BY IDOCK:   -6.47 KCAL/MOL
REMARK 924 INTRA-LIGAND FREE ENERGY PREDICTED BY IDOCK:   -0.81 KCAL/MOL
REMARK 927      BINDING AFFINITY PREDICTED BY RF-SCORE:    0.00 PKD
ROOT
HETATM    1  C   UNL     1      -7.776   7.040  69.190  1.00  0.00    -0.105 C  
HETATM    2  C   UNL     1      -7.279   7.786  70.425  1.00  0.00    -0.058 C  
HETATM    3  C   UNL     1      -7.417   9.311  70.184  1.00  0.00    -0.098 C  
HETATM    4  C   UNL     1      -6.742   9.839  68.869  1.00  0.00    -0.050 C  
HETATM    5  O   UNL     1      -5.353   9.551  69.017  1.00  0.00    -0.037 OA 
HETATM    6  C   UNL     1      -6.882  11.345  68.639  1.00  0.00    -0.078 C  
HETATM    7  C   UNL     1      -8.287  11.796  68.943  1.00  0.00     0.078 C  
HETATM    8  H   UNL     1      -4.945   9.871  68.221  1.00  0.00     0.000 HD 
HETATM    9  H   UNL     1      -9.897   4.982  69.373  1.00  0.00     0.000 HD 
HETATM   10  C   UNL     1      -9.318  10.985  68.138  1.00  0.00    -0.173 C  
HETATM   11  C   UNL     1      -8.873   9.615  67.497  1.00  0.00    -0.125 C  
HETATM   12  O   UNL     1      -9.654   5.899  69.322  1.00  0.00    -0.135 OA 
HETATM   13  C   UNL     1      -8.180   5.511  69.274  1.00  0.00    -0.095 C  
HETATM   14  O   UNL     1      -9.362   9.587  66.152  1.00  0.00    -0.167 OA 
HETATM   15  C   UNL     1      -7.345   9.129  67.613  1.00  0.00    -0.087 C  
HETATM   16  C   UNL     1      -7.109   7.572  67.883  1.00  0.00    -0.085 C  
HETATM   17  C   UNL     1      -8.433   4.351  70.238  1.00  0.00    -0.094 C  
HETATM   18  C   UNL     1      -9.406   3.437  69.251  1.00  0.00    -0.240 C  
HETATM   19  H   UNL     1      -9.093   8.762  65.766  1.00  0.00     0.000 HD 
HETATM   20  C   UNL     1      -6.808   3.315  68.228  1.00  0.00    -0.049 C  
HETATM   21  C   UNL     1      -9.150   3.985  67.752  1.00  0.00    -0.175 C  
HETATM   22  C   UNL     1      -7.379   6.708  66.660  1.00  0.00    -0.078 C  
HETATM   23  C   UNL     1      -7.752   4.587  68.007  1.00  0.00    -0.081 C  
HETATM   24  H   UNL     1      -8.874   6.183  65.434  1.00  0.00     0.000 HD 
HETATM   25  O   UNL     1      -8.705   6.723  66.197  1.00  0.00    -0.140 OA 
HETATM   26  C   UNL     1      -6.921   5.329  66.991  1.00  0.00    -0.065 C  
ENDROOT
BRANCH   7  27
HETATM   27  O   UNL     1      -8.301  13.192  68.682  1.00  0.00    -0.099 OA 
BRANCH  27  28
HETATM   28  C   UNL     1      -9.452  13.745  68.049  1.00  0.00    -0.207 C  
HETATM   29  C   UNL     1     -11.334  15.485  68.135  1.00  0.00    -0.345 C  
HETATM   30  H   UNL     1     -10.420  17.808  67.728  1.00  0.00     0.000 HD 
HETATM   31  C   UNL     1     -10.631  13.992  65.299  1.00  0.00    -0.376 C  
HETATM   32  O   UNL     1     -12.508  14.699  67.867  1.00  0.00    -0.586 OA 
HETATM   33  C   UNL     1     -10.325  14.660  68.954  1.00  0.00    -0.245 C  
HETATM   34  O   UNL     1     -11.071  13.886  69.918  1.00  0.00    -0.456 OA 
HETATM   35  H   UNL     1     -12.881  14.330  68.659  1.00  0.00     0.000 HD 
HETATM   36  O   UNL     1      -9.893  17.184  67.242  1.00  0.00    -0.253 OA 
HETATM   37  C   UNL     1     -10.733  16.079  66.858  1.00  0.00    -0.262 C  
HETATM   38  H   UNL     1     -11.604  14.446  70.471  1.00  0.00     0.000 HD 
HETATM   39  C   UNL     1      -9.882  15.070  66.073  1.00  0.00    -0.319 C  
HETATM   40  O   UNL     1      -8.918  14.489  66.947  1.00  0.00    -0.227 OA 
ENDBRANCH  27  28
ENDBRANCH   7  27
BRANCH  15  41
HETATM   41  C   UNL     1      -6.592   9.468  66.263  1.00  0.00    -0.071 C  
HETATM   42  H   UNL     1      -6.494  10.915  64.850  1.00  0.00     0.000 HD 
HETATM   43  O   UNL     1      -6.946  10.711  65.661  1.00  0.00    -0.136 OA 
ENDBRANCH  15  41
BRANCH  21  44
HETATM   44  C   UNL     1      -9.389   3.233  66.501  1.00  0.00    -0.145 C  
HETATM   45  C   UNL     1      -9.549   2.704  64.323  1.00  0.00    -0.144 C  
HETATM   46  O   UNL     1      -9.760   2.845  63.132  1.00  0.00    -0.093 OA 
HETATM   47  O   UNL     1      -9.108   1.575  64.902  1.00  0.00    -0.119 OA 
HETATM   48  C   UNL     1      -8.972   1.820  66.304  1.00  0.00    -0.086 C  
HETATM   49  C   UNL     1      -9.715   3.756  65.316  1.00  0.00    -0.167 C  
ENDBRANCH  21  44
TORSDOF 4
ENDMDL
MODEL       74
REMARK 921   NORMALIZED FREE ENERGY PREDICTED BY IDOCK:   -5.04 KCAL/MOL
REMARK 922        TOTAL FREE ENERGY PREDICTED BY IDOCK:   -7.17 KCAL/MOL
REMARK 923 INTER-LIGAND FREE ENERGY PREDICTED BY IDOCK:   -8.04 KCAL/MOL
REMARK 924 INTRA-LIGAND FREE ENERGY PREDICTED BY IDOCK:    0.86 KCAL/MOL
REMARK 927      BINDING AFFINITY PREDICTED BY RF-SCORE:    0.00 PKD
ROOT
HETATM    1  C   UNL     1     -10.521  12.907  66.254  1.00  0.00    -0.282 C  
HETATM    2  C   UNL     1     -11.710  13.667  65.676  1.00  0.00    -0.360 C  
HETATM    3  C   UNL     1     -11.448  15.190  65.805  1.00  0.00    -0.172 C  
HETATM    4  C   UNL     1     -11.085  15.681  67.251  1.00  0.00    -0.238 C  
HETATM    5  O   UNL     1     -12.224  15.371  68.051  1.00  0.00    -0.407 OA 
HETATM    6  C   UNL     1     -10.828  17.184  67.370  1.00  0.00    -0.164 C  
HETATM    7  C   UNL     1      -9.976  17.665  66.225  1.00  0.00    -0.318 C  
HETATM    8  H   UNL     1     -12.004  15.668  68.926  1.00  0.00     0.000 HD 
HETATM    9  H   UNL     1      -9.050  10.891  64.660  1.00  0.00     0.000 HD 
HETATM   10  C   UNL     1      -8.670  16.857  66.126  1.00  0.00    -0.280 C  
HETATM   11  C   UNL     1      -8.579  15.468  66.864  1.00  0.00    -0.256 C  
HETATM   12  O   UNL     1      -9.199  11.802  64.883  1.00  0.00    -0.031 OA 
HETATM   13  C   UNL     1     -10.272  11.387  65.883  1.00  0.00    -0.246 C  
HETATM   14  O   UNL     1      -7.323  15.423  67.548  1.00  0.00    -0.158 OA 
HETATM   15  C   UNL     1      -9.802  14.957  67.775  1.00  0.00    -0.217 C  
HETATM   16  C   UNL     1     -10.156  13.402  67.689  1.00  0.00    -0.229 C  
HETATM   17  C   UNL     1     -10.719  10.250  64.963  1.00  0.00     0.338 C  
HETATM   18  C   UNL     1      -9.337   9.335  65.036  1.00  0.00    -0.196 C  
HETATM   19  H   UNL     1      -7.268  14.585  67.994  1.00  0.00     0.000 HD 
HETATM   20  C   UNL     1     -10.608   9.147  67.518  1.00  0.00    -0.317 C  
HETATM   21  C   UNL     1      -8.538   9.849  66.343  1.00  0.00    -0.136 C  
HETATM   22  C   UNL     1      -9.144  12.519  68.404  1.00  0.00    -0.135 C  
HETATM   23  C   UNL     1      -9.754  10.431  67.093  1.00  0.00    -0.206 C  
HETATM   24  H   UNL     1      -7.212  11.997  68.321  1.00  0.00     0.000 HD 
HETATM   25  O   UNL     1      -7.844  12.548  67.874  1.00  0.00    -0.120 OA 
HETATM   26  C   UNL     1      -9.706  11.139  68.422  1.00  0.00    -0.191 C  
ENDROOT
BRANCH   7  27
HETATM   27  O   UNL     1      -9.794  19.056  66.447  1.00  0.00    -0.342 OA 
BRANCH  27  28
HETATM   28  C   UNL     1      -8.491  19.515  66.798  1.00  0.00    -0.309 C  
HETATM   29  C   UNL     1      -6.399  19.170  68.242  1.00  0.00    -0.229 C  
HETATM   30  H   UNL     1      -5.098  17.148  67.456  1.00  0.00     0.000 HD 
HETATM   31  C   UNL     1      -6.251  21.117  65.604  1.00  0.00    -0.185 C  
HETATM   32  O   UNL     1      -6.177  20.477  68.799  1.00  0.00    -0.322 OA 
HETATM   33  C   UNL     1      -7.910  18.907  68.106  1.00  0.00    -0.297 C  
HETATM   34  O   UNL     1      -8.557  19.458  69.274  1.00  0.00    -0.228 OA 
HETATM   35  H   UNL     1      -6.654  20.607  69.610  1.00  0.00     0.000 HD 
HETATM   36  O   UNL     1      -5.529  17.543  66.707  1.00  0.00    -0.134 OA 
HETATM   37  C   UNL     1      -5.631  18.961  66.934  1.00  0.00    -0.148 C  
HETATM   38  H   UNL     1      -8.202  19.086  70.073  1.00  0.00     0.000 HD 
HETATM   39  C   UNL     1      -6.327  19.600  65.723  1.00  0.00    -0.210 C  
HETATM   40  O   UNL     1      -7.681  19.155  65.672  1.00  0.00    -0.460 OA 
ENDBRANCH  27  28
ENDBRANCH   7  27
BRANCH  15  41
HETATM   41  C   UNL     1      -9.473  15.257  69.294  1.00  0.00    -0.242 C  
HETATM   42  H   UNL     1      -7.897  15.642  70.504  1.00  0.00     0.000 HD 
HETATM   43  O   UNL     1      -8.094  15.462  69.592  1.00  0.00    -0.230 OA 
ENDBRANCH  15  41
BRANCH  21  44
HETATM   44  C   UNL     1      -7.530   9.078  67.103  1.00  0.00    -0.087 C  
HETATM   45  C   UNL     1      -6.035   8.476  68.668  1.00  0.00    -0.045 C  
HETATM   46  O   UNL     1      -5.150   8.589  69.497  1.00  0.00    -0.029 OA 
HETATM   47  O   UNL     1      -6.655   7.327  68.350  1.00  0.00    -0.045 OA 
HETATM   48  C   UNL     1      -7.638   7.616  67.353  1.00  0.00    -0.109 C  
HETATM   49  C   UNL     1      -6.586   9.584  67.901  1.00  0.00    -0.062 C  
ENDBRANCH  21  44
TORSDOF 4
ENDMDL
MODEL       75
REMARK 921   NORMALIZED FREE ENERGY PREDICTED BY IDOCK:   -4.92 KCAL/MOL
REMARK 922        TOTAL FREE ENERGY PREDICTED BY IDOCK:   -7.02 KCAL/MOL
REMARK 923 INTER-LIGAND FREE ENERGY PREDICTED BY IDOCK:   -5.80 KCAL/MOL
REMARK 924 INTRA-LIGAND FREE ENERGY PREDICTED BY IDOCK:   -1.22 KCAL/MOL
REMARK 927      BINDING AFFINITY PREDICTED BY RF-SCORE:    0.00 PKD
ROOT
HETATM    1  C   UNL     1     -10.635  11.633  68.117  1.00  0.00    -0.230 C  
HETATM    2  C   UNL     1     -11.496  10.374  68.128  1.00  0.00    -0.194 C  
HETATM    3  C   UNL     1     -10.588   9.142  68.374  1.00  0.00    -0.217 C  
HETATM    4  C   UNL     1      -9.369   9.009  67.395  1.00  0.00    -0.139 C  
HETATM    5  O   UNL     1      -9.943   8.868  66.096  1.00  0.00    -0.333 OA 
HETATM    6  C   UNL     1      -8.479   7.791  67.643  1.00  0.00    -0.121 C  
HETATM    7  C   UNL     1      -8.223   7.618  69.117  1.00  0.00    -0.130 C  
HETATM    8  H   UNL     1      -9.205   8.788  65.504  1.00  0.00     0.000 HD 
HETATM    9  H   UNL     1     -11.206  13.916  69.914  1.00  0.00     0.000 HD 
HETATM   10  C   UNL     1      -7.640   8.901  69.736  1.00  0.00    -0.069 C  
HETATM   11  C   UNL     1      -7.785  10.257  68.945  1.00  0.00    -0.098 C  
HETATM   12  O   UNL     1     -10.817  13.059  69.784  1.00  0.00     0.179 OA 
HETATM   13  C   UNL     1     -11.283  13.062  68.333  1.00  0.00    -0.269 C  
HETATM   14  O   UNL     1      -6.515  10.917  68.983  1.00  0.00    -0.049 OA 
HETATM   15  C   UNL     1      -8.449  10.270  67.481  1.00  0.00    -0.118 C  
HETATM   16  C   UNL     1      -9.418  11.496  67.148  1.00  0.00    -0.186 C  
HETATM   17  C   UNL     1     -12.570  13.788  68.726  1.00  0.00     0.488 C  
HETATM   18  C   UNL     1     -11.888  15.218  69.219  1.00  0.00    -0.353 C  
HETATM   19  H   UNL     1      -6.602  11.734  68.506  1.00  0.00     0.000 HD 
HETATM   20  C   UNL     1     -11.649  15.082  66.439  1.00  0.00    -0.172 C  
HETATM   21  C   UNL     1     -10.404  15.242  68.580  1.00  0.00    -0.231 C  
HETATM   22  C   UNL     1      -8.671  12.800  66.912  1.00  0.00    -0.168 C  
HETATM   23  C   UNL     1     -10.683  14.265  67.418  1.00  0.00    -0.282 C  
HETATM   24  H   UNL     1      -7.491  14.104  67.872  1.00  0.00     0.000 HD 
HETATM   25  O   UNL     1      -7.957  13.289  68.019  1.00  0.00    -0.127 OA 
HETATM   26  C   UNL     1      -9.667  13.789  66.412  1.00  0.00    -0.304 C  
ENDROOT
BRANCH   7  27
HETATM   27  O   UNL     1      -7.383   6.477  69.225  1.00  0.00    -0.087 OA 
BRANCH  27  28
HETATM   28  C   UNL     1      -7.389   5.535  68.156  1.00  0.00    -0.073 C  
HETATM   29  C   UNL     1      -6.072   3.796  66.807  1.00  0.00    -0.025 C  
HETATM   30  H   UNL     1      -5.680   1.711  68.184  1.00  0.00     0.000 HD 
HETATM   31  C   UNL     1      -9.348   3.858  66.620  1.00  0.00    -0.201 C  
HETATM   32  O   UNL     1      -6.325   4.189  65.446  1.00  0.00    -0.030 OA 
HETATM   33  C   UNL     1      -5.984   5.042  67.706  1.00  0.00    -0.023 C  
HETATM   34  O   UNL     1      -5.280   6.066  66.969  1.00  0.00    -0.005 OA 
HETATM   35  H   UNL     1      -5.698   4.831  65.136  1.00  0.00     0.000 HD 
HETATM   36  O   UNL     1      -6.505   2.099  68.448  1.00  0.00    -0.028 OA 
HETATM   37  C   UNL     1      -7.084   2.761  67.307  1.00  0.00    -0.053 C  
HETATM   38  H   UNL     1      -4.422   5.765  66.694  1.00  0.00     0.000 HD 
HETATM   39  C   UNL     1      -8.419   3.389  67.734  1.00  0.00    -0.095 C  
HETATM   40  O   UNL     1      -8.167   4.443  68.660  1.00  0.00    -0.080 OA 
ENDBRANCH  27  28
ENDBRANCH   7  27
BRANCH  15  41
HETATM   41  C   UNL     1      -7.300  10.301  66.394  1.00  0.00    -0.114 C  
HETATM   42  H   UNL     1      -7.013   9.986  64.414  1.00  0.00     0.000 HD 
HETATM   43  O   UNL     1      -7.703   9.968  65.068  1.00  0.00    -0.128 OA 
ENDBRANCH  15  41
BRANCH  21  44
HETATM   44  C   UNL     1      -9.590  16.449  68.320  1.00  0.00    -0.221 C  
HETATM   45  C   UNL     1      -8.963  18.594  68.086  1.00  0.00    -0.310 C  
HETATM   46  O   UNL     1      -9.043  19.778  67.812  1.00  0.00    -0.319 OA 
HETATM   47  O   UNL     1      -7.881  17.993  68.609  1.00  0.00    -0.294 OA 
HETATM   48  C   UNL     1      -8.192  16.610  68.799  1.00  0.00    -0.249 C  
HETATM   49  C   UNL     1     -10.047  17.636  67.913  1.00  0.00    -0.345 C  
ENDBRANCH  21  44
TORSDOF 4
ENDMDL
MODEL       76
REMARK 921   NORMALIZED FREE ENERGY PREDICTED BY IDOCK:   -4.85 KCAL/MOL
REMARK 922        TOTAL FREE ENERGY PREDICTED BY IDOCK:   -6.94 KCAL/MOL
REMARK 923 INTER-LIGAND FREE ENERGY PREDICTED BY IDOCK:   -6.62 KCAL/MOL
REMARK 924 INTRA-LIGAND FREE ENERGY PREDICTED BY IDOCK:   -0.32 KCAL/MOL
REMARK 927      BINDING AFFINITY PREDICTED BY RF-SCORE:    0.00 PKD
ROOT
HETATM    1  C   UNL     1      -8.068  12.864  68.153  1.00  0.00    -0.158 C  
HETATM    2  C   UNL     1      -7.205  11.684  68.590  1.00  0.00    -0.104 C  
HETATM    3  C   UNL     1      -7.915  10.364  68.194  1.00  0.00    -0.110 C  
HETATM    4  C   UNL     1      -9.394  10.228  68.700  1.00  0.00    -0.162 C  
HETATM    5  O   UNL     1      -9.310  10.260  70.124  1.00  0.00    -0.384 OA 
HETATM    6  C   UNL     1     -10.087   8.923  68.306  1.00  0.00    -0.219 C  
HETATM    7  C   UNL     1      -9.799   8.588  66.866  1.00  0.00    -0.242 C  
HETATM    8  H   UNL     1     -10.205  10.178  70.430  1.00  0.00     0.000 HD 
HETATM    9  H   UNL     1      -6.996  15.002  66.407  1.00  0.00     0.000 HD 
HETATM   10  C   UNL     1     -10.180   9.754  65.937  1.00  0.00    -0.245 C  
HETATM   11  C   UNL     1     -10.381  11.187  66.561  1.00  0.00    -0.243 C  
HETATM   12  O   UNL     1      -7.370  14.133  66.495  1.00  0.00     0.783 OA 
HETATM   13  C   UNL     1      -7.446  14.313  68.007  1.00  0.00    -0.142 C  
HETATM   14  O   UNL     1     -11.583  11.735  66.009  1.00  0.00    -0.388 OA 
HETATM   15  C   UNL     1     -10.277  11.396  68.152  1.00  0.00    -0.200 C  
HETATM   16  C   UNL     1      -9.540  12.722  68.652  1.00  0.00    -0.028 C  
HETATM   17  C   UNL     1      -6.134  15.100  67.999  1.00  0.00    -0.159 C  
HETATM   18  C   UNL     1      -6.659  16.416  67.134  1.00  0.00    -0.234 C  
HETATM   19  H   UNL     1     -11.704  12.599  66.385  1.00  0.00     0.000 HD 
HETATM   20  C   UNL     1      -7.857  16.530  69.656  1.00  0.00     0.373 C  
HETATM   21  C   UNL     1      -8.272  16.380  67.214  1.00  0.00    -0.193 C  
HETATM   22  C   UNL     1     -10.377  13.978  68.457  1.00  0.00    -0.247 C  
HETATM   23  C   UNL     1      -8.380  15.546  68.508  1.00  0.00    -0.161 C  
HETATM   24  H   UNL     1     -11.197  15.083  67.001  1.00  0.00     0.000 HD 
HETATM   25  O   UNL     1     -10.675  14.299  67.122  1.00  0.00    -0.277 OA 
HETATM   26  C   UNL     1      -9.664  15.088  69.150  1.00  0.00    -0.212 C  
ENDROOT
BRANCH   7  27
HETATM   27  O   UNL     1     -10.498   7.378  66.611  1.00  0.00    -0.254 OA 
BRANCH  27  28
HETATM   28  C   UNL     1      -9.740   6.179  66.477  1.00  0.00    -0.145 C  
HETATM   29  C   UNL     1      -7.524   5.097  65.767  1.00  0.00    -0.082 C  
HETATM   30  H   UNL     1      -5.688   5.666  67.411  1.00  0.00     0.000 HD 
HETATM   31  C   UNL     1      -9.616   3.426  67.665  1.00  0.00    -0.160 C  
HETATM   32  O   UNL     1      -7.954   4.014  64.923  1.00  0.00    -0.091 OA 
HETATM   33  C   UNL     1      -8.465   6.304  65.593  1.00  0.00    -0.148 C  
HETATM   34  O   UNL     1      -8.805   6.397  64.193  1.00  0.00    -0.214 OA 
HETATM   35  H   UNL     1      -8.055   4.283  64.018  1.00  0.00     0.000 HD 
HETATM   36  O   UNL     1      -6.514   5.627  67.879  1.00  0.00    -0.040 OA 
HETATM   37  C   UNL     1      -7.363   4.664  67.227  1.00  0.00    -0.074 C  
HETATM   38  H   UNL     1      -8.026   6.473  63.653  1.00  0.00     0.000 HD 
HETATM   39  C   UNL     1      -8.698   4.600  67.982  1.00  0.00    -0.103 C  
HETATM   40  O   UNL     1      -9.387   5.838  67.823  1.00  0.00    -0.106 OA 
ENDBRANCH  27  28
ENDBRANCH   7  27
BRANCH  15  41
HETATM   41  C   UNL     1     -11.736  11.438  68.763  1.00  0.00    -0.339 C  
HETATM   42  H   UNL     1     -12.764  10.826  70.396  1.00  0.00     0.000 HD 
HETATM   43  O   UNL     1     -11.887  10.801  70.029  1.00  0.00    -0.284 OA 
ENDBRANCH  15  41
BRANCH  21  44
HETATM   44  C   UNL     1      -9.176  17.537  67.030  1.00  0.00    -0.253 C  
HETATM   45  C   UNL     1     -10.368  19.187  66.080  1.00  0.00    -0.484 C  
HETATM   46  O   UNL     1     -10.653  20.083  65.305  1.00  0.00    -0.295 OA 
HETATM   47  O   UNL     1     -11.156  18.747  67.075  1.00  0.00    -0.241 OA 
HETATM   48  C   UNL     1     -10.474  17.681  67.741  1.00  0.00    -0.378 C  
HETATM   49  C   UNL     1      -9.128  18.425  66.034  1.00  0.00     0.018 C  
ENDBRANCH  21  44
TORSDOF 4
ENDMDL
MODEL       77
REMARK 921   NORMALIZED FREE ENERGY PREDICTED BY IDOCK:   -4.83 KCAL/MOL
REMARK 922        TOTAL FREE ENERGY PREDICTED BY IDOCK:   -6.91 KCAL/MOL
REMARK 923 INTER-LIGAND FREE ENERGY PREDICTED BY IDOCK:   -6.56 KCAL/MOL
REMARK 924 INTRA-LIGAND FREE ENERGY PREDICTED BY IDOCK:   -0.34 KCAL/MOL
REMARK 927      BINDING AFFINITY PREDICTED BY RF-SCORE:    0.00 PKD
ROOT
HETATM    1  C   UNL     1      -8.870  10.360  68.090  1.00  0.00    -0.132 C  
HETATM    2  C   UNL     1      -7.723  10.548  67.102  1.00  0.00    -0.101 C  
HETATM    3  C   UNL     1      -7.565  12.059  66.793  1.00  0.00     0.008 C  
HETATM    4  C   UNL     1      -8.874  12.780  66.315  1.00  0.00     0.140 C  
HETATM    5  O   UNL     1      -9.241  12.128  65.100  1.00  0.00    -0.425 OA 
HETATM    6  C   UNL     1      -8.710  14.270  66.012  1.00  0.00     0.643 C  
HETATM    7  C   UNL     1      -7.886  14.937  67.081  1.00  0.00    -0.170 C  
HETATM    8  H   UNL     1     -10.034  12.565  64.812  1.00  0.00     0.000 HD 
HETATM    9  H   UNL     1      -8.484   8.931  70.655  1.00  0.00     0.000 HD 
HETATM   10  C   UNL     1      -8.482  14.689  68.479  1.00  0.00    -0.161 C  
HETATM   11  C   UNL     1      -9.516  13.514  68.665  1.00  0.00    -0.055 C  
HETATM   12  O   UNL     1      -8.405   9.731  70.149  1.00  0.00    -0.181 OA 
HETATM   13  C   UNL     1      -9.002   9.027  68.935  1.00  0.00    -0.140 C  
HETATM   14  O   UNL     1     -10.608  14.019  69.441  1.00  0.00    -0.420 OA 
HETATM   15  C   UNL     1      -9.999  12.657  67.394  1.00  0.00    -0.204 C  
HETATM   16  C   UNL     1     -10.169  11.084  67.617  1.00  0.00    -0.211 C  
HETATM   17  C   UNL     1      -8.288   7.728  69.313  1.00  0.00    -0.136 C  
HETATM   18  C   UNL     1      -9.093   7.426  70.733  1.00  0.00    -0.151 C  
HETATM   19  H   UNL     1     -11.231  13.310  69.553  1.00  0.00     0.000 HD 
HETATM   20  C   UNL     1     -10.886   6.987  68.635  1.00  0.00    -0.191 C  
HETATM   21  C   UNL     1     -10.436   8.323  70.677  1.00  0.00    -0.224 C  
HETATM   22  C   UNL     1     -11.403  10.727  68.433  1.00  0.00    -0.302 C  
HETATM   23  C   UNL     1     -10.511   8.457  69.141  1.00  0.00    -0.218 C  
HETATM   24  H   UNL     1     -12.177  10.984  70.263  1.00  0.00     0.000 HD 
HETATM   25  O   UNL     1     -11.407  11.207  69.753  1.00  0.00    -0.257 OA 
HETATM   26  C   UNL     1     -11.546   9.245  68.381  1.00  0.00     0.884 C  
ENDROOT
BRANCH   7  27
HETATM   27  O   UNL     1      -7.813  16.305  66.706  1.00  0.00    -0.211 OA 
BRANCH  27  28
HETATM   28  C   UNL     1      -8.661  17.232  67.378  1.00  0.00    -0.206 C  
HETATM   29  C   UNL     1      -9.377  19.678  67.673  1.00  0.00    -0.338 C  
HETATM   30  H   UNL     1     -10.680  20.475  65.658  1.00  0.00     0.000 HD 
HETATM   31  C   UNL     1     -11.305  17.273  68.799  1.00  0.00     0.498 C  
HETATM   32  O   UNL     1      -9.335  19.852  69.101  1.00  0.00    -0.189 OA 
HETATM   33  C   UNL     1      -8.252  18.726  67.227  1.00  0.00    -0.263 C  
HETATM   34  O   UNL     1      -7.081  19.030  68.016  1.00  0.00    -0.231 OA 
HETATM   35  H   UNL     1      -8.475  20.119  69.404  1.00  0.00     0.000 HD 
HETATM   36  O   UNL     1     -10.842  19.547  65.778  1.00  0.00    -0.453 OA 
HETATM   37  C   UNL     1     -10.762  19.247  67.184  1.00  0.00    -0.480 C  
HETATM   38  H   UNL     1      -6.831  19.943  67.924  1.00  0.00     0.000 HD 
HETATM   39  C   UNL     1     -11.023  17.746  67.378  1.00  0.00    -0.063 C  
HETATM   40  O   UNL     1      -9.952  17.004  66.800  1.00  0.00    -0.272 OA 
ENDBRANCH  27  28
ENDBRANCH   7  27
BRANCH  15  41
HETATM   41  C   UNL     1     -11.408  13.195  66.915  1.00  0.00    -0.318 C  
HETATM   42  H   UNL     1     -12.412  13.650  65.217  1.00  0.00     0.000 HD 
HETATM   43  O   UNL     1     -11.565  13.327  65.505  1.00  0.00    -0.311 OA 
ENDBRANCH  15  41
BRANCH  21  44
HETATM   44  C   UNL     1     -11.681   8.071  71.435  1.00  0.00    -0.320 C  
HETATM   45  C   UNL     1     -13.599   8.390  72.561  1.00  0.00    -0.126 C  
HETATM   46  O   UNL     1     -14.405   8.919  73.305  1.00  0.00    -0.209 OA 
HETATM   47  O   UNL     1     -13.817   7.268  71.855  1.00  0.00    -0.313 OA 
HETATM   48  C   UNL     1     -12.638   6.986  71.096  1.00  0.00    -0.339 C  
HETATM   49  C   UNL     1     -12.265   8.911  72.294  1.00  0.00    -0.413 C  
ENDBRANCH  21  44
TORSDOF 4
ENDMDL
MODEL       78
REMARK 921   NORMALIZED FREE ENERGY PREDICTED BY IDOCK:   -4.83 KCAL/MOL
REMARK 922        TOTAL FREE ENERGY PREDICTED BY IDOCK:   -6.91 KCAL/MOL
REMARK 923 INTER-LIGAND FREE ENERGY PREDICTED BY IDOCK:   -7.38 KCAL/MOL
REMARK 924 INTRA-LIGAND FREE ENERGY PREDICTED BY IDOCK:    0.48 KCAL/MOL
REMARK 927      BINDING AFFINITY PREDICTED BY RF-SCORE:    0.00 PKD
ROOT
HETATM    1  C   UNL     1     -10.158  12.873  67.776  1.00  0.00    -0.229 C  
HETATM    2  C   UNL     1     -11.421  13.641  68.151  1.00  0.00    -0.348 C  
HETATM    3  C   UNL     1     -11.130  15.162  68.075  1.00  0.00    -0.310 C  
HETATM    4  C   UNL     1      -9.885  15.642  68.903  1.00  0.00    -0.219 C  
HETATM    5  O   UNL     1     -10.192  15.329  70.260  1.00  0.00    -0.475 OA 
HETATM    6  C   UNL     1      -9.604  17.143  68.823  1.00  0.00    -0.269 C  
HETATM    7  C   UNL     1      -9.740  17.630  67.405  1.00  0.00    -0.283 C  
HETATM    8  H   UNL     1      -9.438  15.619  70.760  1.00  0.00     0.000 HD 
HETATM    9  H   UNL     1     -10.156  10.864  65.601  1.00  0.00     0.000 HD 
HETATM   10  C   UNL     1      -8.846  16.819  66.450  1.00  0.00    -0.331 C  
HETATM   11  C   UNL     1      -8.292  15.423  66.931  1.00  0.00    -0.255 C  
HETATM   12  O   UNL     1     -10.110  11.774  65.869  1.00  0.00    -0.219 OA 
HETATM   13  C   UNL     1     -10.234  11.356  67.329  1.00  0.00    -0.199 C  
HETATM   14  O   UNL     1      -6.902  15.370  66.592  1.00  0.00    -0.179 OA 
HETATM   15  C   UNL     1      -8.588  14.910  68.425  1.00  0.00    -0.159 C  
HETATM   16  C   UNL     1      -8.919  13.357  68.595  1.00  0.00     0.018 C  
HETATM   17  C   UNL     1     -11.192  10.227  66.946  1.00  0.00     0.124 C  
HETATM   18  C   UNL     1     -10.126   9.307  66.067  1.00  0.00    -0.262 C  
HETATM   19  H   UNL     1      -6.569  14.529  66.882  1.00  0.00     0.000 HD 
HETATM   20  C   UNL     1      -9.399   9.105  68.757  1.00  0.00    -0.139 C  
HETATM   21  C   UNL     1      -8.652   9.809  66.498  1.00  0.00    -0.135 C  
HETATM   22  C   UNL     1      -7.696  12.466  68.440  1.00  0.00    -0.144 C  
HETATM   23  C   UNL     1      -9.044  10.389  67.873  1.00  0.00    -0.132 C  
HETATM   24  H   UNL     1      -6.325  11.938  67.077  1.00  0.00     0.000 HD 
HETATM   25  O   UNL     1      -7.089  12.495  67.174  1.00  0.00    -0.136 OA 
HETATM   26  C   UNL     1      -8.109  11.087  68.827  1.00  0.00    -0.145 C  
ENDROOT
BRANCH   7  27
HETATM   27  O   UNL     1      -9.446  19.019  67.451  1.00  0.00    -0.296 OA 
BRANCH  27  28
HETATM   28  C   UNL     1      -8.108  19.431  67.181  1.00  0.00    -0.266 C  
HETATM   29  C   UNL     1      -5.610  19.093  67.655  1.00  0.00    -0.178 C  
HETATM   30  H   UNL     1      -4.789  16.940  66.610  1.00  0.00     0.000 HD 
HETATM   31  C   UNL     1      -6.547  20.795  65.011  1.00  0.00    -0.212 C  
HETATM   32  O   UNL     1      -5.154  20.428  67.934  1.00  0.00    -0.175 OA 
HETATM   33  C   UNL     1      -7.043  18.905  68.185  1.00  0.00    -0.250 C  
HETATM   34  O   UNL     1      -7.134  19.589  69.454  1.00  0.00    -0.350 OA 
HETATM   35  H   UNL     1      -5.246  20.654  68.852  1.00  0.00     0.000 HD 
HETATM   36  O   UNL     1      -5.487  17.294  66.071  1.00  0.00    -0.305 OA 
HETATM   37  C   UNL     1      -5.462  18.730  66.175  1.00  0.00    -0.155 C  
HETATM   38  H   UNL     1      -6.483  19.267  70.067  1.00  0.00     0.000 HD 
HETATM   39  C   UNL     1      -6.591  19.301  65.304  1.00  0.00    -0.253 C  
HETATM   40  O   UNL     1      -7.849  18.931  65.864  1.00  0.00    -0.441 OA 
ENDBRANCH  27  28
ENDBRANCH   7  27
BRANCH  15  41
HETATM   41  C   UNL     1      -7.321  15.198  69.329  1.00  0.00    -0.188 C  
HETATM   42  H   UNL     1      -6.650  14.905  71.216  1.00  0.00     0.000 HD 
HETATM   43  O   UNL     1      -7.410  14.733  70.674  1.00  0.00     0.421 OA 
ENDBRANCH  15  41
BRANCH  21  44
HETATM   44  C   UNL     1      -7.400   9.029  66.380  1.00  0.00    -0.088 C  
HETATM   45  C   UNL     1      -5.900   7.479  65.754  1.00  0.00    -0.037 C  
HETATM   46  O   UNL     1      -5.460   6.396  65.411  1.00  0.00    -0.017 OA 
HETATM   47  O   UNL     1      -5.172   8.600  65.894  1.00  0.00    -0.030 OA 
HETATM   48  C   UNL     1      -6.054   9.653  66.291  1.00  0.00    -0.064 C  
HETATM   49  C   UNL     1      -7.303   7.740  66.044  1.00  0.00    -0.074 C  
ENDBRANCH  21  44
TORSDOF 4
ENDMDL
MODEL       79
REMARK 921   NORMALIZED FREE ENERGY PREDICTED BY IDOCK:   -4.76 KCAL/MOL
REMARK 922        TOTAL FREE ENERGY PREDICTED BY IDOCK:   -6.83 KCAL/MOL
REMARK 923 INTER-LIGAND FREE ENERGY PREDICTED BY IDOCK:   -7.15 KCAL/MOL
REMARK 924 INTRA-LIGAND FREE ENERGY PREDICTED BY IDOCK:    0.32 KCAL/MOL
REMARK 927      BINDING AFFINITY PREDICTED BY RF-SCORE:    0.00 PKD
ROOT
HETATM    1  C   UNL     1      -9.535   8.837  67.495  1.00  0.00    -0.173 C  
HETATM    2  C   UNL     1      -9.101   7.758  66.508  1.00  0.00    -0.208 C  
HETATM    3  C   UNL     1      -9.108   6.384  67.225  1.00  0.00    -0.117 C  
HETATM    4  C   UNL     1      -8.280   6.327  68.558  1.00  0.00    -0.112 C  
HETATM    5  O   UNL     1      -6.934   6.607  68.178  1.00  0.00    -0.071 OA 
HETATM    6  C   UNL     1      -8.291   4.968  69.260  1.00  0.00    -0.082 C  
HETATM    7  C   UNL     1      -9.682   4.390  69.266  1.00  0.00    -0.182 C  
HETATM    8  H   UNL     1      -6.434   6.572  68.984  1.00  0.00     0.000 HD 
HETATM    9  H   UNL     1     -11.805  10.647  66.911  1.00  0.00     0.000 HD 
HETATM   10  C   UNL     1     -10.691   5.374  69.885  1.00  0.00    -0.292 C  
HETATM   11  C   UNL     1     -10.288   6.892  70.015  1.00  0.00    -0.200 C  
HETATM   12  O   UNL     1     -11.493   9.804  67.218  1.00  0.00     0.136 OA 
HETATM   13  C   UNL     1     -10.053  10.243  66.983  1.00  0.00    -0.218 C  
HETATM   14  O   UNL     1     -10.654   7.326  71.328  1.00  0.00    -0.219 OA 
HETATM   15  C   UNL     1      -8.815   7.375  69.588  1.00  0.00    -0.141 C  
HETATM   16  C   UNL     1      -8.715   8.774  68.822  1.00  0.00    -0.137 C  
HETATM   17  C   UNL     1     -10.474  11.027  65.739  1.00  0.00    -0.290 C  
HETATM   18  C   UNL     1     -11.415  12.169  66.491  1.00  0.00    -0.430 C  
HETATM   19  H   UNL     1     -10.410   8.242  71.406  1.00  0.00     0.000 HD 
HETATM   20  C   UNL     1      -8.751  12.710  67.137  1.00  0.00    -0.201 C  
HETATM   21  C   UNL     1     -10.986  12.135  68.049  1.00  0.00    -0.271 C  
HETATM   22  C   UNL     1      -8.934   9.970  69.736  1.00  0.00    -0.185 C  
HETATM   23  C   UNL     1      -9.578  11.538  67.844  1.00  0.00    -0.178 C  
HETATM   24  H   UNL     1     -10.345  10.799  70.893  1.00  0.00     0.000 HD 
HETATM   25  O   UNL     1     -10.208  10.052  70.322  1.00  0.00    -0.268 OA 
HETATM   26  C   UNL     1      -8.608  11.189  68.944  1.00  0.00    -0.092 C  
ENDROOT
BRANCH   7  27
HETATM   27  O   UNL     1      -9.574   3.149  69.949  1.00  0.00    -0.157 OA 
BRANCH  27  28
HETATM   28  C   UNL     1      -9.427   3.172  71.366  1.00  0.00    -0.149 C  
HETATM   29  C   UNL     1      -8.119   4.064  73.385  1.00  0.00    -0.089 C  
HETATM   30  H   UNL     1      -8.596   6.523  73.740  1.00  0.00     0.000 HD 
HETATM   31  C   UNL     1     -11.091   2.744  73.828  1.00  0.00    -0.304 C  
HETATM   32  O   UNL     1      -7.849   2.871  74.142  1.00  0.00    -0.061 OA 
HETATM   33  C   UNL     1      -8.077   3.750  71.878  1.00  0.00    -0.071 C  
HETATM   34  O   UNL     1      -6.991   2.824  71.653  1.00  0.00    -0.029 OA 
HETATM   35  H   UNL     1      -7.043   2.449  73.870  1.00  0.00     0.000 HD 
HETATM   36  O   UNL     1      -9.370   6.112  73.373  1.00  0.00    -0.135 OA 
HETATM   37  C   UNL     1      -9.419   4.745  73.823  1.00  0.00    -0.124 C  
HETATM   38  H   UNL     1      -6.166   3.178  71.966  1.00  0.00     0.000 HD 
HETATM   39  C   UNL     1     -10.670   4.081  73.230  1.00  0.00    -0.201 C  
HETATM   40  O   UNL     1     -10.523   3.979  71.816  1.00  0.00    -0.048 OA 
ENDBRANCH  27  28
ENDBRANCH   7  27
BRANCH  15  41
HETATM   41  C   UNL     1      -7.921   7.511  70.886  1.00  0.00    -0.096 C  
HETATM   42  H   UNL     1      -5.990   7.782  71.432  1.00  0.00     0.000 HD 
HETATM   43  O   UNL     1      -6.527   7.700  70.652  1.00  0.00    -0.038 OA 
ENDBRANCH  15  41
BRANCH  21  44
HETATM   44  C   UNL     1     -11.163  13.236  69.022  1.00  0.00    -0.320 C  
HETATM   45  C   UNL     1     -11.464  15.279  69.904  1.00  0.00    -0.304 C  
HETATM   46  O   UNL     1     -11.374  16.488  70.029  1.00  0.00    -0.254 OA 
HETATM   47  O   UNL     1     -12.163  14.468  70.715  1.00  0.00    -0.289 OA 
HETATM   48  C   UNL     1     -12.032  13.131  70.223  1.00  0.00    -0.292 C  
HETATM   49  C   UNL     1     -10.843  14.518  68.829  1.00  0.00    -0.256 C  
ENDBRANCH  21  44
TORSDOF 4
ENDMDL
MODEL       80
REMARK 921   NORMALIZED FREE ENERGY PREDICTED BY IDOCK:   -4.52 KCAL/MOL
REMARK 922        TOTAL FREE ENERGY PREDICTED BY IDOCK:   -6.53 KCAL/MOL
REMARK 923 INTER-LIGAND FREE ENERGY PREDICTED BY IDOCK:   -7.29 KCAL/MOL
REMARK 924 INTRA-LIGAND FREE ENERGY PREDICTED BY IDOCK:    0.76 KCAL/MOL
REMARK 927      BINDING AFFINITY PREDICTED BY RF-SCORE:    0.00 PKD
ROOT
HETATM    1  C   UNL     1      -7.505  11.236  68.317  1.00  0.00    -0.099 C  
HETATM    2  C   UNL     1      -6.504  12.252  68.857  1.00  0.00    -0.089 C  
HETATM    3  C   UNL     1      -7.210  13.623  69.015  1.00  0.00    -0.049 C  
HETATM    4  C   UNL     1      -7.940  14.146  67.727  1.00  0.00    -0.170 C  
HETATM    5  O   UNL     1      -6.914  14.301  66.749  1.00  0.00    -0.175 OA 
HETATM    6  C   UNL     1      -8.634  15.499  67.891  1.00  0.00    -0.156 C  
HETATM    7  C   UNL     1      -9.380  15.554  69.198  1.00  0.00    -0.250 C  
HETATM    8  H   UNL     1      -7.356  14.617  65.970  1.00  0.00     0.000 HD 
HETATM    9  H   UNL     1      -8.041   8.690  69.731  1.00  0.00     0.000 HD 
HETATM   10  C   UNL     1     -10.362  14.377  69.328  1.00  0.00    -0.116 C  
HETATM   11  C   UNL     1     -10.175  13.125  68.388  1.00  0.00    -0.247 C  
HETATM   12  O   UNL     1      -8.200   9.622  69.644  1.00  0.00    -0.113 OA 
HETATM   13  C   UNL     1      -7.240   9.681  68.461  1.00  0.00    -0.070 C  
HETATM   14  O   UNL     1     -11.463  12.776  67.871  1.00  0.00    -0.275 OA 
HETATM   15  C   UNL     1      -9.031  13.130  67.258  1.00  0.00    -0.216 C  
HETATM   16  C   UNL     1      -8.236  11.761  67.041  1.00  0.00    -0.172 C  
HETATM   17  C   UNL     1      -6.335   8.637  69.117  1.00  0.00    -0.043 C  
HETATM   18  C   UNL     1      -7.388   7.355  69.070  1.00  0.00    -0.091 C  
HETATM   19  H   UNL     1     -11.350  12.022  67.304  1.00  0.00     0.000 HD 
HETATM   20  C   UNL     1      -6.559   7.865  66.451  1.00  0.00    -0.050 C  
HETATM   21  C   UNL     1      -8.512   7.748  67.978  1.00  0.00    -0.123 C  
HETATM   22  C   UNL     1      -9.058  10.700  66.325  1.00  0.00    -0.167 C  
HETATM   23  C   UNL     1      -7.660   8.763  67.186  1.00  0.00    -0.088 C  
HETATM   24  H   UNL     1     -10.716   9.601  66.565  1.00  0.00     0.000 HD 
HETATM   25  O   UNL     1     -10.202  10.263  67.013  1.00  0.00    -0.207 OA 
HETATM   26  C   UNL     1      -8.135   9.574  66.008  1.00  0.00    -0.111 C  
ENDROOT
BRANCH   7  27
HETATM   27  O   UNL     1      -9.989  16.837  69.233  1.00  0.00    -0.258 OA 
BRANCH  27  28
HETATM   28  C   UNL     1      -9.318  17.917  68.589  1.00  0.00    -0.277 C  
HETATM   29  C   UNL     1      -7.127  18.813  67.600  1.00  0.00    -0.211 C  
HETATM   30  H   UNL     1      -6.584  17.635  65.429  1.00  0.00     0.000 HD 
HETATM   31  C   UNL     1      -9.966  20.284  66.861  1.00  0.00    -0.592 C  
HETATM   32  O   UNL     1      -7.006  20.108  68.214  1.00  0.00    -0.294 OA 
HETATM   33  C   UNL     1      -7.766  17.820  68.589  1.00  0.00    -0.283 C  
HETATM   34  O   UNL     1      -7.223  18.096  69.899  1.00  0.00     0.338 OA 
HETATM   35  H   UNL     1      -6.555  20.068  69.049  1.00  0.00     0.000 HD 
HETATM   36  O   UNL     1      -7.528  17.682  65.522  1.00  0.00    -0.432 OA 
HETATM   37  C   UNL     1      -7.856  18.877  66.255  1.00  0.00    -0.279 C  
HETATM   38  H   UNL     1      -6.274  18.037  69.899  1.00  0.00     0.000 HD 
HETATM   39  C   UNL     1      -9.382  18.952  66.406  1.00  0.00    -0.328 C  
HETATM   40  O   UNL     1      -9.824  17.891  67.249  1.00  0.00    -0.290 OA 
ENDBRANCH  27  28
ENDBRANCH   7  27
BRANCH  15  41
HETATM   41  C   UNL     1      -9.686  13.491  65.864  1.00  0.00    -0.181 C  
HETATM   42  H   UNL     1     -11.110  14.692  65.071  1.00  0.00     0.000 HD 
HETATM   43  O   UNL     1     -10.717  14.474  65.908  1.00  0.00    -0.288 OA 
ENDBRANCH  15  41
BRANCH  21  44
HETATM   44  C   UNL     1      -9.370   6.799  67.235  1.00  0.00    -0.148 C  
HETATM   45  C   UNL     1     -10.213   4.902  66.378  1.00  0.00    -0.278 C  
HETATM   46  O   UNL     1     -10.233   3.781  65.901  1.00  0.00    -0.015 OA 
HETATM   47  O   UNL     1     -11.297   5.644  66.656  1.00  0.00     0.079 OA 
HETATM   48  C   UNL     1     -10.854   6.883  67.216  1.00  0.00    -0.356 C  
HETATM   49  C   UNL     1      -8.997   5.612  66.750  1.00  0.00    -0.116 C  
ENDBRANCH  21  44
TORSDOF 4
ENDMDL
MODEL       81
REMARK 921   NORMALIZED FREE ENERGY PREDICTED BY IDOCK:   -4.34 KCAL/MOL
REMARK 922        TOTAL FREE ENERGY PREDICTED BY IDOCK:   -6.30 KCAL/MOL
REMARK 923 INTER-LIGAND FREE ENERGY PREDICTED BY IDOCK:   -6.80 KCAL/MOL
REMARK 924 INTRA-LIGAND FREE ENERGY PREDICTED BY IDOCK:    0.50 KCAL/MOL
REMARK 927      BINDING AFFINITY PREDICTED BY RF-SCORE:    0.00 PKD
ROOT
HETATM    1  C   UNL     1      -8.221   8.215  69.474  1.00  0.00    -0.121 C  
HETATM    2  C   UNL     1      -7.961   9.352  70.456  1.00  0.00    -0.199 C  
HETATM    3  C   UNL     1      -7.891  10.689  69.675  1.00  0.00    -0.048 C  
HETATM    4  C   UNL     1      -6.877  10.706  68.477  1.00  0.00    -0.065 C  
HETATM    5  O   UNL     1      -5.596  10.484  69.065  1.00  0.00    -0.041 OA 
HETATM    6  C   UNL     1      -6.813  12.029  67.712  1.00  0.00    -0.100 C  
HETATM    7  C   UNL     1      -8.200  12.566  67.472  1.00  0.00    -0.175 C  
HETATM    8  H   UNL     1      -4.983  10.494  68.339  1.00  0.00     0.000 HD 
HETATM    9  H   UNL     1     -10.514   6.371  69.812  1.00  0.00     0.000 HD 
HETATM   10  C   UNL     1      -9.085  11.524  66.763  1.00  0.00    -0.184 C  
HETATM   11  C   UNL     1      -8.635  10.014  66.774  1.00  0.00    -0.125 C  
HETATM   12  O   UNL     1     -10.178   7.207  69.510  1.00  0.00    -0.185 OA 
HETATM   13  C   UNL     1      -8.779   6.821  69.977  1.00  0.00    -0.141 C  
HETATM   14  O   UNL     1      -8.793   9.507  65.445  1.00  0.00    -0.154 OA 
HETATM   15  C   UNL     1      -7.232   9.595  67.436  1.00  0.00    -0.086 C  
HETATM   16  C   UNL     1      -7.216   8.238  68.279  1.00  0.00    -0.093 C  
HETATM   17  C   UNL     1      -9.363   6.086  71.185  1.00  0.00    -0.174 C  
HETATM   18  C   UNL     1     -10.158   4.883  70.363  1.00  0.00    -0.316 C  
HETATM   19  H   UNL     1      -8.522   8.596  65.451  1.00  0.00     0.000 HD 
HETATM   20  C   UNL     1      -7.417   4.388  70.143  1.00  0.00    -0.046 C  
HETATM   21  C   UNL     1      -9.505   4.854  68.885  1.00  0.00    -0.202 C  
HETATM   22  C   UNL     1      -7.272   6.993  67.406  1.00  0.00    -0.090 C  
HETATM   23  C   UNL     1      -8.155   5.500  69.262  1.00  0.00    -0.095 C  
HETATM   24  H   UNL     1      -8.479   6.069  66.101  1.00  0.00     0.000 HD 
HETATM   25  O   UNL     1      -8.444   6.847  66.646  1.00  0.00    -0.114 OA 
HETATM   26  C   UNL     1      -7.041   5.823  68.300  1.00  0.00    -0.074 C  
ENDROOT
BRANCH   7  27
HETATM   27  O   UNL     1      -8.019  13.775  66.749  1.00  0.00     0.104 OA 
BRANCH  27  28
HETATM   28  C   UNL     1      -9.174  14.543  66.424  1.00  0.00    -0.234 C  
HETATM   29  C   UNL     1     -11.553  14.559  65.462  1.00  0.00    -0.350 C  
HETATM   30  H   UNL     1     -13.167  13.445  67.059  1.00  0.00     0.000 HD 
HETATM   31  C   UNL     1     -10.505  17.104  67.249  1.00  0.00    -0.313 C  
HETATM   32  O   UNL     1     -11.506  15.640  64.515  1.00  0.00    -0.597 OA 
HETATM   33  C   UNL     1     -10.197  13.829  65.493  1.00  0.00    -0.316 C  
HETATM   34  O   UNL     1      -9.708  13.754  64.136  1.00  0.00    -0.517 OA 
HETATM   35  H   UNL     1     -11.215  15.353  63.657  1.00  0.00     0.000 HD 
HETATM   36  O   UNL     1     -12.477  13.860  67.563  1.00  0.00    -0.177 OA 
HETATM   37  C   UNL     1     -12.021  15.021  66.844  1.00  0.00     0.011 C  
HETATM   38  H   UNL     1     -10.333  13.318  63.568  1.00  0.00     0.000 HD 
HETATM   39  C   UNL     1     -10.905  15.692  67.659  1.00  0.00    -0.307 C  
HETATM   40  O   UNL     1      -9.768  14.833  67.695  1.00  0.00    -0.211 OA 
ENDBRANCH  27  28
ENDBRANCH   7  27
BRANCH  15  41
HETATM   41  C   UNL     1      -6.153   9.422  66.292  1.00  0.00    -0.060 C  
HETATM   42  H   UNL     1      -6.030   9.123  64.293  1.00  0.00     0.000 HD 
HETATM   43  O   UNL     1      -6.678   9.227  64.981  1.00  0.00    -0.075 OA 
ENDBRANCH  15  41
BRANCH  21  44
HETATM   44  C   UNL     1      -9.513   3.703  67.955  1.00  0.00    -0.218 C  
HETATM   45  C   UNL     1      -9.106   2.388  66.180  1.00  0.00    -0.073 C  
HETATM   46  O   UNL     1      -8.896   2.075  65.022  1.00  0.00    -0.110 OA 
HETATM   47  O   UNL     1      -9.149   1.534  67.216  1.00  0.00    -0.120 OA 
HETATM   48  C   UNL     1      -9.402   2.290  68.403  1.00  0.00    -0.203 C  
HETATM   49  C   UNL     1      -9.319   3.755  66.635  1.00  0.00    -0.207 C  
ENDBRANCH  21  44
TORSDOF 4
ENDMDL
MODEL       82
REMARK 921   NORMALIZED FREE ENERGY PREDICTED BY IDOCK:   -4.20 KCAL/MOL
REMARK 922        TOTAL FREE ENERGY PREDICTED BY IDOCK:   -6.14 KCAL/MOL
REMARK 923 INTER-LIGAND FREE ENERGY PREDICTED BY IDOCK:   -6.33 KCAL/MOL
REMARK 924 INTRA-LIGAND FREE ENERGY PREDICTED BY IDOCK:    0.19 KCAL/MOL
REMARK 927      BINDING AFFINITY PREDICTED BY RF-SCORE:    0.00 PKD
ROOT
HETATM    1  C   UNL     1      -9.341   6.273  69.589  1.00  0.00    -0.150 C  
HETATM    2  C   UNL     1     -10.081   6.738  70.839  1.00  0.00    -0.207 C  
HETATM    3  C   UNL     1     -10.625   8.170  70.602  1.00  0.00    -0.229 C  
HETATM    4  C   UNL     1      -9.555   9.218  70.130  1.00  0.00    -0.220 C  
HETATM    5  O   UNL     1      -8.604   9.289  71.190  1.00  0.00    -0.281 OA 
HETATM    6  C   UNL     1     -10.100  10.628  69.898  1.00  0.00     0.053 C  
HETATM    7  C   UNL     1     -11.410  10.571  69.156  1.00  0.00    -0.257 C  
HETATM    8  H   UNL     1      -7.957   9.923  70.904  1.00  0.00     0.000 HD 
HETATM    9  H   UNL     1     -10.062   3.752  68.212  1.00  0.00     0.000 HD 
HETATM   10  C   UNL     1     -11.273   9.777  67.845  1.00  0.00    -0.036 C  
HETATM   11  C   UNL     1     -10.030   8.825  67.661  1.00  0.00    -0.193 C  
HETATM   12  O   UNL     1     -10.231   4.675  68.363  1.00  0.00    -0.060 OA 
HETATM   13  C   UNL     1      -9.060   4.735  69.338  1.00  0.00    -0.104 C  
HETATM   14  O   UNL     1      -9.501   9.052  66.351  1.00  0.00    -0.187 OA 
HETATM   15  C   UNL     1      -8.888   8.762  68.791  1.00  0.00    -0.134 C  
HETATM   16  C   UNL     1      -8.283   7.320  69.116  1.00  0.00    -0.122 C  
HETATM   17  C   UNL     1      -9.377   3.324  69.835  1.00  0.00    -0.234 C  
HETATM   18  C   UNL     1      -9.045   2.503  68.431  1.00  0.00    -0.227 C  
HETATM   19  H   UNL     1      -8.752   8.479  66.240  1.00  0.00     0.000 HD 
HETATM   20  C   UNL     1      -6.615   3.393  69.484  1.00  0.00    -0.034 C  
HETATM   21  C   UNL     1      -8.149   3.506  67.537  1.00  0.00    -0.081 C  
HETATM   22  C   UNL     1      -7.354   6.804  68.028  1.00  0.00    -0.097 C  
HETATM   23  C   UNL     1      -7.611   4.367  68.699  1.00  0.00    -0.063 C  
HETATM   24  H   UNL     1      -7.376   6.266  66.098  1.00  0.00     0.000 HD 
HETATM   25  O   UNL     1      -7.957   6.588  66.778  1.00  0.00    -0.106 OA 
HETATM   26  C   UNL     1      -6.710   5.567  68.555  1.00  0.00    -0.057 C  
ENDROOT
BRANCH   7  27
HETATM   27  O   UNL     1     -11.808  11.924  68.987  1.00  0.00    -0.294 OA 
BRANCH  27  28
HETATM   28  C   UNL     1     -11.496  12.568  67.755  1.00  0.00    -0.321 C  
HETATM   29  C   UNL     1      -9.898  12.738  65.755  1.00  0.00    -0.214 C  
HETATM   30  H   UNL     1     -10.145  10.725  64.243  1.00  0.00     0.000 HD 
HETATM   31  C   UNL     1     -12.888  14.078  65.566  1.00  0.00    -0.453 C  
HETATM   32  O   UNL     1      -9.631  14.149  65.679  1.00  0.00    -0.506 OA 
HETATM   33  C   UNL     1     -10.055  12.311  67.226  1.00  0.00    -0.204 C  
HETATM   34  O   UNL     1      -9.076  13.037  68.000  1.00  0.00    -0.196 OA 
HETATM   35  H   UNL     1      -8.896  14.405  66.224  1.00  0.00     0.000 HD 
HETATM   36  O   UNL     1     -10.985  10.907  64.647  1.00  0.00    -0.195 OA 
HETATM   37  C   UNL     1     -11.083  12.326  64.878  1.00  0.00    -0.311 C  
HETATM   38  H   UNL     1      -8.196  12.880  67.677  1.00  0.00     0.000 HD 
HETATM   39  C   UNL     1     -12.441  12.621  65.530  1.00  0.00    -0.276 C  
HETATM   40  O   UNL     1     -12.468  12.052  66.837  1.00  0.00    -0.020 OA 
ENDBRANCH  27  28
ENDBRANCH   7  27
BRANCH  15  41
HETATM   41  C   UNL     1      -7.670   9.666  68.342  1.00  0.00    -0.081 C  
HETATM   42  H   UNL     1      -5.881  10.326  69.022  1.00  0.00     0.000 HD 
HETATM   43  O   UNL     1      -6.613   9.784  69.292  1.00  0.00    -0.050 OA 
ENDBRANCH  15  41
BRANCH  21  44
HETATM   44  C   UNL     1      -7.224   3.110  66.451  1.00  0.00    -0.070 C  
HETATM   45  C   UNL     1      -5.753   3.207  64.756  1.00  0.00    -0.014 C  
HETATM   46  O   UNL     1      -5.202   3.621  63.752  1.00  0.00    -0.008 OA 
HETATM   47  O   UNL     1      -5.375   2.125  65.455  1.00  0.00    -0.007 OA 
HETATM   48  C   UNL     1      -6.262   1.984  66.569  1.00  0.00    -0.023 C  
HETATM   49  C   UNL     1      -6.905   3.842  65.381  1.00  0.00    -0.053 C  
ENDBRANCH  21  44
TORSDOF 4
ENDMDL
MODEL       83
REMARK 921   NORMALIZED FREE ENERGY PREDICTED BY IDOCK:   -4.20 KCAL/MOL
REMARK 922        TOTAL FREE ENERGY PREDICTED BY IDOCK:   -6.13 KCAL/MOL
REMARK 923 INTER-LIGAND FREE ENERGY PREDICTED BY IDOCK:   -7.14 KCAL/MOL
REMARK 924 INTRA-LIGAND FREE ENERGY PREDICTED BY IDOCK:    1.01 KCAL/MOL
REMARK 927      BINDING AFFINITY PREDICTED BY RF-SCORE:    0.00 PKD
ROOT
HETATM    1  C   UNL     1      -8.598   9.421  66.506  1.00  0.00    -0.142 C  
HETATM    2  C   UNL     1      -9.134   9.621  65.092  1.00  0.00    -0.279 C  
HETATM    3  C   UNL     1      -9.576  11.097  64.922  1.00  0.00    -0.279 C  
HETATM    4  C   UNL     1     -10.581  11.618  66.008  1.00  0.00    -0.258 C  
HETATM    5  O   UNL     1     -11.743  10.803  65.869  1.00  0.00     0.470 OA 
HETATM    6  C   UNL     1     -11.013  13.075  65.834  1.00  0.00    -0.292 C  
HETATM    7  C   UNL     1      -9.826  13.939  65.496  1.00  0.00    -0.185 C  
HETATM    8  H   UNL     1     -12.351  11.118  66.527  1.00  0.00     0.000 HD 
HETATM    9  H   UNL     1      -5.889   8.331  66.996  1.00  0.00     0.000 HD 
HETATM   10  C   UNL     1      -8.709  13.784  66.543  1.00  0.00     0.082 C  
HETATM   11  C   UNL     1      -8.737  12.534  67.503  1.00  0.00    -0.182 C  
HETATM   12  O   UNL     1      -6.442   9.074  66.786  1.00  0.00    -0.062 OA 
HETATM   13  C   UNL     1      -7.676   8.182  66.858  1.00  0.00    -0.096 C  
HETATM   14  O   UNL     1      -8.476  13.002  68.830  1.00  0.00    -0.356 OA 
HETATM   15  C   UNL     1      -9.963  11.496  67.439  1.00  0.00    -0.209 C  
HETATM   16  C   UNL     1      -9.597   9.948  67.585  1.00  0.00    -0.172 C  
HETATM   17  C   UNL     1      -6.893   7.015  66.255  1.00  0.00    -0.061 C  
HETATM   18  C   UNL     1      -5.821   6.787  67.502  1.00  0.00    -0.020 C  
HETATM   19  H   UNL     1      -8.493  12.248  69.408  1.00  0.00     0.000 HD 
HETATM   20  C   UNL     1      -8.333   5.934  68.379  1.00  0.00    -0.112 C  
HETATM   21  C   UNL     1      -6.473   7.526  68.783  1.00  0.00    -0.048 C  
HETATM   22  C   UNL     1      -9.227   9.554  69.008  1.00  0.00    -0.155 C  
HETATM   23  C   UNL     1      -7.938   7.482  68.301  1.00  0.00    -0.123 C  
HETATM   24  H   UNL     1      -7.843   9.927  70.408  1.00  0.00     0.000 HD 
HETATM   25  O   UNL     1      -8.074  10.173  69.520  1.00  0.00    -0.144 OA 
HETATM   26  C   UNL     1      -9.118   8.068  69.034  1.00  0.00    -0.144 C  
ENDROOT
BRANCH   7  27
HETATM   27  O   UNL     1     -10.340  15.258  65.372  1.00  0.00    -0.340 OA 
BRANCH  27  28
HETATM   28  C   UNL     1     -10.714  15.947  66.562  1.00  0.00    -0.258 C  
HETATM   29  C   UNL     1     -11.328  15.783  69.047  1.00  0.00    -0.354 C  
HETATM   30  H   UNL     1      -9.292  15.208  70.433  1.00  0.00     0.000 HD 
HETATM   31  C   UNL     1     -10.465  18.682  67.774  1.00  0.00    -0.457 C  
HETATM   32  O   UNL     1     -12.535  16.561  69.129  1.00  0.00    -0.112 OA 
HETATM   33  C   UNL     1     -11.271  15.043  67.699  1.00  0.00    -0.326 C  
HETATM   34  O   UNL     1     -12.606  14.581  67.395  1.00  0.00    -0.509 OA 
HETATM   35  H   UNL     1     -13.310  16.040  68.955  1.00  0.00     0.000 HD 
HETATM   36  O   UNL     1      -9.015  15.721  69.682  1.00  0.00    -0.242 OA 
HETATM   37  C   UNL     1     -10.079  16.623  69.328  1.00  0.00    -0.257 C  
HETATM   38  H   UNL     1     -12.946  14.029  68.089  1.00  0.00     0.000 HD 
HETATM   39  C   UNL     1      -9.632  17.452  68.115  1.00  0.00    -0.287 C  
HETATM   40  O   UNL     1      -9.507  16.596  66.982  1.00  0.00    -0.222 OA 
ENDBRANCH  27  28
ENDBRANCH   7  27
BRANCH  15  41
HETATM   41  C   UNL     1     -10.979  11.826  68.606  1.00  0.00    -0.224 C  
HETATM   42  H   UNL     1     -12.738  11.183  69.375  1.00  0.00     0.000 HD 
HETATM   43  O   UNL     1     -12.128  10.985  68.674  1.00  0.00    -0.551 OA 
ENDBRANCH  15  41
BRANCH  21  44
HETATM   44  C   UNL     1      -6.175   7.228  70.201  1.00  0.00    -0.027 C  
HETATM   45  C   UNL     1      -6.192   7.292  72.447  1.00  0.00    -0.043 C  
HETATM   46  O   UNL     1      -6.255   7.759  73.570  1.00  0.00    -0.063 OA 
HETATM   47  O   UNL     1      -6.057   5.987  72.158  1.00  0.00    -0.039 OA 
HETATM   48  C   UNL     1      -6.040   5.848  70.735  1.00  0.00    -0.030 C  
HETATM   49  C   UNL     1      -6.281   8.079  71.225  1.00  0.00    -0.034 C  
ENDBRANCH  21  44
TORSDOF 4
ENDMDL
MODEL       84
REMARK 921   NORMALIZED FREE ENERGY PREDICTED BY IDOCK:   -4.14 KCAL/MOL
REMARK 922        TOTAL FREE ENERGY PREDICTED BY IDOCK:   -6.06 KCAL/MOL
REMARK 923 INTER-LIGAND FREE ENERGY PREDICTED BY IDOCK:   -6.25 KCAL/MOL
REMARK 924 INTRA-LIGAND FREE ENERGY PREDICTED BY IDOCK:    0.19 KCAL/MOL
REMARK 927      BINDING AFFINITY PREDICTED BY RF-SCORE:    0.00 PKD
ROOT
HETATM    1  C   UNL     1      -8.221  11.052  68.953  1.00  0.00    -0.127 C  
HETATM    2  C   UNL     1      -7.345  10.372  70.001  1.00  0.00    -0.121 C  
HETATM    3  C   UNL     1      -7.592   8.843  69.951  1.00  0.00    -0.063 C  
HETATM    4  C   UNL     1      -9.096   8.409  70.072  1.00  0.00    -0.150 C  
HETATM    5  O   UNL     1      -9.520   8.871  71.353  1.00  0.00    -0.235 OA 
HETATM    6  C   UNL     1      -9.331   6.898  70.022  1.00  0.00    -0.158 C  
HETATM    7  C   UNL     1      -8.500   6.271  68.934  1.00  0.00    -0.120 C  
HETATM    8  H   UNL     1     -10.430   8.608  71.425  1.00  0.00     0.000 HD 
HETATM    9  H   UNL     1      -7.062  12.822  66.881  1.00  0.00     0.000 HD 
HETATM   10  C   UNL     1      -8.759   6.946  67.576  1.00  0.00    -0.120 C  
HETATM   11  C   UNL     1      -9.449   8.363  67.553  1.00  0.00    -0.149 C  
HETATM   12  O   UNL     1      -7.260  11.944  67.184  1.00  0.00    -0.137 OA 
HETATM   13  C   UNL     1      -7.892  12.517  68.448  1.00  0.00    -0.141 C  
HETATM   14  O   UNL     1     -10.467   8.332  66.547  1.00  0.00    -0.403 OA 
HETATM   15  C   UNL     1      -9.948   9.040  68.923  1.00  0.00    -0.197 C  
HETATM   16  C   UNL     1      -9.714  10.613  69.070  1.00  0.00    -0.214 C  
HETATM   17  C   UNL     1      -6.846  13.632  68.489  1.00  0.00    -0.098 C  
HETATM   18  C   UNL     1      -7.290  14.418  67.096  1.00  0.00     0.091 C  
HETATM   19  H   UNL     1     -10.883   9.187  66.534  1.00  0.00     0.000 HD 
HETATM   20  C   UNL     1      -9.287  14.873  68.996  1.00  0.00    -0.179 C  
HETATM   21  C   UNL     1      -8.788  13.912  66.764  1.00  0.00    -0.170 C  
HETATM   22  C   UNL     1     -10.665  11.440  68.217  1.00  0.00    -0.204 C  
HETATM   23  C   UNL     1      -9.169  13.492  68.199  1.00  0.00    -0.208 C  
HETATM   24  H   UNL     1     -11.132  11.773  66.297  1.00  0.00     0.000 HD 
HETATM   25  O   UNL     1     -10.538  11.257  66.830  1.00  0.00    -0.237 OA 
HETATM   26  C   UNL     1     -10.476  12.865  68.610  1.00  0.00    -0.231 C  
ENDROOT
BRANCH   7  27
HETATM   27  O   UNL     1      -8.808   4.885  68.972  1.00  0.00    -0.090 OA 
BRANCH  27  28
HETATM   28  C   UNL     1      -8.698   4.207  70.221  1.00  0.00    -0.074 C  
HETATM   29  C   UNL     1      -7.815   4.251  72.629  1.00  0.00    -0.081 C  
HETATM   30  H   UNL     1      -9.132   5.893  74.031  1.00  0.00     0.000 HD 
HETATM   31  C   UNL     1     -10.136   2.089  71.788  1.00  0.00    -0.166 C  
HETATM   32  O   UNL     1      -7.152   2.980  72.749  1.00  0.00    -0.037 OA 
HETATM   33  C   UNL     1      -7.645   4.799  71.200  1.00  0.00    -0.081 C  
HETATM   34  O   UNL     1      -6.299   4.495  70.771  1.00  0.00    -0.024 OA 
HETATM   35  H   UNL     1      -6.245   3.021  72.469  1.00  0.00     0.000 HD 
HETATM   36  O   UNL     1      -9.707   5.529  73.368  1.00  0.00    -0.148 OA 
HETATM   37  C   UNL     1      -9.277   4.185  73.079  1.00  0.00    -0.110 C  
HETATM   38  H   UNL     1      -5.656   4.857  71.370  1.00  0.00     0.000 HD 
HETATM   39  C   UNL     1     -10.206   3.595  72.009  1.00  0.00    -0.075 C  
HETATM   40  O   UNL     1     -10.013   4.296  70.782  1.00  0.00    -0.200 OA 
ENDBRANCH  27  28
ENDBRANCH   7  27
BRANCH  15  41
HETATM   41  C   UNL     1     -11.505   8.804  69.077  1.00  0.00     0.712 C  
HETATM   42  H   UNL     1     -12.944   8.751  70.500  1.00  0.00     0.000 HD 
HETATM   43  O   UNL     1     -12.009   8.892  70.407  1.00  0.00    -0.079 OA 
ENDBRANCH  15  41
BRANCH  21  44
HETATM   44  C   UNL     1      -9.784  14.631  65.940  1.00  0.00    -0.341 C  
HETATM   45  C   UNL     1     -11.586  15.081  64.675  1.00  0.00    -0.386 C  
HETATM   46  O   UNL     1     -12.468  14.912  63.852  1.00  0.00    -0.806 OA 
HETATM   47  O   UNL     1     -11.428  16.185  65.424  1.00  0.00     0.064 OA 
HETATM   48  C   UNL     1     -10.294  15.987  66.273  1.00  0.00    -0.321 C  
HETATM   49  C   UNL     1     -10.567  14.093  65.001  1.00  0.00    -0.436 C  
ENDBRANCH  21  44
TORSDOF 4
ENDMDL
MODEL       85
REMARK 921   NORMALIZED FREE ENERGY PREDICTED BY IDOCK:   -4.14 KCAL/MOL
REMARK 922        TOTAL FREE ENERGY PREDICTED BY IDOCK:   -6.06 KCAL/MOL
REMARK 923 INTER-LIGAND FREE ENERGY PREDICTED BY IDOCK:   -6.78 KCAL/MOL
REMARK 924 INTRA-LIGAND FREE ENERGY PREDICTED BY IDOCK:    0.72 KCAL/MOL
REMARK 927      BINDING AFFINITY PREDICTED BY RF-SCORE:    0.00 PKD
ROOT
HETATM    1  C   UNL     1     -10.615  13.819  68.986  1.00  0.00    -0.161 C  
HETATM    2  C   UNL     1     -11.578  13.102  69.928  1.00  0.00    -0.255 C  
HETATM    3  C   UNL     1     -11.184  11.605  70.010  1.00  0.00    -0.053 C  
HETATM    4  C   UNL     1     -11.064  10.873  68.626  1.00  0.00    -0.252 C  
HETATM    5  O   UNL     1     -12.366  10.944  68.047  1.00  0.00    -0.518 OA 
HETATM    6  C   UNL     1     -10.676   9.396  68.715  1.00  0.00    -0.200 C  
HETATM    7  C   UNL     1      -9.567   9.203  69.716  1.00  0.00    -0.181 C  
HETATM    8  H   UNL     1     -12.292  10.502  67.210  1.00  0.00     0.000 HD 
HETATM    9  H   UNL     1      -9.084  16.199  69.856  1.00  0.00     0.000 HD 
HETATM   10  C   UNL     1      -8.362  10.103  69.393  1.00  0.00    -0.174 C  
HETATM   11  C   UNL     1      -8.569  11.329  68.424  1.00  0.00    -0.155 C  
HETATM   12  O   UNL     1      -9.175  15.254  69.831  1.00  0.00    -0.162 OA 
HETATM   13  C   UNL     1     -10.463  15.394  69.028  1.00  0.00    -0.249 C  
HETATM   14  O   UNL     1      -7.485  11.330  67.489  1.00  0.00    -0.097 OA 
HETATM   15  C   UNL     1      -9.995  11.570  67.722  1.00  0.00    -0.195 C  
HETATM   16  C   UNL     1     -10.491  13.085  67.614  1.00  0.00    -0.228 C  
HETATM   17  C   UNL     1     -10.839  16.652  69.813  1.00  0.00    -0.238 C  
HETATM   18  C   UNL     1      -9.606  17.631  69.288  1.00  0.00     0.063 C  
HETATM   19  H   UNL     1      -7.610  12.069  66.905  1.00  0.00     0.000 HD 
HETATM   20  C   UNL     1     -11.355  17.253  67.143  1.00  0.00     0.585 C  
HETATM   21  C   UNL     1      -9.030  16.933  67.949  1.00  0.00    -0.225 C  
HETATM   22  C   UNL     1      -9.742  13.883  66.557  1.00  0.00    -0.294 C  
HETATM   23  C   UNL     1     -10.301  16.136  67.589  1.00  0.00    -0.288 C  
HETATM   24  H   UNL     1      -7.898  14.545  66.133  1.00  0.00     0.000 HD 
HETATM   25  O   UNL     1      -8.367  14.046  66.793  1.00  0.00    -0.088 OA 
HETATM   26  C   UNL     1     -10.441  15.192  66.422  1.00  0.00    -0.300 C  
ENDROOT
BRANCH   7  27
HETATM   27  O   UNL     1      -9.283   7.811  69.703  1.00  0.00    -0.153 OA 
BRANCH  27  28
HETATM   28  C   UNL     1      -8.813   7.232  68.489  1.00  0.00    -0.129 C  
HETATM   29  C   UNL     1      -8.176   5.093  67.224  1.00  0.00    -0.107 C  
HETATM   30  H   UNL     1     -10.239   3.740  66.666  1.00  0.00     0.000 HD 
HETATM   31  C   UNL     1      -8.733   7.864  65.555  1.00  0.00    -0.112 C  
HETATM   32  O   UNL     1      -6.888   5.420  66.673  1.00  0.00    -0.060 OA 
HETATM   33  C   UNL     1      -8.340   5.755  68.605  1.00  0.00    -0.107 C  
HETATM   34  O   UNL     1      -7.071   5.663  69.288  1.00  0.00    -0.061 OA 
HETATM   35  H   UNL     1      -6.179   5.217  67.272  1.00  0.00     0.000 HD 
HETATM   36  O   UNL     1     -10.470   4.661  66.667  1.00  0.00    -0.225 OA 
HETATM   37  C   UNL     1      -9.318   5.422  66.258  1.00  0.00    -0.154 C  
HETATM   38  H   UNL     1      -6.782   4.760  69.359  1.00  0.00     0.000 HD 
HETATM   39  C   UNL     1      -9.691   6.911  66.259  1.00  0.00     0.015 C  
HETATM   40  O   UNL     1      -9.932   7.334  67.600  1.00  0.00    -0.145 OA 
ENDBRANCH  27  28
ENDBRANCH   7  27
BRANCH  15  41
HETATM   41  C   UNL     1      -9.943  11.010  66.244  1.00  0.00    -0.224 C  
HETATM   42  H   UNL     1      -8.733  10.995  64.620  1.00  0.00     0.000 HD 
HETATM   43  O   UNL     1      -8.765  11.332  65.509  1.00  0.00    -0.148 OA 
ENDBRANCH  15  41
BRANCH  21  44
HETATM   44  C   UNL     1      -8.282  17.614  66.869  1.00  0.00    -0.248 C  
HETATM   45  C   UNL     1      -7.261  19.199  65.648  1.00  0.00    -0.191 C  
HETATM   46  O   UNL     1      -7.048  20.292  65.155  1.00  0.00    -0.293 OA 
HETATM   47  O   UNL     1      -6.494  18.110  65.476  1.00  0.00    -0.261 OA 
HETATM   48  C   UNL     1      -7.070  17.039  66.228  1.00  0.00    -0.201 C  
HETATM   49  C   UNL     1      -8.380  18.902  66.532  1.00  0.00    -0.310 C  
ENDBRANCH  21  44
TORSDOF 4
ENDMDL
MODEL       86
REMARK 921   NORMALIZED FREE ENERGY PREDICTED BY IDOCK:   -3.69 KCAL/MOL
REMARK 922        TOTAL FREE ENERGY PREDICTED BY IDOCK:   -5.51 KCAL/MOL
REMARK 923 INTER-LIGAND FREE ENERGY PREDICTED BY IDOCK:   -5.47 KCAL/MOL
REMARK 924 INTRA-LIGAND FREE ENERGY PREDICTED BY IDOCK:   -0.04 KCAL/MOL
REMARK 927      BINDING AFFINITY PREDICTED BY RF-SCORE:    0.00 PKD
ROOT
HETATM    1  C   UNL     1      -8.481   9.021  67.120  1.00  0.00    -0.113 C  
HETATM    2  C   UNL     1      -7.671   7.832  66.612  1.00  0.00    -0.098 C  
HETATM    3  C   UNL     1      -8.120   6.555  67.367  1.00  0.00    -0.121 C  
HETATM    4  C   UNL     1      -8.084   6.662  68.933  1.00  0.00    -0.116 C  
HETATM    5  O   UNL     1      -6.716   6.899  69.263  1.00  0.00    -0.046 OA 
HETATM    6  C   UNL     1      -8.527   5.398  69.671  1.00  0.00    -0.100 C  
HETATM    7  C   UNL     1      -9.761   4.820  69.030  1.00  0.00    -0.178 C  
HETATM    8  H   UNL     1      -6.695   6.964  70.210  1.00  0.00     0.000 HD 
HETATM    9  H   UNL     1     -10.035  10.738  65.275  1.00  0.00     0.000 HD 
HETATM   10  C   UNL     1     -10.885   5.867  68.942  1.00  0.00    -0.373 C  
HETATM   11  C   UNL     1     -10.516   7.392  69.097  1.00  0.00    -0.213 C  
HETATM   12  O   UNL     1      -9.971   9.939  65.785  1.00  0.00    -0.270 OA 
HETATM   13  C   UNL     1      -8.587  10.353  66.271  1.00  0.00    -0.142 C  
HETATM   14  O   UNL     1     -11.469   7.980  69.987  1.00  0.00    -0.467 OA 
HETATM   15  C   UNL     1      -9.004   7.825  69.430  1.00  0.00    -0.142 C  
HETATM   16  C   UNL     1      -8.450   9.121  68.678  1.00  0.00    -0.127 C  
HETATM   17  C   UNL     1      -8.275  10.979  64.910  1.00  0.00     0.228 C  
HETATM   18  C   UNL     1      -9.399  12.200  64.954  1.00  0.00     0.243 C  
HETATM   19  H   UNL     1     -11.246   8.899  70.081  1.00  0.00     0.000 HD 
HETATM   20  C   UNL     1      -7.400  12.825  66.803  1.00  0.00     0.437 C  
HETATM   21  C   UNL     1      -9.819  12.356  66.506  1.00  0.00    -0.244 C  
HETATM   22  C   UNL     1      -9.031  10.419  69.221  1.00  0.00    -0.163 C  
HETATM   23  C   UNL     1      -8.538  11.744  67.111  1.00  0.00    -0.168 C  
HETATM   24  H   UNL     1     -10.782  11.376  69.404  1.00  0.00     0.000 HD 
HETATM   25  O   UNL     1     -10.419  10.565  69.064  1.00  0.00    -0.191 OA 
HETATM   26  C   UNL     1      -8.278  11.534  68.581  1.00  0.00    -0.124 C  
ENDROOT
BRANCH   7  27
HETATM   27  O   UNL     1     -10.085   3.671  69.800  1.00  0.00     0.108 OA 
BRANCH  27  28
HETATM   28  C   UNL     1      -9.720   3.660  71.177  1.00  0.00    -0.175 C  
HETATM   29  C   UNL     1     -10.426   4.123  73.600  1.00  0.00    -0.191 C  
HETATM   30  H   UNL     1     -12.098   2.395  74.386  1.00  0.00     0.000 HD 
HETATM   31  C   UNL     1      -7.787   2.265  73.003  1.00  0.00    -0.046 C  
HETATM   32  O   UNL     1      -9.336   4.913  74.104  1.00  0.00    -0.120 OA 
HETATM   33  C   UNL     1     -10.673   4.454  72.116  1.00  0.00     0.051 C  
HETATM   34  O   UNL     1     -10.504   5.879  71.951  1.00  0.00    -0.207 OA 
HETATM   35  H   UNL     1      -9.461   5.841  73.944  1.00  0.00     0.000 HD 
HETATM   36  O   UNL     1     -11.511   1.988  73.760  1.00  0.00    -0.201 OA 
HETATM   37  C   UNL     1     -10.224   2.627  73.858  1.00  0.00    -0.123 C  
HETATM   38  H   UNL     1     -11.086   6.364  72.525  1.00  0.00     0.000 HD 
HETATM   39  C   UNL     1      -9.274   1.969  72.847  1.00  0.00    -0.073 C  
HETATM   40  O   UNL     1      -9.715   2.270  71.525  1.00  0.00    -0.143 OA 
ENDBRANCH  27  28
ENDBRANCH   7  27
BRANCH  15  41
HETATM   41  C   UNL     1      -8.882   8.121  70.979  1.00  0.00    -0.143 C  
HETATM   42  H   UNL     1      -7.487   8.542  72.384  1.00  0.00     0.000 HD 
HETATM   43  O   UNL     1      -7.560   8.364  71.454  1.00  0.00    -0.079 OA 
ENDBRANCH  15  41
BRANCH  21  44
HETATM   44  C   UNL     1     -10.399  13.565  67.131  1.00  0.00    -0.250 C  
HETATM   45  C   UNL     1     -11.253  14.987  68.646  1.00  0.00    -0.278 C  
HETATM   46  O   UNL     1     -11.881  15.371  69.616  1.00  0.00    -0.308 OA 
HETATM   47  O   UNL     1     -10.520  15.772  67.839  1.00  0.00    -0.257 OA 
HETATM   48  C   UNL     1      -9.929  14.944  66.834  1.00  0.00    -0.242 C  
HETATM   49  C   UNL     1     -11.172  13.597  68.219  1.00  0.00    -0.302 C  
ENDBRANCH  21  44
TORSDOF 4
ENDMDL
MODEL       87
REMARK 921   NORMALIZED FREE ENERGY PREDICTED BY IDOCK:   -3.53 KCAL/MOL
REMARK 922        TOTAL FREE ENERGY PREDICTED BY IDOCK:   -5.31 KCAL/MOL
REMARK 923 INTER-LIGAND FREE ENERGY PREDICTED BY IDOCK:   -4.40 KCAL/MOL
REMARK 924 INTRA-LIGAND FREE ENERGY PREDICTED BY IDOCK:   -0.92 KCAL/MOL
REMARK 927      BINDING AFFINITY PREDICTED BY RF-SCORE:    0.00 PKD
ROOT
HETATM    1  C   UNL     1      -9.700   6.716  67.829  1.00  0.00    -0.136 C  
HETATM    2  C   UNL     1     -10.598   7.001  69.028  1.00  0.00    -0.234 C  
HETATM    3  C   UNL     1     -11.046   8.484  68.984  1.00  0.00     0.209 C  
HETATM    4  C   UNL     1      -9.879   9.527  68.866  1.00  0.00    -0.174 C  
HETATM    5  O   UNL     1      -9.094   9.350  70.044  1.00  0.00    -0.183 OA 
HETATM    6  C   UNL     1     -10.329  10.988  68.823  1.00  0.00    -0.217 C  
HETATM    7  C   UNL     1     -11.515  11.148  67.909  1.00  0.00    -0.284 C  
HETATM    8  H   UNL     1      -8.388   9.981  69.971  1.00  0.00     0.000 HD 
HETATM    9  H   UNL     1     -10.304   4.529  65.926  1.00  0.00     0.000 HD 
HETATM   10  C   UNL     1     -11.215  10.590  66.506  1.00  0.00     0.203 C  
HETATM   11  C   UNL     1      -9.996   9.607  66.325  1.00  0.00    -0.264 C  
HETATM   12  O   UNL     1     -10.457   5.420  66.219  1.00  0.00    -0.243 OA 
HETATM   13  C   UNL     1      -9.444   5.232  67.341  1.00  0.00    -0.127 C  
HETATM   14  O   UNL     1      -9.270  10.027  65.166  1.00  0.00    -0.185 OA 
HETATM   15  C   UNL     1      -9.038   9.273  67.572  1.00  0.00    -0.133 C  
HETATM   16  C   UNL     1      -8.544   7.759  67.708  1.00  0.00    -0.121 C  
HETATM   17  C   UNL     1      -9.884   3.778  67.522  1.00  0.00    -0.026 C  
HETATM   18  C   UNL     1      -9.379   3.198  66.052  1.00  0.00    -0.104 C  
HETATM   19  H   UNL     1      -8.535   9.434  65.057  1.00  0.00     0.000 HD 
HETATM   20  C   UNL     1      -7.100   3.730  67.578  1.00  0.00    -0.059 C  
HETATM   21  C   UNL     1      -8.322   4.283  65.490  1.00  0.00    -0.110 C  
HETATM   22  C   UNL     1      -7.483   7.384  66.684  1.00  0.00    -0.088 C  
HETATM   23  C   UNL     1      -7.930   4.889  66.854  1.00  0.00    -0.103 C  
HETATM   24  H   UNL     1      -7.239   7.197  64.704  1.00  0.00     0.000 HD 
HETATM   25  O   UNL     1      -7.901   7.432  65.344  1.00  0.00    -0.103 OA 
HETATM   26  C   UNL     1      -6.973   6.035  67.060  1.00  0.00    -0.068 C  
ENDROOT
BRANCH   7  27
HETATM   27  O   UNL     1     -11.832  12.532  67.937  1.00  0.00    -0.351 OA 
BRANCH  27  28
HETATM   28  C   UNL     1     -11.391  13.345  66.852  1.00  0.00    -0.323 C  
HETATM   29  C   UNL     1     -11.979  15.165  65.142  1.00  0.00    -0.051 C  
HETATM   30  H   UNL     1     -12.214  17.412  66.279  1.00  0.00     0.000 HD 
HETATM   31  C   UNL     1      -8.832  14.449  65.737  1.00  0.00     0.841 C  
HETATM   32  O   UNL     1     -11.522  14.597  63.902  1.00  0.00    -0.545 OA 
HETATM   33  C   UNL     1     -12.525  14.054  66.059  1.00  0.00    -0.455 C  
HETATM   34  O   UNL     1     -13.250  13.119  65.230  1.00  0.00    -0.643 OA 
HETATM   35  H   UNL     1     -12.187  14.061  63.486  1.00  0.00     0.000 HD 
HETATM   36  O   UNL     1     -11.568  16.899  66.749  1.00  0.00     0.742 OA 
HETATM   37  C   UNL     1     -10.906  16.027  65.813  1.00  0.00    -0.230 C  
HETATM   38  H   UNL     1     -13.943  13.553  64.745  1.00  0.00     0.000 HD 
HETATM   39  C   UNL     1      -9.862  15.197  66.574  1.00  0.00    -0.262 C  
HETATM   40  O   UNL     1     -10.529  14.309  67.469  1.00  0.00    -0.250 OA 
ENDBRANCH  27  28
ENDBRANCH   7  27
BRANCH  15  41
HETATM   41  C   UNL     1      -7.733  10.161  67.472  1.00  0.00    -0.091 C  
HETATM   42  H   UNL     1      -5.835  10.235  68.173  1.00  0.00     0.000 HD 
HETATM   43  O   UNL     1      -6.620   9.702  68.234  1.00  0.00    -0.056 OA 
ENDBRANCH  15  41
BRANCH  21  44
HETATM   44  C   UNL     1      -7.262   4.025  64.490  1.00  0.00    -0.066 C  
HETATM   45  C   UNL     1      -5.956   3.000  62.977  1.00  0.00    -0.013 C  
HETATM   46  O   UNL     1      -5.327   2.107  62.438  1.00  0.00    -0.003 OA 
HETATM   47  O   UNL     1      -6.073   4.254  62.510  1.00  0.00    -0.016 OA 
HETATM   48  C   UNL     1      -6.901   4.988  63.417  1.00  0.00    -0.038 C  
HETATM   49  C   UNL     1      -6.710   2.842  64.213  1.00  0.00    -0.035 C  
ENDBRANCH  21  44
TORSDOF 4
ENDMDL
MODEL       88
REMARK 921   NORMALIZED FREE ENERGY PREDICTED BY IDOCK:   -3.46 KCAL/MOL
REMARK 922        TOTAL FREE ENERGY PREDICTED BY IDOCK:   -5.22 KCAL/MOL
REMARK 923 INTER-LIGAND FREE ENERGY PREDICTED BY IDOCK:   -5.33 KCAL/MOL
REMARK 924 INTRA-LIGAND FREE ENERGY PREDICTED BY IDOCK:    0.11 KCAL/MOL
REMARK 927      BINDING AFFINITY PREDICTED BY RF-SCORE:    0.00 PKD
ROOT
HETATM    1  C   UNL     1     -12.083  12.856  70.784  1.00  0.00    -0.252 C  
HETATM    2  C   UNL     1     -13.205  12.269  71.634  1.00  0.00    -0.356 C  
HETATM    3  C   UNL     1     -12.884  10.784  71.940  1.00  0.00    -0.460 C  
HETATM    4  C   UNL     1     -12.578   9.898  70.681  1.00  0.00    -0.173 C  
HETATM    5  O   UNL     1     -13.772   9.928  69.900  1.00  0.00     0.013 OA 
HETATM    6  C   UNL     1     -12.263   8.434  70.990  1.00  0.00    -0.181 C  
HETATM    7  C   UNL     1     -11.330   8.334  72.168  1.00  0.00    -0.352 C  
HETATM    8  H   UNL     1     -13.586   9.393  69.138  1.00  0.00     0.000 HD 
HETATM    9  H   UNL     1     -10.618  15.290  71.619  1.00  0.00     0.000 HD 
HETATM   10  C   UNL     1     -10.057   9.169  71.942  1.00  0.00    -0.196 C  
HETATM   11  C   UNL     1     -10.067  10.281  70.825  1.00  0.00     0.647 C  
HETATM   12  O   UNL     1     -10.739  14.350  71.683  1.00  0.00     1.267 OA 
HETATM   13  C   UNL     1     -11.881  14.423  70.676  1.00  0.00    -0.295 C  
HETATM   14  O   UNL     1      -8.853  10.154  70.078  1.00  0.00    -0.359 OA 
HETATM   15  C   UNL     1     -11.358  10.468  69.886  1.00  0.00    -0.380 C  
HETATM   16  C   UNL     1     -11.776  11.970  69.536  1.00  0.00    -0.408 C  
HETATM   17  C   UNL     1     -12.328  15.769  71.251  1.00  0.00    -0.493 C  
HETATM   18  C   UNL     1     -10.993  16.658  70.824  1.00  0.00     0.212 C  
HETATM   19  H   UNL     1      -8.859  10.825  69.405  1.00  0.00     0.000 HD 
HETATM   20  C   UNL     1     -12.403  16.073  68.483  1.00  0.00     0.686 C  
HETATM   21  C   UNL     1     -10.243  15.802  69.676  1.00  0.00    -0.289 C  
HETATM   22  C   UNL     1     -10.843  12.629  68.530  1.00  0.00    -0.252 C  
HETATM   23  C   UNL     1     -11.472  14.994  69.209  1.00  0.00    -0.326 C  
HETATM   24  H   UNL     1      -8.934  13.202  68.331  1.00  0.00     0.000 HD 
HETATM   25  O   UNL     1      -9.516  12.790  68.960  1.00  0.00     0.186 OA 
HETATM   26  C   UNL     1     -11.465  13.927  68.145  1.00  0.00    -0.346 C  
ENDROOT
BRANCH   7  27
HETATM   27  O   UNL     1     -11.099   6.944  72.352  1.00  0.00    -0.242 OA 
BRANCH  27  28
HETATM   28  C   UNL     1      -9.846   6.410  71.932  1.00  0.00    -0.157 C  
HETATM   29  C   UNL     1      -8.310   4.360  71.803  1.00  0.00    -0.106 C  
HETATM   30  H   UNL     1      -9.194   2.689  70.122  1.00  0.00     0.000 HD 
HETATM   31  C   UNL     1      -7.711   6.962  69.896  1.00  0.00    -0.109 C  
HETATM   32  O   UNL     1      -7.060   4.865  72.304  1.00  0.00    -0.073 OA 
HETATM   33  C   UNL     1      -9.482   5.027  72.545  1.00  0.00    -0.142 C  
HETATM   34  O   UNL     1      -9.108   5.152  73.934  1.00  0.00    -0.119 OA 
HETATM   35  H   UNL     1      -6.996   4.791  73.249  1.00  0.00     0.000 HD 
HETATM   36  O   UNL     1      -9.430   3.563  69.836  1.00  0.00    -0.174 OA 
HETATM   37  C   UNL     1      -8.413   4.480  70.280  1.00  0.00    -0.074 C  
HETATM   38  H   UNL     1      -8.886   4.307  74.309  1.00  0.00     0.000 HD 
HETATM   39  C   UNL     1      -8.795   5.894  69.817  1.00  0.00    -0.128 C  
HETATM   40  O   UNL     1      -9.969   6.312  70.508  1.00  0.00    -0.181 OA 
ENDBRANCH  27  28
ENDBRANCH   7  27
BRANCH  15  41
HETATM   41  C   UNL     1     -11.099   9.743  68.504  1.00  0.00    -0.087 C  
HETATM   42  H   UNL     1      -9.693   8.633  67.561  1.00  0.00     0.000 HD 
HETATM   43  O   UNL     1      -9.848   9.068  68.391  1.00  0.00    -0.157 OA 
ENDBRANCH  15  41
BRANCH  21  44
HETATM   44  C   UNL     1      -9.313  16.341  68.659  1.00  0.00    -0.219 C  
HETATM   45  C   UNL     1      -8.505  17.248  66.769  1.00  0.00    -0.247 C  
HETATM   46  O   UNL     1      -8.405  17.498  65.582  1.00  0.00    -0.479 OA 
HETATM   47  O   UNL     1      -7.724  17.758  67.736  1.00  0.00    -0.207 OA 
HETATM   48  C   UNL     1      -8.171  17.234  68.989  1.00  0.00    -0.096 C  
HETATM   49  C   UNL     1      -9.515  16.367  67.340  1.00  0.00    -0.227 C  
ENDBRANCH  21  44
TORSDOF 4
ENDMDL
MODEL       89
REMARK 921   NORMALIZED FREE ENERGY PREDICTED BY IDOCK:   -3.40 KCAL/MOL
REMARK 922        TOTAL FREE ENERGY PREDICTED BY IDOCK:   -5.15 KCAL/MOL
REMARK 923 INTER-LIGAND FREE ENERGY PREDICTED BY IDOCK:   -4.60 KCAL/MOL
REMARK 924 INTRA-LIGAND FREE ENERGY PREDICTED BY IDOCK:   -0.55 KCAL/MOL
REMARK 927      BINDING AFFINITY PREDICTED BY RF-SCORE:    0.00 PKD
ROOT
HETATM    1  C   UNL     1      -7.991   5.365  67.971  1.00  0.00    -0.096 C  
HETATM    2  C   UNL     1      -7.646   5.567  66.499  1.00  0.00    -0.088 C  
HETATM    3  C   UNL     1      -7.472   7.083  66.223  1.00  0.00    -0.080 C  
HETATM    4  C   UNL     1      -8.679   7.981  66.671  1.00  0.00    -0.140 C  
HETATM    5  O   UNL     1      -9.792   7.529  65.902  1.00  0.00    -0.401 OA 
HETATM    6  C   UNL     1      -8.501   9.475  66.396  1.00  0.00    -0.131 C  
HETATM    7  C   UNL     1      -7.111   9.918  66.774  1.00  0.00    -0.090 C  
HETATM    8  H   UNL     1     -10.522   8.073  66.174  1.00  0.00     0.000 HD 
HETATM    9  H   UNL     1      -6.380   3.589  69.709  1.00  0.00     0.000 HD 
HETATM   10  C   UNL     1      -6.787   9.552  68.233  1.00  0.00    -0.062 C  
HETATM   11  C   UNL     1      -7.673   8.467  68.957  1.00  0.00    -0.096 C  
HETATM   12  O   UNL     1      -6.497   4.436  69.294  1.00  0.00    -0.034 OA 
HETATM   13  C   UNL     1      -7.798   3.954  68.663  1.00  0.00    -0.067 C  
HETATM   14  O   UNL     1      -7.995   8.971  70.258  1.00  0.00    -0.092 OA 
HETATM   15  C   UNL     1      -8.943   7.830  68.205  1.00  0.00    -0.131 C  
HETATM   16  C   UNL     1      -9.186   6.265  68.416  1.00  0.00    -0.112 C  
HETATM   17  C   UNL     1      -7.210   2.554  68.472  1.00  0.00    -0.048 C  
HETATM   18  C   UNL     1      -7.046   2.152  70.074  1.00  0.00    -0.033 C  
HETATM   19  H   UNL     1      -8.529   8.317  70.694  1.00  0.00     0.000 HD 
HETATM   20  C   UNL     1      -9.776   2.159  69.480  1.00  0.00     0.085 C  
HETATM   21  C   UNL     1      -8.000   3.174  70.884  1.00  0.00    -0.057 C  
HETATM   22  C   UNL     1      -9.728   5.927  69.797  1.00  0.00    -0.160 C  
HETATM   23  C   UNL     1      -8.953   3.509  69.717  1.00  0.00    -0.174 C  
HETATM   24  H   UNL     1      -9.210   6.021  71.730  1.00  0.00     0.000 HD 
HETATM   25  O   UNL     1      -8.871   6.232  70.868  1.00  0.00    -0.135 OA 
HETATM   26  C   UNL     1     -10.101   4.484  69.777  1.00  0.00    -0.177 C  
ENDROOT
BRANCH   7  27
HETATM   27  O   UNL     1      -7.067  11.309  66.491  1.00  0.00    -0.139 OA 
BRANCH  27  28
HETATM   28  C   UNL     1      -7.965  12.166  67.192  1.00  0.00    -0.170 C  
HETATM   29  C   UNL     1      -8.285  14.352  68.495  1.00  0.00    -0.151 C  
HETATM   30  H   UNL     1      -8.142  16.344  66.943  1.00  0.00     0.000 HD 
HETATM   31  C   UNL     1     -10.903  12.772  67.303  1.00  0.00    -0.277 C  
HETATM   32  O   UNL     1      -8.985  13.920  69.675  1.00  0.00     0.180 OA 
HETATM   33  C   UNL     1      -7.284  13.269  68.052  1.00  0.00    -0.121 C  
HETATM   34  O   UNL     1      -6.686  12.711  69.243  1.00  0.00    -0.148 OA 
HETATM   35  H   UNL     1      -8.391  13.653  70.367  1.00  0.00     0.000 HD 
HETATM   36  O   UNL     1      -8.503  15.609  66.462  1.00  0.00    -0.266 OA 
HETATM   37  C   UNL     1      -9.242  14.781  67.380  1.00  0.00    -0.196 C  
HETATM   38  H   UNL     1      -6.271  13.385  69.768  1.00  0.00     0.000 HD 
HETATM   39  C   UNL     1      -9.826  13.593  66.603  1.00  0.00    -0.284 C  
HETATM   40  O   UNL     1      -8.761  12.755  66.157  1.00  0.00     0.121 OA 
ENDBRANCH  27  28
ENDBRANCH   7  27
BRANCH  15  41
HETATM   41  C   UNL     1     -10.256   8.558  68.704  1.00  0.00    -0.197 C  
HETATM   42  H   UNL     1     -10.888  10.367  69.357  1.00  0.00     0.000 HD 
HETATM   43  O   UNL     1     -10.099   9.930  69.057  1.00  0.00    -0.172 OA 
ENDBRANCH  15  41
BRANCH  21  44
HETATM   44  C   UNL     1      -8.569   2.947  72.231  1.00  0.00    -0.089 C  
HETATM   45  C   UNL     1     -10.031   2.626  73.907  1.00  0.00    -0.103 C  
HETATM   46  O   UNL     1     -11.054   2.734  74.558  1.00  0.00     0.047 OA 
HETATM   47  O   UNL     1      -8.985   1.849  74.232  1.00  0.00    -0.064 OA 
HETATM   48  C   UNL     1      -7.995   1.987  73.210  1.00  0.00    -0.046 C  
HETATM   49  C   UNL     1      -9.786   3.310  72.644  1.00  0.00    -0.207 C  
ENDBRANCH  21  44
TORSDOF 4
ENDMDL
MODEL       90
REMARK 921   NORMALIZED FREE ENERGY PREDICTED BY IDOCK:   -3.17 KCAL/MOL
REMARK 922        TOTAL FREE ENERGY PREDICTED BY IDOCK:   -4.86 KCAL/MOL
REMARK 923 INTER-LIGAND FREE ENERGY PREDICTED BY IDOCK:   -6.17 KCAL/MOL
REMARK 924 INTRA-LIGAND FREE ENERGY PREDICTED BY IDOCK:    1.31 KCAL/MOL
REMARK 927      BINDING AFFINITY PREDICTED BY RF-SCORE:    0.00 PKD
ROOT
HETATM    1  C   UNL     1     -10.338  15.237  66.254  1.00  0.00    -0.303 C  
HETATM    2  C   UNL     1     -11.373  14.510  65.401  1.00  0.00    -0.341 C  
HETATM    3  C   UNL     1     -11.446  13.027  65.847  1.00  0.00    -0.374 C  
HETATM    4  C   UNL     1     -10.070  12.272  65.870  1.00  0.00    -0.251 C  
HETATM    5  O   UNL     1      -9.606  12.293  64.521  1.00  0.00    -0.470 OA 
HETATM    6  C   UNL     1     -10.150  10.810  66.311  1.00  0.00    -0.285 C  
HETATM    7  C   UNL     1     -11.053  10.670  67.508  1.00  0.00    -0.300 C  
HETATM    8  H   UNL     1      -8.773  11.836  64.536  1.00  0.00     0.000 HD 
HETATM    9  H   UNL     1     -11.031  17.679  67.779  1.00  0.00     0.000 HD 
HETATM   10  C   UNL     1     -10.611  11.600  68.652  1.00  0.00    -0.236 C  
HETATM   11  C   UNL     1      -9.643  12.799  68.322  1.00  0.00    -0.211 C  
HETATM   12  O   UNL     1     -11.030  16.731  67.716  1.00  0.00    -0.313 OA 
HETATM   13  C   UNL     1     -10.339  16.817  66.359  1.00  0.00    -0.306 C  
HETATM   14  O   UNL     1      -8.617  12.814  69.321  1.00  0.00    -0.015 OA 
HETATM   15  C   UNL     1      -9.064  12.983  66.834  1.00  0.00    -0.227 C  
HETATM   16  C   UNL     1      -8.973  14.480  66.282  1.00  0.00    -0.077 C  
HETATM   17  C   UNL     1     -11.132  18.078  66.013  1.00  0.00     0.523 C  
HETATM   18  C   UNL     1     -10.486  19.083  67.165  1.00  0.00    -0.522 C  
HETATM   19  H   UNL     1      -8.033  13.537  69.122  1.00  0.00     0.000 HD 
HETATM   20  C   UNL     1      -8.507  18.610  65.249  1.00  0.00     1.745 C  
HETATM   21  C   UNL     1      -9.113  18.377  67.644  1.00  0.00    -0.282 C  
HETATM   22  C   UNL     1      -7.841  15.279  66.912  1.00  0.00    -0.117 C  
HETATM   23  C   UNL     1      -8.880  17.534  66.372  1.00  0.00    -0.269 C  
HETATM   24  H   UNL     1      -7.247  15.987  68.689  1.00  0.00     0.000 HD 
HETATM   25  O   UNL     1      -7.954  15.488  68.296  1.00  0.00    -0.128 OA 
HETATM   26  C   UNL     1      -7.746  16.564  66.162  1.00  0.00    -0.067 C  
ENDROOT
BRANCH   7  27
HETATM   27  O   UNL     1     -11.040   9.287  67.834  1.00  0.00    -0.098 OA 
BRANCH  27  28
HETATM   28  C   UNL     1     -11.432   8.903  69.149  1.00  0.00     0.584 C  
HETATM   29  C   UNL     1     -11.236   7.183  71.042  1.00  0.00    -0.269 C  
HETATM   30  H   UNL     1      -8.958   7.314  72.132  1.00  0.00     0.000 HD 
HETATM   31  C   UNL     1     -12.445  10.167  71.676  1.00  0.00    -0.506 C  
HETATM   32  O   UNL     1     -12.610   6.925  71.382  1.00  0.00    -0.367 OA 
HETATM   33  C   UNL     1     -11.107   7.429  69.527  1.00  0.00    -0.072 C  
HETATM   34  O   UNL     1     -11.994   6.508  68.856  1.00  0.00    -0.279 OA 
HETATM   35  H   UNL     1     -12.985   6.229  70.856  1.00  0.00     0.000 HD 
HETATM   36  O   UNL     1      -9.198   8.180  71.825  1.00  0.00    -0.145 OA 
HETATM   37  C   UNL     1     -10.632   8.305  71.889  1.00  0.00    -0.282 C  
HETATM   38  H   UNL     1     -11.796   5.608  69.087  1.00  0.00     0.000 HD 
HETATM   39  C   UNL     1     -11.021   9.705  71.392  1.00  0.00    -0.284 C  
HETATM   40  O   UNL     1     -10.722   9.809  70.002  1.00  0.00    -0.241 OA 
ENDBRANCH  27  28
ENDBRANCH   7  27
BRANCH  15  41
HETATM   41  C   UNL     1      -7.596  12.396  66.775  1.00  0.00     0.152 C  
HETATM   42  H   UNL     1      -6.593  10.760  66.129  1.00  0.00     0.000 HD 
HETATM   43  O   UNL     1      -7.474  11.113  66.165  1.00  0.00    -0.117 OA 
ENDBRANCH  15  41
BRANCH  21  44
HETATM   44  C   UNL     1      -7.961  19.057  68.274  1.00  0.00    -0.350 C  
HETATM   45  C   UNL     1      -6.060  19.429  69.412  1.00  0.00    -0.280 C  
HETATM   46  O   UNL     1      -5.201  19.294  70.265  1.00  0.00    -0.191 OA 
HETATM   47  O   UNL     1      -6.015  20.315  68.403  1.00  0.00    -0.242 OA 
HETATM   48  C   UNL     1      -7.196  20.148  67.614  1.00  0.00    -0.290 C  
HETATM   49  C   UNL     1      -7.271  18.625  69.332  1.00  0.00    -0.066 C  
ENDBRANCH  21  44
TORSDOF 4
ENDMDL
MODEL       91
REMARK 921   NORMALIZED FREE ENERGY PREDICTED BY IDOCK:   -2.58 KCAL/MOL
REMARK 922        TOTAL FREE ENERGY PREDICTED BY IDOCK:   -4.13 KCAL/MOL
REMARK 923 INTER-LIGAND FREE ENERGY PREDICTED BY IDOCK:   -4.10 KCAL/MOL
REMARK 924 INTRA-LIGAND FREE ENERGY PREDICTED BY IDOCK:   -0.04 KCAL/MOL
REMARK 927      BINDING AFFINITY PREDICTED BY RF-SCORE:    0.00 PKD
ROOT
HETATM    1  C   UNL     1      -9.199  11.750  66.366  1.00  0.00    -0.223 C  
HETATM    2  C   UNL     1      -9.558  12.843  65.364  1.00  0.00     0.063 C  
HETATM    3  C   UNL     1      -9.203  14.224  65.972  1.00  0.00    -0.039 C  
HETATM    4  C   UNL     1      -9.816  14.503  67.390  1.00  0.00    -0.227 C  
HETATM    5  O   UNL     1     -11.230  14.467  67.202  1.00  0.00    -0.310 OA 
HETATM    6  C   UNL     1      -9.462  15.868  67.982  1.00  0.00    -0.206 C  
HETATM    7  C   UNL     1      -8.001  16.169  67.772  1.00  0.00    -0.142 C  
HETATM    8  H   UNL     1     -11.601  14.636  68.060  1.00  0.00     0.000 HD 
HETATM    9  H   UNL     1      -7.398   9.515  65.638  1.00  0.00     0.000 HD 
HETATM   10  C   UNL     1      -7.114  15.043  68.331  1.00  0.00    -0.108 C  
HETATM   11  C   UNL     1      -7.766  13.637  68.622  1.00  0.00    -0.107 C  
HETATM   12  O   UNL     1      -7.506  10.416  65.919  1.00  0.00    -0.129 OA 
HETATM   13  C   UNL     1      -9.021  10.248  65.899  1.00  0.00    -0.158 C  
HETATM   14  O   UNL     1      -7.310  13.206  69.908  1.00  0.00    -0.006 OA 
HETATM   15  C   UNL     1      -9.346  13.424  68.419  1.00  0.00    -0.165 C  
HETATM   16  C   UNL     1      -9.803  12.034  67.777  1.00  0.00    -0.190 C  
HETATM   17  C   UNL     1      -8.923   9.338  64.673  1.00  0.00    -0.202 C  
HETATM   18  C   UNL     1      -8.113   8.077  65.383  1.00  0.00    -0.135 C  
HETATM   19  H   UNL     1      -7.703  12.359  70.083  1.00  0.00     0.000 HD 
HETATM   20  C   UNL     1     -10.718   8.086  66.395  1.00  0.00     0.650 C  
HETATM   21  C   UNL     1      -8.312   8.267  66.976  1.00  0.00    -0.122 C  
HETATM   22  C   UNL     1      -9.684  10.864  68.742  1.00  0.00    -0.189 C  
HETATM   23  C   UNL     1      -9.602   9.111  66.906  1.00  0.00    -0.233 C  
HETATM   24  H   UNL     1      -8.303   9.839  69.771  1.00  0.00     0.000 HD 
HETATM   25  O   UNL     1      -8.378  10.570  69.168  1.00  0.00    -0.144 OA 
HETATM   26  C   UNL     1     -10.333   9.693  68.089  1.00  0.00    -0.250 C  
ENDROOT
BRANCH   7  27
HETATM   27  O   UNL     1      -7.786  17.440  68.370  1.00  0.00    -0.236 OA 
BRANCH  27  28
HETATM   28  C   UNL     1      -8.408  18.576  67.774  1.00  0.00    -0.259 C  
HETATM   29  C   UNL     1      -8.977  19.838  65.614  1.00  0.00     0.252 C  
HETATM   30  H   UNL     1     -10.760  18.609  64.308  1.00  0.00     0.000 HD 
HETATM   31  C   UNL     1     -10.572  20.563  68.389  1.00  0.00     0.111 C  
HETATM   32  O   UNL     1      -8.552  21.180  65.908  1.00  0.00     0.576 OA 
HETATM   33  C   UNL     1      -8.029  18.828  66.286  1.00  0.00    -0.264 C  
HETATM   34  O   UNL     1      -6.685  19.342  66.167  1.00  0.00    -0.199 OA 
HETATM   35  H   UNL     1      -7.638  21.322  65.691  1.00  0.00     0.000 HD 
HETATM   36  O   UNL     1     -10.900  18.453  65.235  1.00  0.00    -0.624 OA 
HETATM   37  C   UNL     1     -10.450  19.609  65.965  1.00  0.00    -0.523 C  
HETATM   38  H   UNL     1      -6.454  19.495  65.258  1.00  0.00     0.000 HD 
HETATM   39  C   UNL     1     -10.675  19.357  67.463  1.00  0.00    -0.453 C  
HETATM   40  O   UNL     1      -9.810  18.310  67.898  1.00  0.00    -0.293 OA 
ENDBRANCH  27  28
ENDBRANCH   7  27
BRANCH  15  41
HETATM   41  C   UNL     1     -10.064  13.524  69.825  1.00  0.00     1.183 C  
HETATM   42  H   UNL     1     -11.853  14.020  70.634  1.00  0.00     0.000 HD 
HETATM   43  O   UNL     1     -11.422  13.960  69.790  1.00  0.00    -0.257 OA 
ENDBRANCH  15  41
BRANCH  21  44
HETATM   44  C   UNL     1      -8.207   7.202  67.997  1.00  0.00    -0.120 C  
HETATM   45  C   UNL     1      -7.833   5.221  68.988  1.00  0.00    -0.082 C  
HETATM   46  O   UNL     1      -7.782   4.012  69.127  1.00  0.00    -0.054 OA 
HETATM   47  O   UNL     1      -7.452   6.122  69.907  1.00  0.00    -0.077 OA 
HETATM   48  C   UNL     1      -7.652   7.428  69.358  1.00  0.00    -0.096 C  
HETATM   49  C   UNL     1      -8.296   5.888  67.779  1.00  0.00    -0.108 C  
ENDBRANCH  21  44
TORSDOF 4
ENDMDL
MODEL       92
REMARK 921   NORMALIZED FREE ENERGY PREDICTED BY IDOCK:   -2.08 KCAL/MOL
REMARK 922        TOTAL FREE ENERGY PREDICTED BY IDOCK:   -3.52 KCAL/MOL
REMARK 923 INTER-LIGAND FREE ENERGY PREDICTED BY IDOCK:   -4.65 KCAL/MOL
REMARK 924 INTRA-LIGAND FREE ENERGY PREDICTED BY IDOCK:    1.13 KCAL/MOL
REMARK 927      BINDING AFFINITY PREDICTED BY RF-SCORE:    0.00 PKD
ROOT
HETATM    1  C   UNL     1     -10.256  11.099  68.501  1.00  0.00    -0.209 C  
HETATM    2  C   UNL     1     -11.411  10.118  68.325  1.00  0.00    -0.074 C  
HETATM    3  C   UNL     1     -11.065   8.792  69.049  1.00  0.00     0.164 C  
HETATM    4  C   UNL     1      -9.688   8.155  68.645  1.00  0.00    -0.153 C  
HETATM    5  O   UNL     1      -9.800   7.868  67.252  1.00  0.00    -0.163 OA 
HETATM    6  C   UNL     1      -9.354   6.847  69.363  1.00  0.00    -0.146 C  
HETATM    7  C   UNL     1      -9.680   6.953  70.829  1.00  0.00    -0.171 C  
HETATM    8  H   UNL     1      -8.967   7.483  67.008  1.00  0.00     0.000 HD 
HETATM    9  H   UNL     1     -10.677  13.796  69.650  1.00  0.00     0.000 HD 
HETATM   10  C   UNL     1      -8.980   8.165  71.469  1.00  0.00    -0.201 C  
HETATM   11  C   UNL     1      -8.425   9.303  70.531  1.00  0.00    -0.216 C  
HETATM   12  O   UNL     1     -10.549  12.864  69.785  1.00  0.00     0.425 OA 
HETATM   13  C   UNL     1     -10.469  12.652  68.277  1.00  0.00    -0.239 C  
HETATM   14  O   UNL     1      -7.107   9.631  70.982  1.00  0.00    -0.295 OA 
HETATM   15  C   UNL     1      -8.514   9.146  68.934  1.00  0.00    -0.129 C  
HETATM   16  C   UNL     1      -8.887  10.461  68.106  1.00  0.00    -0.132 C  
HETATM   17  C   UNL     1     -11.525  13.734  68.049  1.00  0.00    -0.344 C  
HETATM   18  C   UNL     1     -10.649  15.033  68.596  1.00  0.00    -0.237 C  
HETATM   19  H   UNL     1      -6.772  10.317  70.416  1.00  0.00     0.000 HD 
HETATM   20  C   UNL     1      -9.533  14.223  66.166  1.00  0.00    -0.250 C  
HETATM   21  C   UNL     1      -9.105  14.557  68.588  1.00  0.00    -0.187 C  
HETATM   22  C   UNL     1      -7.744  11.461  68.029  1.00  0.00    -0.114 C  
HETATM   23  C   UNL     1      -9.257  13.440  67.533  1.00  0.00    -0.219 C  
HETATM   24  H   UNL     1      -6.621  12.626  69.211  1.00  0.00     0.000 HD 
HETATM   25  O   UNL     1      -7.336  12.001  69.260  1.00  0.00    -0.016 OA 
HETATM   26  C   UNL     1      -8.157  12.522  67.067  1.00  0.00    -0.105 C  
ENDROOT
BRANCH   7  27
HETATM   27  O   UNL     1      -9.319   5.699  71.390  1.00  0.00    -0.145 OA 
BRANCH  27  28
HETATM   28  C   UNL     1      -7.995   5.221  71.169  1.00  0.00    -0.108 C  
HETATM   29  C   UNL     1      -6.420   3.834  69.694  1.00  0.00    -0.033 C  
HETATM   30  H   UNL     1      -5.992   5.010  67.496  1.00  0.00     0.000 HD 
HETATM   31  C   UNL     1      -5.168   5.973  71.843  1.00  0.00    -0.021 C  
HETATM   32  O   UNL     1      -5.744   2.997  70.648  1.00  0.00    -0.015 OA 
HETATM   33  C   UNL     1      -7.877   4.064  70.136  1.00  0.00    -0.048 C  
HETATM   34  O   UNL     1      -8.371   2.821  70.682  1.00  0.00    -0.051 OA 
HETATM   35  H   UNL     1      -6.216   2.190  70.815  1.00  0.00     0.000 HD 
HETATM   36  O   UNL     1      -6.129   5.665  68.170  1.00  0.00    -0.017 OA 
HETATM   37  C   UNL     1      -5.659   5.134  69.424  1.00  0.00    -0.008 C  
HETATM   38  H   UNL     1      -8.299   2.115  70.051  1.00  0.00     0.000 HD 
HETATM   39  C   UNL     1      -5.880   6.193  70.514  1.00  0.00    -0.018 C  
HETATM   40  O   UNL     1      -7.280   6.376  70.714  1.00  0.00    -0.071 OA 
ENDBRANCH  27  28
ENDBRANCH   7  27
BRANCH  15  41
HETATM   41  C   UNL     1      -7.113   8.656  68.385  1.00  0.00    -0.077 C  
HETATM   42  H   UNL     1      -6.222   8.093  66.656  1.00  0.00     0.000 HD 
HETATM   43  O   UNL     1      -7.064   8.387  66.986  1.00  0.00    -0.076 OA 
ENDBRANCH  15  41
BRANCH  21  44
HETATM   44  C   UNL     1      -7.923  15.444  68.526  1.00  0.00    -0.140 C  
HETATM   45  C   UNL     1      -6.583  17.189  68.071  1.00  0.00    -0.153 C  
HETATM   46  O   UNL     1      -6.100  18.120  67.452  1.00  0.00    -0.153 OA 
HETATM   47  O   UNL     1      -6.216  16.809  69.306  1.00  0.00    -0.175 OA 
HETATM   48  C   UNL     1      -7.027  15.694  69.685  1.00  0.00    -0.167 C  
HETATM   49  C   UNL     1      -7.664  16.348  67.577  1.00  0.00    -0.164 C  
ENDBRANCH  21  44
TORSDOF 4
ENDMDL
MODEL       93
REMARK 921   NORMALIZED FREE ENERGY PREDICTED BY IDOCK:   -1.34 KCAL/MOL
REMARK 922        TOTAL FREE ENERGY PREDICTED BY IDOCK:   -2.61 KCAL/MOL
REMARK 923 INTER-LIGAND FREE ENERGY PREDICTED BY IDOCK:   -3.20 KCAL/MOL
REMARK 924 INTRA-LIGAND FREE ENERGY PREDICTED BY IDOCK:    0.59 KCAL/MOL
REMARK 927      BINDING AFFINITY PREDICTED BY RF-SCORE:    0.00 PKD
ROOT
HETATM    1  C   UNL     1     -12.399  11.786  71.143  1.00  0.00    -0.329 C  
HETATM    2  C   UNL     1     -13.471  11.035  71.925  1.00  0.00    -0.299 C  
HETATM    3  C   UNL     1     -12.938   9.626  72.292  1.00  0.00    -0.440 C  
HETATM    4  C   UNL     1     -12.398   8.785  71.082  1.00  0.00    -0.219 C  
HETATM    5  O   UNL     1     -13.518   8.609  70.216  1.00  0.00     0.539 OA 
HETATM    6  C   UNL     1     -11.873   7.397  71.451  1.00  0.00    -0.329 C  
HETATM    7  C   UNL     1     -11.028   7.467  72.696  1.00  0.00    -0.336 C  
HETATM    8  H   UNL     1     -13.190   8.100  69.484  1.00  0.00     0.000 HD 
HETATM    9  H   UNL     1     -11.416  14.438  72.019  1.00  0.00     0.000 HD 
HETATM   10  C   UNL     1      -9.894   8.497  72.541  1.00  0.00    -0.324 C  
HETATM   11  C   UNL     1     -10.000   9.576  71.398  1.00  0.00     0.020 C  
HETATM   12  O   UNL     1     -11.387  13.492  72.099  1.00  0.00     2.460 OA 
HETATM   13  C   UNL     1     -12.447  13.363  71.010  1.00  0.00    -0.353 C  
HETATM   14  O   UNL     1      -8.728   9.641  70.745  1.00  0.00    -0.299 OA 
HETATM   15  C   UNL     1     -11.230   9.536  70.363  1.00  0.00    -0.323 C  
HETATM   16  C   UNL     1     -11.858  10.944  69.945  1.00  0.00    -0.427 C  
HETATM   17  C   UNL     1     -13.148  14.625  71.515  1.00  0.00    -0.420 C  
HETATM   18  C   UNL     1     -11.947  15.715  71.163  1.00  0.00    -0.457 C  
HETATM   19  H   UNL     1      -8.793  10.291  70.055  1.00  0.00     0.000 HD 
HETATM   20  C   UNL     1     -13.062  14.874  68.743  1.00  0.00     1.780 C  
HETATM   21  C   UNL     1     -10.984  14.978  70.095  1.00  0.00    -0.247 C  
HETATM   22  C   UNL     1     -10.971  11.733  68.992  1.00  0.00    -0.227 C  
HETATM   23  C   UNL     1     -12.026  13.972  69.562  1.00  0.00    -0.390 C  
HETATM   24  H   UNL     1      -9.171  12.609  68.918  1.00  0.00     0.000 HD 
HETATM   25  O   UNL     1      -9.724  12.116  69.513  1.00  0.00     0.686 OA 
HETATM   26  C   UNL     1     -11.765  12.906  68.529  1.00  0.00    -0.374 C  
ENDROOT
BRANCH   7  27
HETATM   27  O   UNL     1     -10.589   6.137  72.932  1.00  0.00    -0.209 OA 
BRANCH  27  28
HETATM   28  C   UNL     1      -9.204   5.847  72.762  1.00  0.00    -0.142 C  
HETATM   29  C   UNL     1      -7.068   6.248  71.399  1.00  0.00    -0.078 C  
HETATM   30  H   UNL     1      -6.174   8.578  71.809  1.00  0.00     0.000 HD 
HETATM   31  C   UNL     1      -6.860   4.924  74.394  1.00  0.00    -0.072 C  
HETATM   32  O   UNL     1      -6.596   4.913  71.146  1.00  0.00    -0.029 OA 
HETATM   33  C   UNL     1      -8.608   6.271  71.389  1.00  0.00    -0.131 C  
HETATM   34  O   UNL     1      -9.052   5.395  70.330  1.00  0.00    -0.135 OA 
HETATM   35  H   UNL     1      -6.971   4.544  70.355  1.00  0.00     0.000 HD 
HETATM   36  O   UNL     1      -6.605   8.274  72.599  1.00  0.00    -0.079 OA 
HETATM   37  C   UNL     1      -6.464   6.843  72.674  1.00  0.00    -0.054 C  
HETATM   38  H   UNL     1      -8.688   5.655  69.492  1.00  0.00     0.000 HD 
HETATM   39  C   UNL     1      -7.161   6.350  73.951  1.00  0.00    -0.082 C  
HETATM   40  O   UNL     1      -8.566   6.558  73.829  1.00  0.00    -0.121 OA 
ENDBRANCH  27  28
ENDBRANCH   7  27
BRANCH  15  41
HETATM   41  C   UNL     1     -10.753   8.844  69.022  1.00  0.00    -0.126 C  
HETATM   42  H   UNL     1     -10.619   7.012  68.171  1.00  0.00     0.000 HD 
HETATM   43  O   UNL     1     -10.905   7.428  68.977  1.00  0.00    -0.184 OA 
ENDBRANCH  15  41
BRANCH  21  44
HETATM   44  C   UNL     1     -10.079  15.648  69.136  1.00  0.00    -0.237 C  
HETATM   45  C   UNL     1      -8.888  16.110  67.288  1.00  0.00    -0.186 C  
HETATM   46  O   UNL     1      -8.214  15.916  66.292  1.00  0.00    -0.274 OA 
HETATM   47  O   UNL     1      -9.297  17.314  67.722  1.00  0.00    -0.244 OA 
HETATM   48  C   UNL     1     -10.075  17.117  68.906  1.00  0.00    -0.322 C  
HETATM   49  C   UNL     1      -9.385  15.056  68.160  1.00  0.00    -0.187 C  
ENDBRANCH  21  44
TORSDOF 4
ENDMDL
MODEL       94
REMARK 921   NORMALIZED FREE ENERGY PREDICTED BY IDOCK:   -1.33 KCAL/MOL
REMARK 922        TOTAL FREE ENERGY PREDICTED BY IDOCK:   -2.59 KCAL/MOL
REMARK 923 INTER-LIGAND FREE ENERGY PREDICTED BY IDOCK:   -1.94 KCAL/MOL
REMARK 924 INTRA-LIGAND FREE ENERGY PREDICTED BY IDOCK:   -0.64 KCAL/MOL
REMARK 927      BINDING AFFINITY PREDICTED BY RF-SCORE:    0.00 PKD
ROOT
HETATM    1  C   UNL     1     -10.223   8.042  70.466  1.00  0.00    -0.201 C  
HETATM    2  C   UNL     1     -11.114   8.878  71.380  1.00  0.00    -0.376 C  
HETATM    3  C   UNL     1     -11.621  10.116  70.597  1.00  0.00    -0.429 C  
HETATM    4  C   UNL     1     -10.498  10.981  69.923  1.00  0.00     0.202 C  
HETATM    5  O   UNL     1      -9.689  11.453  70.998  1.00  0.00     3.689 OA 
HETATM    6  C   UNL     1     -11.005  12.201  69.153  1.00  0.00    -0.215 C  
HETATM    7  C   UNL     1     -12.210  11.837  68.325  1.00  0.00     0.244 C  
HETATM    8  H   UNL     1      -9.009  11.976  70.590  1.00  0.00     0.000 HD 
HETATM    9  H   UNL     1     -10.770   5.173  69.974  1.00  0.00     0.000 HD 
HETATM   10  C   UNL     1     -11.910  10.647  67.398  1.00  0.00     0.817 C  
HETATM   11  C   UNL     1     -10.657   9.742  67.706  1.00  0.00    -0.266 C  
HETATM   12  O   UNL     1     -10.954   6.084  69.773  1.00  0.00    -0.337 OA 
HETATM   13  C   UNL     1      -9.916   6.524  70.800  1.00  0.00    -0.184 C  
HETATM   14  O   UNL     1      -9.965   9.527  66.471  1.00  0.00    -0.225 OA 
HETATM   15  C   UNL     1      -9.667  10.120  68.915  1.00  0.00    -0.189 C  
HETATM   16  C   UNL     1      -9.112   8.905  69.790  1.00  0.00    -0.151 C  
HETATM   17  C   UNL     1     -10.296   5.359  71.714  1.00  0.00    -0.271 C  
HETATM   18  C   UNL     1      -9.791   4.119  70.733  1.00  0.00    -0.248 C  
HETATM   19  H   UNL     1      -9.209   8.982  66.657  1.00  0.00     0.000 HD 
HETATM   20  C   UNL     1      -7.512   5.419  71.694  1.00  0.00    -0.091 C  
HETATM   21  C   UNL     1      -8.786   4.790  69.660  1.00  0.00    -0.121 C  
HETATM   22  C   UNL     1      -8.053   8.085  69.068  1.00  0.00    -0.123 C  
HETATM   23  C   UNL     1      -8.398   6.020  70.507  1.00  0.00    -0.128 C  
HETATM   24  H   UNL     1      -7.831   6.916  67.457  1.00  0.00     0.000 HD 
HETATM   25  O   UNL     1      -8.493   7.428  67.908  1.00  0.00    -0.122 OA 
HETATM   26  C   UNL     1      -7.484   7.134  70.064  1.00  0.00    -0.086 C  
ENDROOT
BRANCH   7  27
HETATM   27  O   UNL     1     -12.582  13.031  67.651  1.00  0.00     0.078 OA 
BRANCH  27  28
HETATM   28  C   UNL     1     -12.112  13.225  66.320  1.00  0.00    -0.414 C  
HETATM   29  C   UNL     1     -11.823  14.840  64.348  1.00  0.00    -0.380 C  
HETATM   30  H   UNL     1     -10.040  16.559  64.858  1.00  0.00     0.000 HD 
HETATM   31  C   UNL     1     -10.095  12.051  64.431  1.00  0.00    -0.298 C  
HETATM   32  O   UNL     1     -12.345  14.086  63.239  1.00  0.00    -1.133 OA 
HETATM   33  C   UNL     1     -12.623  14.519  65.624  1.00  0.00    -0.205 C  
HETATM   34  O   UNL     1     -14.013  14.400  65.252  1.00  0.00     0.288 OA 
HETATM   35  H   UNL     1     -13.282  14.205  63.134  1.00  0.00     0.000 HD 
HETATM   36  O   UNL     1      -9.818  15.749  65.302  1.00  0.00    -0.375 OA 
HETATM   37  C   UNL     1     -10.314  14.648  64.518  1.00  0.00     0.144 C  
HETATM   38  H   UNL     1     -14.325  15.191  64.827  1.00  0.00     0.000 HD 
HETATM   39  C   UNL     1      -9.955  13.338  65.234  1.00  0.00    -0.173 C  
HETATM   40  O   UNL     1     -10.686  13.256  66.455  1.00  0.00    -0.281 OA 
ENDBRANCH  27  28
ENDBRANCH   7  27
BRANCH  15  41
HETATM   41  C   UNL     1      -8.400  10.865  68.330  1.00  0.00    -0.136 C  
HETATM   42  H   UNL     1      -6.936  12.142  68.901  1.00  0.00     0.000 HD 
HETATM   43  O   UNL     1      -7.698  11.695  69.252  1.00  0.00     0.003 OA 
ENDBRANCH  15  41
BRANCH  21  44
HETATM   44  C   UNL     1      -7.733   4.084  68.898  1.00  0.00    -0.054 C  
HETATM   45  C   UNL     1      -6.366   2.474  68.130  1.00  0.00    -0.029 C  
HETATM   46  O   UNL     1      -5.662   1.481  68.141  1.00  0.00    -0.017 OA 
HETATM   47  O   UNL     1      -6.628   3.224  67.047  1.00  0.00    -0.036 OA 
HETATM   48  C   UNL     1      -7.504   4.283  67.443  1.00  0.00    -0.073 C  
HETATM   49  C   UNL     1      -7.066   2.997  69.295  1.00  0.00    -0.045 C  
ENDBRANCH  21  44
TORSDOF 4
ENDMDL
MODEL       95
REMARK 921   NORMALIZED FREE ENERGY PREDICTED BY IDOCK:   -1.30 KCAL/MOL
REMARK 922        TOTAL FREE ENERGY PREDICTED BY IDOCK:   -2.55 KCAL/MOL
REMARK 923 INTER-LIGAND FREE ENERGY PREDICTED BY IDOCK:   -4.35 KCAL/MOL
REMARK 924 INTRA-LIGAND FREE ENERGY PREDICTED BY IDOCK:    1.80 KCAL/MOL
REMARK 927      BINDING AFFINITY PREDICTED BY RF-SCORE:    0.00 PKD
ROOT
HETATM    1  C   UNL     1      -8.997   8.444  66.788  1.00  0.00    -0.172 C  
HETATM    2  C   UNL     1      -9.127   8.974  65.363  1.00  0.00    -0.250 C  
HETATM    3  C   UNL     1      -8.934  10.512  65.377  1.00  0.00    -0.207 C  
HETATM    4  C   UNL     1      -9.861  11.289  66.378  1.00  0.00    -0.211 C  
HETATM    5  O   UNL     1     -11.193  11.026  65.940  1.00  0.00    -0.057 OA 
HETATM    6  C   UNL     1      -9.666  12.805  66.385  1.00  0.00    -0.261 C  
HETATM    7  C   UNL     1      -8.199  13.148  66.369  1.00  0.00     0.698 C  
HETATM    8  H   UNL     1     -11.753  11.495  66.546  1.00  0.00     0.000 HD 
HETATM    9  H   UNL     1      -7.057   6.316  67.477  1.00  0.00     0.000 HD 
HETATM   10  C   UNL     1      -7.454  12.459  67.527  1.00  0.00    -0.150 C  
HETATM   11  C   UNL     1      -8.142  11.241  68.253  1.00  0.00    -0.137 C  
HETATM   12  O   UNL     1      -7.234   7.235  67.314  1.00  0.00    -0.087 OA 
HETATM   13  C   UNL     1      -8.702   6.912  67.059  1.00  0.00    -0.119 C  
HETATM   14  O   UNL     1      -7.991  11.436  69.663  1.00  0.00    -0.314 OA 
HETATM   15  C   UNL     1      -9.631  10.794  67.843  1.00  0.00    -0.171 C  
HETATM   16  C   UNL     1      -9.914   9.222  67.783  1.00  0.00    -0.235 C  
HETATM   17  C   UNL     1      -8.316   5.591  66.392  1.00  0.00    -0.111 C  
HETATM   18  C   UNL     1      -7.679   4.835  67.725  1.00  0.00    -0.083 C  
HETATM   19  H   UNL     1      -8.406  10.702  70.100  1.00  0.00     0.000 HD 
HETATM   20  C   UNL     1     -10.447   4.984  68.079  1.00  0.00    -0.026 C  
HETATM   21  C   UNL     1      -8.242   5.648  69.003  1.00  0.00    -0.100 C  
HETATM   22  C   UNL     1     -10.010   8.581  69.159  1.00  0.00    -0.192 C  
HETATM   23  C   UNL     1      -9.489   6.243  68.315  1.00  0.00    -0.117 C  
HETATM   24  H   UNL     1      -8.894   8.232  70.787  1.00  0.00     0.000 HD 
HETATM   25  O   UNL     1      -8.835   8.633  69.927  1.00  0.00    -0.138 OA 
HETATM   26  C   UNL     1     -10.479   7.181  68.956  1.00  0.00    -0.221 C  
ENDROOT
BRANCH   7  27
HETATM   27  O   UNL     1      -8.140  14.567  66.392  1.00  0.00     0.369 OA 
BRANCH  27  28
HETATM   28  C   UNL     1      -9.040  15.263  67.250  1.00  0.00    -0.198 C  
HETATM   29  C   UNL     1     -11.477  15.685  67.934  1.00  0.00    -0.251 C  
HETATM   30  H   UNL     1     -12.423  13.675  69.143  1.00  0.00     0.000 HD 
HETATM   31  C   UNL     1      -9.045  16.581  69.947  1.00  0.00     0.876 C  
HETATM   32  O   UNL     1     -11.560  17.121  67.946  1.00  0.00     0.230 OA 
HETATM   33  C   UNL     1     -10.532  15.223  66.809  1.00  0.00    -0.293 C  
HETATM   34  O   UNL     1     -10.763  16.074  65.665  1.00  0.00    -0.349 OA 
HETATM   35  H   UNL     1     -11.791  17.473  67.095  1.00  0.00     0.000 HD 
HETATM   36  O   UNL     1     -11.493  13.729  69.325  1.00  0.00    -0.262 OA 
HETATM   37  C   UNL     1     -11.104  15.116  69.306  1.00  0.00    -0.274 C  
HETATM   38  H   UNL     1     -11.674  16.049  65.396  1.00  0.00     0.000 HD 
HETATM   39  C   UNL     1      -9.600  15.205  69.601  1.00  0.00    -0.116 C  
HETATM   40  O   UNL     1      -8.874  14.622  68.521  1.00  0.00    -0.172 OA 
ENDBRANCH  27  28
ENDBRANCH   7  27
BRANCH  15  41
HETATM   41  C   UNL     1     -10.655  11.392  68.890  1.00  0.00    -0.202 C  
HETATM   42  H   UNL     1     -12.644  11.466  69.264  1.00  0.00     0.000 HD 
HETATM   43  O   UNL     1     -12.028  11.106  68.635  1.00  0.00    -0.487 OA 
ENDBRANCH  15  41
BRANCH  21  44
HETATM   44  C   UNL     1      -8.366   5.124  70.381  1.00  0.00    -0.105 C  
HETATM   45  C   UNL     1      -8.222   3.783  72.177  1.00  0.00    -0.077 C  
HETATM   46  O   UNL     1      -8.204   2.754  72.829  1.00  0.00    -0.067 OA 
HETATM   47  O   UNL     1      -8.050   5.018  72.677  1.00  0.00    -0.106 OA 
HETATM   48  C   UNL     1      -8.123   5.948  71.593  1.00  0.00    -0.118 C  
HETATM   49  C   UNL     1      -8.407   3.836  70.734  1.00  0.00    -0.091 C  
ENDBRANCH  21  44
TORSDOF 4
ENDMDL
MODEL       96
REMARK 921   NORMALIZED FREE ENERGY PREDICTED BY IDOCK:   -1.04 KCAL/MOL
REMARK 922        TOTAL FREE ENERGY PREDICTED BY IDOCK:   -2.24 KCAL/MOL
REMARK 923 INTER-LIGAND FREE ENERGY PREDICTED BY IDOCK:   -2.84 KCAL/MOL
REMARK 924 INTRA-LIGAND FREE ENERGY PREDICTED BY IDOCK:    0.60 KCAL/MOL
REMARK 927      BINDING AFFINITY PREDICTED BY RF-SCORE:    0.00 PKD
ROOT
HETATM    1  C   UNL     1      -9.211  13.300  68.290  1.00  0.00    -0.197 C  
HETATM    2  C   UNL     1      -8.643  12.252  69.242  1.00  0.00     0.836 C  
HETATM    3  C   UNL     1      -8.663  10.869  68.543  1.00  0.00    -0.153 C  
HETATM    4  C   UNL     1     -10.055  10.438  67.960  1.00  0.00    -0.163 C  
HETATM    5  O   UNL     1     -10.928  10.363  69.086  1.00  0.00    -0.214 OA 
HETATM    6  C   UNL     1     -10.067   9.073  67.271  1.00  0.00    -0.297 C  
HETATM    7  C   UNL     1      -8.854   8.917  66.392  1.00  0.00    -0.152 C  
HETATM    8  H   UNL     1     -11.770  10.103  68.733  1.00  0.00     0.000 HD 
HETATM    9  H   UNL     1      -7.679  15.730  67.573  1.00  0.00     0.000 HD 
HETATM   10  C   UNL     1      -8.743  10.076  65.386  1.00  0.00    -0.176 C  
HETATM   11  C   UNL     1      -9.564  11.395  65.654  1.00  0.00    -0.231 C  
HETATM   12  O   UNL     1      -7.851  14.806  67.437  1.00  0.00    -0.173 OA 
HETATM   13  C   UNL     1      -8.926  14.841  68.517  1.00  0.00    -0.182 C  
HETATM   14  O   UNL     1     -10.188  11.774  64.423  1.00  0.00    -0.260 OA 
HETATM   15  C   UNL     1     -10.563  11.481  66.911  1.00  0.00    -0.284 C  
HETATM   16  C   UNL     1     -10.592  12.866  67.706  1.00  0.00    -0.231 C  
HETATM   17  C   UNL     1      -8.102  15.838  69.333  1.00  0.00    -0.209 C  
HETATM   18  C   UNL     1      -8.167  17.114  68.274  1.00  0.00    -0.230 C  
HETATM   19  H   UNL     1     -10.683  12.569  64.586  1.00  0.00     0.000 HD 
HETATM   20  C   UNL     1     -10.714  16.805  69.382  1.00  0.00    -0.300 C  
HETATM   21  C   UNL     1      -9.399  16.797  67.277  1.00  0.00    -0.234 C  
HETATM   22  C   UNL     1     -11.313  13.973  66.950  1.00  0.00    -0.329 C  
HETATM   23  C   UNL     1     -10.167  15.849  68.222  1.00  0.00    -0.227 C  
HETATM   24  H   UNL     1     -11.170  15.042  65.261  1.00  0.00     0.000 HD 
HETATM   25  O   UNL     1     -10.720  14.351  65.733  1.00  0.00    -0.289 OA 
HETATM   26  C   UNL     1     -11.446  15.125  67.885  1.00  0.00    -0.344 C  
ENDROOT
BRANCH   7  27
HETATM   27  O   UNL     1      -8.978   7.631  65.800  1.00  0.00    -0.145 OA 
BRANCH  27  28
HETATM   28  C   UNL     1      -7.836   7.078  65.151  1.00  0.00    -0.124 C  
HETATM   29  C   UNL     1      -6.479   4.973  64.598  1.00  0.00    -0.035 C  
HETATM   30  H   UNL     1      -7.703   3.541  62.910  1.00  0.00     0.000 HD 
HETATM   31  C   UNL     1      -5.975   7.727  62.887  1.00  0.00    -0.067 C  
HETATM   32  O   UNL     1      -5.139   5.353  64.958  1.00  0.00    -0.009 OA 
HETATM   33  C   UNL     1      -7.487   5.620  65.566  1.00  0.00    -0.074 C  
HETATM   34  O   UNL     1      -6.913   5.575  66.890  1.00  0.00    -0.062 OA 
HETATM   35  H   UNL     1      -4.949   5.175  65.871  1.00  0.00     0.000 HD 
HETATM   36  O   UNL     1      -7.916   4.452  62.748  1.00  0.00    -0.065 OA 
HETATM   37  C   UNL     1      -6.786   5.260  63.126  1.00  0.00    -0.026 C  
HETATM   38  H   UNL     1      -6.700   4.684  67.144  1.00  0.00     0.000 HD 
HETATM   39  C   UNL     1      -7.131   6.734  62.864  1.00  0.00    -0.055 C  
HETATM   40  O   UNL     1      -8.165   7.140  63.758  1.00  0.00    -0.049 OA 
ENDBRANCH  27  28
ENDBRANCH   7  27
BRANCH  15  41
HETATM   41  C   UNL     1     -12.041  11.220  66.412  1.00  0.00     1.523 C  
HETATM   42  H   UNL     1     -13.739  12.228  65.963  1.00  0.00     0.000 HD 
HETATM   43  O   UNL     1     -12.851  12.384  66.263  1.00  0.00     0.319 OA 
ENDBRANCH  15  41
BRANCH  21  44
HETATM   44  C   UNL     1     -10.157  17.793  66.490  1.00  0.00    -0.358 C  
HETATM   45  C   UNL     1     -10.771  19.711  65.494  1.00  0.00    -0.225 C  
HETATM   46  O   UNL     1     -10.916  20.909  65.327  1.00  0.00     0.943 OA 
HETATM   47  O   UNL     1     -11.147  18.758  64.626  1.00  0.00    -0.057 OA 
HETATM   48  C   UNL     1     -10.789  17.489  65.179  1.00  0.00     0.233 C  
HETATM   49  C   UNL     1     -10.136  19.117  66.662  1.00  0.00    -0.469 C  
ENDBRANCH  21  44
TORSDOF 4
ENDMDL
MODEL       97
REMARK 921   NORMALIZED FREE ENERGY PREDICTED BY IDOCK:   -0.78 KCAL/MOL
REMARK 922        TOTAL FREE ENERGY PREDICTED BY IDOCK:   -1.92 KCAL/MOL
REMARK 923 INTER-LIGAND FREE ENERGY PREDICTED BY IDOCK:   -1.02 KCAL/MOL
REMARK 924 INTRA-LIGAND FREE ENERGY PREDICTED BY IDOCK:   -0.90 KCAL/MOL
REMARK 927      BINDING AFFINITY PREDICTED BY RF-SCORE:    0.00 PKD
ROOT
HETATM    1  C   UNL     1      -6.570  12.531  67.501  1.00  0.00    -0.150 C  
HETATM    2  C   UNL     1      -5.197  12.012  67.085  1.00  0.00    -0.106 C  
HETATM    3  C   UNL     1      -5.322  10.523  66.675  1.00  0.00    -0.048 C  
HETATM    4  C   UNL     1      -6.001   9.594  67.743  1.00  0.00    -0.051 C  
HETATM    5  O   UNL     1      -5.152   9.655  68.888  1.00  0.00    -0.037 OA 
HETATM    6  C   UNL     1      -6.120   8.126  67.331  1.00  0.00    -0.051 C  
HETATM    7  C   UNL     1      -6.584   8.016  65.902  1.00  0.00    -0.046 C  
HETATM    8  H   UNL     1      -5.563   9.093  69.534  1.00  0.00     0.000 HD 
HETATM    9  H   UNL     1      -7.771  14.922  66.232  1.00  0.00     0.000 HD 
HETATM   10  C   UNL     1      -7.895   8.792  65.682  1.00  0.00    -0.097 C  
HETATM   11  C   UNL     1      -8.323   9.875  66.743  1.00  0.00    -0.125 C  
HETATM   12  O   UNL     1      -7.591  13.989  66.206  1.00  0.00     1.259 OA 
HETATM   13  C   UNL     1      -6.871  14.085  67.546  1.00  0.00    -0.131 C  
HETATM   14  O   UNL     1      -9.713   9.681  67.024  1.00  0.00    -0.165 OA 
HETATM   15  C   UNL     1      -7.445  10.093  68.072  1.00  0.00    -0.087 C  
HETATM   16  C   UNL     1      -7.246  11.602  68.558  1.00  0.00    -0.094 C  
HETATM   17  C   UNL     1      -6.318  15.462  67.173  1.00  0.00     0.219 C  
HETATM   18  C   UNL     1      -7.759  16.284  67.121  1.00  0.00    -0.223 C  
HETATM   19  H   UNL     1      -9.971  10.334  67.664  1.00  0.00     0.000 HD 
HETATM   20  C   UNL     1      -7.216  15.700  69.799  1.00  0.00    -0.086 C  
HETATM   21  C   UNL     1      -8.817  15.370  67.931  1.00  0.00    -0.168 C  
HETATM   22  C   UNL     1      -8.498  12.196  69.186  1.00  0.00     0.534 C  
HETATM   23  C   UNL     1      -7.787  14.602  68.786  1.00  0.00    -0.146 C  
HETATM   24  H   UNL     1     -10.384  12.685  68.718  1.00  0.00     0.000 HD 
HETATM   25  O   UNL     1      -9.602  12.314  68.325  1.00  0.00    -0.211 OA 
HETATM   26  C   UNL     1      -8.110  13.509  69.773  1.00  0.00     1.446 C  
ENDROOT
BRANCH   7  27
HETATM   27  O   UNL     1      -6.671   6.624  65.638  1.00  0.00    -0.048 OA 
BRANCH  27  28
HETATM   28  C   UNL     1      -7.854   5.937  66.038  1.00  0.00    -0.105 C  
HETATM   29  C   UNL     1      -9.637   4.188  65.449  1.00  0.00    -0.187 C  
HETATM   30  H   UNL     1      -8.663   1.856  65.547  1.00  0.00     0.000 HD 
HETATM   31  C   UNL     1      -9.296   5.178  68.559  1.00  0.00    -0.161 C  
HETATM   32  O   UNL     1     -10.867   4.883  65.718  1.00  0.00    -0.603 OA 
HETATM   33  C   UNL     1      -8.587   5.171  64.899  1.00  0.00    -0.151 C  
HETATM   34  O   UNL     1      -9.265   6.083  64.007  1.00  0.00     0.105 OA 
HETATM   35  H   UNL     1     -11.173   5.376  64.966  1.00  0.00     0.000 HD 
HETATM   36  O   UNL     1      -8.218   2.399  66.187  1.00  0.00    -0.083 OA 
HETATM   37  C   UNL     1      -9.143   3.396  66.662  1.00  0.00    -0.164 C  
HETATM   38  H   UNL     1      -9.713   5.615  63.311  1.00  0.00     0.000 HD 
HETATM   39  C   UNL     1      -8.424   4.273  67.697  1.00  0.00    -0.099 C  
HETATM   40  O   UNL     1      -7.402   5.025  67.046  1.00  0.00    -0.079 OA 
ENDBRANCH  27  28
ENDBRANCH   7  27
BRANCH  15  41
HETATM   41  C   UNL     1      -8.130   9.324  69.274  1.00  0.00    -0.106 C  
HETATM   42  H   UNL     1      -7.659   8.434  71.031  1.00  0.00     0.000 HD 
HETATM   43  O   UNL     1      -7.248   8.896  70.309  1.00  0.00    -0.044 OA 
ENDBRANCH  15  41
BRANCH  21  44
HETATM   44  C   UNL     1     -10.065  15.844  68.568  1.00  0.00    -0.217 C  
HETATM   45  C   UNL     1     -12.022  15.878  69.670  1.00  0.00    -0.260 C  
HETATM   46  O   UNL     1     -13.119  15.508  70.050  1.00  0.00    -0.088 OA 
HETATM   47  O   UNL     1     -11.410  17.008  70.059  1.00  0.00     0.263 OA 
HETATM   48  C   UNL     1     -10.140  17.071  69.404  1.00  0.00    -0.139 C  
HETATM   49  C   UNL     1     -11.181  15.132  68.745  1.00  0.00    -0.293 C  
ENDBRANCH  21  44
TORSDOF 4
ENDMDL
MODEL       98
REMARK 921   NORMALIZED FREE ENERGY PREDICTED BY IDOCK:    1.50 KCAL/MOL
REMARK 922        TOTAL FREE ENERGY PREDICTED BY IDOCK:    0.90 KCAL/MOL
REMARK 923 INTER-LIGAND FREE ENERGY PREDICTED BY IDOCK:   -1.47 KCAL/MOL
REMARK 924 INTRA-LIGAND FREE ENERGY PREDICTED BY IDOCK:    2.37 KCAL/MOL
REMARK 927      BINDING AFFINITY PREDICTED BY RF-SCORE:    0.00 PKD
ROOT
HETATM    1  C   UNL     1     -12.423  11.535  71.067  1.00  0.00    -0.458 C  
HETATM    2  C   UNL     1     -13.120  12.648  71.844  1.00  0.00    -0.470 C  
HETATM    3  C   UNL     1     -12.979  13.978  71.060  1.00  0.00    -0.378 C  
HETATM    4  C   UNL     1     -11.509  14.367  70.671  1.00  0.00    -0.115 C  
HETATM    5  O   UNL     1     -10.820  14.523  71.910  1.00  0.00     0.335 OA 
HETATM    6  C   UNL     1     -11.378  15.680  69.898  1.00  0.00    -0.340 C  
HETATM    7  C   UNL     1     -12.438  15.772  68.832  1.00  0.00     0.432 C  
HETATM    8  H   UNL     1      -9.931  14.758  71.674  1.00  0.00     0.000 HD 
HETATM    9  H   UNL     1     -13.849   9.058  70.295  1.00  0.00     0.000 HD 
HETATM   10  C   UNL     1     -12.404  14.543  67.905  1.00  0.00     0.031 C  
HETATM   11  C   UNL     1     -11.648  13.248  68.390  1.00  0.00    -0.337 C  
HETATM   12  O   UNL     1     -13.650   9.971  70.122  1.00  0.00     0.226 OA 
HETATM   13  C   UNL     1     -12.754  10.014  71.355  1.00  0.00    -0.415 C  
HETATM   14  O   UNL     1     -10.845  12.783  67.300  1.00  0.00    -0.244 OA 
HETATM   15  C   UNL     1     -10.856  13.253  69.789  1.00  0.00     0.352 C  
HETATM   16  C   UNL     1     -10.963  11.927  70.675  1.00  0.00     1.807 C  
HETATM   17  C   UNL     1     -13.704   9.077  72.103  1.00  0.00    -0.536 C  
HETATM   18  C   UNL     1     -13.489   7.728  71.159  1.00  0.00    -0.142 C  
HETATM   19  H   UNL     1     -10.389  12.002  67.593  1.00  0.00     0.000 HD 
HETATM   20  C   UNL     1     -11.142   8.118  72.623  1.00  0.00    -0.450 C  
HETATM   21  C   UNL     1     -12.116   7.975  70.345  1.00  0.00     0.252 C  
HETATM   22  C   UNL     1     -10.146  10.771  70.119  1.00  0.00     0.556 C  
HETATM   23  C   UNL     1     -11.493   8.989  71.328  1.00  0.00    -0.390 C  
HETATM   24  H   UNL     1     -10.036   9.584  68.508  1.00  0.00     0.000 HD 
HETATM   25  O   UNL     1     -10.547  10.306  68.856  1.00  0.00    -0.195 OA 
HETATM   26  C   UNL     1     -10.171   9.688  71.143  1.00  0.00    -0.180 C  
ENDROOT
BRANCH   7  27
HETATM   27  O   UNL     1     -12.212  17.011  68.177  1.00  0.00     1.095 OA 
BRANCH  27  28
HETATM   28  C   UNL     1     -11.141  17.090  67.240  1.00  0.00     0.113 C  
HETATM   29  C   UNL     1      -8.821  18.038  66.691  1.00  0.00    -0.266 C  
HETATM   30  H   UNL     1      -7.045  16.919  68.103  1.00  0.00     0.000 HD 
HETATM   31  C   UNL     1      -9.990  15.501  64.969  1.00  0.00    -0.057 C  
HETATM   32  O   UNL     1      -9.002  18.581  65.372  1.00  0.00     0.291 OA 
HETATM   33  C   UNL     1     -10.108  18.221  67.516  1.00  0.00    -0.350 C  
HETATM   34  O   UNL     1     -10.653  19.519  67.195  1.00  0.00    -0.439 OA 
HETATM   35  H   UNL     1      -9.309  19.479  65.393  1.00  0.00     0.000 HD 
HETATM   36  O   UNL     1      -7.742  16.295  67.940  1.00  0.00    -0.137 OA 
HETATM   37  C   UNL     1      -8.327  16.589  66.657  1.00  0.00    -0.262 C  
HETATM   38  H   UNL     1     -10.022  20.209  67.364  1.00  0.00     0.000 HD 
HETATM   39  C   UNL     1      -9.454  15.580  66.393  1.00  0.00    -0.291 C  
HETATM   40  O   UNL     1     -10.513  15.805  67.321  1.00  0.00    -0.294 OA 
ENDBRANCH  27  28
ENDBRANCH   7  27
BRANCH  15  41
HETATM   41  C   UNL     1      -9.315  13.478  69.508  1.00  0.00     1.206 C  
HETATM   42  H   UNL     1      -7.948  14.968  69.405  1.00  0.00     0.000 HD 
HETATM   43  O   UNL     1      -8.874  14.832  69.573  1.00  0.00    -0.036 OA 
ENDBRANCH  15  41
BRANCH  21  44
HETATM   44  C   UNL     1     -11.255   6.926  69.757  1.00  0.00    -0.315 C  
HETATM   45  C   UNL     1     -10.258   4.951  69.365  1.00  0.00    -0.159 C  
HETATM   46  O   UNL     1      -9.755   3.867  69.597  1.00  0.00    -0.200 OA 
HETATM   47  O   UNL     1     -10.427   5.479  68.142  1.00  0.00    -0.197 OA 
HETATM   48  C   UNL     1     -11.066   6.750  68.293  1.00  0.00    -0.141 C  
HETATM   49  C   UNL     1     -10.787   5.845  70.386  1.00  0.00    -0.378 C  
ENDBRANCH  21  44
TORSDOF 4
ENDMDL
MODEL       99
REMARK 921   NORMALIZED FREE ENERGY PREDICTED BY IDOCK:    1.95 KCAL/MOL
REMARK 922        TOTAL FREE ENERGY PREDICTED BY IDOCK:    1.46 KCAL/MOL
REMARK 923 INTER-LIGAND FREE ENERGY PREDICTED BY IDOCK:   -0.09 KCAL/MOL
REMARK 924 INTRA-LIGAND FREE ENERGY PREDICTED BY IDOCK:    1.55 KCAL/MOL
REMARK 927      BINDING AFFINITY PREDICTED BY RF-SCORE:    0.00 PKD
ROOT
HETATM    1  C   UNL     1     -10.327   8.405  68.145  1.00  0.00    -0.255 C  
HETATM    2  C   UNL     1     -11.554   8.780  68.969  1.00  0.00     0.914 C  
HETATM    3  C   UNL     1     -11.593  10.319  69.149  1.00  0.00    -0.166 C  
HETATM    4  C   UNL     1     -10.280  10.953  69.731  1.00  0.00     0.129 C  
HETATM    5  O   UNL     1     -10.123  10.373  71.025  1.00  0.00     0.138 OA 
HETATM    6  C   UNL     1     -10.325  12.471  69.905  1.00  0.00     1.460 C  
HETATM    7  C   UNL     1     -10.949  13.122  68.698  1.00  0.00    -0.265 C  
HETATM    8  H   UNL     1      -9.328  10.756  71.376  1.00  0.00     0.000 HD 
HETATM    9  H   UNL     1     -10.559   6.811  65.660  1.00  0.00     0.000 HD 
HETATM   10  C   UNL     1     -10.225  12.705  67.405  1.00  0.00    -0.219 C  
HETATM   11  C   UNL     1      -9.302  11.428  67.431  1.00  0.00    -0.167 C  
HETATM   12  O   UNL     1     -10.614   7.654  66.095  1.00  0.00     0.449 OA 
HETATM   13  C   UNL     1     -10.235   7.000  67.420  1.00  0.00    -0.215 C  
HETATM   14  O   UNL     1      -8.082  11.763  66.760  1.00  0.00    -0.174 OA 
HETATM   15  C   UNL     1      -9.057  10.637  68.809  1.00  0.00    -0.170 C  
HETATM   16  C   UNL     1      -9.023   9.042  68.721  1.00  0.00    -0.137 C  
HETATM   17  C   UNL     1     -11.029   5.746  67.050  1.00  0.00    -0.225 C  
HETATM   18  C   UNL     1     -10.101   5.254  65.765  1.00  0.00    -0.031 C  
HETATM   19  H   UNL     1      -7.525  10.993  66.776  1.00  0.00     0.000 HD 
HETATM   20  C   UNL     1      -8.615   4.826  68.092  1.00  0.00    -0.106 C  
HETATM   21  C   UNL     1      -8.690   6.025  65.921  1.00  0.00    -0.157 C  
HETATM   22  C   UNL     1      -7.747   8.507  68.089  1.00  0.00    -0.102 C  
HETATM   23  C   UNL     1      -8.778   6.278  67.441  1.00  0.00    -0.105 C  
HETATM   24  H   UNL     1      -6.746   8.539  66.354  1.00  0.00     0.000 HD 
HETATM   25  O   UNL     1      -7.543   8.874  66.749  1.00  0.00    -0.085 OA 
HETATM   26  C   UNL     1      -7.762   7.027  68.264  1.00  0.00    -0.117 C  
ENDROOT
BRANCH   7  27
HETATM   27  O   UNL     1     -10.925  14.517  68.964  1.00  0.00    -0.240 OA 
BRANCH  27  28
HETATM   28  C   UNL     1      -9.786  15.262  68.541  1.00  0.00    -0.210 C  
HETATM   29  C   UNL     1      -7.229  15.382  68.369  1.00  0.00    -0.114 C  
HETATM   30  H   UNL     1      -6.376  13.750  66.635  1.00  0.00     0.000 HD 
HETATM   31  C   UNL     1      -9.077  17.384  66.540  1.00  0.00    -0.288 C  
HETATM   32  O   UNL     1      -6.935  16.687  68.896  1.00  0.00    -0.175 OA 
HETATM   33  C   UNL     1      -8.428  14.771  69.119  1.00  0.00    -0.096 C  
HETATM   34  O   UNL     1      -8.295  15.118  70.514  1.00  0.00     0.152 OA 
HETATM   35  H   UNL     1      -6.821  16.676  69.839  1.00  0.00     0.000 HD 
HETATM   36  O   UNL     1      -7.236  14.053  66.371  1.00  0.00     1.247 OA 
HETATM   37  C   UNL     1      -7.414  15.399  66.849  1.00  0.00    -0.019 C  
HETATM   38  H   UNL     1      -7.466  14.818  70.867  1.00  0.00     0.000 HD 
HETATM   39  C   UNL     1      -8.805  15.889  66.422  1.00  0.00    -0.333 C  
HETATM   40  O   UNL     1      -9.800  15.137  67.114  1.00  0.00    -0.225 OA 
ENDBRANCH  27  28
ENDBRANCH   7  27
BRANCH  15  41
HETATM   41  C   UNL     1      -7.665  11.080  69.417  1.00  0.00    -0.020 C  
HETATM   42  H   UNL     1      -6.503  12.725  69.624  1.00  0.00     0.000 HD 
HETATM   43  O   UNL     1      -7.339  12.459  69.258  1.00  0.00     0.042 OA 
ENDBRANCH  15  41
BRANCH  21  44
HETATM   44  C   UNL     1      -7.398   5.597  65.340  1.00  0.00    -0.072 C  
HETATM   45  C   UNL     1      -5.866   4.716  63.952  1.00  0.00    -0.017 C  
HETATM   46  O   UNL     1      -5.372   3.952  63.143  1.00  0.00    -0.008 OA 
HETATM   47  O   UNL     1      -5.265   5.810  64.450  1.00  0.00    -0.012 OA 
HETATM   48  C   UNL     1      -6.177   6.445  65.351  1.00  0.00    -0.034 C  
HETATM   49  C   UNL     1      -7.211   4.581  64.494  1.00  0.00    -0.066 C  
ENDBRANCH  21  44
TORSDOF 4
ENDMDL
MODEL      100
REMARK 921   NORMALIZED FREE ENERGY PREDICTED BY IDOCK:    2.31 KCAL/MOL
REMARK 922        TOTAL FREE ENERGY PREDICTED BY IDOCK:    1.90 KCAL/MOL
REMARK 923 INTER-LIGAND FREE ENERGY PREDICTED BY IDOCK:    2.42 KCAL/MOL
REMARK 924 INTRA-LIGAND FREE ENERGY PREDICTED BY IDOCK:   -0.52 KCAL/MOL
REMARK 927      BINDING AFFINITY PREDICTED BY RF-SCORE:    0.00 PKD
ROOT
HETATM    1  C   UNL     1      -8.945  15.665  69.145  1.00  0.00    -0.257 C  
HETATM    2  C   UNL     1      -9.668  15.100  70.363  1.00  0.00     0.485 C  
HETATM    3  C   UNL     1      -9.278  13.610  70.537  1.00  0.00     4.545 C  
HETATM    4  C   UNL     1      -9.487  12.716  69.264  1.00  0.00     0.876 C  
HETATM    5  O   UNL     1     -10.887  12.765  68.994  1.00  0.00    -0.344 OA 
HETATM    6  C   UNL     1      -9.100  11.247  69.444  1.00  0.00     0.406 C  
HETATM    7  C   UNL     1      -7.791  11.134  70.180  1.00  0.00     1.358 C  
HETATM    8  H   UNL     1     -11.013  12.224  68.224  1.00  0.00     0.000 HD 
HETATM    9  H   UNL     1      -7.235  18.075  69.340  1.00  0.00     0.000 HD 
HETATM   10  C   UNL     1      -6.687  11.946  69.481  1.00  0.00    -0.054 C  
HETATM   11  C   UNL     1      -7.104  13.055  68.441  1.00  0.00    -0.103 C  
HETATM   12  O   UNL     1      -7.337  17.138  69.453  1.00  0.00    -0.164 OA 
HETATM   13  C   UNL     1      -8.775  17.228  68.955  1.00  0.00    -0.172 C  
HETATM   14  O   UNL     1      -6.266  12.905  67.291  1.00  0.00    -0.293 OA 
HETATM   15  C   UNL     1      -8.652  13.262  68.060  1.00  0.00    -0.178 C  
HETATM   16  C   UNL     1      -9.147  14.770  67.882  1.00  0.00    -0.183 C  
HETATM   17  C   UNL     1      -8.949  18.583  69.643  1.00  0.00     0.776 C  
HETATM   18  C   UNL     1      -7.863  19.447  68.734  1.00  0.00    -0.392 C  
HETATM   19  H   UNL     1      -6.517  13.574  66.664  1.00  0.00     0.000 HD 
HETATM   20  C   UNL     1     -10.065  18.881  67.109  1.00  0.00    -0.414 C  
HETATM   21  C   UNL     1      -7.619  18.576  67.395  1.00  0.00    -0.224 C  
HETATM   22  C   UNL     1      -8.657  15.410  66.591  1.00  0.00    -0.283 C  
HETATM   23  C   UNL     1      -8.945  17.788  67.437  1.00  0.00    -0.240 C  
HETATM   24  H   UNL     1      -6.957  15.949  65.678  1.00  0.00     0.000 HD 
HETATM   25  O   UNL     1      -7.263  15.550  66.484  1.00  0.00     0.009 OA 
HETATM   26  C   UNL     1      -9.359  16.718  66.459  1.00  0.00    -0.288 C  
ENDROOT
BRANCH   7  27
HETATM   27  O   UNL     1      -7.529   9.741  70.275  1.00  0.00    -0.141 OA 
BRANCH  27  28
HETATM   28  C   UNL     1      -8.282   8.858  69.448  1.00  0.00    -0.107 C  
HETATM   29  C   UNL     1      -8.325   6.673  68.104  1.00  0.00    -0.117 C  
HETATM   30  H   UNL     1      -8.335   4.674  69.653  1.00  0.00     0.000 HD 
HETATM   31  C   UNL     1     -11.147   8.144  68.905  1.00  0.00     0.259 C  
HETATM   32  O   UNL     1      -8.861   7.089  66.836  1.00  0.00    -0.118 OA 
HETATM   33  C   UNL     1      -7.442   7.788  68.692  1.00  0.00    -0.100 C  
HETATM   34  O   UNL     1      -6.698   8.379  67.604  1.00  0.00    -0.064 OA 
HETATM   35  H   UNL     1      -8.183   7.384  66.239  1.00  0.00     0.000 HD 
HETATM   36  O   UNL     1      -8.790   5.391  70.079  1.00  0.00    -0.122 OA 
HETATM   37  C   UNL     1      -9.418   6.199  69.065  1.00  0.00    -0.127 C  
HETATM   38  H   UNL     1      -6.184   7.725  67.143  1.00  0.00     0.000 HD 
HETATM   39  C   UNL     1     -10.153   7.358  69.753  1.00  0.00    -0.193 C  
HETATM   40  O   UNL     1      -9.198   8.230  70.353  1.00  0.00    -0.148 OA 
ENDBRANCH  27  28
ENDBRANCH   7  27
BRANCH  15  41
HETATM   41  C   UNL     1      -8.948  12.529  66.690  1.00  0.00    -0.174 C  
HETATM   42  H   UNL     1     -10.235  12.596  65.129  1.00  0.00     0.000 HD 
HETATM   43  O   UNL     1     -10.057  13.036  65.952  1.00  0.00    -0.281 OA 
ENDBRANCH  15  41
BRANCH  21  44
HETATM   44  C   UNL     1      -7.136  19.096  66.097  1.00  0.00    -0.273 C  
HETATM   45  C   UNL     1      -6.080  20.341  64.553  1.00  0.00    -0.283 C  
HETATM   46  O   UNL     1      -5.608  21.328  64.019  1.00  0.00    -0.226 OA 
HETATM   47  O   UNL     1      -6.026  19.093  64.059  1.00  0.00    -0.442 OA 
HETATM   48  C   UNL     1      -6.677  18.221  64.986  1.00  0.00     0.485 C  
HETATM   49  C   UNL     1      -6.763  20.352  65.840  1.00  0.00    -0.271 C  
ENDBRANCH  21  44
TORSDOF 4
ENDMDL
MODEL      101
REMARK 921   NORMALIZED FREE ENERGY PREDICTED BY IDOCK:    2.76 KCAL/MOL
REMARK 922        TOTAL FREE ENERGY PREDICTED BY IDOCK:    2.46 KCAL/MOL
REMARK 923 INTER-LIGAND FREE ENERGY PREDICTED BY IDOCK:   -1.41 KCAL/MOL
REMARK 924 INTRA-LIGAND FREE ENERGY PREDICTED BY IDOCK:    3.86 KCAL/MOL
REMARK 927      BINDING AFFINITY PREDICTED BY RF-SCORE:    0.00 PKD
ROOT
HETATM    1  C   UNL     1      -8.356   9.651  65.601  1.00  0.00    -0.133 C  
HETATM    2  C   UNL     1      -7.670  10.273  64.389  1.00  0.00    -0.104 C  
HETATM    3  C   UNL     1      -8.194  11.720  64.199  1.00  0.00     1.679 C  
HETATM    4  C   UNL     1      -9.756  11.856  64.123  1.00  0.00    -0.128 C  
HETATM    5  O   UNL     1     -10.145  11.104  62.975  1.00  0.00    -0.482 OA 
HETATM    6  C   UNL     1     -10.264  13.286  63.935  1.00  0.00     0.315 C  
HETATM    7  C   UNL     1      -9.515  14.234  64.834  1.00  0.00     0.908 C  
HETATM    8  H   UNL     1     -11.090  11.187  62.930  1.00  0.00     0.000 HD 
HETATM    9  H   UNL     1      -6.796   8.512  67.846  1.00  0.00     0.000 HD 
HETATM   10  C   UNL     1      -9.583  13.780  66.303  1.00  0.00    -0.265 C  
HETATM   11  C   UNL     1      -9.996  12.292  66.618  1.00  0.00    -0.215 C  
HETATM   12  O   UNL     1      -7.167   9.274  67.415  1.00  0.00    -0.079 OA 
HETATM   13  C   UNL     1      -7.739   8.382  66.319  1.00  0.00    -0.094 C  
HETATM   14  O   UNL     1     -10.956  12.325  67.679  1.00  0.00    -0.225 OA 
HETATM   15  C   UNL     1     -10.423  11.303  65.424  1.00  0.00    -0.326 C  
HETATM   16  C   UNL     1      -9.909   9.795  65.527  1.00  0.00    -0.378 C  
HETATM   17  C   UNL     1      -6.508   7.476  66.386  1.00  0.00    -0.049 C  
HETATM   18  C   UNL     1      -6.735   6.889  67.922  1.00  0.00    -0.064 C  
HETATM   19  H   UNL     1     -11.205  11.428  67.869  1.00  0.00     0.000 HD 
HETATM   20  C   UNL     1      -8.697   5.758  66.286  1.00  0.00    -0.134 C  
HETATM   21  C   UNL     1      -8.284   7.178  68.279  1.00  0.00    -0.124 C  
HETATM   22  C   UNL     1     -10.651   8.982  66.579  1.00  0.00    -0.006 C  
HETATM   23  C   UNL     1      -8.801   7.259  66.827  1.00  0.00    -0.143 C  
HETATM   24  H   UNL     1     -10.960   8.923  68.557  1.00  0.00     0.000 HD 
HETATM   25  O   UNL     1     -10.496   9.431  67.901  1.00  0.00    -0.219 OA 
HETATM   26  C   UNL     1     -10.219   7.565  66.418  1.00  0.00    -0.022 C  
ENDROOT
BRANCH   7  27
HETATM   27  O   UNL     1     -10.076  15.515  64.586  1.00  0.00    -0.197 OA 
BRANCH  27  28
HETATM   28  C   UNL     1      -9.989  16.497  65.615  1.00  0.00    -0.204 C  
HETATM   29  C   UNL     1      -8.702  17.378  67.653  1.00  0.00    -0.221 C  
HETATM   30  H   UNL     1      -6.516  18.432  66.938  1.00  0.00     0.000 HD 
HETATM   31  C   UNL     1     -10.889  19.310  66.151  1.00  0.00    -0.357 C  
HETATM   32  O   UNL     1      -9.738  17.544  68.637  1.00  0.00    -0.295 OA 
HETATM   33  C   UNL     1      -9.006  16.153  66.771  1.00  0.00    -0.241 C  
HETATM   34  O   UNL     1      -9.544  15.120  67.626  1.00  0.00    -0.205 OA 
HETATM   35  H   UNL     1      -9.888  16.751  69.137  1.00  0.00     0.000 HD 
HETATM   36  O   UNL     1      -7.155  18.558  66.247  1.00  0.00    -0.220 OA 
HETATM   37  C   UNL     1      -8.462  18.657  66.845  1.00  0.00    -0.273 C  
HETATM   38  H   UNL     1      -8.943  14.910  68.332  1.00  0.00     0.000 HD 
HETATM   39  C   UNL     1      -9.495  18.861  65.728  1.00  0.00     0.328 C  
HETATM   40  O   UNL     1      -9.564  17.682  64.930  1.00  0.00     1.353 OA 
ENDBRANCH  27  28
ENDBRANCH   7  27
BRANCH  15  41
HETATM   41  C   UNL     1     -12.002  11.233  65.354  1.00  0.00     1.045 C  
HETATM   42  H   UNL     1     -13.632  12.406  65.613  1.00  0.00     0.000 HD 
HETATM   43  O   UNL     1     -12.683  12.448  65.656  1.00  0.00    -0.462 OA 
ENDBRANCH  15  41
BRANCH  21  44
HETATM   44  C   UNL     1      -9.091   6.457  69.287  1.00  0.00    -0.136 C  
HETATM   45  C   UNL     1      -9.890   5.713  71.250  1.00  0.00    -0.175 C  
HETATM   46  O   UNL     1      -9.888   5.344  72.411  1.00  0.00    -0.160 OA 
HETATM   47  O   UNL     1     -10.981   5.826  70.476  1.00  0.00    -0.288 OA 
HETATM   48  C   UNL     1     -10.567   6.302  69.193  1.00  0.00    -0.268 C  
HETATM   49  C   UNL     1      -8.699   6.120  70.518  1.00  0.00    -0.142 C  
ENDBRANCH  21  44
TORSDOF 4
ENDMDL
MODEL      102
REMARK 921   NORMALIZED FREE ENERGY PREDICTED BY IDOCK:    2.78 KCAL/MOL
REMARK 922        TOTAL FREE ENERGY PREDICTED BY IDOCK:    2.48 KCAL/MOL
REMARK 923 INTER-LIGAND FREE ENERGY PREDICTED BY IDOCK:    2.12 KCAL/MOL
REMARK 924 INTRA-LIGAND FREE ENERGY PREDICTED BY IDOCK:    0.35 KCAL/MOL
REMARK 927      BINDING AFFINITY PREDICTED BY RF-SCORE:    0.00 PKD
ROOT
HETATM    1  C   UNL     1     -10.285  12.483  65.273  1.00  0.00    -0.302 C  
HETATM    2  C   UNL     1     -10.578  11.323  64.327  1.00  0.00    -0.422 C  
HETATM    3  C   UNL     1     -10.231   9.990  65.037  1.00  0.00    -0.096 C  
HETATM    4  C   UNL     1      -8.779   9.911  65.630  1.00  0.00    -0.151 C  
HETATM    5  O   UNL     1      -7.907  10.040  64.508  1.00  0.00    -0.137 OA 
HETATM    6  C   UNL     1      -8.444   8.593  66.329  1.00  0.00    -0.131 C  
HETATM    7  C   UNL     1      -9.589   8.155  67.204  1.00  0.00    -0.174 C  
HETATM    8  H   UNL     1      -7.029   9.993  64.867  1.00  0.00     0.000 HD 
HETATM    9  H   UNL     1     -12.361  14.479  65.964  1.00  0.00     0.000 HD 
HETATM   10  C   UNL     1      -9.982   9.260  68.201  1.00  0.00    -0.206 C  
HETATM   11  C   UNL     1      -9.501  10.736  67.926  1.00  0.00    -0.157 C  
HETATM   12  O   UNL     1     -11.973  13.623  66.108  1.00  0.00    -0.370 OA 
HETATM   13  C   UNL     1     -10.931  13.909  65.033  1.00  0.00    -0.368 C  
HETATM   14  O   UNL     1      -8.995  11.262  69.156  1.00  0.00    -0.383 OA 
HETATM   15  C   UNL     1      -8.544  11.052  66.673  1.00  0.00    -0.157 C  
HETATM   16  C   UNL     1      -8.844  12.398  65.867  1.00  0.00     0.302 C  
HETATM   17  C   UNL     1     -11.965  14.673  64.205  1.00  0.00    -0.406 C  
HETATM   18  C   UNL     1     -12.216  15.934  65.255  1.00  0.00     1.036 C  
HETATM   19  H   UNL     1      -8.705  12.152  68.990  1.00  0.00     0.000 HD 
HETATM   20  C   UNL     1      -9.662  16.240  64.161  1.00  0.00     4.994 C  
HETATM   21  C   UNL     1     -10.950  15.929  66.259  1.00  0.00    -0.112 C  
HETATM   22  C   UNL     1      -8.415  13.650  66.618  1.00  0.00     0.164 C  
HETATM   23  C   UNL     1      -9.970  15.188  65.326  1.00  0.00    -0.325 C  
HETATM   24  H   UNL     1      -8.822  14.665  68.298  1.00  0.00     0.000 HD 
HETATM   25  O   UNL     1      -9.089  13.883  67.829  1.00  0.00    -0.176 OA 
HETATM   26  C   UNL     1      -8.557  14.795  65.674  1.00  0.00     1.650 C  
ENDROOT
BRANCH   7  27
HETATM   27  O   UNL     1      -9.164   6.941  67.807  1.00  0.00    -0.122 OA 
BRANCH  27  28
HETATM   28  C   UNL     1      -8.850   5.843  66.955  1.00  0.00    -0.112 C  
HETATM   29  C   UNL     1      -7.760   3.531  66.730  1.00  0.00    -0.080 C  
HETATM   30  H   UNL     1      -9.148   1.774  67.908  1.00  0.00     0.000 HD 
HETATM   31  C   UNL     1      -9.843   4.578  64.421  1.00  0.00     0.044 C  
HETATM   32  O   UNL     1      -6.927   3.683  65.568  1.00  0.00    -0.058 OA 
HETATM   33  C   UNL     1      -7.798   4.849  67.526  1.00  0.00    -0.094 C  
HETATM   34  O   UNL     1      -6.470   5.416  67.496  1.00  0.00    -0.047 OA 
HETATM   35  H   UNL     1      -6.064   4.013  65.786  1.00  0.00     0.000 HD 
HETATM   36  O   UNL     1      -9.728   2.450  67.578  1.00  0.00    -0.011 OA 
HETATM   37  C   UNL     1      -9.153   3.000  66.378  1.00  0.00    -0.146 C  
HETATM   38  H   UNL     1      -5.827   4.809  67.845  1.00  0.00     0.000 HD 
HETATM   39  C   UNL     1     -10.091   4.091  65.843  1.00  0.00    -0.082 C  
HETATM   40  O   UNL     1     -10.107   5.185  66.757  1.00  0.00    -0.182 OA 
ENDBRANCH  27  28
ENDBRANCH   7  27
BRANCH  15  41
HETATM   41  C   UNL     1      -7.050  11.158  67.181  1.00  0.00    -0.113 C  
HETATM   42  H   UNL     1      -5.978  11.857  68.750  1.00  0.00     0.000 HD 
HETATM   43  O   UNL     1      -6.876  11.794  68.445  1.00  0.00    -0.061 OA 
ENDBRANCH  15  41
BRANCH  21  44
HETATM   44  C   UNL     1     -10.459  17.084  67.043  1.00  0.00    -0.279 C  
HETATM   45  C   UNL     1     -10.151  18.561  68.707  1.00  0.00    -0.356 C  
HETATM   46  O   UNL     1     -10.417  19.271  69.660  1.00  0.00     0.235 OA 
HETATM   47  O   UNL     1      -8.934  18.436  68.152  1.00  0.00    -0.292 OA 
HETATM   48  C   UNL     1      -9.032  17.502  67.074  1.00  0.00    -0.240 C  
HETATM   49  C   UNL     1     -11.113  17.706  68.027  1.00  0.00     0.049 C  
ENDBRANCH  21  44
TORSDOF 4
ENDMDL
MODEL      103
REMARK 921   NORMALIZED FREE ENERGY PREDICTED BY IDOCK:    4.00 KCAL/MOL
REMARK 922        TOTAL FREE ENERGY PREDICTED BY IDOCK:    3.99 KCAL/MOL
REMARK 923 INTER-LIGAND FREE ENERGY PREDICTED BY IDOCK:    4.31 KCAL/MOL
REMARK 924 INTRA-LIGAND FREE ENERGY PREDICTED BY IDOCK:   -0.33 KCAL/MOL
REMARK 927      BINDING AFFINITY PREDICTED BY RF-SCORE:    0.00 PKD
ROOT
HETATM    1  C   UNL     1      -8.095   8.099  65.949  1.00  0.00    -0.115 C  
HETATM    2  C   UNL     1      -8.429   8.165  64.462  1.00  0.00    -0.013 C  
HETATM    3  C   UNL     1      -8.782   9.627  64.088  1.00  0.00    -0.238 C  
HETATM    4  C   UNL     1      -9.901  10.287  64.970  1.00  0.00    -0.329 C  
HETATM    5  O   UNL     1     -11.067   9.495  64.755  1.00  0.00     1.992 OA 
HETATM    6  C   UNL     1     -10.244  11.729  64.595  1.00  0.00    -0.326 C  
HETATM    7  C   UNL     1      -8.988  12.520  64.338  1.00  0.00     1.408 C  
HETATM    8  H   UNL     1     -11.743   9.894  65.289  1.00  0.00     0.000 HD 
HETATM    9  H   UNL     1      -5.523   6.989  66.909  1.00  0.00     0.000 HD 
HETATM   10  C   UNL     1      -8.027  12.443  65.538  1.00  0.00     2.117 C  
HETATM   11  C   UNL     1      -8.234  11.301  66.604  1.00  0.00    -0.164 C  
HETATM   12  O   UNL     1      -6.012   7.722  66.553  1.00  0.00    -0.039 OA 
HETATM   13  C   UNL     1      -7.281   6.878  66.543  1.00  0.00    -0.072 C  
HETATM   14  O   UNL     1      -8.132  11.896  67.901  1.00  0.00    -0.130 OA 
HETATM   15  C   UNL     1      -9.484  10.297  66.477  1.00  0.00    -0.212 C  
HETATM   16  C   UNL     1      -9.205   8.762  66.824  1.00  0.00    -0.211 C  
HETATM   17  C   UNL     1      -6.474   5.632  66.172  1.00  0.00    -0.040 C  
HETATM   18  C   UNL     1      -5.588   5.505  67.570  1.00  0.00    -0.012 C  
HETATM   19  H   UNL     1      -8.258  11.207  68.544  1.00  0.00     0.000 HD 
HETATM   20  C   UNL     1      -8.227   4.819  68.177  1.00  0.00    -0.088 C  
HETATM   21  C   UNL     1      -6.372   6.391  68.670  1.00  0.00    -0.038 C  
HETATM   22  C   UNL     1      -9.044   8.508  68.315  1.00  0.00    -0.138 C  
HETATM   23  C   UNL     1      -7.761   6.338  68.000  1.00  0.00    -0.103 C  
HETATM   24  H   UNL     1      -7.844   8.985  69.848  1.00  0.00     0.000 HD 
HETATM   25  O   UNL     1      -7.945   9.144  68.916  1.00  0.00    -0.096 OA 
HETATM   26  C   UNL     1      -9.002   7.030  68.504  1.00  0.00    -0.122 C  
ENDROOT
BRANCH   7  27
HETATM   27  O   UNL     1      -9.425  13.833  64.016  1.00  0.00     1.093 OA 
BRANCH  27  28
HETATM   28  C   UNL     1     -10.216  14.531  64.973  1.00  0.00    -0.365 C  
HETATM   29  C   UNL     1     -10.346  16.439  66.683  1.00  0.00    -0.292 C  
HETATM   30  H   UNL     1     -10.401  18.681  65.514  1.00  0.00     0.000 HD 
HETATM   31  C   UNL     1     -13.109  15.052  65.582  1.00  0.00     0.898 C  
HETATM   32  O   UNL     1     -10.884  15.788  67.847  1.00  0.00    -0.296 OA 
HETATM   33  C   UNL     1      -9.420  15.473  65.922  1.00  0.00    -0.342 C  
HETATM   34  O   UNL     1      -8.671  14.720  66.901  1.00  0.00    -0.224 OA 
HETATM   35  H   UNL     1     -10.205  15.411  68.394  1.00  0.00     0.000 HD 
HETATM   36  O   UNL     1     -10.827  18.038  64.960  1.00  0.00    -0.738 OA 
HETATM   37  C   UNL     1     -11.442  17.045  65.802  1.00  0.00     1.086 C  
HETATM   38  H   UNL     1      -8.185  15.296  67.480  1.00  0.00     0.000 HD 
HETATM   39  C   UNL     1     -12.131  16.005  64.906  1.00  0.00     0.587 C  
HETATM   40  O   UNL     1     -11.140  15.283  64.178  1.00  0.00    -0.047 OA 
ENDBRANCH  27  28
ENDBRANCH   7  27
BRANCH  15  41
HETATM   41  C   UNL     1     -10.631  10.775  67.456  1.00  0.00    -0.237 C  
HETATM   42  H   UNL     1     -12.590  10.446  67.846  1.00  0.00     0.000 HD 
HETATM   43  O   UNL     1     -11.901  10.159  67.258  1.00  0.00     0.455 OA 
ENDBRANCH  15  41
BRANCH  21  44
HETATM   44  C   UNL     1      -6.278   6.234  70.138  1.00  0.00    -0.031 C  
HETATM   45  C   UNL     1      -6.825   5.882  72.289  1.00  0.00    -0.073 C  
HETATM   46  O   UNL     1      -7.487   5.903  73.311  1.00  0.00    -0.093 OA 
HETATM   47  O   UNL     1      -5.612   5.319  72.164  1.00  0.00    -0.015 OA 
HETATM   48  C   UNL     1      -5.180   5.492  70.812  1.00  0.00    -0.005 C  
HETATM   49  C   UNL     1      -7.259   6.448  71.019  1.00  0.00    -0.078 C  
ENDBRANCH  21  44
TORSDOF 4
ENDMDL
MODEL      104
REMARK 921   NORMALIZED FREE ENERGY PREDICTED BY IDOCK:    4.77 KCAL/MOL
REMARK 922        TOTAL FREE ENERGY PREDICTED BY IDOCK:    4.93 KCAL/MOL
REMARK 923 INTER-LIGAND FREE ENERGY PREDICTED BY IDOCK:    4.34 KCAL/MOL
REMARK 924 INTRA-LIGAND FREE ENERGY PREDICTED BY IDOCK:    0.59 KCAL/MOL
REMARK 927      BINDING AFFINITY PREDICTED BY RF-SCORE:    0.00 PKD
ROOT
HETATM    1  C   UNL     1      -8.506   9.258  67.009  1.00  0.00    -0.124 C  
HETATM    2  C   UNL     1      -8.016   9.529  65.590  1.00  0.00    -0.108 C  
HETATM    3  C   UNL     1      -7.647  11.028  65.459  1.00  0.00     0.177 C  
HETATM    4  C   UNL     1      -8.775  12.030  65.890  1.00  0.00     0.207 C  
HETATM    5  O   UNL     1      -9.863  11.776  65.003  1.00  0.00    -0.246 OA 
HETATM    6  C   UNL     1      -8.404  13.508  65.757  1.00  0.00     2.081 C  
HETATM    7  C   UNL     1      -7.010  13.749  66.274  1.00  0.00     3.635 C  
HETATM    8  H   UNL     1     -10.546  12.382  65.264  1.00  0.00     0.000 HD 
HETATM    9  H   UNL     1      -7.263   7.174  68.705  1.00  0.00     0.000 HD 
HETATM   10  C   UNL     1      -6.855  13.236  67.717  1.00  0.00    -0.154 C  
HETATM   11  C   UNL     1      -7.918  12.216  68.278  1.00  0.00    -0.163 C  
HETATM   12  O   UNL     1      -7.246   8.057  68.357  1.00  0.00    -0.084 OA 
HETATM   13  C   UNL     1      -8.535   7.786  67.590  1.00  0.00    -0.121 C  
HETATM   14  O   UNL     1      -8.289  12.654  69.589  1.00  0.00     0.628 OA 
HETATM   15  C   UNL     1      -9.184  11.796  67.380  1.00  0.00    -0.174 C  
HETATM   16  C   UNL     1      -9.623  10.261  67.438  1.00  0.00    -0.183 C  
HETATM   17  C   UNL     1      -8.099   6.344  67.326  1.00  0.00    -0.113 C  
HETATM   18  C   UNL     1      -8.119   5.804  68.896  1.00  0.00    -0.102 C  
HETATM   19  H   UNL     1      -8.930  12.039  69.926  1.00  0.00     0.000 HD 
HETATM   20  C   UNL     1     -10.770   6.188  68.100  1.00  0.00    -0.367 C  
HETATM   21  C   UNL     1      -9.014   6.870  69.716  1.00  0.00    -0.141 C  
HETATM   22  C   UNL     1     -10.315   9.887  68.740  1.00  0.00    -0.203 C  
HETATM   23  C   UNL     1      -9.819   7.406  68.513  1.00  0.00    -0.164 C  
HETATM   24  H   UNL     1      -9.956   9.771  70.708  1.00  0.00     0.000 HD 
HETATM   25  O   UNL     1      -9.523  10.004  69.895  1.00  0.00    -0.225 OA 
HETATM   26  C   UNL     1     -10.848   8.506  68.570  1.00  0.00     0.020 C  
ENDROOT
BRANCH   7  27
HETATM   27  O   UNL     1      -6.782  15.142  66.116  1.00  0.00     2.058 OA 
BRANCH  27  28
HETATM   28  C   UNL     1      -7.077  16.000  67.215  1.00  0.00    -0.203 C  
HETATM   29  C   UNL     1      -8.830  16.827  68.896  1.00  0.00    -0.228 C  
HETATM   30  H   UNL     1      -9.338  15.034  70.606  1.00  0.00     0.000 HD 
HETATM   31  C   UNL     1      -5.646  17.391  69.457  1.00  0.00    -0.207 C  
HETATM   32  O   UNL     1      -8.718  18.257  68.796  1.00  0.00    -0.300 OA 
HETATM   33  C   UNL     1      -8.592  16.183  67.517  1.00  0.00    -0.177 C  
HETATM   34  O   UNL     1      -9.227  17.022  66.527  1.00  0.00    -0.247 OA 
HETATM   35  H   UNL     1      -9.276  18.614  68.115  1.00  0.00     0.000 HD 
HETATM   36  O   UNL     1      -8.433  14.946  70.333  1.00  0.00     0.650 OA 
HETATM   37  C   UNL     1      -7.930  16.252  69.992  1.00  0.00     1.043 C  
HETATM   38  H   UNL     1     -10.152  17.133  66.712  1.00  0.00     0.000 HD 
HETATM   39  C   UNL     1      -6.466  16.110  69.551  1.00  0.00    -0.199 C  
HETATM   40  O   UNL     1      -6.414  15.384  68.325  1.00  0.00    -0.102 OA 
ENDBRANCH  27  28
ENDBRANCH   7  27
BRANCH  15  41
HETATM   41  C   UNL     1     -10.443  12.638  67.839  1.00  0.00    -0.218 C  
HETATM   42  H   UNL     1     -12.400  12.895  67.388  1.00  0.00     0.000 HD 
HETATM   43  O   UNL     1     -11.644  12.389  67.113  1.00  0.00    -0.333 OA 
ENDBRANCH  15  41
BRANCH  21  44
HETATM   44  C   UNL     1      -9.718   6.613  70.992  1.00  0.00    -0.185 C  
HETATM   45  C   UNL     1     -10.470   5.600  72.850  1.00  0.00    -0.214 C  
HETATM   46  O   UNL     1     -10.870   4.707  73.575  1.00  0.00    -0.230 OA 
HETATM   47  O   UNL     1     -10.278   6.875  73.228  1.00  0.00    -0.205 OA 
HETATM   48  C   UNL     1      -9.790   7.603  72.098  1.00  0.00    -0.178 C  
HETATM   49  C   UNL     1     -10.108   5.422  71.451  1.00  0.00    -0.262 C  
ENDBRANCH  21  44
TORSDOF 4
ENDMDL
MODEL      105
REMARK 921   NORMALIZED FREE ENERGY PREDICTED BY IDOCK:    4.96 KCAL/MOL
REMARK 922        TOTAL FREE ENERGY PREDICTED BY IDOCK:    5.17 KCAL/MOL
REMARK 923 INTER-LIGAND FREE ENERGY PREDICTED BY IDOCK:    5.62 KCAL/MOL
REMARK 924 INTRA-LIGAND FREE ENERGY PREDICTED BY IDOCK:   -0.46 KCAL/MOL
REMARK 927      BINDING AFFINITY PREDICTED BY RF-SCORE:    0.00 PKD
ROOT
HETATM    1  C   UNL     1      -7.381  13.087  69.597  1.00  0.00     0.622 C  
HETATM    2  C   UNL     1      -7.452  11.798  70.410  1.00  0.00     2.460 C  
HETATM    3  C   UNL     1      -7.737  10.612  69.453  1.00  0.00    -0.132 C  
HETATM    4  C   UNL     1      -8.992  10.791  68.527  1.00  0.00    -0.160 C  
HETATM    5  O   UNL     1     -10.102  10.904  69.415  1.00  0.00    -0.369 OA 
HETATM    6  C   UNL     1      -9.266   9.617  67.587  1.00  0.00    -0.144 C  
HETATM    7  C   UNL     1      -7.985   9.137  66.956  1.00  0.00    -0.102 C  
HETATM    8  H   UNL     1     -10.861  11.013  68.855  1.00  0.00     0.000 HD 
HETATM    9  H   UNL     1      -5.013  14.861  69.714  1.00  0.00     0.000 HD 
HETATM   10  C   UNL     1      -7.247  10.289  66.251  1.00  0.00    -0.117 C  
HETATM   11  C   UNL     1      -7.635  11.773  66.612  1.00  0.00    -0.005 C  
HETATM   12  O   UNL     1      -5.433  14.086  69.360  1.00  0.00    -0.082 OA 
HETATM   13  C   UNL     1      -6.681  14.380  70.186  1.00  0.00    -0.053 C  
HETATM   14  O   UNL     1      -7.759  12.498  65.385  1.00  0.00     1.788 OA 
HETATM   15  C   UNL     1      -8.842  12.065  67.633  1.00  0.00    -0.172 C  
HETATM   16  C   UNL     1      -8.626  13.260  68.671  1.00  0.00     0.026 C  
HETATM   17  C   UNL     1      -5.820  14.903  71.337  1.00  0.00     0.153 C  
HETATM   18  C   UNL     1      -5.190  16.233  70.570  1.00  0.00    -0.193 C  
HETATM   19  H   UNL     1      -7.993  13.393  65.603  1.00  0.00     0.000 HD 
HETATM   20  C   UNL     1      -7.894  16.740  71.056  1.00  0.00     5.470 C  
HETATM   21  C   UNL     1      -6.154  16.507  69.302  1.00  0.00    -0.174 C  
HETATM   22  C   UNL     1      -8.726  14.635  68.027  1.00  0.00    -0.167 C  
HETATM   23  C   UNL     1      -7.406  15.798  69.860  1.00  0.00     0.118 C  
HETATM   24  H   UNL     1      -7.810  15.773  66.656  1.00  0.00     0.000 HD 
HETATM   25  O   UNL     1      -7.748  14.915  67.058  1.00  0.00    -0.185 OA 
HETATM   26  C   UNL     1      -8.716  15.635  69.132  1.00  0.00    -0.251 C  
ENDROOT
BRANCH   7  27
HETATM   27  O   UNL     1      -8.361   8.066  66.102  1.00  0.00    -0.112 OA 
BRANCH  27  28
HETATM   28  C   UNL     1      -7.941   6.750  66.451  1.00  0.00    -0.106 C  
HETATM   29  C   UNL     1      -5.999   5.208  67.109  1.00  0.00    -0.026 C  
HETATM   30  H   UNL     1      -5.225   5.707  69.464  1.00  0.00     0.000 HD 
HETATM   31  C   UNL     1      -9.091   4.236  67.621  1.00  0.00    -0.156 C  
HETATM   32  O   UNL     1      -6.157   4.096  66.211  1.00  0.00    -0.029 OA 
HETATM   33  C   UNL     1      -6.404   6.515  66.402  1.00  0.00    -0.042 C  
HETATM   34  O   UNL     1      -5.927   6.444  65.041  1.00  0.00    -0.028 OA 
HETATM   35  H   UNL     1      -5.703   4.233  65.387  1.00  0.00     0.000 HD 
HETATM   36  O   UNL     1      -6.156   5.883  69.406  1.00  0.00    -0.026 OA 
HETATM   37  C   UNL     1      -6.731   4.988  68.435  1.00  0.00    -0.054 C  
HETATM   38  H   UNL     1      -4.988   6.300  65.011  1.00  0.00     0.000 HD 
HETATM   39  C   UNL     1      -8.237   5.273  68.342  1.00  0.00    -0.090 C  
HETATM   40  O   UNL     1      -8.436   6.569  67.783  1.00  0.00    -0.118 OA 
ENDBRANCH  27  28
ENDBRANCH   7  27
BRANCH  15  41
HETATM   41  C   UNL     1     -10.142  12.422  66.805  1.00  0.00    -0.214 C  
HETATM   42  H   UNL     1     -12.108  11.952  66.703  1.00  0.00     0.000 HD 
HETATM   43  O   UNL     1     -11.327  11.737  67.201  1.00  0.00    -0.302 OA 
ENDBRANCH  15  41
BRANCH  21  44
HETATM   44  C   UNL     1      -6.316  17.798  68.599  1.00  0.00    -0.197 C  
HETATM   45  C   UNL     1      -7.185  19.472  67.378  1.00  0.00    -0.215 C  
HETATM   46  O   UNL     1      -7.827  20.027  66.504  1.00  0.00    -0.290 OA 
HETATM   47  O   UNL     1      -6.482  20.098  68.337  1.00  0.00    -0.276 OA 
HETATM   48  C   UNL     1      -5.889  19.101  69.174  1.00  0.00    -0.226 C  
HETATM   49  C   UNL     1      -7.099  18.028  67.541  1.00  0.00    -0.201 C  
ENDBRANCH  21  44
TORSDOF 4
ENDMDL
MODEL      106
REMARK 921   NORMALIZED FREE ENERGY PREDICTED BY IDOCK:    5.24 KCAL/MOL
REMARK 922        TOTAL FREE ENERGY PREDICTED BY IDOCK:    5.51 KCAL/MOL
REMARK 923 INTER-LIGAND FREE ENERGY PREDICTED BY IDOCK:    3.40 KCAL/MOL
REMARK 924 INTRA-LIGAND FREE ENERGY PREDICTED BY IDOCK:    2.11 KCAL/MOL
REMARK 927      BINDING AFFINITY PREDICTED BY RF-SCORE:    0.00 PKD
ROOT
HETATM    1  C   UNL     1     -11.977  10.049  70.298  1.00  0.00    -0.264 C  
HETATM    2  C   UNL     1     -12.751   8.735  70.343  1.00  0.00     0.707 C  
HETATM    3  C   UNL     1     -11.751   7.564  70.520  1.00  0.00    -0.183 C  
HETATM    4  C   UNL     1     -10.585   7.521  69.470  1.00  0.00    -0.236 C  
HETATM    5  O   UNL     1     -11.223   7.354  68.205  1.00  0.00    -0.443 OA 
HETATM    6  C   UNL     1      -9.603   6.363  69.652  1.00  0.00    -0.157 C  
HETATM    7  C   UNL     1      -9.250   6.195  71.106  1.00  0.00    -0.153 C  
HETATM    8  H   UNL     1     -10.518   7.329  67.570  1.00  0.00     0.000 HD 
HETATM    9  H   UNL     1     -12.592  12.273  72.153  1.00  0.00     0.000 HD 
HETATM   10  C   UNL     1      -8.719   7.509  71.706  1.00  0.00    -0.128 C  
HETATM   11  C   UNL     1      -8.999   8.859  70.942  1.00  0.00    -0.222 C  
HETATM   12  O   UNL     1     -12.155  11.445  71.990  1.00  0.00     0.595 OA 
HETATM   13  C   UNL     1     -12.704  11.429  70.568  1.00  0.00    -0.137 C  
HETATM   14  O   UNL     1      -7.775   9.602  70.915  1.00  0.00    -0.314 OA 
HETATM   15  C   UNL     1      -9.747   8.840  69.519  1.00  0.00    -0.172 C  
HETATM   16  C   UNL     1     -10.813  10.001  69.258  1.00  0.00    -0.261 C  
HETATM   17  C   UNL     1     -14.012  12.064  71.045  1.00  0.00     2.288 C  
HETATM   18  C   UNL     1     -13.398  13.533  71.515  1.00  0.00    -0.363 C  
HETATM   19  H   UNL     1      -7.944  10.415  70.454  1.00  0.00     0.000 HD 
HETATM   20  C   UNL     1     -13.314  13.437  68.724  1.00  0.00     3.669 C  
HETATM   21  C   UNL     1     -11.959  13.661  70.792  1.00  0.00    -0.286 C  
HETATM   22  C   UNL     1     -10.169  11.355  68.996  1.00  0.00    -0.117 C  
HETATM   23  C   UNL     1     -12.241  12.678  69.636  1.00  0.00    -0.177 C  
HETATM   24  H   UNL     1      -9.023  12.726  69.902  1.00  0.00     0.000 HD 
HETATM   25  O   UNL     1      -9.426  11.881  70.066  1.00  0.00     1.953 OA 
HETATM   26  C   UNL     1     -11.256  12.279  68.567  1.00  0.00    -0.316 C  
ENDROOT
BRANCH   7  27
HETATM   27  O   UNL     1      -8.332   5.112  71.151  1.00  0.00    -0.116 OA 
BRANCH  27  28
HETATM   28  C   UNL     1      -8.177   4.314  69.981  1.00  0.00    -0.062 C  
HETATM   29  C   UNL     1      -9.261   2.687  68.320  1.00  0.00    -0.201 C  
HETATM   30  H   UNL     1     -10.936   3.892  66.857  1.00  0.00     0.000 HD 
HETATM   31  C   UNL     1      -6.467   4.208  67.516  1.00  0.00    -0.038 C  
HETATM   32  O   UNL     1      -8.303   1.617  68.250  1.00  0.00    -0.056 OA 
HETATM   33  C   UNL     1      -9.301   3.264  69.747  1.00  0.00    -0.159 C  
HETATM   34  O   UNL     1      -9.186   2.159  70.670  1.00  0.00    -0.095 OA 
HETATM   35  H   UNL     1      -8.452   0.957  68.916  1.00  0.00     0.000 HD 
HETATM   36  O   UNL     1     -10.241   4.497  67.086  1.00  0.00    -0.158 OA 
HETATM   37  C   UNL     1      -9.020   3.751  67.246  1.00  0.00    -0.140 C  
HETATM   38  H   UNL     1      -9.873   1.518  70.527  1.00  0.00     0.000 HD 
HETATM   39  C   UNL     1      -7.896   4.729  67.616  1.00  0.00    -0.090 C  
HETATM   40  O   UNL     1      -8.149   5.267  68.911  1.00  0.00    -0.085 OA 
ENDBRANCH  27  28
ENDBRANCH   7  27
BRANCH  15  41
HETATM   41  C   UNL     1      -8.668   8.957  68.368  1.00  0.00    -0.134 C  
HETATM   42  H   UNL     1      -8.524   8.891  66.350  1.00  0.00     0.000 HD 
HETATM   43  O   UNL     1      -9.172   8.820  67.041  1.00  0.00    -0.135 OA 
ENDBRANCH  15  41
BRANCH  21  44
HETATM   44  C   UNL     1     -11.243  14.922  70.501  1.00  0.00    -0.243 C  
HETATM   45  C   UNL     1     -10.494  16.760  69.448  1.00  0.00    -0.312 C  
HETATM   46  O   UNL     1     -10.113  17.471  68.536  1.00  0.00    -0.319 OA 
HETATM   47  O   UNL     1     -10.636  17.151  70.725  1.00  0.00     0.645 OA 
HETATM   48  C   UNL     1     -11.119  16.035  71.479  1.00  0.00     0.065 C  
HETATM   49  C   UNL     1     -10.885  15.366  69.293  1.00  0.00    -0.253 C  
ENDBRANCH  21  44
TORSDOF 4
ENDMDL
MODEL      107
REMARK 921   NORMALIZED FREE ENERGY PREDICTED BY IDOCK:    6.24 KCAL/MOL
REMARK 922        TOTAL FREE ENERGY PREDICTED BY IDOCK:    6.75 KCAL/MOL
REMARK 923 INTER-LIGAND FREE ENERGY PREDICTED BY IDOCK:    7.05 KCAL/MOL
REMARK 924 INTRA-LIGAND FREE ENERGY PREDICTED BY IDOCK:   -0.30 KCAL/MOL
REMARK 927      BINDING AFFINITY PREDICTED BY RF-SCORE:    0.00 PKD
ROOT
HETATM    1  C   UNL     1      -7.164  13.678  68.204  1.00  0.00    -0.117 C  
HETATM    2  C   UNL     1      -5.659  13.675  67.959  1.00  0.00    -0.125 C  
HETATM    3  C   UNL     1      -5.281  12.412  67.145  1.00  0.00    -0.009 C  
HETATM    4  C   UNL     1      -5.777  11.054  67.757  1.00  0.00    -0.042 C  
HETATM    5  O   UNL     1      -5.134  10.956  69.027  1.00  0.00    -0.042 OA 
HETATM    6  C   UNL     1      -5.400   9.812  66.948  1.00  0.00    -0.041 C  
HETATM    7  C   UNL     1      -5.630  10.051  65.479  1.00  0.00    -0.068 C  
HETATM    8  H   UNL     1      -5.435  10.135  69.397  1.00  0.00     0.000 HD 
HETATM    9  H   UNL     1      -8.858  15.972  67.407  1.00  0.00     0.000 HD 
HETATM   10  C   UNL     1      -7.075  10.506  65.208  1.00  0.00    -0.047 C  
HETATM   11  C   UNL     1      -7.935  11.054  66.409  1.00  0.00    -0.161 C  
HETATM   12  O   UNL     1      -8.406  15.172  67.168  1.00  0.00    -0.188 OA 
HETATM   13  C   UNL     1      -7.919  15.012  68.603  1.00  0.00    -0.153 C  
HETATM   14  O   UNL     1      -9.227  10.443  66.330  1.00  0.00    -0.157 OA 
HETATM   15  C   UNL     1      -7.334  11.048  67.900  1.00  0.00    -0.092 C  
HETATM   16  C   UNL     1      -7.657  12.324  68.806  1.00  0.00    -0.044 C  
HETATM   17  C   UNL     1      -7.761  16.527  68.740  1.00  0.00    -0.226 C  
HETATM   18  C   UNL     1      -9.364  16.939  68.612  1.00  0.00    -0.268 C  
HETATM   19  H   UNL     1      -9.745  10.773  67.055  1.00  0.00     0.000 HD 
HETATM   20  C   UNL     1      -9.007  15.689  71.085  1.00  0.00     3.326 C  
HETATM   21  C   UNL     1     -10.192  15.583  68.907  1.00  0.00    -0.210 C  
HETATM   22  C   UNL     1      -9.097  12.359  69.296  1.00  0.00     0.934 C  
HETATM   23  C   UNL     1      -9.093  14.864  69.718  1.00  0.00     0.201 C  
HETATM   24  H   UNL     1     -10.969  12.488  68.594  1.00  0.00     0.000 HD 
HETATM   25  O   UNL     1     -10.070  12.466  68.288  1.00  0.00    -0.217 OA 
HETATM   26  C   UNL     1      -9.195  13.470  70.284  1.00  0.00     3.744 C  
ENDROOT
BRANCH   7  27
HETATM   27  O   UNL     1      -5.263   8.839  64.836  1.00  0.00    -0.038 OA 
BRANCH  27  28
HETATM   28  C   UNL     1      -6.124   7.713  64.984  1.00  0.00    -0.038 C  
HETATM   29  C   UNL     1      -7.558   5.928  63.827  1.00  0.00    -0.082 C  
HETATM   30  H   UNL     1      -6.094   4.220  62.670  1.00  0.00     0.000 HD 
HETATM   31  C   UNL     1      -6.686   5.529  66.965  1.00  0.00    -0.062 C  
HETATM   32  O   UNL     1      -8.806   6.012  64.538  1.00  0.00    -0.355 OA 
HETATM   33  C   UNL     1      -6.926   7.327  63.708  1.00  0.00    -0.058 C  
HETATM   34  O   UNL     1      -7.992   8.269  63.454  1.00  0.00    -0.150 OA 
HETATM   35  H   UNL     1      -9.392   6.656  64.159  1.00  0.00     0.000 HD 
HETATM   36  O   UNL     1      -5.637   4.543  63.438  1.00  0.00    -0.012 OA 
HETATM   37  C   UNL     1      -6.614   4.890  64.438  1.00  0.00    -0.043 C  
HETATM   38  H   UNL     1      -8.482   8.033  62.674  1.00  0.00     0.000 HD 
HETATM   39  C   UNL     1      -5.876   5.411  65.680  1.00  0.00    -0.021 C  
HETATM   40  O   UNL     1      -5.243   6.649  65.364  1.00  0.00    -0.020 OA 
ENDBRANCH  27  28
ENDBRANCH   7  27
BRANCH  15  41
HETATM   41  C   UNL     1      -7.901   9.793  68.679  1.00  0.00    -0.081 C  
HETATM   42  H   UNL     1      -7.886   8.963  70.526  1.00  0.00     0.000 HD 
HETATM   43  O   UNL     1      -7.546   9.717  70.058  1.00  0.00    -0.109 OA 
ENDBRANCH  15  41
BRANCH  21  44
HETATM   44  C   UNL     1     -11.593  15.506  69.374  1.00  0.00    -0.366 C  
HETATM   45  C   UNL     1     -13.438  15.710  70.640  1.00  0.00     0.133 C  
HETATM   46  O   UNL     1     -14.130  15.748  71.641  1.00  0.00    -0.453 OA 
HETATM   47  O   UNL     1     -13.880  15.901  69.386  1.00  0.00     1.881 OA 
HETATM   48  C   UNL     1     -12.762  15.793  68.501  1.00  0.00     1.343 C  
HETATM   49  C   UNL     1     -12.001  15.474  70.645  1.00  0.00    -0.416 C  
ENDBRANCH  21  44
TORSDOF 4
ENDMDL
MODEL      108
REMARK 921   NORMALIZED FREE ENERGY PREDICTED BY IDOCK:    6.59 KCAL/MOL
REMARK 922        TOTAL FREE ENERGY PREDICTED BY IDOCK:    7.18 KCAL/MOL
REMARK 923 INTER-LIGAND FREE ENERGY PREDICTED BY IDOCK:    7.20 KCAL/MOL
REMARK 924 INTRA-LIGAND FREE ENERGY PREDICTED BY IDOCK:   -0.02 KCAL/MOL
REMARK 927      BINDING AFFINITY PREDICTED BY RF-SCORE:    0.00 PKD
ROOT
HETATM    1  C   UNL     1      -7.711  12.285  68.145  1.00  0.00    -0.138 C  
HETATM    2  C   UNL     1      -6.420  11.671  67.613  1.00  0.00    -0.075 C  
HETATM    3  C   UNL     1      -6.715  10.242  67.093  1.00  0.00    -0.078 C  
HETATM    4  C   UNL     1      -7.434   9.297  68.119  1.00  0.00    -0.083 C  
HETATM    5  O   UNL     1      -6.531   9.176  69.217  1.00  0.00    -0.044 OA 
HETATM    6  C   UNL     1      -7.722   7.888  67.599  1.00  0.00    -0.117 C  
HETATM    7  C   UNL     1      -8.261   7.946  66.193  1.00  0.00    -0.117 C  
HETATM    8  H   UNL     1      -6.966   8.605  69.838  1.00  0.00     0.000 HD 
HETATM    9  H   UNL     1      -8.720  14.881  67.139  1.00  0.00     0.000 HD 
HETATM   10  C   UNL     1      -9.495   8.862  66.108  1.00  0.00    -0.318 C  
HETATM   11  C   UNL     1      -9.760   9.888  67.275  1.00  0.00    -0.171 C  
HETATM   12  O   UNL     1      -8.638  13.941  67.028  1.00  0.00    -0.216 OA 
HETATM   13  C   UNL     1      -7.849  13.852  68.330  1.00  0.00    -0.146 C  
HETATM   14  O   UNL     1     -11.148   9.807  67.615  1.00  0.00    -0.449 OA 
HETATM   15  C   UNL     1      -8.803   9.904  68.567  1.00  0.00    -0.122 C  
HETATM   16  C   UNL     1      -8.428  11.340  69.160  1.00  0.00     0.088 C  
HETATM   17  C   UNL     1      -7.177  15.194  68.038  1.00  0.00    -0.137 C  
HETATM   18  C   UNL     1      -8.527  16.155  68.131  1.00  0.00    -0.175 C  
HETATM   19  H   UNL     1     -11.308  10.425  68.319  1.00  0.00     0.000 HD 
HETATM   20  C   UNL     1      -7.922  15.296  70.720  1.00  0.00     1.840 C  
HETATM   21  C   UNL     1      -9.633  15.283  68.923  1.00  0.00    -0.220 C  
HETATM   22  C   UNL     1      -9.582  11.999  69.901  1.00  0.00     2.302 C  
HETATM   23  C   UNL     1      -8.648  14.348  69.656  1.00  0.00     0.549 C  
HETATM   24  H   UNL     1     -11.428  12.707  69.578  1.00  0.00     0.000 HD 
HETATM   25  O   UNL     1     -10.708  12.296  69.115  1.00  0.00    -0.163 OA 
HETATM   26  C   UNL     1      -9.034  13.213  70.569  1.00  0.00     6.101 C  
ENDROOT
BRANCH   7  27
HETATM   27  O   UNL     1      -8.503   6.595  65.824  1.00  0.00    -0.141 OA 
BRANCH  27  28
HETATM   28  C   UNL     1      -7.648   6.003  64.850  1.00  0.00    -0.092 C  
HETATM   29  C   UNL     1      -5.245   5.478  64.122  1.00  0.00    -0.010 C  
HETATM   30  H   UNL     1      -4.241   3.682  65.592  1.00  0.00     0.000 HD 
HETATM   31  C   UNL     1      -7.749   3.875  62.735  1.00  0.00    -0.061 C  
HETATM   32  O   UNL     1      -5.219   5.929  62.756  1.00  0.00    -0.016 OA 
HETATM   33  C   UNL     1      -6.148   6.399  64.962  1.00  0.00    -0.030 C  
HETATM   34  O   UNL     1      -5.929   7.755  64.515  1.00  0.00    -0.041 OA 
HETATM   35  H   UNL     1      -4.987   6.847  62.686  1.00  0.00     0.000 HD 
HETATM   36  O   UNL     1      -5.176   3.531  65.523  1.00  0.00    -0.008 OA 
HETATM   37  C   UNL     1      -5.620   3.999  64.235  1.00  0.00    -0.014 C  
HETATM   38  H   UNL     1      -5.013   7.997  64.585  1.00  0.00     0.000 HD 
HETATM   39  C   UNL     1      -7.132   3.755  64.123  1.00  0.00    -0.050 C  
HETATM   40  O   UNL     1      -7.813   4.594  65.054  1.00  0.00    -0.090 OA 
ENDBRANCH  27  28
ENDBRANCH   7  27
BRANCH  15  41
HETATM   41  C   UNL     1      -9.506   9.107  69.739  1.00  0.00    -0.182 C  
HETATM   42  H   UNL     1     -10.703   7.502  70.038  1.00  0.00     0.000 HD 
HETATM   43  O   UNL     1     -10.281   7.981  69.334  1.00  0.00    -0.200 OA 
ENDBRANCH  15  41
BRANCH  21  44
HETATM   44  C   UNL     1     -10.795  15.822  69.664  1.00  0.00    -0.300 C  
HETATM   45  C   UNL     1     -12.820  16.010  70.619  1.00  0.00     0.322 C  
HETATM   46  O   UNL     1     -14.020  15.871  70.775  1.00  0.00    -0.117 OA 
HETATM   47  O   UNL     1     -11.999  16.651  71.466  1.00  0.00    -0.125 OA 
HETATM   48  C   UNL     1     -10.672  16.579  70.937  1.00  0.00     0.571 C  
HETATM   49  C   UNL     1     -12.073  15.473  69.490  1.00  0.00    -0.326 C  
ENDBRANCH  21  44
TORSDOF 4
ENDMDL
MODEL      109
REMARK 921   NORMALIZED FREE ENERGY PREDICTED BY IDOCK:    7.47 KCAL/MOL
REMARK 922        TOTAL FREE ENERGY PREDICTED BY IDOCK:    8.26 KCAL/MOL
REMARK 923 INTER-LIGAND FREE ENERGY PREDICTED BY IDOCK:    7.02 KCAL/MOL
REMARK 924 INTRA-LIGAND FREE ENERGY PREDICTED BY IDOCK:    1.24 KCAL/MOL
REMARK 927      BINDING AFFINITY PREDICTED BY RF-SCORE:    0.00 PKD
ROOT
HETATM    1  C   UNL     1     -10.395  13.652  70.087  1.00  0.00     1.508 C  
HETATM    2  C   UNL     1     -11.061  12.773  71.140  1.00  0.00     3.290 C  
HETATM    3  C   UNL     1     -10.386  11.377  71.134  1.00  0.00     4.855 C  
HETATM    4  C   UNL     1     -10.329  10.673  69.733  1.00  0.00    -0.100 C  
HETATM    5  O   UNL     1     -11.690  10.493  69.346  1.00  0.00    -0.350 OA 
HETATM    6  C   UNL     1      -9.661   9.297  69.735  1.00  0.00    -0.202 C  
HETATM    7  C   UNL     1      -8.405   9.322  70.565  1.00  0.00    -0.205 C  
HETATM    8  H   UNL     1     -11.655  10.067  68.498  1.00  0.00     0.000 HD 
HETATM    9  H   UNL     1      -9.230  16.285  70.780  1.00  0.00     0.000 HD 
HETATM   10  C   UNL     1      -7.449  10.433  70.093  1.00  0.00     0.005 C  
HETATM   11  C   UNL     1      -8.019  11.591  69.189  1.00  0.00     0.108 C  
HETATM   12  O   UNL     1      -9.145  15.339  70.749  1.00  0.00     1.058 OA 
HETATM   13  C   UNL     1     -10.537  15.229  70.138  1.00  0.00    -0.257 C  
HETATM   14  O   UNL     1      -7.100  11.790  68.111  1.00  0.00    -0.071 OA 
HETATM   15  C   UNL     1      -9.551  11.553  68.701  1.00  0.00    -0.159 C  
HETATM   16  C   UNL     1     -10.333  12.947  68.695  1.00  0.00    -0.202 C  
HETATM   17  C   UNL     1     -11.027  16.398  70.995  1.00  0.00     0.157 C  
HETATM   18  C   UNL     1     -10.087  17.588  70.321  1.00  0.00     1.308 C  
HETATM   19  H   UNL     1      -7.444  12.488  67.565  1.00  0.00     0.000 HD 
HETATM   20  C   UNL     1     -12.022  16.873  68.437  1.00  0.00     1.045 C  
HETATM   21  C   UNL     1      -9.588  17.004  68.900  1.00  0.00    -0.248 C  
HETATM   22  C   UNL     1      -9.905  13.865  67.560  1.00  0.00    -0.236 C  
HETATM   23  C   UNL     1     -10.725  15.978  68.707  1.00  0.00    -0.282 C  
HETATM   24  H   UNL     1      -8.299  14.860  66.893  1.00  0.00     0.000 HD 
HETATM   25  O   UNL     1      -8.566  14.286  67.602  1.00  0.00    -0.162 OA 
HETATM   26  C   UNL     1     -10.850  15.017  67.553  1.00  0.00    -0.297 C  
ENDROOT
BRANCH   7  27
HETATM   27  O   UNL     1      -7.869   8.009  70.483  1.00  0.00    -0.089 OA 
BRANCH  27  28
HETATM   28  C   UNL     1      -8.754   6.910  70.681  1.00  0.00    -0.149 C  
HETATM   29  C   UNL     1      -9.145   4.626  71.783  1.00  0.00    -0.135 C  
HETATM   30  H   UNL     1      -9.464   4.885  74.279  1.00  0.00     0.000 HD 
HETATM   31  C   UNL     1     -11.697   6.323  70.611  1.00  0.00    -0.285 C  
HETATM   32  O   UNL     1      -9.612   3.819  70.688  1.00  0.00    -0.167 OA 
HETATM   33  C   UNL     1      -8.095   5.635  71.281  1.00  0.00    -0.114 C  
HETATM   34  O   UNL     1      -7.271   4.961  70.305  1.00  0.00    -0.048 OA 
HETATM   35  H   UNL     1      -8.898   3.412  70.212  1.00  0.00     0.000 HD 
HETATM   36  O   UNL     1      -9.799   5.662  73.847  1.00  0.00    -0.160 OA 
HETATM   37  C   UNL     1     -10.296   5.284  72.549  1.00  0.00    -0.201 C  
HETATM   38  H   UNL     1      -6.868   4.183  70.672  1.00  0.00     0.000 HD 
HETATM   39  C   UNL     1     -10.837   6.540  71.850  1.00  0.00    -0.237 C  
HETATM   40  O   UNL     1      -9.755   7.424  71.568  1.00  0.00    -0.160 OA 
ENDBRANCH  27  28
ENDBRANCH   7  27
BRANCH  15  41
HETATM   41  C   UNL     1      -9.606  11.004  67.219  1.00  0.00    -0.165 C  
HETATM   42  H   UNL     1      -8.929  11.445  65.363  1.00  0.00     0.000 HD 
HETATM   43  O   UNL     1      -8.896  11.775  66.253  1.00  0.00    -0.195 OA 
ENDBRANCH  15  41
BRANCH  21  44
HETATM   44  C   UNL     1      -9.143  17.806  67.739  1.00  0.00    -0.249 C  
HETATM   45  C   UNL     1      -7.901  18.614  66.050  1.00  0.00    -0.156 C  
HETATM   46  O   UNL     1      -6.910  18.960  65.433  1.00  0.00    -0.424 OA 
HETATM   47  O   UNL     1      -9.159  18.655  65.580  1.00  0.00    -0.022 OA 
HETATM   48  C   UNL     1     -10.029  18.150  66.596  1.00  0.00    -0.362 C  
HETATM   49  C   UNL     1      -7.878  18.069  67.401  1.00  0.00    -0.223 C  
ENDBRANCH  21  44
TORSDOF 4
ENDMDL
MODEL      110
REMARK 921   NORMALIZED FREE ENERGY PREDICTED BY IDOCK:    8.04 KCAL/MOL
REMARK 922        TOTAL FREE ENERGY PREDICTED BY IDOCK:    8.97 KCAL/MOL
REMARK 923 INTER-LIGAND FREE ENERGY PREDICTED BY IDOCK:    7.24 KCAL/MOL
REMARK 924 INTRA-LIGAND FREE ENERGY PREDICTED BY IDOCK:    1.73 KCAL/MOL
REMARK 927      BINDING AFFINITY PREDICTED BY RF-SCORE:    0.00 PKD
ROOT
HETATM    1  C   UNL     1     -10.868   9.855  70.342  1.00  0.00    -0.380 C  
HETATM    2  C   UNL     1     -11.522  10.738  71.400  1.00  0.00     0.582 C  
HETATM    3  C   UNL     1     -11.885  12.104  70.765  1.00  0.00     0.082 C  
HETATM    4  C   UNL     1     -10.700  12.836  70.041  1.00  0.00     1.140 C  
HETATM    5  O   UNL     1      -9.730  13.079  71.059  1.00  0.00     6.246 OA 
HETATM    6  C   UNL     1     -11.066  14.183  69.417  1.00  0.00    -0.261 C  
HETATM    7  C   UNL     1     -12.384  14.089  68.695  1.00  0.00    -0.008 C  
HETATM    8  H   UNL     1      -9.013  13.522  70.620  1.00  0.00     0.000 HD 
HETATM    9  H   UNL     1     -11.924   7.163  69.705  1.00  0.00     0.000 HD 
HETATM   10  C   UNL     1     -12.371  12.951  67.659  1.00  0.00     0.188 C  
HETATM   11  C   UNL     1     -11.261  11.837  67.770  1.00  0.00    -0.266 C  
HETATM   12  O   UNL     1     -11.972   8.104  69.591  1.00  0.00     0.668 OA 
HETATM   13  C   UNL     1     -10.788   8.285  70.533  1.00  0.00    -0.232 C  
HETATM   14  O   UNL     1     -10.730  11.623  66.458  1.00  0.00    -0.249 OA 
HETATM   15  C   UNL     1     -10.118  11.947  68.895  1.00  0.00    -0.060 C  
HETATM   16  C   UNL     1      -9.695  10.587  69.619  1.00  0.00    -0.092 C  
HETATM   17  C   UNL     1     -11.271   7.118  71.396  1.00  0.00    -0.278 C  
HETATM   18  C   UNL     1     -11.069   5.905  70.282  1.00  0.00    -0.368 C  
HETATM   19  H   UNL     1     -10.061  10.952  66.526  1.00  0.00     0.000 HD 
HETATM   20  C   UNL     1      -8.529   6.739  71.093  1.00  0.00    -0.125 C  
HETATM   21  C   UNL     1     -10.068   6.500  69.161  1.00  0.00    -0.190 C  
HETATM   22  C   UNL     1      -8.856   9.677  68.734  1.00  0.00    -0.130 C  
HETATM   23  C   UNL     1      -9.407   7.575  70.049  1.00  0.00    -0.154 C  
HETATM   24  H   UNL     1      -8.977   8.632  67.029  1.00  0.00     0.000 HD 
HETATM   25  O   UNL     1      -9.501   9.201  67.581  1.00  0.00    -0.137 OA 
HETATM   26  C   UNL     1      -8.365   8.564  69.596  1.00  0.00    -0.121 C  
ENDROOT
BRANCH   7  27
HETATM   27  O   UNL     1     -12.612  15.380  68.150  1.00  0.00     0.524 OA 
BRANCH  27  28
HETATM   28  C   UNL     1     -12.408  15.565  66.752  1.00  0.00     1.213 C  
HETATM   29  C   UNL     1     -10.732  15.947  64.848  1.00  0.00    -0.341 C  
HETATM   30  H   UNL     1      -9.380  13.853  64.418  1.00  0.00     0.000 HD 
HETATM   31  C   UNL     1     -13.772  14.925  64.155  1.00  0.00     3.596 C  
HETATM   32  O   UNL     1     -11.307  17.056  64.135  1.00  0.00    -1.292 OA 
HETATM   33  C   UNL     1     -11.001  16.097  66.357  1.00  0.00    -0.036 C  
HETATM   34  O   UNL     1     -10.855  17.494  66.691  1.00  0.00    -0.153 OA 
HETATM   35  H   UNL     1     -11.024  17.893  64.484  1.00  0.00     0.000 HD 
HETATM   36  O   UNL     1     -10.245  13.601  64.718  1.00  0.00    -0.392 OA 
HETATM   37  C   UNL     1     -11.189  14.599  64.285  1.00  0.00    -0.039 C  
HETATM   38  H   UNL     1      -9.995  17.819  66.450  1.00  0.00     0.000 HD 
HETATM   39  C   UNL     1     -12.587  14.191  64.771  1.00  0.00    -0.302 C  
HETATM   40  O   UNL     1     -12.629  14.264  66.194  1.00  0.00    -0.436 OA 
ENDBRANCH  27  28
ENDBRANCH   7  27
BRANCH  15  41
HETATM   41  C   UNL     1      -8.803  12.530  68.236  1.00  0.00    -0.171 C  
HETATM   42  H   UNL     1      -8.179  14.097  67.115  1.00  0.00     0.000 HD 
HETATM   43  O   UNL     1      -8.969  13.746  67.511  1.00  0.00    -0.181 OA 
ENDBRANCH  15  41
BRANCH  21  44
HETATM   44  C   UNL     1      -9.220   5.705  68.246  1.00  0.00    -0.116 C  
HETATM   45  C   UNL     1      -7.693   4.251  67.470  1.00  0.00    -0.084 C  
HETATM   46  O   UNL     1      -6.661   3.606  67.419  1.00  0.00    -0.041 OA 
HETATM   47  O   UNL     1      -8.700   4.171  66.584  1.00  0.00    -0.111 OA 
HETATM   48  C   UNL     1      -9.731   5.070  67.003  1.00  0.00    -0.165 C  
HETATM   49  C   UNL     1      -8.015   5.201  68.526  1.00  0.00    -0.086 C  
ENDBRANCH  21  44
TORSDOF 4
ENDMDL
MODEL      111
REMARK 921   NORMALIZED FREE ENERGY PREDICTED BY IDOCK:    8.34 KCAL/MOL
REMARK 922        TOTAL FREE ENERGY PREDICTED BY IDOCK:    9.33 KCAL/MOL
REMARK 923 INTER-LIGAND FREE ENERGY PREDICTED BY IDOCK:    8.29 KCAL/MOL
REMARK 924 INTRA-LIGAND FREE ENERGY PREDICTED BY IDOCK:    1.05 KCAL/MOL
REMARK 927      BINDING AFFINITY PREDICTED BY RF-SCORE:    0.00 PKD
ROOT
HETATM    1  C   UNL     1     -11.694  14.911  68.865  1.00  0.00    -0.343 C  
HETATM    2  C   UNL     1     -12.594  16.143  68.865  1.00  0.00     1.122 C  
HETATM    3  C   UNL     1     -11.925  17.258  68.022  1.00  0.00     1.615 C  
HETATM    4  C   UNL     1     -10.451  17.609  68.434  1.00  0.00    -0.359 C  
HETATM    5  O   UNL     1     -10.538  18.079  69.778  1.00  0.00    -0.164 OA 
HETATM    6  C   UNL     1      -9.798  18.710  67.598  1.00  0.00    -0.351 C  
HETATM    7  C   UNL     1     -10.093  18.506  66.135  1.00  0.00    -0.368 C  
HETATM    8  H   UNL     1      -9.646  18.290  70.027  1.00  0.00     0.000 HD 
HETATM    9  H   UNL     1     -12.695  12.263  67.995  1.00  0.00     0.000 HD 
HETATM   10  C   UNL     1      -9.674  17.099  65.674  1.00  0.00     0.078 C  
HETATM   11  C   UNL     1      -9.430  15.985  66.762  1.00  0.00    -0.231 C  
HETATM   12  O   UNL     1     -12.349  13.118  67.767  1.00  0.00    -0.161 OA 
HETATM   13  C   UNL     1     -12.270  13.486  69.245  1.00  0.00    -0.211 C  
HETATM   14  O   UNL     1      -8.211  15.314  66.428  1.00  0.00    -0.368 OA 
HETATM   15  C   UNL     1      -9.531  16.349  68.325  1.00  0.00    -0.217 C  
HETATM   16  C   UNL     1     -10.228  15.263  69.268  1.00  0.00    -0.250 C  
HETATM   17  C   UNL     1     -13.557  12.708  69.527  1.00  0.00     3.830 C  
HETATM   18  C   UNL     1     -12.990  11.188  69.178  1.00  0.00     1.331 C  
HETATM   19  H   UNL     1      -8.063  14.643  67.084  1.00  0.00     0.000 HD 
HETATM   20  C   UNL     1     -11.794  12.008  71.566  1.00  0.00     1.281 C  
HETATM   21  C   UNL     1     -11.379  11.297  69.225  1.00  0.00    -0.354 C  
HETATM   22  C   UNL     1      -9.352  14.045  69.521  1.00  0.00     0.750 C  
HETATM   23  C   UNL     1     -11.300  12.537  70.140  1.00  0.00     0.170 C  
HETATM   24  H   UNL     1      -8.495  12.522  68.542  1.00  0.00     0.000 HD 
HETATM   25  O   UNL     1      -9.042  13.283  68.383  1.00  0.00    -0.191 OA 
HETATM   26  C   UNL     1     -10.032  13.230  70.568  1.00  0.00     4.265 C  
ENDROOT
BRANCH   7  27
HETATM   27  O   UNL     1      -9.431  19.568  65.463  1.00  0.00    -0.222 OA 
BRANCH  27  28
HETATM   28  C   UNL     1      -8.013  19.655  65.577  1.00  0.00     0.183 C  
HETATM   29  C   UNL     1      -5.973  19.707  67.131  1.00  0.00    -0.177 C  
HETATM   30  H   UNL     1      -5.569  17.426  68.147  1.00  0.00     0.000 HD 
HETATM   31  C   UNL     1      -5.566  19.088  63.934  1.00  0.00    -0.272 C  
HETATM   32  O   UNL     1      -5.240  20.850  66.657  1.00  0.00    -0.167 OA 
HETATM   33  C   UNL     1      -7.486  19.965  67.007  1.00  0.00    -0.249 C  
HETATM   34  O   UNL     1      -7.726  21.343  67.367  1.00  0.00    -0.654 OA 
HETATM   35  H   UNL     1      -5.518  21.654  67.078  1.00  0.00     0.000 HD 
HETATM   36  O   UNL     1      -5.946  17.312  67.282  1.00  0.00    -0.120 OA 
HETATM   37  C   UNL     1      -5.525  18.410  66.451  1.00  0.00    -0.145 C  
HETATM   38  H   UNL     1      -7.404  21.532  68.241  1.00  0.00     0.000 HD 
HETATM   39  C   UNL     1      -6.135  18.226  65.054  1.00  0.00    -0.035 C  
HETATM   40  O   UNL     1      -7.550  18.373  65.137  1.00  0.00     0.039 OA 
ENDBRANCH  27  28
ENDBRANCH   7  27
BRANCH  15  41
HETATM   41  C   UNL     1      -8.073  16.569  68.899  1.00  0.00    -0.240 C  
HETATM   42  H   UNL     1      -7.032  17.851  70.070  1.00  0.00     0.000 HD 
HETATM   43  O   UNL     1      -7.908  17.719  69.725  1.00  0.00     0.585 OA 
ENDBRANCH  15  41
BRANCH  21  44
HETATM   44  C   UNL     1     -10.439  10.178  69.453  1.00  0.00    -0.254 C  
HETATM   45  C   UNL     1      -9.611   8.112  69.760  1.00  0.00    -0.171 C  
HETATM   46  O   UNL     1      -9.553   6.955  70.136  1.00  0.00    -0.162 OA 
HETATM   47  O   UNL     1      -8.670   8.736  69.033  1.00  0.00    -0.130 OA 
HETATM   48  C   UNL     1      -9.117  10.072  68.783  1.00  0.00    -0.148 C  
HETATM   49  C   UNL     1     -10.733   9.003  70.018  1.00  0.00    -0.247 C  
ENDBRANCH  21  44
TORSDOF 4
ENDMDL
MODEL      112
REMARK 921   NORMALIZED FREE ENERGY PREDICTED BY IDOCK:    9.79 KCAL/MOL
REMARK 922        TOTAL FREE ENERGY PREDICTED BY IDOCK:   11.13 KCAL/MOL
REMARK 923 INTER-LIGAND FREE ENERGY PREDICTED BY IDOCK:   11.54 KCAL/MOL
REMARK 924 INTRA-LIGAND FREE ENERGY PREDICTED BY IDOCK:   -0.40 KCAL/MOL
REMARK 927      BINDING AFFINITY PREDICTED BY RF-SCORE:    0.00 PKD
ROOT
HETATM    1  C   UNL     1      -7.875  15.258  67.967  1.00  0.00    -0.137 C  
HETATM    2  C   UNL     1      -6.702  14.441  68.499  1.00  0.00    -0.097 C  
HETATM    3  C   UNL     1      -7.096  12.942  68.516  1.00  0.00    -0.102 C  
HETATM    4  C   UNL     1      -8.431  12.615  69.275  1.00  0.00     0.894 C  
HETATM    5  O   UNL     1      -8.204  13.016  70.625  1.00  0.00     3.750 OA 
HETATM    6  C   UNL     1      -8.812  11.134  69.288  1.00  0.00     0.168 C  
HETATM    7  C   UNL     1      -8.606  10.525  67.926  1.00  0.00    -0.123 C  
HETATM    8  H   UNL     1      -9.012  12.818  71.084  1.00  0.00     0.000 HD 
HETATM    9  H   UNL     1      -7.569  17.079  65.652  1.00  0.00     0.000 HD 
HETATM   10  C   UNL     1      -9.365  11.313  66.843  1.00  0.00    -0.190 C  
HETATM   11  C   UNL     1      -9.851  12.776  67.171  1.00  0.00    -0.216 C  
HETATM   12  O   UNL     1      -7.701  16.199  65.984  1.00  0.00     0.074 OA 
HETATM   13  C   UNL     1      -7.657  16.726  67.414  1.00  0.00    -0.163 C  
HETATM   14  O   UNL     1     -11.204  12.894  66.718  1.00  0.00    -0.276 OA 
HETATM   15  C   UNL     1      -9.632  13.389  68.641  1.00  0.00    -0.064 C  
HETATM   16  C   UNL     1      -9.203  14.926  68.718  1.00  0.00    -0.193 C  
HETATM   17  C   UNL     1      -6.593  17.754  67.023  1.00  0.00    -0.192 C  
HETATM   18  C   UNL     1      -7.521  18.668  65.994  1.00  0.00    -0.265 C  
HETATM   19  H   UNL     1     -11.497  13.776  66.916  1.00  0.00     0.000 HD 
HETATM   20  C   UNL     1      -8.431  19.136  68.594  1.00  0.00    -0.397 C  
HETATM   21  C   UNL     1      -9.056  18.301  66.342  1.00  0.00    -0.260 C  
HETATM   22  C   UNL     1     -10.344  15.880  68.398  1.00  0.00    -0.240 C  
HETATM   23  C   UNL     1      -8.811  17.810  67.785  1.00  0.00    -0.249 C  
HETATM   24  H   UNL     1     -11.567  16.384  66.893  1.00  0.00     0.000 HD 
HETATM   25  O   UNL     1     -10.854  15.788  67.093  1.00  0.00    -0.321 OA 
HETATM   26  C   UNL     1      -9.862  17.255  68.711  1.00  0.00    -0.306 C  
ENDROOT
BRANCH   7  27
HETATM   27  O   UNL     1      -9.002   9.167  68.054  1.00  0.00    -0.129 OA 
BRANCH  27  28
HETATM   28  C   UNL     1      -8.184   8.169  67.449  1.00  0.00    -0.122 C  
HETATM   29  C   UNL     1      -6.225   6.535  67.713  1.00  0.00    -0.031 C  
HETATM   30  H   UNL     1      -6.871   4.604  69.214  1.00  0.00     0.000 HD 
HETATM   31  C   UNL     1      -8.324   6.165  65.219  1.00  0.00    -0.144 C  
HETATM   32  O   UNL     1      -5.421   6.810  66.553  1.00  0.00    -0.016 OA 
HETATM   33  C   UNL     1      -6.876   7.835  68.221  1.00  0.00    -0.067 C  
HETATM   34  O   UNL     1      -5.903   8.894  68.088  1.00  0.00    -0.041 OA 
HETATM   35  H   UNL     1      -4.795   7.507  66.707  1.00  0.00     0.000 HD 
HETATM   36  O   UNL     1      -7.644   4.899  68.746  1.00  0.00    -0.068 OA 
HETATM   37  C   UNL     1      -7.234   5.412  67.465  1.00  0.00    -0.075 C  
HETATM   38  H   UNL     1      -5.104   8.689  68.560  1.00  0.00     0.000 HD 
HETATM   39  C   UNL     1      -8.483   5.887  66.708  1.00  0.00    -0.109 C  
HETATM   40  O   UNL     1      -9.035   7.019  67.378  1.00  0.00    -0.118 OA 
ENDBRANCH  27  28
ENDBRANCH   7  27
BRANCH  15  41
HETATM   41  C   UNL     1     -10.980  13.260  69.459  1.00  0.00     0.068 C  
HETATM   42  H   UNL     1     -12.558  12.011  69.685  1.00  0.00     0.000 HD 
HETATM   43  O   UNL     1     -11.748  12.089  69.193  1.00  0.00    -0.287 OA 
ENDBRANCH  15  41
BRANCH  21  44
HETATM   44  C   UNL     1     -10.235  19.150  66.066  1.00  0.00    -0.494 C  
HETATM   45  C   UNL     1     -12.186  20.240  66.300  1.00  0.00     3.916 C  
HETATM   46  O   UNL     1     -13.328  20.460  66.660  1.00  0.00     4.583 OA 
HETATM   47  O   UNL     1     -11.429  21.079  65.575  1.00  0.00     2.385 OA 
HETATM   48  C   UNL     1     -10.152  20.464  65.376  1.00  0.00     0.311 C  
HETATM   49  C   UNL     1     -11.442  19.031  66.626  1.00  0.00     0.881 C  
ENDBRANCH  21  44
TORSDOF 4
ENDMDL
MODEL      113
REMARK 921   NORMALIZED FREE ENERGY PREDICTED BY IDOCK:   12.09 KCAL/MOL
REMARK 922        TOTAL FREE ENERGY PREDICTED BY IDOCK:   13.97 KCAL/MOL
REMARK 923 INTER-LIGAND FREE ENERGY PREDICTED BY IDOCK:    8.87 KCAL/MOL
REMARK 924 INTRA-LIGAND FREE ENERGY PREDICTED BY IDOCK:    5.09 KCAL/MOL
REMARK 927      BINDING AFFINITY PREDICTED BY RF-SCORE:    0.00 PKD
ROOT
HETATM    1  C   UNL     1     -10.795  13.031  66.235  1.00  0.00    -0.295 C  
HETATM    2  C   UNL     1     -11.856  14.084  65.930  1.00  0.00    -0.395 C  
HETATM    3  C   UNL     1     -11.188  15.482  65.900  1.00  0.00    -0.120 C  
HETATM    4  C   UNL     1     -10.350  15.846  67.176  1.00  0.00    -0.300 C  
HETATM    5  O   UNL     1     -11.285  15.840  68.254  1.00  0.00    -0.327 OA 
HETATM    6  C   UNL     1      -9.694  17.227  67.139  1.00  0.00    -0.259 C  
HETATM    7  C   UNL     1      -9.072  17.478  65.790  1.00  0.00     0.271 C  
HETATM    8  H   UNL     1     -10.778  16.060  69.027  1.00  0.00     0.000 HD 
HETATM    9  H   UNL     1     -10.354  10.714  64.444  1.00  0.00     0.000 HD 
HETATM   10  C   UNL     1      -8.089  16.355  65.414  1.00  0.00     2.215 C  
HETATM   11  C   UNL     1      -8.171  14.984  66.186  1.00  0.00     0.845 C  
HETATM   12  O   UNL     1     -10.202  11.630  64.643  1.00  0.00    -0.253 OA 
HETATM   13  C   UNL     1     -11.049  11.504  65.904  1.00  0.00    -0.214 C  
HETATM   14  O   UNL     1      -6.836  14.603  66.534  1.00  0.00     0.309 OA 
HETATM   15  C   UNL     1      -9.206  14.805  67.403  1.00  0.00    -0.200 C  
HETATM   16  C   UNL     1      -9.958  13.399  67.501  1.00  0.00    -0.230 C  
HETATM   17  C   UNL     1     -11.996  10.534  65.194  1.00  0.00     3.347 C  
HETATM   18  C   UNL     1     -10.925   9.286  64.971  1.00  0.00     4.262 C  
HETATM   19  H   UNL     1      -6.886  13.776  67.000  1.00  0.00     0.000 HD 
HETATM   20  C   UNL     1     -11.517   9.415  67.699  1.00  0.00     0.982 C  
HETATM   21  C   UNL     1      -9.711   9.558  66.003  1.00  0.00    -0.341 C  
HETATM   22  C   UNL     1      -9.058  12.274  67.989  1.00  0.00    -0.191 C  
HETATM   23  C   UNL     1     -10.501  10.433  66.998  1.00  0.00    -0.309 C  
HETATM   24  H   UNL     1      -7.414  11.261  67.454  1.00  0.00     0.000 HD 
HETATM   25  O   UNL     1      -7.976  11.964  67.149  1.00  0.00    -0.158 OA 
HETATM   26  C   UNL     1      -9.932  11.090  68.229  1.00  0.00    -0.190 C  
ENDROOT
BRANCH   7  27
HETATM   27  O   UNL     1      -8.487  18.769  65.877  1.00  0.00    -0.481 OA 
BRANCH  27  28
HETATM   28  C   UNL     1      -8.366  19.367  67.165  1.00  0.00    -0.287 C  
HETATM   29  C   UNL     1      -8.814  19.173  69.683  1.00  0.00     0.526 C  
HETATM   30  H   UNL     1      -7.298  17.438  70.727  1.00  0.00     0.000 HD 
HETATM   31  C   UNL     1      -6.641  21.373  68.584  1.00  0.00     0.940 C  
HETATM   32  O   UNL     1      -9.425  20.437  69.997  1.00  0.00     0.599 OA 
HETATM   33  C   UNL     1      -9.241  18.718  68.276  1.00  0.00    -0.331 C  
HETATM   34  O   UNL     1     -10.635  19.056  68.110  1.00  0.00    -0.354 OA 
HETATM   35  H   UNL     1     -10.367  20.418  69.879  1.00  0.00     0.000 HD 
HETATM   36  O   UNL     1      -6.842  17.841  69.997  1.00  0.00     0.229 OA 
HETATM   37  C   UNL     1      -7.295  19.203  69.873  1.00  0.00     0.364 C  
HETATM   38  H   UNL     1     -11.169  18.659  68.788  1.00  0.00     0.000 HD 
HETATM   39  C   UNL     1      -6.558  19.855  68.694  1.00  0.00    -0.299 C  
HETATM   40  O   UNL     1      -6.974  19.235  67.480  1.00  0.00    -0.207 OA 
ENDBRANCH  27  28
ENDBRANCH   7  27
BRANCH  15  41
HETATM   41  C   UNL     1      -8.431  14.992  68.770  1.00  0.00    -0.180 C  
HETATM   42  H   UNL     1      -7.832  13.928  70.385  1.00  0.00     0.000 HD 
HETATM   43  O   UNL     1      -8.298  13.816  69.564  1.00  0.00     0.555 OA 
ENDBRANCH  15  41
BRANCH  21  44
HETATM   44  C   UNL     1      -8.775   8.541  66.530  1.00  0.00    -0.149 C  
HETATM   45  C   UNL     1      -7.875   6.571  67.129  1.00  0.00    -0.108 C  
HETATM   46  O   UNL     1      -7.818   5.427  67.541  1.00  0.00    -0.098 OA 
HETATM   47  O   UNL     1      -6.828   7.288  66.688  1.00  0.00    -0.061 OA 
HETATM   48  C   UNL     1      -7.310   8.570  66.277  1.00  0.00    -0.079 C  
HETATM   49  C   UNL     1      -9.105   7.344  67.021  1.00  0.00    -0.155 C  
ENDBRANCH  21  44
TORSDOF 4
ENDMDL
MODEL      114
REMARK 921   NORMALIZED FREE ENERGY PREDICTED BY IDOCK:   12.19 KCAL/MOL
REMARK 922        TOTAL FREE ENERGY PREDICTED BY IDOCK:   14.09 KCAL/MOL
REMARK 923 INTER-LIGAND FREE ENERGY PREDICTED BY IDOCK:   11.47 KCAL/MOL
REMARK 924 INTRA-LIGAND FREE ENERGY PREDICTED BY IDOCK:    2.62 KCAL/MOL
REMARK 927      BINDING AFFINITY PREDICTED BY RF-SCORE:    0.00 PKD
ROOT
HETATM    1  C   UNL     1     -10.127  15.324  66.591  1.00  0.00    -0.268 C  
HETATM    2  C   UNL     1     -10.459  14.432  65.399  1.00  0.00    -0.391 C  
HETATM    3  C   UNL     1     -10.348  12.948  65.831  1.00  0.00    -0.297 C  
HETATM    4  C   UNL     1      -8.983  12.551  66.498  1.00  0.00    -0.132 C  
HETATM    5  O   UNL     1      -7.993  12.784  65.497  1.00  0.00     1.556 OA 
HETATM    6  C   UNL     1      -8.880  11.085  66.921  1.00  0.00    -0.150 C  
HETATM    7  C   UNL     1     -10.152  10.641  67.595  1.00  0.00    -0.177 C  
HETATM    8  H   UNL     1      -7.168  12.544  65.901  1.00  0.00     0.000 HD 
HETATM    9  H   UNL     1     -12.009  17.405  67.539  1.00  0.00     0.000 HD 
HETATM   10  C   UNL     1     -10.508  11.564  68.774  1.00  0.00    -0.227 C  
HETATM   11  C   UNL     1      -9.829  12.984  68.858  1.00  0.00     0.147 C  
HETATM   12  O   UNL     1     -11.743  16.493  67.525  1.00  0.00     0.287 OA 
HETATM   13  C   UNL     1     -10.571  16.844  66.615  1.00  0.00    -0.189 C  
HETATM   14  O   UNL     1      -9.390  13.175  70.206  1.00  0.00     2.811 OA 
HETATM   15  C   UNL     1      -8.720  13.413  67.776  1.00  0.00    -0.197 C  
HETATM   16  C   UNL     1      -8.774  14.923  67.258  1.00  0.00    -0.224 C  
HETATM   17  C   UNL     1     -11.417  17.896  65.897  1.00  0.00     1.653 C  
HETATM   18  C   UNL     1     -11.620  18.940  67.171  1.00  0.00     1.130 C  
HETATM   19  H   UNL     1      -8.981  14.031  70.257  1.00  0.00     0.000 HD 
HETATM   20  C   UNL     1      -8.952  19.106  66.359  1.00  0.00    -0.356 C  
HETATM   21  C   UNL     1     -10.472  18.557  68.241  1.00  0.00    -0.326 C  
HETATM   22  C   UNL     1      -8.277  15.925  68.289  1.00  0.00    -0.152 C  
HETATM   23  C   UNL     1      -9.499  17.892  67.245  1.00  0.00    -0.263 C  
HETATM   24  H   UNL     1      -8.726  16.624  70.112  1.00  0.00     0.000 HD 
HETATM   25  O   UNL     1      -9.037  15.998  69.468  1.00  0.00    -0.234 OA 
HETATM   26  C   UNL     1      -8.185  17.246  67.604  1.00  0.00    -0.198 C  
ENDROOT
BRANCH   7  27
HETATM   27  O   UNL     1      -9.937   9.283  67.953  1.00  0.00    -0.170 OA 
BRANCH  27  28
HETATM   28  C   UNL     1     -10.434   8.834  69.211  1.00  0.00    -0.219 C  
HETATM   29  C   UNL     1     -12.488   8.280  70.645  1.00  0.00     0.265 C  
HETATM   30  H   UNL     1     -13.591   6.152  69.837  1.00  0.00     0.000 HD 
HETATM   31  C   UNL     1      -9.530   7.188  71.553  1.00  0.00    -0.161 C  
HETATM   32  O   UNL     1     -12.226   8.993  71.867  1.00  0.00    -0.335 OA 
HETATM   33  C   UNL     1     -11.953   9.081  69.444  1.00  0.00     1.180 C  
HETATM   34  O   UNL     1     -12.224  10.478  69.693  1.00  0.00    -0.491 OA 
HETATM   35  H   UNL     1     -12.549   9.885  71.838  1.00  0.00     0.000 HD 
HETATM   36  O   UNL     1     -12.658   6.092  69.674  1.00  0.00     1.704 OA 
HETATM   37  C   UNL     1     -11.967   6.842  70.691  1.00  0.00    -0.362 C  
HETATM   38  H   UNL     1     -13.151  10.629  69.835  1.00  0.00     0.000 HD 
HETATM   39  C   UNL     1     -10.457   6.745  70.427  1.00  0.00    -0.206 C  
HETATM   40  O   UNL     1     -10.147   7.430  69.216  1.00  0.00    -0.177 OA 
ENDBRANCH  27  28
ENDBRANCH   7  27
BRANCH  15  41
HETATM   41  C   UNL     1      -7.282  13.206  68.403  1.00  0.00    -0.107 C  
HETATM   42  H   UNL     1      -5.755  11.878  68.405  1.00  0.00     0.000 HD 
HETATM   43  O   UNL     1      -6.619  12.002  68.029  1.00  0.00    -0.061 OA 
ENDBRANCH  15  41
BRANCH  21  44
HETATM   44  C   UNL     1      -9.928  19.449  69.288  1.00  0.00    -0.316 C  
HETATM   45  C   UNL     1      -9.304  20.269  71.284  1.00  0.00     2.194 C  
HETATM   46  O   UNL     1      -9.337  20.494  72.481  1.00  0.00     1.740 OA 
HETATM   47  O   UNL     1      -8.345  20.691  70.444  1.00  0.00     1.368 OA 
HETATM   48  C   UNL     1      -8.658  20.208  69.135  1.00  0.00     0.445 C  
HETATM   49  C   UNL     1     -10.297  19.477  70.571  1.00  0.00     1.377 C  
ENDBRANCH  21  44
TORSDOF 4
ENDMDL
MODEL      115
REMARK 921   NORMALIZED FREE ENERGY PREDICTED BY IDOCK:   14.15 KCAL/MOL
REMARK 922        TOTAL FREE ENERGY PREDICTED BY IDOCK:   16.50 KCAL/MOL
REMARK 923 INTER-LIGAND FREE ENERGY PREDICTED BY IDOCK:   14.81 KCAL/MOL
REMARK 924 INTRA-LIGAND FREE ENERGY PREDICTED BY IDOCK:    1.70 KCAL/MOL
REMARK 927      BINDING AFFINITY PREDICTED BY RF-SCORE:    0.00 PKD
ROOT
HETATM    1  C   UNL     1      -8.664  11.512  67.313  1.00  0.00    -0.151 C  
HETATM    2  C   UNL     1      -7.327  11.061  67.892  1.00  0.00    -0.092 C  
HETATM    3  C   UNL     1      -7.529   9.727  68.654  1.00  0.00    -0.075 C  
HETATM    4  C   UNL     1      -8.661   9.749  69.741  1.00  0.00    -0.201 C  
HETATM    5  O   UNL     1      -8.251  10.730  70.693  1.00  0.00     0.488 OA 
HETATM    6  C   UNL     1      -8.854   8.429  70.489  1.00  0.00    -0.156 C  
HETATM    7  C   UNL     1      -8.819   7.269  69.529  1.00  0.00    -0.137 C  
HETATM    8  H   UNL     1      -8.936  10.742  71.350  1.00  0.00     0.000 HD 
HETATM    9  H   UNL     1      -8.989  12.077  64.424  1.00  0.00     0.000 HD 
HETATM   10  C   UNL     1      -9.844   7.453  68.396  1.00  0.00    -0.165 C  
HETATM   11  C   UNL     1     -10.438   8.890  68.136  1.00  0.00    -0.202 C  
HETATM   12  O   UNL     1      -8.954  11.443  65.131  1.00  0.00    -0.109 OA 
HETATM   13  C   UNL     1      -8.723  12.568  66.134  1.00  0.00     0.258 C  
HETATM   14  O   UNL     1     -11.853   8.750  67.974  1.00  0.00     1.172 OA 
HETATM   15  C   UNL     1     -10.039  10.113  69.099  1.00  0.00    -0.226 C  
HETATM   16  C   UNL     1      -9.790  11.525  68.394  1.00  0.00    -0.204 C  
HETATM   17  C   UNL     1      -7.876  13.331  65.114  1.00  0.00     6.158 C  
HETATM   18  C   UNL     1      -9.072  13.647  64.008  1.00  0.00     4.421 C  
HETATM   19  H   UNL     1     -12.210   9.617  67.817  1.00  0.00     0.000 HD 
HETATM   20  C   UNL     1      -9.562  15.230  66.258  1.00  0.00    -0.331 C  
HETATM   21  C   UNL     1     -10.467  13.439  64.798  1.00  0.00    -0.419 C  
HETATM   22  C   UNL     1     -11.075  12.196  67.933  1.00  0.00    -0.245 C  
HETATM   23  C   UNL     1      -9.916  13.671  66.220  1.00  0.00    -0.305 C  
HETATM   24  H   UNL     1     -12.595  11.922  66.656  1.00  0.00     0.000 HD 
HETATM   25  O   UNL     1     -11.792  11.503  66.944  1.00  0.00    -0.542 OA 
HETATM   26  C   UNL     1     -10.715  13.574  67.495  1.00  0.00    -0.266 C  
ENDROOT
BRANCH   7  27
HETATM   27  O   UNL     1      -9.021   6.111  70.326  1.00  0.00    -0.149 OA 
BRANCH  27  28
HETATM   28  C   UNL     1      -8.531   6.122  71.664  1.00  0.00    -0.130 C  
HETATM   29  C   UNL     1      -6.591   6.683  73.246  1.00  0.00    -0.064 C  
HETATM   30  H   UNL     1      -6.347   9.188  73.502  1.00  0.00     0.000 HD 
HETATM   31  C   UNL     1      -9.595   6.184  74.470  1.00  0.00    -0.248 C  
HETATM   32  O   UNL     1      -6.446   5.476  74.014  1.00  0.00    -0.070 OA 
HETATM   33  C   UNL     1      -6.997   6.341  71.801  1.00  0.00    -0.076 C  
HETATM   34  O   UNL     1      -6.261   5.163  71.406  1.00  0.00    -0.027 OA 
HETATM   35  H   UNL     1      -5.860   4.855  73.598  1.00  0.00     0.000 HD 
HETATM   36  O   UNL     1      -7.264   8.984  73.359  1.00  0.00    -0.330 OA 
HETATM   37  C   UNL     1      -7.536   7.685  73.916  1.00  0.00    -0.123 C  
HETATM   38  H   UNL     1      -5.324   5.297  71.490  1.00  0.00     0.000 HD 
HETATM   39  C   UNL     1      -9.017   7.355  73.685  1.00  0.00    -0.215 C  
HETATM   40  O   UNL     1      -9.250   7.192  72.288  1.00  0.00    -0.133 OA 
ENDBRANCH  27  28
ENDBRANCH   7  27
BRANCH  15  41
HETATM   41  C   UNL     1     -11.197  10.338  70.153  1.00  0.00    -0.318 C  
HETATM   42  H   UNL     1     -12.898   9.462  70.816  1.00  0.00     0.000 HD 
HETATM   43  O   UNL     1     -12.202   9.327  70.183  1.00  0.00     0.147 OA 
ENDBRANCH  15  41
BRANCH  21  44
HETATM   44  C   UNL     1     -11.770  14.035  64.429  1.00  0.00    -0.415 C  
HETATM   45  C   UNL     1     -13.354  15.521  63.855  1.00  0.00     2.527 C  
HETATM   46  O   UNL     1     -13.963  16.575  63.816  1.00  0.00     2.842 OA 
HETATM   47  O   UNL     1     -13.680  14.414  63.167  1.00  0.00     2.933 OA 
HETATM   48  C   UNL     1     -12.714  13.404  63.470  1.00  0.00     0.176 C  
HETATM   49  C   UNL     1     -12.148  15.298  64.640  1.00  0.00    -0.190 C  
ENDBRANCH  21  44
TORSDOF 4
ENDMDL
MODEL      116
REMARK 921   NORMALIZED FREE ENERGY PREDICTED BY IDOCK:   15.61 KCAL/MOL
REMARK 922        TOTAL FREE ENERGY PREDICTED BY IDOCK:   18.31 KCAL/MOL
REMARK 923 INTER-LIGAND FREE ENERGY PREDICTED BY IDOCK:   16.95 KCAL/MOL
REMARK 924 INTRA-LIGAND FREE ENERGY PREDICTED BY IDOCK:    1.37 KCAL/MOL
REMARK 927      BINDING AFFINITY PREDICTED BY RF-SCORE:    0.00 PKD
ROOT
HETATM    1  C   UNL     1      -8.777  10.629  67.490  1.00  0.00    -0.125 C  
HETATM    2  C   UNL     1      -9.189  11.940  66.827  1.00  0.00    -0.194 C  
HETATM    3  C   UNL     1      -8.580  13.122  67.623  1.00  0.00    -0.193 C  
HETATM    4  C   UNL     1      -8.893  13.120  69.161  1.00  0.00     0.685 C  
HETATM    5  O   UNL     1     -10.313  13.224  69.256  1.00  0.00    -0.425 OA 
HETATM    6  C   UNL     1      -8.289  14.290  69.939  1.00  0.00     0.956 C  
HETATM    7  C   UNL     1      -6.866  14.530  69.508  1.00  0.00    -0.152 C  
HETATM    8  H   UNL     1     -10.502  13.222  70.187  1.00  0.00     0.000 HD 
HETATM    9  H   UNL     1      -7.396   8.494  65.973  1.00  0.00     0.000 HD 
HETATM   10  C   UNL     1      -6.022  13.248  69.634  1.00  0.00    -0.117 C  
HETATM   11  C   UNL     1      -6.762  11.862  69.753  1.00  0.00     0.047 C  
HETATM   12  O   UNL     1      -7.350   9.315  66.449  1.00  0.00    -0.090 OA 
HETATM   13  C   UNL     1      -8.853   9.260  66.698  1.00  0.00    -0.128 C  
HETATM   14  O   UNL     1      -6.132  11.125  70.806  1.00  0.00    -0.336 OA 
HETATM   15  C   UNL     1      -8.367  11.809  69.831  1.00  0.00     2.014 C  
HETATM   16  C   UNL     1      -9.083  10.632  69.021  1.00  0.00    -0.174 C  
HETATM   17  C   UNL     1      -9.080   8.643  65.317  1.00  0.00    -0.100 C  
HETATM   18  C   UNL     1      -8.299   7.201  65.576  1.00  0.00    -0.132 C  
HETATM   19  H   UNL     1      -6.579  10.289  70.878  1.00  0.00     0.000 HD 
HETATM   20  C   UNL     1     -10.661   7.164  67.068  1.00  0.00    -0.420 C  
HETATM   21  C   UNL     1      -8.185   7.045  67.181  1.00  0.00    -0.118 C  
HETATM   22  C   UNL     1      -8.922   9.270  69.681  1.00  0.00    -0.160 C  
HETATM   23  C   UNL     1      -9.366   7.970  67.545  1.00  0.00    -0.171 C  
HETATM   24  H   UNL     1      -7.500   7.949  70.180  1.00  0.00     0.000 HD 
HETATM   25  O   UNL     1      -7.601   8.799  69.768  1.00  0.00    -0.068 OA 
HETATM   26  C   UNL     1      -9.803   8.322  68.944  1.00  0.00    -0.183 C  
ENDROOT
BRANCH   7  27
HETATM   27  O   UNL     1      -6.408  15.617  70.298  1.00  0.00    -0.107 OA 
BRANCH  27  28
HETATM   28  C   UNL     1      -7.014  16.892  70.102  1.00  0.00     0.949 C  
HETATM   29  C   UNL     1      -6.848  19.216  69.027  1.00  0.00    -0.328 C  
HETATM   30  H   UNL     1      -7.166  19.064  66.522  1.00  0.00     0.000 HD 
HETATM   31  C   UNL     1      -9.745  18.136  70.127  1.00  0.00     1.561 C  
HETATM   32  O   UNL     1      -7.142  20.097  70.126  1.00  0.00    -0.102 OA 
HETATM   33  C   UNL     1      -6.068  17.988  69.532  1.00  0.00    -0.247 C  
HETATM   34  O   UNL     1      -5.132  18.445  70.533  1.00  0.00    -0.209 OA 
HETATM   35  H   UNL     1      -6.364  20.325  70.620  1.00  0.00     0.000 HD 
HETATM   36  O   UNL     1      -7.678  18.380  66.937  1.00  0.00    -0.213 OA 
HETATM   37  C   UNL     1      -8.103  18.847  68.231  1.00  0.00    -0.320 C  
HETATM   38  H   UNL     1      -4.554  19.115  70.185  1.00  0.00     0.000 HD 
HETATM   39  C   UNL     1      -8.932  17.742  68.901  1.00  0.00    -0.120 C  
HETATM   40  O   UNL     1      -8.087  16.630  69.189  1.00  0.00    -0.226 OA 
ENDBRANCH  27  28
ENDBRANCH   7  27
BRANCH  15  41
HETATM   41  C   UNL     1      -8.805  11.642  71.342  1.00  0.00    11.785 C  
HETATM   42  H   UNL     1      -8.443  10.470  72.953  1.00  0.00     0.000 HD 
HETATM   43  O   UNL     1      -8.180  10.570  72.045  1.00  0.00     4.586 OA 
ENDBRANCH  15  41
BRANCH  21  44
HETATM   44  C   UNL     1      -8.017   5.775  67.919  1.00  0.00    -0.098 C  
HETATM   45  C   UNL     1      -8.434   3.974  69.196  1.00  0.00    -0.077 C  
HETATM   46  O   UNL     1      -8.909   3.304  70.095  1.00  0.00    -0.070 OA 
HETATM   47  O   UNL     1      -7.610   3.513  68.241  1.00  0.00    -0.057 OA 
HETATM   48  C   UNL     1      -7.290   4.600  67.369  1.00  0.00    -0.074 C  
HETATM   49  C   UNL     1      -8.707   5.390  68.996  1.00  0.00    -0.103 C  
ENDBRANCH  21  44
TORSDOF 4
ENDMDL
MODEL      117
REMARK 921   NORMALIZED FREE ENERGY PREDICTED BY IDOCK:   26.43 KCAL/MOL
REMARK 922        TOTAL FREE ENERGY PREDICTED BY IDOCK:   31.66 KCAL/MOL
REMARK 923 INTER-LIGAND FREE ENERGY PREDICTED BY IDOCK:   31.83 KCAL/MOL
REMARK 924 INTRA-LIGAND FREE ENERGY PREDICTED BY IDOCK:   -0.17 KCAL/MOL
REMARK 927      BINDING AFFINITY PREDICTED BY RF-SCORE:    0.00 PKD
ROOT
HETATM    1  C   UNL     1     -10.583  11.892  69.462  1.00  0.00     0.195 C  
HETATM    2  C   UNL     1     -11.474  13.129  69.429  1.00  0.00    -0.321 C  
HETATM    3  C   UNL     1     -10.583  14.392  69.315  1.00  0.00    -0.190 C  
HETATM    4  C   UNL     1      -9.456  14.510  70.401  1.00  0.00     1.578 C  
HETATM    5  O   UNL     1     -10.143  14.579  71.650  1.00  0.00     1.707 OA 
HETATM    6  C   UNL     1      -8.582  15.759  70.283  1.00  0.00     1.128 C  
HETATM    7  C   UNL     1      -8.206  16.004  68.845  1.00  0.00    -0.223 C  
HETATM    8  H   UNL     1      -9.460  14.650  72.307  1.00  0.00     0.000 HD 
HETATM    9  H   UNL     1     -10.935   9.678  67.527  1.00  0.00     0.000 HD 
HETATM   10  C   UNL     1      -7.537  14.763  68.226  1.00  0.00    -0.115 C  
HETATM   11  C   UNL     1      -7.711  13.370  68.943  1.00  0.00     0.049 C  
HETATM   12  O   UNL     1     -10.582  10.537  67.726  1.00  0.00    -0.206 OA 
HETATM   13  C   UNL     1     -11.170  10.459  69.131  1.00  0.00    -0.246 C  
HETATM   14  O   UNL     1      -6.425  12.743  68.987  1.00  0.00    -0.086 OA 
HETATM   15  C   UNL     1      -8.498  13.276  70.342  1.00  0.00     4.628 C  
HETATM   16  C   UNL     1      -9.458  12.014  70.538  1.00  0.00     5.622 C  
HETATM   17  C   UNL     1     -12.399   9.721  68.597  1.00  0.00     2.303 C  
HETATM   18  C   UNL     1     -11.638   8.330  68.105  1.00  0.00     1.618 C  
HETATM   19  H   UNL     1      -6.530  11.904  69.420  1.00  0.00     0.000 HD 
HETATM   20  C   UNL     1     -11.641   8.348  70.899  1.00  0.00    -0.288 C  
HETATM   21  C   UNL     1     -10.215   8.313  68.869  1.00  0.00    -0.222 C  
HETATM   22  C   UNL     1      -8.698  10.719  70.782  1.00  0.00     3.280 C  
HETATM   23  C   UNL     1     -10.619   9.231  70.042  1.00  0.00    -0.256 C  
HETATM   24  H   UNL     1      -7.404   9.487  69.873  1.00  0.00     0.000 HD 
HETATM   25  O   UNL     1      -7.879  10.296  69.721  1.00  0.00    -0.162 OA 
HETATM   26  C   UNL     1      -9.706   9.686  71.152  1.00  0.00     0.055 C  
ENDROOT
BRANCH   7  27
HETATM   27  O   UNL     1      -7.391  17.167  68.858  1.00  0.00    -0.232 OA 
BRANCH  27  28
HETATM   28  C   UNL     1      -7.811  18.290  68.088  1.00  0.00    -0.288 C  
HETATM   29  C   UNL     1      -9.761  19.549  66.996  1.00  0.00    -0.347 C  
HETATM   30  H   UNL     1     -11.205  20.653  68.755  1.00  0.00     0.000 HD 
HETATM   31  C   UNL     1      -6.891  21.074  67.445  1.00  0.00    -0.434 C  
HETATM   32  O   UNL     1      -9.286  19.774  65.657  1.00  0.00    -0.320 OA 
HETATM   33  C   UNL     1      -9.253  18.190  67.512  1.00  0.00    -0.257 C  
HETATM   34  O   UNL     1      -9.315  17.253  66.415  1.00  0.00    -0.258 OA 
HETATM   35  H   UNL     1      -9.493  19.051  65.077  1.00  0.00     0.000 HD 
HETATM   36  O   UNL     1     -10.309  20.630  69.067  1.00  0.00     0.035 OA 
HETATM   37  C   UNL     1      -9.427  20.713  67.932  1.00  0.00    -0.090 C  
HETATM   38  H   UNL     1     -10.196  17.192  66.064  1.00  0.00     0.000 HD 
HETATM   39  C   UNL     1      -7.977  20.676  68.437  1.00  0.00     0.409 C  
HETATM   40  O   UNL     1      -7.707  19.393  68.996  1.00  0.00    -0.362 OA 
ENDBRANCH  27  28
ENDBRANCH   7  27
BRANCH  15  41
HETATM   41  C   UNL     1      -7.446  13.225  71.522  1.00  0.00     6.581 C  
HETATM   42  H   UNL     1      -7.330  13.493  73.525  1.00  0.00     0.000 HD 
HETATM   43  O   UNL     1      -7.962  13.524  72.816  1.00  0.00     8.194 OA 
ENDBRANCH  15  41
BRANCH  21  44
HETATM   44  C   UNL     1      -9.392   7.115  69.146  1.00  0.00    -0.141 C  
HETATM   45  C   UNL     1      -7.730   5.606  69.092  1.00  0.00    -0.088 C  
HETATM   46  O   UNL     1      -6.836   4.915  68.636  1.00  0.00    -0.049 OA 
HETATM   47  O   UNL     1      -8.107   5.629  70.381  1.00  0.00    -0.100 OA 
HETATM   48  C   UNL     1      -9.171   6.575  70.514  1.00  0.00    -0.155 C  
HETATM   49  C   UNL     1      -8.521   6.546  68.310  1.00  0.00    -0.116 C  
ENDBRANCH  21  44
TORSDOF 4
ENDMDL
MODEL      118
REMARK 921   NORMALIZED FREE ENERGY PREDICTED BY IDOCK:   29.08 KCAL/MOL
REMARK 922        TOTAL FREE ENERGY PREDICTED BY IDOCK:   34.93 KCAL/MOL
REMARK 923 INTER-LIGAND FREE ENERGY PREDICTED BY IDOCK:   31.03 KCAL/MOL
REMARK 924 INTRA-LIGAND FREE ENERGY PREDICTED BY IDOCK:    3.90 KCAL/MOL
REMARK 927      BINDING AFFINITY PREDICTED BY RF-SCORE:    0.00 PKD
ROOT
HETATM    1  C   UNL     1     -11.321  13.103  66.547  1.00  0.00    -0.350 C  
HETATM    2  C   UNL     1     -11.731  14.020  65.398  1.00  0.00    -0.344 C  
HETATM    3  C   UNL     1     -11.075  15.409  65.601  1.00  0.00    -0.272 C  
HETATM    4  C   UNL     1     -11.338  16.070  67.000  1.00  0.00     0.149 C  
HETATM    5  O   UNL     1     -12.751  16.247  67.074  1.00  0.00     2.073 OA 
HETATM    6  C   UNL     1     -10.687  17.441  67.193  1.00  0.00    -0.188 C  
HETATM    7  C   UNL     1      -9.275  17.432  66.669  1.00  0.00    -0.261 C  
HETATM    8  H   UNL     1     -12.910  16.647  67.921  1.00  0.00     0.000 HD 
HETATM    9  H   UNL     1     -10.029  10.485  66.052  1.00  0.00     0.000 HD 
HETATM   10  C   UNL     1      -8.451  16.301  67.310  1.00  0.00    -0.199 C  
HETATM   11  C   UNL     1      -9.211  15.120  68.025  1.00  0.00    -0.185 C  
HETATM   12  O   UNL     1      -9.953  11.429  66.132  1.00  0.00    -0.213 OA 
HETATM   13  C   UNL     1     -11.448  11.530  66.414  1.00  0.00    -0.074 C  
HETATM   14  O   UNL     1      -8.560  14.881  69.276  1.00  0.00    -0.307 OA 
HETATM   15  C   UNL     1     -10.814  15.153  68.153  1.00  0.00    -0.266 C  
HETATM   16  C   UNL     1     -11.576  13.765  67.937  1.00  0.00    -0.376 C  
HETATM   17  C   UNL     1     -11.730  10.392  65.432  1.00  0.00     2.621 C  
HETATM   18  C   UNL     1     -10.967   9.175  66.263  1.00  0.00     0.931 C  
HETATM   19  H   UNL     1      -9.019  14.169  69.707  1.00  0.00     0.000 HD 
HETATM   20  C   UNL     1     -13.280   9.845  67.681  1.00  0.00    11.557 C  
HETATM   21  C   UNL     1     -10.804   9.712  67.779  1.00  0.00    -0.278 C  
HETATM   22  C   UNL     1     -11.418  12.809  69.110  1.00  0.00    -0.306 C  
HETATM   23  C   UNL     1     -11.955  10.739  67.741  1.00  0.00     0.545 C  
HETATM   24  H   UNL     1     -10.004  11.783  70.092  1.00  0.00     0.000 HD 
HETATM   25  O   UNL     1     -10.104  12.380  69.360  1.00  0.00     0.339 OA 
HETATM   26  C   UNL     1     -12.339  11.664  68.867  1.00  0.00     0.095 C  
ENDROOT
BRANCH   7  27
HETATM   27  O   UNL     1      -8.772  18.738  66.912  1.00  0.00    -0.276 OA 
BRANCH  27  28
HETATM   28  C   UNL     1      -9.191  19.410  68.096  1.00  0.00    -0.336 C  
HETATM   29  C   UNL     1     -10.790  19.450  70.102  1.00  0.00     2.247 C  
HETATM   30  H   UNL     1     -10.188  17.636  71.758  1.00  0.00     0.000 HD 
HETATM   31  C   UNL     1      -8.085  21.307  70.143  1.00  0.00     5.233 C  
HETATM   32  O   UNL     1     -11.302  20.794  70.075  1.00  0.00     0.493 OA 
HETATM   33  C   UNL     1     -10.563  18.946  68.666  1.00  0.00     0.125 C  
HETATM   34  O   UNL     1     -11.657  19.425  67.854  1.00  0.00     0.216 OA 
HETATM   35  H   UNL     1     -12.072  20.873  69.524  1.00  0.00     0.000 HD 
HETATM   36  O   UNL     1      -9.394  17.932  71.328  1.00  0.00     5.876 OA 
HETATM   37  C   UNL     1      -9.549  19.323  70.990  1.00  0.00     2.719 C  
HETATM   38  H   UNL     1     -12.495  19.141  68.202  1.00  0.00     0.000 HD 
HETATM   39  C   UNL     1      -8.266  19.801  70.295  1.00  0.00     1.256 C  
HETATM   40  O   UNL     1      -8.142  19.146  69.035  1.00  0.00    -0.318 OA 
ENDBRANCH  27  28
ENDBRANCH   7  27
BRANCH  15  41
HETATM   41  C   UNL     1     -11.204  15.657  69.601  1.00  0.00    -0.310 C  
HETATM   42  H   UNL     1     -12.522  15.268  71.088  1.00  0.00     0.000 HD 
HETATM   43  O   UNL     1     -12.287  14.965  70.218  1.00  0.00    -0.312 OA 
ENDBRANCH  15  41
BRANCH  21  44
HETATM   44  C   UNL     1     -10.634   8.871  68.984  1.00  0.00    -0.203 C  
HETATM   45  C   UNL     1     -10.094   8.191  71.056  1.00  0.00    -0.187 C  
HETATM   46  O   UNL     1      -9.462   8.098  72.093  1.00  0.00    -0.180 OA 
HETATM   47  O   UNL     1     -11.254   7.564  70.799  1.00  0.00    -0.261 OA 
HETATM   48  C   UNL     1     -11.681   7.944  69.488  1.00  0.00     0.750 C  
HETATM   49  C   UNL     1      -9.702   9.025  69.928  1.00  0.00    -0.194 C  
ENDBRANCH  21  44
TORSDOF 4
ENDMDL
MODEL      119
REMARK 921   NORMALIZED FREE ENERGY PREDICTED BY IDOCK:   30.23 KCAL/MOL
REMARK 922        TOTAL FREE ENERGY PREDICTED BY IDOCK:   36.35 KCAL/MOL
REMARK 923 INTER-LIGAND FREE ENERGY PREDICTED BY IDOCK:   29.34 KCAL/MOL
REMARK 924 INTRA-LIGAND FREE ENERGY PREDICTED BY IDOCK:    7.00 KCAL/MOL
REMARK 927      BINDING AFFINITY PREDICTED BY RF-SCORE:    0.00 PKD
ROOT
HETATM    1  C   UNL     1      -8.574  13.045  64.166  1.00  0.00     4.476 C  
HETATM    2  C   UNL     1      -7.571  12.933  63.021  1.00  0.00     8.912 C  
HETATM    3  C   UNL     1      -7.293  11.435  62.737  1.00  0.00     0.748 C  
HETATM    4  C   UNL     1      -6.852  10.593  63.986  1.00  0.00     0.244 C  
HETATM    5  O   UNL     1      -5.630  11.181  64.426  1.00  0.00    -0.448 OA 
HETATM    6  C   UNL     1      -6.579   9.116  63.697  1.00  0.00    -0.090 C  
HETATM    7  C   UNL     1      -7.649   8.547  62.803  1.00  0.00    -0.111 C  
HETATM    8  H   UNL     1      -5.364  10.671  65.182  1.00  0.00     0.000 HD 
HETATM    9  H   UNL     1     -11.100  14.561  63.868  1.00  0.00     0.000 HD 
HETATM   10  C   UNL     1      -9.051   8.775  63.397  1.00  0.00     0.556 C  
HETATM   11  C   UNL     1      -9.228   9.860  64.527  1.00  0.00    -0.261 C  
HETATM   12  O   UNL     1     -10.609  13.759  63.728  1.00  0.00     0.133 OA 
HETATM   13  C   UNL     1      -9.391  14.381  64.401  1.00  0.00     3.136 C  
HETATM   14  O   UNL     1     -10.033   9.282  65.559  1.00  0.00    -0.440 OA 
HETATM   15  C   UNL     1      -7.947  10.643  65.101  1.00  0.00    -0.036 C  
HETATM   16  C   UNL     1      -8.138  12.200  65.404  1.00  0.00     1.628 C  
HETATM   17  C   UNL     1      -9.728  15.745  63.798  1.00  0.00     7.217 C  
HETATM   18  C   UNL     1     -11.154  16.009  64.605  1.00  0.00    -0.346 C  
HETATM   19  H   UNL     1     -10.139   9.936  66.240  1.00  0.00     0.000 HD 
HETATM   20  C   UNL     1      -9.077  16.242  66.459  1.00  0.00    -0.302 C  
HETATM   21  C   UNL     1     -11.140  14.998  65.865  1.00  0.00    -0.334 C  
HETATM   22  C   UNL     1      -8.967  12.468  66.652  1.00  0.00    -0.174 C  
HETATM   23  C   UNL     1      -9.609  14.823  65.950  1.00  0.00    -0.320 C  
HETATM   24  H   UNL     1     -10.814  12.187  67.374  1.00  0.00     0.000 HD 
HETATM   25  O   UNL     1     -10.297  12.020  66.595  1.00  0.00    -0.205 OA 
HETATM   26  C   UNL     1      -8.884  13.930  66.924  1.00  0.00    -0.210 C  
ENDROOT
BRANCH   7  27
HETATM   27  O   UNL     1      -7.303   7.182  62.617  1.00  0.00    -0.073 OA 
BRANCH  27  28
HETATM   28  C   UNL     1      -7.796   6.230  63.555  1.00  0.00    -0.113 C  
HETATM   29  C   UNL     1      -9.845   5.127  64.634  1.00  0.00     0.555 C  
HETATM   30  H   UNL     1     -10.997   3.588  62.989  1.00  0.00     0.000 HD 
HETATM   31  C   UNL     1      -6.899   3.708  64.914  1.00  0.00    -0.049 C  
HETATM   32  O   UNL     1      -9.556   5.223  66.039  1.00  0.00    -0.157 OA 
HETATM   33  C   UNL     1      -9.306   6.369  63.900  1.00  0.00     1.898 C  
HETATM   34  O   UNL     1      -9.548   7.515  64.744  1.00  0.00     0.924 OA 
HETATM   35  H   UNL     1      -9.863   6.041  66.413  1.00  0.00     0.000 HD 
HETATM   36  O   UNL     1     -10.066   3.594  62.800  1.00  0.00    -0.133 OA 
HETATM   37  C   UNL     1      -9.350   3.809  64.031  1.00  0.00    -0.144 C  
HETATM   38  H   UNL     1     -10.471   7.600  64.954  1.00  0.00     0.000 HD 
HETATM   39  C   UNL     1      -7.846   3.819  63.725  1.00  0.00    -0.083 C  
HETATM   40  O   UNL     1      -7.535   4.965  62.936  1.00  0.00    -0.046 OA 
ENDBRANCH  27  28
ENDBRANCH   7  27
BRANCH  15  41
HETATM   41  C   UNL     1      -7.503   9.974  66.465  1.00  0.00    -0.105 C  
HETATM   42  H   UNL     1      -7.853  10.103  68.455  1.00  0.00     0.000 HD 
HETATM   43  O   UNL     1      -8.120  10.504  67.636  1.00  0.00    -0.106 OA 
ENDBRANCH  15  41
BRANCH  21  44
HETATM   44  C   UNL     1     -11.914  15.159  67.116  1.00  0.00     0.074 C  
HETATM   45  C   UNL     1     -12.519  15.084  69.278  1.00  0.00     0.018 C  
HETATM   46  O   UNL     1     -12.626  14.658  70.414  1.00  0.00    -0.339 OA 
HETATM   47  O   UNL     1     -13.000  16.261  68.845  1.00  0.00     1.061 OA 
HETATM   48  C   UNL     1     -12.655  16.399  67.464  1.00  0.00     2.752 C  
HETATM   49  C   UNL     1     -11.823  14.390  68.204  1.00  0.00    -0.362 C  
ENDBRANCH  21  44
TORSDOF 4
ENDMDL
MODEL      120
REMARK 921   NORMALIZED FREE ENERGY PREDICTED BY IDOCK:   30.30 KCAL/MOL
REMARK 922        TOTAL FREE ENERGY PREDICTED BY IDOCK:   36.43 KCAL/MOL
REMARK 923 INTER-LIGAND FREE ENERGY PREDICTED BY IDOCK:   36.64 KCAL/MOL
REMARK 924 INTRA-LIGAND FREE ENERGY PREDICTED BY IDOCK:   -0.21 KCAL/MOL
REMARK 927      BINDING AFFINITY PREDICTED BY RF-SCORE:    0.00 PKD
ROOT
HETATM    1  C   UNL     1     -10.953  14.228  68.036  1.00  0.00    -0.261 C  
HETATM    2  C   UNL     1     -10.480  13.883  66.628  1.00  0.00    -0.272 C  
HETATM    3  C   UNL     1     -10.369  12.343  66.494  1.00  0.00    -0.248 C  
HETATM    4  C   UNL     1      -9.495  11.642  67.594  1.00  0.00    -0.177 C  
HETATM    5  O   UNL     1      -8.185  12.183  67.435  1.00  0.00    -0.157 OA 
HETATM    6  C   UNL     1      -9.390  10.122  67.456  1.00  0.00    -0.168 C  
HETATM    7  C   UNL     1     -10.738   9.528  67.139  1.00  0.00    -0.182 C  
HETATM    8  H   UNL     1      -7.657  11.759  68.101  1.00  0.00     0.000 HD 
HETATM    9  H   UNL     1     -13.359  15.891  68.497  1.00  0.00     0.000 HD 
HETATM   10  C   UNL     1     -11.790   9.947  68.181  1.00  0.00     1.139 C  
HETATM   11  C   UNL     1     -11.487  11.184  69.109  1.00  0.00    -0.298 C  
HETATM   12  O   UNL     1     -12.981  15.041  68.306  1.00  0.00     1.120 OA 
HETATM   13  C   UNL     1     -11.582  15.645  68.356  1.00  0.00    -0.350 C  
HETATM   14  O   UNL     1     -11.837  10.817  70.447  1.00  0.00    -0.299 OA 
HETATM   15  C   UNL     1     -10.066  11.930  69.021  1.00  0.00     0.032 C  
HETATM   16  C   UNL     1     -10.087  13.524  69.128  1.00  0.00     0.194 C  
HETATM   17  C   UNL     1     -12.098  16.940  67.724  1.00  0.00     1.611 C  
HETATM   18  C   UNL     1     -13.088  17.425  68.964  1.00  0.00     7.824 C  
HETATM   19  H   UNL     1     -11.655  11.563  71.007  1.00  0.00     0.000 HD 
HETATM   20  C   UNL     1     -10.447  17.734  69.822  1.00  0.00     0.573 C  
HETATM   21  C   UNL     1     -12.606  16.593  70.263  1.00  0.00     2.527 C  
HETATM   22  C   UNL     1     -10.356  14.023  70.540  1.00  0.00     1.789 C  
HETATM   23  C   UNL     1     -11.168  16.307  69.782  1.00  0.00    -0.314 C  
HETATM   24  H   UNL     1     -11.781  13.993  71.949  1.00  0.00     0.000 HD 
HETATM   25  O   UNL     1     -11.613  13.681  71.067  1.00  0.00     0.094 OA 
HETATM   26  C   UNL     1     -10.140  15.497  70.530  1.00  0.00     0.228 C  
ENDROOT
BRANCH   7  27
HETATM   27  O   UNL     1     -10.522   8.127  67.048  1.00  0.00    -0.312 OA 
BRANCH  27  28
HETATM   28  C   UNL     1      -9.585   7.532  67.942  1.00  0.00    -0.143 C  
HETATM   29  C   UNL     1      -9.191   5.901  69.882  1.00  0.00    -0.146 C  
HETATM   30  H   UNL     1      -9.439   3.509  69.098  1.00  0.00     0.000 HD 
HETATM   31  C   UNL     1      -6.648   6.927  68.079  1.00  0.00    -0.059 C  
HETATM   32  O   UNL     1      -8.417   6.685  70.806  1.00  0.00    -0.131 OA 
HETATM   33  C   UNL     1     -10.214   6.797  69.160  1.00  0.00    -0.181 C  
HETATM   34  O   UNL     1     -10.734   7.736  70.127  1.00  0.00    -0.234 OA 
HETATM   35  H   UNL     1      -8.965   7.182  71.402  1.00  0.00     0.000 HD 
HETATM   36  O   UNL     1      -9.106   4.032  68.379  1.00  0.00    -0.116 OA 
HETATM   37  C   UNL     1      -8.308   5.100  68.922  1.00  0.00    -0.087 C  
HETATM   38  H   UNL     1     -11.118   7.286  70.872  1.00  0.00     0.000 HD 
HETATM   39  C   UNL     1      -7.770   5.946  67.758  1.00  0.00    -0.097 C  
HETATM   40  O   UNL     1      -8.857   6.612  67.120  1.00  0.00    -0.114 OA 
ENDBRANCH  27  28
ENDBRANCH   7  27
BRANCH  15  41
HETATM   41  C   UNL     1      -9.140  11.416  70.197  1.00  0.00     2.554 C  
HETATM   42  H   UNL     1      -7.561  10.191  70.520  1.00  0.00     0.000 HD 
HETATM   43  O   UNL     1      -8.117  10.499  69.814  1.00  0.00    -0.116 OA 
ENDBRANCH  15  41
BRANCH  21  44
HETATM   44  C   UNL     1     -12.826  16.983  71.674  1.00  0.00     4.457 C  
HETATM   45  C   UNL     1     -12.715  18.086  73.628  1.00  0.00     4.268 C  
HETATM   46  O   UNL     1     -12.238  18.736  74.540  1.00  0.00     2.276 OA 
HETATM   47  O   UNL     1     -13.992  17.677  73.556  1.00  0.00     3.107 OA 
HETATM   48  C   UNL     1     -14.160  16.960  72.329  1.00  0.00     4.430 C  
HETATM   49  C   UNL     1     -11.977  17.668  72.444  1.00  0.00     2.874 C  
ENDBRANCH  21  44
TORSDOF 4
ENDMDL
MODEL      121
REMARK 921   NORMALIZED FREE ENERGY PREDICTED BY IDOCK:   33.21 KCAL/MOL
REMARK 922        TOTAL FREE ENERGY PREDICTED BY IDOCK:   40.03 KCAL/MOL
REMARK 923 INTER-LIGAND FREE ENERGY PREDICTED BY IDOCK:   39.00 KCAL/MOL
REMARK 924 INTRA-LIGAND FREE ENERGY PREDICTED BY IDOCK:    1.03 KCAL/MOL
REMARK 927      BINDING AFFINITY PREDICTED BY RF-SCORE:    0.00 PKD
ROOT
HETATM    1  C   UNL     1      -7.263  13.457  69.798  1.00  0.00     0.541 C  
HETATM    2  C   UNL     1      -5.744  13.440  69.659  1.00  0.00    -0.105 C  
HETATM    3  C   UNL     1      -5.335  12.276  68.720  1.00  0.00    -0.050 C  
HETATM    4  C   UNL     1      -5.903  10.869  69.120  1.00  0.00    -0.041 C  
HETATM    5  O   UNL     1      -5.356  10.594  70.409  1.00  0.00    -0.055 OA 
HETATM    6  C   UNL     1      -5.494   9.726  68.190  1.00  0.00    -0.039 C  
HETATM    7  C   UNL     1      -5.611  10.152  66.750  1.00  0.00    -0.046 C  
HETATM    8  H   UNL     1      -5.700   9.743  70.651  1.00  0.00     0.000 HD 
HETATM    9  H   UNL     1      -8.847  15.882  69.180  1.00  0.00     0.000 HD 
HETATM   10  C   UNL     1      -7.023  10.681  66.439  1.00  0.00    -0.129 C  
HETATM   11  C   UNL     1      -7.957  11.101  67.637  1.00  0.00    -0.116 C  
HETATM   12  O   UNL     1      -8.395  15.104  68.874  1.00  0.00    -0.165 OA 
HETATM   13  C   UNL     1      -8.017  14.752  70.309  1.00  0.00     0.828 C  
HETATM   14  O   UNL     1      -9.252  10.543  67.392  1.00  0.00    -0.142 OA 
HETATM   15  C   UNL     1      -7.466  10.891  69.154  1.00  0.00    -0.130 C  
HETATM   16  C   UNL     1      -7.827  12.054  70.188  1.00  0.00     2.594 C  
HETATM   17  C   UNL     1      -7.838  16.234  70.646  1.00  0.00     2.912 C  
HETATM   18  C   UNL     1      -9.418  16.706  70.460  1.00  0.00     2.394 C  
HETATM   19  H   UNL     1      -9.814  10.795  68.115  1.00  0.00     0.000 HD 
HETATM   20  C   UNL     1      -9.268  15.148  72.774  1.00  0.00     7.824 C  
HETATM   21  C   UNL     1     -10.293  15.349  70.524  1.00  0.00    -0.040 C  
HETATM   22  C   UNL     1      -9.298  12.070  70.577  1.00  0.00     5.891 C  
HETATM   23  C   UNL     1      -9.272  14.502  71.311  1.00  0.00     4.175 C  
HETATM   24  H   UNL     1     -11.111  12.341  69.770  1.00  0.00     0.000 HD 
HETATM   25  O   UNL     1     -10.192  12.331  69.527  1.00  0.00     0.381 OA 
HETATM   26  C   UNL     1      -9.443  13.053  71.688  1.00  0.00    14.984 C  
ENDROOT
BRANCH   7  27
HETATM   27  O   UNL     1      -5.224   9.019  65.986  1.00  0.00    -0.032 OA 
BRANCH  27  28
HETATM   28  C   UNL     1      -6.242   8.115  65.562  1.00  0.00    -0.045 C  
HETATM   29  C   UNL     1      -8.232   6.641  66.231  1.00  0.00    -0.120 C  
HETATM   30  H   UNL     1     -10.232   8.066  66.836  1.00  0.00     0.000 HD 
HETATM   31  C   UNL     1      -7.784   7.436  63.079  1.00  0.00    -0.129 C  
HETATM   32  O   UNL     1      -7.921   5.383  65.606  1.00  0.00    -0.101 OA 
HETATM   33  C   UNL     1      -6.937   7.325  66.708  1.00  0.00    -0.074 C  
HETATM   34  O   UNL     1      -6.070   6.299  67.239  1.00  0.00    -0.020 OA 
HETATM   35  H   UNL     1      -7.388   4.828  66.163  1.00  0.00     0.000 HD 
HETATM   36  O   UNL     1      -9.725   8.518  66.172  1.00  0.00    -0.241 OA 
HETATM   37  C   UNL     1      -9.091   7.535  65.333  1.00  0.00     0.294 C  
HETATM   38  H   UNL     1      -6.495   5.817  67.939  1.00  0.00     0.000 HD 
HETATM   39  C   UNL     1      -8.272   8.267  64.259  1.00  0.00    -0.113 C  
HETATM   40  O   UNL     1      -7.186   8.950  64.881  1.00  0.00    -0.089 OA 
ENDBRANCH  27  28
ENDBRANCH   7  27
BRANCH  15  41
HETATM   41  C   UNL     1      -8.114   9.567  69.727  1.00  0.00    -0.140 C  
HETATM   42  H   UNL     1      -8.089   8.406  71.386  1.00  0.00     0.000 HD 
HETATM   43  O   UNL     1      -7.700   9.202  71.041  1.00  0.00    -0.141 OA 
ENDBRANCH  15  41
BRANCH  21  44
HETATM   44  C   UNL     1     -11.727  15.257  70.879  1.00  0.00    -0.386 C  
HETATM   45  C   UNL     1     -13.646  15.301  72.045  1.00  0.00    -0.469 C  
HETATM   46  O   UNL     1     -14.405  15.174  72.989  1.00  0.00    -0.056 OA 
HETATM   47  O   UNL     1     -13.990  15.767  70.833  1.00  0.00    -0.389 OA 
HETATM   48  C   UNL     1     -12.818  15.778  70.014  1.00  0.00     0.231 C  
HETATM   49  C   UNL     1     -12.224  14.991  72.089  1.00  0.00    -0.446 C  
ENDBRANCH  21  44
TORSDOF 4
ENDMDL
MODEL      122
REMARK 921   NORMALIZED FREE ENERGY PREDICTED BY IDOCK:   40.47 KCAL/MOL
REMARK 922        TOTAL FREE ENERGY PREDICTED BY IDOCK:   48.99 KCAL/MOL
REMARK 923 INTER-LIGAND FREE ENERGY PREDICTED BY IDOCK:   49.30 KCAL/MOL
REMARK 924 INTRA-LIGAND FREE ENERGY PREDICTED BY IDOCK:   -0.31 KCAL/MOL
REMARK 927      BINDING AFFINITY PREDICTED BY RF-SCORE:    0.00 PKD
ROOT
HETATM    1  C   UNL     1      -9.181  12.061  66.305  1.00  0.00    -0.208 C  
HETATM    2  C   UNL     1      -7.838  11.428  66.657  1.00  0.00    -0.137 C  
HETATM    3  C   UNL     1      -8.086  10.052  67.325  1.00  0.00    -0.114 C  
HETATM    4  C   UNL     1      -9.062  10.077  68.554  1.00  0.00    -0.127 C  
HETATM    5  O   UNL     1      -8.430  10.915  69.519  1.00  0.00    -0.380 OA 
HETATM    6  C   UNL     1      -9.302   8.715  69.208  1.00  0.00    -0.153 C  
HETATM    7  C   UNL     1      -9.515   7.657  68.157  1.00  0.00    -0.145 C  
HETATM    8  H   UNL     1      -9.021  10.930  70.263  1.00  0.00     0.000 HD 
HETATM    9  H   UNL     1      -9.806  12.934  63.546  1.00  0.00     0.000 HD 
HETATM   10  C   UNL     1     -10.650   8.049  67.195  1.00  0.00    -0.367 C  
HETATM   11  C   UNL     1     -11.111   9.555  67.139  1.00  0.00     0.233 C  
HETATM   12  O   UNL     1      -9.751  12.234  64.186  1.00  0.00    -0.161 OA 
HETATM   13  C   UNL     1      -9.274  13.228  65.239  1.00  0.00     0.764 C  
HETATM   14  O   UNL     1     -12.542   9.570  67.160  1.00  0.00     5.676 OA 
HETATM   15  C   UNL     1     -10.462  10.634  68.138  1.00  0.00    -0.215 C  
HETATM   16  C   UNL     1     -10.152  12.078  67.527  1.00  0.00    -0.205 C  
HETATM   17  C   UNL     1      -8.484  14.001  64.181  1.00  0.00     9.091 C  
HETATM   18  C   UNL     1      -9.770  14.538  63.279  1.00  0.00     8.626 C  
HETATM   19  H   UNL     1     -12.820  10.478  67.127  1.00  0.00     0.000 HD 
HETATM   20  C   UNL     1      -9.794  15.933  65.699  1.00  0.00    -0.337 C  
HETATM   21  C   UNL     1     -11.067  14.390  64.230  1.00  0.00    -0.063 C  
HETATM   22  C   UNL     1     -11.405  12.912  67.304  1.00  0.00    -0.310 C  
HETATM   23  C   UNL     1     -10.318  14.427  65.579  1.00  0.00    -0.382 C  
HETATM   24  H   UNL     1     -13.095  12.912  66.227  1.00  0.00     0.000 HD 
HETATM   25  O   UNL     1     -12.312  12.391  66.367  1.00  0.00    -0.539 OA 
HETATM   26  C   UNL     1     -10.955  14.284  66.938  1.00  0.00    -0.304 C  
ENDROOT
BRANCH   7  27
HETATM   27  O   UNL     1      -9.740   6.451  68.874  1.00  0.00    -0.126 OA 
BRANCH  27  28
HETATM   28  C   UNL     1      -8.738   6.018  69.791  1.00  0.00    -0.130 C  
HETATM   29  C   UNL     1      -8.190   4.696  71.920  1.00  0.00    -0.105 C  
HETATM   30  H   UNL     1      -8.390   2.209  71.500  1.00  0.00     0.000 HD 
HETATM   31  C   UNL     1      -5.779   5.523  69.853  1.00  0.00    -0.016 C  
HETATM   32  O   UNL     1      -7.399   5.627  72.679  1.00  0.00    -0.091 OA 
HETATM   33  C   UNL     1      -9.279   5.449  71.134  1.00  0.00    -0.145 C  
HETATM   34  O   UNL     1      -9.783   6.502  71.985  1.00  0.00    -0.152 OA 
HETATM   35  H   UNL     1      -7.935   6.189  73.226  1.00  0.00     0.000 HD 
HETATM   36  O   UNL     1      -8.113   2.633  70.696  1.00  0.00    -0.045 OA 
HETATM   37  C   UNL     1      -7.327   3.790  71.037  1.00  0.00    -0.037 C  
HETATM   38  H   UNL     1     -10.114   6.154  72.805  1.00  0.00     0.000 HD 
HETATM   39  C   UNL     1      -6.879   4.475  69.737  1.00  0.00    -0.041 C  
HETATM   40  O   UNL     1      -8.020   5.010  69.071  1.00  0.00    -0.079 OA 
ENDBRANCH  27  28
ENDBRANCH   7  27
BRANCH  15  41
HETATM   41  C   UNL     1     -11.446  10.866  69.355  1.00  0.00    -0.302 C  
HETATM   42  H   UNL     1     -12.358   9.842  70.845  1.00  0.00     0.000 HD 
HETATM   43  O   UNL     1     -11.767   9.703  70.114  1.00  0.00    -0.202 OA 
ENDBRANCH  15  41
BRANCH  21  44
HETATM   44  C   UNL     1     -12.334  15.143  64.094  1.00  0.00    -0.117 C  
HETATM   45  C   UNL     1     -13.805  16.823  63.850  1.00  0.00     7.786 C  
HETATM   46  O   UNL     1     -14.291  17.934  63.966  1.00  0.00    12.632 OA 
HETATM   47  O   UNL     1     -14.346  15.811  63.152  1.00  0.00     4.379 OA 
HETATM   48  C   UNL     1     -13.467  14.687  63.247  1.00  0.00     4.197 C  
HETATM   49  C   UNL     1     -12.534  16.419  64.434  1.00  0.00     1.652 C  
ENDBRANCH  21  44
TORSDOF 4
ENDMDL
MODEL      123
REMARK 921   NORMALIZED FREE ENERGY PREDICTED BY IDOCK:   46.50 KCAL/MOL
REMARK 922        TOTAL FREE ENERGY PREDICTED BY IDOCK:   56.43 KCAL/MOL
REMARK 923 INTER-LIGAND FREE ENERGY PREDICTED BY IDOCK:   54.52 KCAL/MOL
REMARK 924 INTRA-LIGAND FREE ENERGY PREDICTED BY IDOCK:    1.90 KCAL/MOL
REMARK 927      BINDING AFFINITY PREDICTED BY RF-SCORE:    0.00 PKD
ROOT
HETATM    1  C   UNL     1     -12.095  10.120  70.342  1.00  0.00    -0.332 C  
HETATM    2  C   UNL     1     -13.017   9.154  69.604  1.00  0.00     2.512 C  
HETATM    3  C   UNL     1     -12.378   7.742  69.607  1.00  0.00     1.628 C  
HETATM    4  C   UNL     1     -10.907   7.678  69.063  1.00  0.00    -0.040 C  
HETATM    5  O   UNL     1     -10.987   8.112  67.706  1.00  0.00    -0.492 OA 
HETATM    6  C   UNL     1     -10.283   6.282  69.068  1.00  0.00    -0.224 C  
HETATM    7  C   UNL     1     -10.590   5.573  70.361  1.00  0.00    -0.280 C  
HETATM    8  H   UNL     1     -10.097   8.074  67.378  1.00  0.00     0.000 HD 
HETATM    9  H   UNL     1     -13.057  11.735  72.630  1.00  0.00     0.000 HD 
HETATM   10  C   UNL     1     -10.150   6.412  71.574  1.00  0.00    -0.215 C  
HETATM   11  C   UNL     1      -9.874   7.951  71.372  1.00  0.00    -0.168 C  
HETATM   12  O   UNL     1     -12.729  10.907  72.298  1.00  0.00    -0.120 OA 
HETATM   13  C   UNL     1     -12.641  11.499  70.895  1.00  0.00    -0.341 C  
HETATM   14  O   UNL     1      -8.647   8.261  72.040  1.00  0.00    -0.145 OA 
HETATM   15  C   UNL     1      -9.965   8.601  69.904  1.00  0.00    -0.189 C  
HETATM   16  C   UNL     1     -10.631  10.049  69.805  1.00  0.00    -0.301 C  
HETATM   17  C   UNL     1     -13.910  12.318  71.140  1.00  0.00     1.509 C  
HETATM   18  C   UNL     1     -13.320  13.311  72.331  1.00  0.00    -0.616 C  
HETATM   19  H   UNL     1      -8.480   9.188  71.917  1.00  0.00     0.000 HD 
HETATM   20  C   UNL     1     -12.113  14.065  69.926  1.00  0.00    -0.406 C  
HETATM   21  C   UNL     1     -11.710  13.218  72.223  1.00  0.00     2.592 C  
HETATM   22  C   UNL     1      -9.731  11.157  70.331  1.00  0.00     2.359 C  
HETATM   23  C   UNL     1     -11.644  12.775  70.747  1.00  0.00     0.651 C  
HETATM   24  H   UNL     1      -8.856  11.768  72.027  1.00  0.00     0.000 HD 
HETATM   25  O   UNL     1      -9.419  11.076  71.698  1.00  0.00     6.221 OA 
HETATM   26  C   UNL     1     -10.384  12.451  69.986  1.00  0.00     1.784 C  
ENDROOT
BRANCH   7  27
HETATM   27  O   UNL     1      -9.955   4.307  70.259  1.00  0.00    -0.210 OA 
BRANCH  27  28
HETATM   28  C   UNL     1      -8.780   4.080  71.033  1.00  0.00    -0.085 C  
HETATM   29  C   UNL     1      -6.287   4.583  71.368  1.00  0.00    -0.019 C  
HETATM   30  H   UNL     1      -5.960   6.950  72.199  1.00  0.00     0.000 HD 
HETATM   31  C   UNL     1      -8.021   3.256  73.818  1.00  0.00    -0.070 C  
HETATM   32  O   UNL     1      -5.714   3.272  71.516  1.00  0.00    -0.011 OA 
HETATM   33  C   UNL     1      -7.453   4.537  70.363  1.00  0.00    -0.050 C  
HETATM   34  O   UNL     1      -7.072   3.646  69.291  1.00  0.00    -0.045 OA 
HETATM   35  H   UNL     1      -5.473   2.890  70.680  1.00  0.00     0.000 HD 
HETATM   36  O   UNL     1      -6.788   6.623  72.530  1.00  0.00    -0.063 OA 
HETATM   37  C   UNL     1      -6.676   5.199  72.715  1.00  0.00    -0.070 C  
HETATM   38  H   UNL     1      -6.261   3.926  68.882  1.00  0.00     0.000 HD 
HETATM   39  C   UNL     1      -8.015   4.670  73.249  1.00  0.00    -0.099 C  
HETATM   40  O   UNL     1      -9.013   4.814  72.241  1.00  0.00    -0.125 OA 
ENDBRANCH  27  28
ENDBRANCH   7  27
BRANCH  15  41
HETATM   41  C   UNL     1      -8.505   8.738  69.310  1.00  0.00    -0.122 C  
HETATM   42  H   UNL     1      -6.612   9.152  69.897  1.00  0.00     0.000 HD 
HETATM   43  O   UNL     1      -7.489   9.069  70.254  1.00  0.00    -0.063 OA 
ENDBRANCH  15  41
BRANCH  21  44
HETATM   44  C   UNL     1     -10.748  14.231  72.711  1.00  0.00     3.797 C  
HETATM   45  C   UNL     1      -8.864  15.418  73.011  1.00  0.00    10.389 C  
HETATM   46  O   UNL     1      -7.674  15.653  73.117  1.00  0.00     8.647 OA 
HETATM   47  O   UNL     1      -9.842  16.336  73.077  1.00  0.00     7.095 OA 
HETATM   48  C   UNL     1     -11.092  15.665  72.890  1.00  0.00     0.756 C  
HETATM   49  C   UNL     1      -9.420  14.094  72.768  1.00  0.00     9.486 C  
ENDBRANCH  21  44
TORSDOF 4
ENDMDL
MODEL      124
REMARK 921   NORMALIZED FREE ENERGY PREDICTED BY IDOCK:   61.30 KCAL/MOL
REMARK 922        TOTAL FREE ENERGY PREDICTED BY IDOCK:   74.68 KCAL/MOL
REMARK 923 INTER-LIGAND FREE ENERGY PREDICTED BY IDOCK:   75.32 KCAL/MOL
REMARK 924 INTRA-LIGAND FREE ENERGY PREDICTED BY IDOCK:   -0.64 KCAL/MOL
REMARK 927      BINDING AFFINITY PREDICTED BY RF-SCORE:    0.00 PKD
ROOT
HETATM    1  C   UNL     1      -7.164   9.081  70.933  1.00  0.00    -0.106 C  
HETATM    2  C   UNL     1      -5.781   9.395  70.373  1.00  0.00    -0.038 C  
HETATM    3  C   UNL     1      -5.453  10.886  70.643  1.00  0.00    -0.111 C  
HETATM    4  C   UNL     1      -6.534  11.906  70.141  1.00  0.00     0.098 C  
HETATM    5  O   UNL     1      -6.592  11.728  68.727  1.00  0.00    -0.063 OA 
HETATM    6  C   UNL     1      -6.203  13.374  70.411  1.00  0.00    -0.006 C  
HETATM    7  C   UNL     1      -5.666  13.545  71.808  1.00  0.00     0.043 C  
HETATM    8  H   UNL     1      -7.247  12.345  68.423  1.00  0.00     0.000 HD 
HETATM    9  H   UNL     1      -7.586   6.883  72.872  1.00  0.00     0.000 HD 
HETATM   10  C   UNL     1      -6.636  12.965  72.852  1.00  0.00     4.874 C  
HETATM   11  C   UNL     1      -7.751  11.958  72.375  1.00  0.00    14.770 C  
HETATM   12  O   UNL     1      -7.322   7.780  72.702  1.00  0.00    -0.075 OA 
HETATM   13  C   UNL     1      -7.604   7.586  71.217  1.00  0.00    -0.081 C  
HETATM   14  O   UNL     1      -8.982  12.351  72.991  1.00  0.00    20.705 OA 
HETATM   15  C   UNL     1      -7.918  11.621  70.811  1.00  0.00     5.254 C  
HETATM   16  C   UNL     1      -8.237  10.101  70.438  1.00  0.00     0.335 C  
HETATM   17  C   UNL     1      -7.102   6.143  71.289  1.00  0.00    -0.077 C  
HETATM   18  C   UNL     1      -8.283   5.536  72.285  1.00  0.00    -0.111 C  
HETATM   19  H   UNL     1      -9.654  11.744  72.703  1.00  0.00     0.000 HD 
HETATM   20  C   UNL     1      -9.453   6.045  69.800  1.00  0.00    -0.173 C  
HETATM   21  C   UNL     1      -9.501   6.595  72.219  1.00  0.00    -0.149 C  
HETATM   22  C   UNL     1      -9.667   9.695  70.765  1.00  0.00    -0.122 C  
HETATM   23  C   UNL     1      -9.143   7.211  70.850  1.00  0.00    -0.152 C  
HETATM   24  H   UNL     1     -10.897   9.481  72.332  1.00  0.00     0.000 HD 
HETATM   25  O   UNL     1     -10.004   9.734  72.128  1.00  0.00     0.889 OA 
HETATM   26  C   UNL     1      -9.880   8.341  70.179  1.00  0.00    -0.184 C  
ENDROOT
BRANCH   7  27
HETATM   27  O   UNL     1      -5.410  14.935  71.948  1.00  0.00    -0.101 OA 
BRANCH  27  28
HETATM   28  C   UNL     1      -6.153  15.840  71.137  1.00  0.00     0.708 C  
HETATM   29  C   UNL     1      -8.065  17.546  71.005  1.00  0.00     6.775 C  
HETATM   30  H   UNL     1      -7.440  19.680  72.210  1.00  0.00     0.000 HD 
HETATM   31  C   UNL     1      -5.808  17.446  68.625  1.00  0.00    -0.163 C  
HETATM   32  O   UNL     1      -8.807  17.105  69.854  1.00  0.00     0.909 OA 
HETATM   33  C   UNL     1      -7.493  16.331  71.758  1.00  0.00     7.082 C  
HETATM   34  O   UNL     1      -8.493  15.290  71.736  1.00  0.00     3.259 OA 
HETATM   35  H   UNL     1      -9.466  16.459  70.079  1.00  0.00     0.000 HD 
HETATM   36  O   UNL     1      -6.652  19.293  71.848  1.00  0.00     0.962 OA 
HETATM   37  C   UNL     1      -7.002  18.587  70.643  1.00  0.00     1.813 C  
HETATM   38  H   UNL     1      -9.311  15.590  72.116  1.00  0.00     0.000 HD 
HETATM   39  C   UNL     1      -5.728  17.961  70.057  1.00  0.00    -0.241 C  
HETATM   40  O   UNL     1      -5.259  16.941  70.936  1.00  0.00    -0.227 OA 
ENDBRANCH  27  28
ENDBRANCH   7  27
BRANCH  15  41
HETATM   41  C   UNL     1      -9.105  12.485  70.222  1.00  0.00     5.005 C  
HETATM   42  H   UNL     1     -10.264  12.625  68.568  1.00  0.00     0.000 HD 
HETATM   43  O   UNL     1      -9.550  12.107  68.922  1.00  0.00    -0.030 OA 
ENDBRANCH  15  41
BRANCH  21  44
HETATM   44  C   UNL     1     -10.920   6.307  72.525  1.00  0.00    -0.286 C  
HETATM   45  C   UNL     1     -13.125   6.561  72.872  1.00  0.00     1.401 C  
HETATM   46  O   UNL     1     -14.167   7.084  73.222  1.00  0.00     1.607 OA 
HETATM   47  O   UNL     1     -13.024   5.361  72.276  1.00  0.00     0.697 OA 
HETATM   48  C   UNL     1     -11.641   5.114  72.010  1.00  0.00     0.376 C  
HETATM   49  C   UNL     1     -11.811   7.170  73.021  1.00  0.00     0.250 C  
ENDBRANCH  21  44
TORSDOF 4
ENDMDL
MODEL      125
REMARK 921   NORMALIZED FREE ENERGY PREDICTED BY IDOCK:   71.41 KCAL/MOL
REMARK 922        TOTAL FREE ENERGY PREDICTED BY IDOCK:   87.15 KCAL/MOL
REMARK 923 INTER-LIGAND FREE ENERGY PREDICTED BY IDOCK:   87.47 KCAL/MOL
REMARK 924 INTRA-LIGAND FREE ENERGY PREDICTED BY IDOCK:   -0.32 KCAL/MOL
REMARK 927      BINDING AFFINITY PREDICTED BY RF-SCORE:    0.00 PKD
ROOT
HETATM    1  C   UNL     1      -7.551  13.164  70.486  1.00  0.00     3.333 C  
HETATM    2  C   UNL     1      -6.944  11.764  70.478  1.00  0.00     1.614 C  
HETATM    3  C   UNL     1      -8.074  10.724  70.271  1.00  0.00     1.187 C  
HETATM    4  C   UNL     1      -9.274  10.836  71.276  1.00  0.00     5.489 C  
HETATM    5  O   UNL     1      -8.708  10.606  72.565  1.00  0.00     7.536 OA 
HETATM    6  C   UNL     1     -10.384   9.806  71.065  1.00  0.00    -0.174 C  
HETATM    7  C   UNL     1     -10.701   9.666  69.599  1.00  0.00    -0.240 C  
HETATM    8  H   UNL     1      -9.434  10.675  73.173  1.00  0.00     0.000 HD 
HETATM    9  H   UNL     1      -6.599  15.274  68.640  1.00  0.00     0.000 HD 
HETATM   10  C   UNL     1     -11.044  11.029  68.971  1.00  0.00    -0.301 C  
HETATM   11  C   UNL     1     -10.628  12.343  69.736  1.00  0.00     0.801 C  
HETATM   12  O   UNL     1      -7.140  14.508  68.792  1.00  0.00    -0.099 OA 
HETATM   13  C   UNL     1      -6.649  14.441  70.233  1.00  0.00    -0.076 C  
HETATM   14  O   UNL     1     -11.750  13.230  69.713  1.00  0.00    -0.324 OA 
HETATM   15  C   UNL     1      -9.940  12.248  71.187  1.00  0.00     8.971 C  
HETATM   16  C   UNL     1      -8.749  13.272  71.481  1.00  0.00    13.149 C  
HETATM   17  C   UNL     1      -5.257  14.905  69.803  1.00  0.00    -0.094 C  
HETATM   18  C   UNL     1      -5.667  16.432  69.300  1.00  0.00    -0.137 C  
HETATM   19  H   UNL     1     -11.500  14.022  70.174  1.00  0.00     0.000 HD 
HETATM   20  C   UNL     1      -5.865  16.379  72.086  1.00  0.00     1.640 C  
HETATM   21  C   UNL     1      -7.105  16.744  69.967  1.00  0.00     0.755 C  
HETATM   22  C   UNL     1      -9.231  14.697  71.709  1.00  0.00     5.293 C  
HETATM   23  C   UNL     1      -6.989  15.747  71.140  1.00  0.00     2.190 C  
HETATM   24  H   UNL     1     -10.164  16.189  70.751  1.00  0.00     0.000 HD 
HETATM   25  O   UNL     1      -9.864  15.299  70.608  1.00  0.00     0.211 OA 
HETATM   26  C   UNL     1      -8.055  15.485  72.173  1.00  0.00     7.384 C  
ENDROOT
BRANCH   7  27
HETATM   27  O   UNL     1     -11.744   8.704  69.527  1.00  0.00     0.428 OA 
BRANCH  27  28
HETATM   28  C   UNL     1     -11.442   7.426  68.974  1.00  0.00     0.504 C  
HETATM   29  C   UNL     1      -9.842   6.017  67.548  1.00  0.00    -0.125 C  
HETATM   30  H   UNL     1      -7.670   5.613  68.780  1.00  0.00     0.000 HD 
HETATM   31  C   UNL     1     -12.005   4.528  69.516  1.00  0.00     9.333 C  
HETATM   32  O   UNL     1     -10.731   5.354  66.632  1.00  0.00    -0.365 OA 
HETATM   33  C   UNL     1     -10.363   7.433  67.853  1.00  0.00    -0.204 C  
HETATM   34  O   UNL     1     -10.887   7.982  66.625  1.00  0.00    -0.321 OA 
HETATM   35  H   UNL     1     -10.892   5.870  65.851  1.00  0.00     0.000 HD 
HETATM   36  O   UNL     1      -8.374   5.675  69.415  1.00  0.00    -0.104 OA 
HETATM   37  C   UNL     1      -9.583   5.185  68.806  1.00  0.00    -0.143 C  
HETATM   38  H   UNL     1     -10.227   7.987  65.940  1.00  0.00     0.000 HD 
HETATM   39  C   UNL     1     -10.721   5.285  69.833  1.00  0.00    -0.126 C  
HETATM   40  O   UNL     1     -10.995   6.658  70.098  1.00  0.00    -0.257 OA 
ENDBRANCH  27  28
ENDBRANCH   7  27
BRANCH  15  41
HETATM   41  C   UNL     1     -11.038  12.510  72.295  1.00  0.00     8.077 C  
HETATM   42  H   UNL     1     -13.023  12.867  72.475  1.00  0.00     0.000 HD 
HETATM   43  O   UNL     1     -12.363  12.710  71.809  1.00  0.00     0.057 OA 
ENDBRANCH  15  41
BRANCH  21  44
HETATM   44  C   UNL     1      -7.670  18.088  70.223  1.00  0.00     2.440 C  
HETATM   45  C   UNL     1      -8.864  19.769  71.113  1.00  0.00     2.614 C  
HETATM   46  O   UNL     1      -9.801  20.344  71.639  1.00  0.00     1.722 OA 
HETATM   47  O   UNL     1      -7.693  20.339  70.785  1.00  0.00     0.612 OA 
HETATM   48  C   UNL     1      -6.857  19.332  70.208  1.00  0.00     0.320 C  
HETATM   49  C   UNL     1      -8.856  18.352  70.777  1.00  0.00     4.899 C  
ENDBRANCH  21  44
TORSDOF 4
ENDMDL
MODEL      126
REMARK 921   NORMALIZED FREE ENERGY PREDICTED BY IDOCK:  108.72 KCAL/MOL
REMARK 922        TOTAL FREE ENERGY PREDICTED BY IDOCK:  133.19 KCAL/MOL
REMARK 923 INTER-LIGAND FREE ENERGY PREDICTED BY IDOCK:  131.08 KCAL/MOL
REMARK 924 INTRA-LIGAND FREE ENERGY PREDICTED BY IDOCK:    2.11 KCAL/MOL
REMARK 927      BINDING AFFINITY PREDICTED BY RF-SCORE:    0.00 PKD
ROOT
HETATM    1  C   UNL     1      -9.297  13.642  72.344  1.00  0.00    13.092 C  
HETATM    2  C   UNL     1      -9.243  12.668  73.516  1.00  0.00    21.816 C  
HETATM    3  C   UNL     1      -8.657  11.319  73.026  1.00  0.00    18.949 C  
HETATM    4  C   UNL     1      -9.377  10.696  71.778  1.00  0.00     7.276 C  
HETATM    5  O   UNL     1     -10.718  10.454  72.198  1.00  0.00     2.063 OA 
HETATM    6  C   UNL     1      -8.793   9.365  71.301  1.00  0.00     0.119 C  
HETATM    7  C   UNL     1      -7.288   9.424  71.293  1.00  0.00     0.123 C  
HETATM    8  H   UNL     1     -11.153  10.078  71.443  1.00  0.00     0.000 HD 
HETATM    9  H   UNL     1      -7.998  16.300  72.481  1.00  0.00     0.000 HD 
HETATM   10  C   UNL     1      -6.781  10.614  70.460  1.00  0.00     0.101 C  
HETATM   11  C   UNL     1      -7.783  11.782  70.119  1.00  0.00     2.117 C  
HETATM   12  O   UNL     1      -7.925  15.365  72.332  1.00  0.00     5.807 OA 
HETATM   13  C   UNL     1      -9.419  15.202  72.591  1.00  0.00     6.742 C  
HETATM   14  O   UNL     1      -7.625  12.096  68.732  1.00  0.00    -0.179 OA 
HETATM   15  C   UNL     1      -9.325  11.677  70.562  1.00  0.00     4.847 C  
HETATM   16  C   UNL     1     -10.006  13.018  71.101  1.00  0.00     8.476 C  
HETATM   17  C   UNL     1      -9.372  16.291  73.664  1.00  0.00    14.732 C  
HETATM   18  C   UNL     1      -8.993  17.571  72.679  1.00  0.00    15.380 C  
HETATM   19  H   UNL     1      -8.229  12.800  68.526  1.00  0.00     0.000 HD 
HETATM   20  C   UNL     1     -11.634  16.841  72.136  1.00  0.00     0.112 C  
HETATM   21  C   UNL     1      -9.359  17.096  71.179  1.00  0.00     6.051 C  
HETATM   22  C   UNL     1     -10.304  14.021  69.997  1.00  0.00     0.845 C  
HETATM   23  C   UNL     1     -10.388  16.014  71.569  1.00  0.00     1.688 C  
HETATM   24  H   UNL     1      -9.364  15.148  68.632  1.00  0.00     0.000 HD 
HETATM   25  O   UNL     1      -9.178  14.521  69.322  1.00  0.00    -0.049 OA 
HETATM   26  C   UNL     1     -11.116  15.112  70.606  1.00  0.00    -0.298 C  
ENDROOT
BRANCH   7  27
HETATM   27  O   UNL     1      -6.861   8.152  70.825  1.00  0.00    -0.037 OA 
BRANCH  27  28
HETATM   28  C   UNL     1      -7.556   6.998  71.289  1.00  0.00    -0.086 C  
HETATM   29  C   UNL     1      -7.844   5.256  73.151  1.00  0.00    -0.097 C  
HETATM   30  H   UNL     1      -8.922   6.299  75.187  1.00  0.00     0.000 HD 
HETATM   31  C   UNL     1     -10.197   5.626  70.894  1.00  0.00    -0.286 C  
HETATM   32  O   UNL     1      -7.819   4.012  72.430  1.00  0.00    -0.077 OA 
HETATM   33  C   UNL     1      -6.888   6.266  72.488  1.00  0.00    -0.070 C  
HETATM   34  O   UNL     1      -5.708   5.545  72.072  1.00  0.00    -0.019 OA 
HETATM   35  H   UNL     1      -6.936   3.677  72.322  1.00  0.00     0.000 HD 
HETATM   36  O   UNL     1      -9.247   6.740  74.411  1.00  0.00    -0.191 OA 
HETATM   37  C   UNL     1      -9.266   5.796  73.323  1.00  0.00    -0.135 C  
HETATM   38  H   UNL     1      -5.300   5.098  72.805  1.00  0.00     0.000 HD 
HETATM   39  C   UNL     1      -9.792   6.508  72.069  1.00  0.00    -0.158 C  
HETATM   40  O   UNL     1      -8.848   7.495  71.659  1.00  0.00    -0.116 OA 
ENDBRANCH  27  28
ENDBRANCH   7  27
BRANCH  15  41
HETATM   41  C   UNL     1     -10.186  11.206  69.322  1.00  0.00    -0.083 C  
HETATM   42  H   UNL     1     -11.692   9.935  68.857  1.00  0.00     0.000 HD 
HETATM   43  O   UNL     1     -11.174  10.218  69.602  1.00  0.00    -0.241 OA 
ENDBRANCH  15  41
BRANCH  21  44
HETATM   44  C   UNL     1      -9.654  17.986  70.034  1.00  0.00     1.396 C  
HETATM   45  C   UNL     1     -10.383  19.724  68.811  1.00  0.00    -0.252 C  
HETATM   46  O   UNL     1     -11.100  20.641  68.456  1.00  0.00     0.641 OA 
HETATM   47  O   UNL     1      -9.226  19.374  68.225  1.00  0.00    -0.321 OA 
HETATM   48  C   UNL     1      -8.681  18.266  68.946  1.00  0.00    -0.120 C  
HETATM   49  C   UNL     1     -10.654  18.867  69.957  1.00  0.00     1.525 C  
ENDBRANCH  21  44
TORSDOF 4
ENDMDL
MODEL      127
REMARK 921   NORMALIZED FREE ENERGY PREDICTED BY IDOCK:  122.49 KCAL/MOL
REMARK 922        TOTAL FREE ENERGY PREDICTED BY IDOCK:  150.18 KCAL/MOL
REMARK 923 INTER-LIGAND FREE ENERGY PREDICTED BY IDOCK:  143.39 KCAL/MOL
REMARK 924 INTRA-LIGAND FREE ENERGY PREDICTED BY IDOCK:    6.79 KCAL/MOL
REMARK 927      BINDING AFFINITY PREDICTED BY RF-SCORE:    0.00 PKD
ROOT
HETATM    1  C   UNL     1     -10.629  11.926  64.210  1.00  0.00    -0.381 C  
HETATM    2  C   UNL     1     -11.749  12.958  64.129  1.00  0.00    -0.468 C  
HETATM    3  C   UNL     1     -11.129  14.362  63.911  1.00  0.00     0.616 C  
HETATM    4  C   UNL     1     -10.029  14.771  64.953  1.00  0.00    -0.054 C  
HETATM    5  O   UNL     1     -10.694  14.786  66.216  1.00  0.00    -0.299 OA 
HETATM    6  C   UNL     1      -9.423  16.158  64.732  1.00  0.00     2.102 C  
HETATM    7  C   UNL     1      -9.128  16.376  63.271  1.00  0.00    17.375 C  
HETATM    8  H   UNL     1     -10.028  15.034  66.846  1.00  0.00     0.000 HD 
HETATM    9  H   UNL     1     -10.568   9.563  62.426  1.00  0.00     0.000 HD 
HETATM   10  C   UNL     1      -8.238  15.254  62.709  1.00  0.00    26.648 C  
HETATM   11  C   UNL     1      -8.118  13.905  63.515  1.00  0.00    14.387 C  
HETATM   12  O   UNL     1     -10.389  10.487  62.562  1.00  0.00     0.237 OA 
HETATM   13  C   UNL     1     -10.926  10.387  63.985  1.00  0.00     1.415 C  
HETATM   14  O   UNL     1      -6.733  13.548  63.559  1.00  0.00    13.948 OA 
HETATM   15  C   UNL     1      -8.846  13.750  64.940  1.00  0.00     2.985 C  
HETATM   16  C   UNL     1      -9.532  12.339  65.242  1.00  0.00     0.057 C  
HETATM   17  C   UNL     1     -11.992   9.387  63.535  1.00  0.00    12.697 C  
HETATM   18  C   UNL     1     -10.979   8.144  63.106  1.00  0.00    13.637 C  
HETATM   19  H   UNL     1      -6.661  12.735  64.045  1.00  0.00     0.000 HD 
HETATM   20  C   UNL     1     -10.936   8.346  65.893  1.00  0.00     2.902 C  
HETATM   21  C   UNL     1      -9.567   8.460  63.826  1.00  0.00     2.581 C  
HETATM   22  C   UNL     1      -8.526  11.238  65.542  1.00  0.00     0.076 C  
HETATM   23  C   UNL     1     -10.125   9.354  64.953  1.00  0.00     0.709 C  
HETATM   24  H   UNL     1      -7.029  10.229  64.672  1.00  0.00     0.000 HD 
HETATM   25  O   UNL     1      -7.658  10.916  64.485  1.00  0.00     0.208 OA 
HETATM   26  C   UNL     1      -9.301  10.053  66.005  1.00  0.00    -0.224 C  
ENDROOT
BRANCH   7  27
HETATM   27  O   UNL     1      -8.561  17.676  63.189  1.00  0.00    17.583 OA 
BRANCH  27  28
HETATM   28  C   UNL     1      -7.710  18.106  64.248  1.00  0.00     7.015 C  
HETATM   29  C   UNL     1      -7.235  19.864  66.055  1.00  0.00    -0.298 C  
HETATM   30  H   UNL     1      -8.911  19.679  67.940  1.00  0.00     0.000 HD 
HETATM   31  C   UNL     1      -5.751  16.941  66.201  1.00  0.00     0.428 C  
HETATM   32  O   UNL     1      -5.848  20.178  65.837  1.00  0.00    -0.172 OA 
HETATM   33  C   UNL     1      -7.926  19.576  64.709  1.00  0.00     2.136 C  
HETATM   34  O   UNL     1      -7.405  20.511  63.740  1.00  0.00     0.312 OA 
HETATM   35  H   UNL     1      -5.734  20.874  65.201  1.00  0.00     0.000 HD 
HETATM   36  O   UNL     1      -8.771  18.815  67.571  1.00  0.00    -0.271 OA 
HETATM   37  C   UNL     1      -7.419  18.741  67.080  1.00  0.00    -0.219 C  
HETATM   38  H   UNL     1      -7.537  21.409  64.022  1.00  0.00     0.000 HD 
HETATM   39  C   UNL     1      -7.193  17.345  66.483  1.00  0.00    -0.270 C  
HETATM   40  O   UNL     1      -7.998  17.196  65.316  1.00  0.00     0.560 OA 
ENDBRANCH  27  28
ENDBRANCH   7  27
BRANCH  15  41
HETATM   41  C   UNL     1      -7.784  13.985  66.089  1.00  0.00     2.609 C  
HETATM   42  H   UNL     1      -6.335  15.289  66.634  1.00  0.00     0.000 HD 
HETATM   43  O   UNL     1      -6.972  15.148  65.944  1.00  0.00     2.897 OA 
ENDBRANCH  15  41
BRANCH  21  44
HETATM   44  C   UNL     1      -8.518   7.468  64.152  1.00  0.00     0.240 C  
HETATM   45  C   UNL     1      -6.626   6.259  64.083  1.00  0.00    -0.034 C  
HETATM   46  O   UNL     1      -5.676   5.662  63.611  1.00  0.00    -0.014 OA 
HETATM   47  O   UNL     1      -6.864   6.418  65.396  1.00  0.00    -0.046 OA 
HETATM   48  C   UNL     1      -8.061   7.188  65.538  1.00  0.00    -0.135 C  
HETATM   49  C   UNL     1      -7.651   6.927  63.293  1.00  0.00    -0.090 C  
ENDBRANCH  21  44
TORSDOF 4
ENDMDL
