MODEL        1
REMARK 921   NORMALIZED FREE ENERGY PREDICTED BY IDOCK:   -8.26 KCAL/MOL
REMARK 922        TOTAL FREE ENERGY PREDICTED BY IDOCK:  -10.61 KCAL/MOL
REMARK 923 INTER-LIGAND FREE ENERGY PREDICTED BY IDOCK:   -9.71 KCAL/MOL
REMARK 924 INTRA-LIGAND FREE ENERGY PREDICTED BY IDOCK:   -0.90 KCAL/MOL
REMARK 927      BINDING AFFINITY PREDICTED BY RF-SCORE:    0.00 PKD
ROOT
HETATM    1  C   UNL     1     -11.909  13.092  66.643  1.00  0.00    -0.393 C  
HETATM    2  S   UNL     1     -11.173  14.345  67.771  1.00  0.00    -0.315 SA 
HETATM    3  C   UNL     1      -9.926  14.948  66.544  1.00  0.00    -0.265 C  
HETATM    4  CA  UNL     1     -10.495  14.545  65.160  1.00  0.00    -0.416 C  
HETATM    5  C   UNL     1      -9.674  16.445  66.759  1.00  0.00    -0.263 C  
HETATM    6  C   UNL     1      -8.595  14.232  66.851  1.00  0.00    -0.172 C  
HETATM    7  N   UNL     1     -11.224  13.272  65.344  1.00  0.00    -0.286 N  
HETATM    8  C   UNL     1     -11.460  15.559  64.516  1.00  0.00    -0.308 C  
HETATM    9  OXT UNL     1     -11.208  16.739  64.329  1.00  0.00    -1.163 OA 
HETATM   10  O   UNL     1     -12.618  15.005  64.074  1.00  0.00    -0.817 OA 
HETATM   11  C   UNL     1     -10.532  12.091  65.440  1.00  0.00    -0.275 C  
HETATM   12  CA  UNL     1     -11.322  11.657  66.697  1.00  0.00    -0.270 C  
HETATM   13  O   UNL     1      -9.550  11.714  64.843  1.00  0.00    -0.224 OA 
ENDROOT
BRANCH  12  14
HETATM   14  N   UNL     1     -10.521  11.312  67.903  1.00  0.00    -0.182 N  
HETATM   15  C   UNL     1     -10.191   9.999  68.176  1.00  0.00    -0.175 C  
HETATM   16  H   UNL     1     -10.212  12.052  68.534  1.00  0.00     0.000 HD 
HETATM   17  O   UNL     1     -10.480   9.105  67.388  1.00  0.00    -0.249 OA 
BRANCH  15  18
HETATM   18  C   UNL     1      -9.532   9.767  69.447  1.00  0.00    -0.212 A  
HETATM   19  C   UNL     1      -8.183   9.924  69.721  1.00  0.00    -0.180 A  
HETATM   20  C   UNL     1      -6.976  10.326  68.968  1.00  0.00    -0.064 C  
HETATM   21  O   UNL     1      -7.943   9.578  71.007  1.00  0.00    -0.321 OA 
HETATM   22  N   UNL     1      -9.104   9.171  71.603  1.00  0.00    -0.334 NA 
HETATM   23  C   UNL     1     -10.080   9.269  70.682  1.00  0.00    -0.276 A  
BRANCH  23  24
HETATM   24  C   UNL     1     -11.454   8.904  71.062  1.00  0.00    -0.351 A  
HETATM   25  C   UNL     1     -12.354   9.831  71.602  1.00  0.00    -0.495 A  
HETATM   26  C   UNL     1     -13.641   9.441  71.990  1.00  0.00    -0.505 A  
HETATM   27  C   UNL     1     -14.042   8.113  71.863  1.00  0.00    -0.493 A  
HETATM   28  C   UNL     1     -13.159   7.174  71.340  1.00  0.00    -0.408 A  
HETATM   29  C   UNL     1     -11.878   7.567  70.941  1.00  0.00    -0.293 A  
ENDBRANCH  23  24
ENDBRANCH  15  18
ENDBRANCH  12  14
TORSDOF 3
ENDMDL
MODEL        2
REMARK 921   NORMALIZED FREE ENERGY PREDICTED BY IDOCK:   -7.68 KCAL/MOL
REMARK 922        TOTAL FREE ENERGY PREDICTED BY IDOCK:   -9.93 KCAL/MOL
REMARK 923 INTER-LIGAND FREE ENERGY PREDICTED BY IDOCK:   -9.27 KCAL/MOL
REMARK 924 INTRA-LIGAND FREE ENERGY PREDICTED BY IDOCK:   -0.66 KCAL/MOL
REMARK 927      BINDING AFFINITY PREDICTED BY RF-SCORE:    0.00 PKD
ROOT
HETATM    1  C   UNL     1     -11.100  16.287  67.850  1.00  0.00    -0.270 C  
HETATM    2  S   UNL     1      -9.715  15.981  69.022  1.00  0.00    -0.257 SA 
HETATM    3  C   UNL     1      -8.412  16.690  67.914  1.00  0.00    -0.194 C  
HETATM    4  CA  UNL     1      -9.176  17.622  66.940  1.00  0.00    -0.263 C  
HETATM    5  C   UNL     1      -7.320  17.351  68.762  1.00  0.00    -0.257 C  
HETATM    6  C   UNL     1      -7.742  15.511  67.178  1.00  0.00    -0.257 C  
HETATM    7  N   UNL     1     -10.504  17.014  66.708  1.00  0.00    -0.291 N  
HETATM    8  C   UNL     1      -9.392  19.065  67.432  1.00  0.00    -0.303 C  
HETATM    9  OXT UNL     1      -8.506  19.810  67.819  1.00  0.00    -0.306 OA 
HETATM   10  O   UNL     1     -10.675  19.496  67.315  1.00  0.00    -0.471 OA 
HETATM   11  C   UNL     1     -10.633  15.953  65.847  1.00  0.00    -0.337 C  
HETATM   12  CA  UNL     1     -11.466  15.143  66.868  1.00  0.00    -0.214 C  
HETATM   13  O   UNL     1     -10.090  15.741  64.787  1.00  0.00    -0.330 OA 
ENDROOT
BRANCH  12  14
HETATM   14  N   UNL     1     -10.961  13.786  67.213  1.00  0.00    -0.288 N  
HETATM   15  C   UNL     1     -11.585  12.658  66.717  1.00  0.00    -0.374 C  
HETATM   16  H   UNL     1     -10.148  13.688  67.821  1.00  0.00     0.000 HD 
HETATM   17  O   UNL     1     -12.511  12.755  65.919  1.00  0.00    -0.560 OA 
BRANCH  15  18
HETATM   18  C   UNL     1     -11.097  11.392  67.230  1.00  0.00    -0.363 A  
HETATM   19  C   UNL     1     -10.375  10.438  66.531  1.00  0.00    -0.224 A  
HETATM   20  C   UNL     1      -9.856  10.282  65.156  1.00  0.00    -0.389 C  
HETATM   21  O   UNL     1     -10.133   9.379  67.339  1.00  0.00    -0.186 OA 
HETATM   22  N   UNL     1     -10.695   9.592  68.566  1.00  0.00    -0.217 NA 
HETATM   23  C   UNL     1     -11.290  10.798  68.528  1.00  0.00    -0.295 A  
BRANCH  23  24
HETATM   24  C   UNL     1     -11.969  11.293  69.736  1.00  0.00    -0.431 A  
HETATM   25  C   UNL     1     -12.016  12.653  70.066  1.00  0.00    -0.377 A  
HETATM   26  C   UNL     1     -12.637  13.085  71.244  1.00  0.00    -0.373 A  
HETATM   27  C   UNL     1     -13.202  12.162  72.121  1.00  0.00    -0.438 A  
HETATM   28  C   UNL     1     -13.157  10.805  71.817  1.00  0.00    -0.573 A  
HETATM   29  C   UNL     1     -12.548  10.375  70.634  1.00  0.00    -0.435 A  
ENDBRANCH  23  24
ENDBRANCH  15  18
ENDBRANCH  12  14
TORSDOF 3
ENDMDL
MODEL        3
REMARK 921   NORMALIZED FREE ENERGY PREDICTED BY IDOCK:   -7.68 KCAL/MOL
REMARK 922        TOTAL FREE ENERGY PREDICTED BY IDOCK:   -9.93 KCAL/MOL
REMARK 923 INTER-LIGAND FREE ENERGY PREDICTED BY IDOCK:   -9.09 KCAL/MOL
REMARK 924 INTRA-LIGAND FREE ENERGY PREDICTED BY IDOCK:   -0.84 KCAL/MOL
REMARK 927      BINDING AFFINITY PREDICTED BY RF-SCORE:    0.00 PKD
ROOT
HETATM    1  C   UNL     1      -9.977  17.474  67.654  1.00  0.00    -0.309 C  
HETATM    2  S   UNL     1      -8.627  17.050  68.830  1.00  0.00    -0.200 SA 
HETATM    3  C   UNL     1      -7.366  16.732  67.513  1.00  0.00    -0.153 C  
HETATM    4  CA  UNL     1      -7.883  17.497  66.268  1.00  0.00    -0.287 C  
HETATM    5  C   UNL     1      -5.977  17.134  68.022  1.00  0.00    -0.127 C  
HETATM    6  C   UNL     1      -7.322  15.208  67.276  1.00  0.00    -0.216 C  
HETATM    7  N   UNL     1      -9.360  17.450  66.310  1.00  0.00    -0.246 N  
HETATM    8  C   UNL     1      -7.456  18.974  66.171  1.00  0.00    -0.270 C  
HETATM    9  OXT UNL     1      -6.303  19.372  66.226  1.00  0.00    -0.175 OA 
HETATM   10  O   UNL     1      -8.485  19.825  65.919  1.00  0.00    -0.359 OA 
HETATM   11  C   UNL     1     -10.022  16.310  65.926  1.00  0.00    -0.339 C  
HETATM   12  CA  UNL     1     -10.907  16.320  67.194  1.00  0.00    -0.190 C  
HETATM   13  O   UNL     1      -9.789  15.543  65.020  1.00  0.00    -0.290 OA 
ENDROOT
BRANCH  12  14
HETATM   14  N   UNL     1     -10.894  15.086  68.026  1.00  0.00    -0.262 N  
HETATM   15  C   UNL     1     -11.695  14.010  67.699  1.00  0.00    -0.377 C  
HETATM   16  H   UNL     1     -10.288  15.034  68.845  1.00  0.00     0.000 HD 
HETATM   17  O   UNL     1     -12.367  14.019  66.673  1.00  0.00    -0.451 OA 
BRANCH  15  18
HETATM   18  C   UNL     1     -11.707  12.919  68.655  1.00  0.00    -0.359 A  
HETATM   19  C   UNL     1     -11.429  11.587  68.396  1.00  0.00    -0.298 A  
HETATM   20  C   UNL     1     -11.062  10.779  67.214  1.00  0.00    -0.339 C  
HETATM   21  O   UNL     1     -11.578  10.869  69.533  1.00  0.00    -0.258 OA 
HETATM   22  N   UNL     1     -11.970  11.689  70.554  1.00  0.00    -0.359 NA 
HETATM   23  C   UNL     1     -12.062  12.933  70.051  1.00  0.00    -0.286 A  
BRANCH  23  24
HETATM   24  C   UNL     1     -12.456  14.033  70.947  1.00  0.00    -0.439 A  
HETATM   25  C   UNL     1     -11.541  14.986  71.411  1.00  0.00    -0.397 A  
HETATM   26  C   UNL     1     -11.941  15.996  72.293  1.00  0.00    -0.633 A  
HETATM   27  C   UNL     1     -13.259  16.056  72.742  1.00  0.00    -0.507 A  
HETATM   28  C   UNL     1     -14.181  15.113  72.302  1.00  0.00    -0.613 A  
HETATM   29  C   UNL     1     -13.783  14.112  71.410  1.00  0.00    -0.345 A  
ENDBRANCH  23  24
ENDBRANCH  15  18
ENDBRANCH  12  14
TORSDOF 3
ENDMDL
MODEL        4
REMARK 921   NORMALIZED FREE ENERGY PREDICTED BY IDOCK:   -7.40 KCAL/MOL
REMARK 922        TOTAL FREE ENERGY PREDICTED BY IDOCK:   -9.60 KCAL/MOL
REMARK 923 INTER-LIGAND FREE ENERGY PREDICTED BY IDOCK:   -8.80 KCAL/MOL
REMARK 924 INTRA-LIGAND FREE ENERGY PREDICTED BY IDOCK:   -0.80 KCAL/MOL
REMARK 927      BINDING AFFINITY PREDICTED BY RF-SCORE:    0.00 PKD
ROOT
HETATM    1  C   UNL     1     -11.282   7.688  70.960  1.00  0.00    -0.267 C  
HETATM    2  S   UNL     1     -10.709   7.597  69.214  1.00  0.00    -0.105 SA 
HETATM    3  C   UNL     1      -8.971   7.130  69.643  1.00  0.00    -0.141 C  
HETATM    4  CA  UNL     1      -9.055   6.531  71.070  1.00  0.00    -0.150 C  
HETATM    5  C   UNL     1      -8.402   6.208  68.558  1.00  0.00    -0.114 C  
HETATM    6  C   UNL     1      -8.125   8.420  69.609  1.00  0.00    -0.115 C  
HETATM    7  N   UNL     1     -10.131   7.253  71.782  1.00  0.00    -0.179 N  
HETATM    8  C   UNL     1      -9.364   5.024  71.142  1.00  0.00    -0.149 C  
HETATM    9  OXT UNL     1      -8.733   4.154  70.562  1.00  0.00    -0.075 OA 
HETATM   10  O   UNL     1     -10.370   4.712  72.000  1.00  0.00    -0.194 OA 
HETATM   11  C   UNL     1      -9.900   8.508  72.287  1.00  0.00    -0.313 C  
HETATM   12  CA  UNL     1     -11.200   9.068  71.664  1.00  0.00    -0.361 C  
HETATM   13  O   UNL     1      -8.917   8.960  72.829  1.00  0.00    -0.305 OA 
ENDROOT
BRANCH  12  14
HETATM   14  N   UNL     1     -11.058  10.256  70.779  1.00  0.00    -0.380 N  
HETATM   15  C   UNL     1     -12.103  11.145  70.624  1.00  0.00    -0.379 C  
HETATM   16  H   UNL     1     -10.181  10.416  70.282  1.00  0.00     0.000 HD 
HETATM   17  O   UNL     1     -13.134  11.018  71.274  1.00  0.00    -0.373 OA 
BRANCH  15  18
HETATM   18  C   UNL     1     -11.903  12.185  69.632  1.00  0.00    -0.391 A  
HETATM   19  C   UNL     1     -11.479  12.011  68.324  1.00  0.00    -0.303 A  
HETATM   20  C   UNL     1     -11.083  10.872  67.468  1.00  0.00    -0.375 C  
HETATM   21  O   UNL     1     -11.380  13.218  67.721  1.00  0.00    -0.266 OA 
HETATM   22  N   UNL     1     -11.712  14.208  68.603  1.00  0.00    -0.329 NA 
HETATM   23  C   UNL     1     -12.027  13.613  69.768  1.00  0.00    -0.341 A  
BRANCH  23  24
HETATM   24  C   UNL     1     -12.443  14.452  70.903  1.00  0.00    -0.424 A  
HETATM   25  C   UNL     1     -11.521  15.104  71.731  1.00  0.00    -0.452 A  
HETATM   26  C   UNL     1     -11.951  15.863  72.826  1.00  0.00    -0.616 A  
HETATM   27  C   UNL     1     -13.308  15.964  73.123  1.00  0.00    -0.681 A  
HETATM   28  C   UNL     1     -14.239  15.315  72.320  1.00  0.00    -0.642 A  
HETATM   29  C   UNL     1     -13.810  14.568  71.218  1.00  0.00    -0.381 A  
ENDBRANCH  23  24
ENDBRANCH  15  18
ENDBRANCH  12  14
TORSDOF 3
ENDMDL
MODEL        5
REMARK 921   NORMALIZED FREE ENERGY PREDICTED BY IDOCK:   -7.34 KCAL/MOL
REMARK 922        TOTAL FREE ENERGY PREDICTED BY IDOCK:   -9.54 KCAL/MOL
REMARK 923 INTER-LIGAND FREE ENERGY PREDICTED BY IDOCK:   -8.94 KCAL/MOL
REMARK 924 INTRA-LIGAND FREE ENERGY PREDICTED BY IDOCK:   -0.60 KCAL/MOL
REMARK 927      BINDING AFFINITY PREDICTED BY RF-SCORE:    0.00 PKD
ROOT
HETATM    1  C   UNL     1     -11.986   7.187  71.919  1.00  0.00    -0.307 C  
HETATM    2  S   UNL     1     -11.649   6.830  70.146  1.00  0.00    -0.304 SA 
HETATM    3  C   UNL     1      -9.970   6.111  70.447  1.00  0.00    -0.181 C  
HETATM    4  CA  UNL     1      -9.979   5.676  71.935  1.00  0.00    -0.180 C  
HETATM    5  C   UNL     1      -9.693   5.005  69.423  1.00  0.00    -0.254 C  
HETATM    6  C   UNL     1      -8.938   7.225  70.178  1.00  0.00    -0.148 C  
HETATM    7  N   UNL     1     -10.831   6.639  72.664  1.00  0.00    -0.237 N  
HETATM    8  C   UNL     1     -10.518   4.260  72.210  1.00  0.00    -0.094 C  
HETATM    9  OXT UNL     1     -10.111   3.242  71.673  1.00  0.00    -0.145 OA 
HETATM   10  O   UNL     1     -11.452   4.212  73.196  1.00  0.00    -0.166 OA 
HETATM   11  C   UNL     1     -10.340   7.878  72.995  1.00  0.00    -0.334 C  
HETATM   12  CA  UNL     1     -11.597   8.593  72.447  1.00  0.00    -0.315 C  
HETATM   13  O   UNL     1      -9.239   8.201  73.378  1.00  0.00    -0.265 OA 
ENDROOT
BRANCH  12  14
HETATM   14  N   UNL     1     -11.371   9.648  71.422  1.00  0.00    -0.379 N  
HETATM   15  C   UNL     1     -12.263  10.693  71.280  1.00  0.00    -0.341 C  
HETATM   16  H   UNL     1     -10.550   9.599  70.818  1.00  0.00     0.000 HD 
HETATM   17  O   UNL     1     -13.209  10.816  72.050  1.00  0.00    -0.484 OA 
BRANCH  15  18
HETATM   18  C   UNL     1     -12.020  11.581  70.160  1.00  0.00    -0.452 A  
HETATM   19  C   UNL     1     -11.593  11.218  68.893  1.00  0.00    -0.319 A  
HETATM   20  C   UNL     1     -11.233   9.961  68.202  1.00  0.00    -0.142 C  
HETATM   21  O   UNL     1     -11.446  12.329  68.133  1.00  0.00    -0.270 OA 
HETATM   22  N   UNL     1     -11.749  13.439  68.870  1.00  0.00    -0.307 NA 
HETATM   23  C   UNL     1     -12.092  13.018  70.101  1.00  0.00    -0.307 A  
BRANCH  23  24
HETATM   24  C   UNL     1     -12.485  14.017  71.109  1.00  0.00    -0.447 A  
HETATM   25  C   UNL     1     -13.788  14.097  71.616  1.00  0.00    -0.442 A  
HETATM   26  C   UNL     1     -14.136  15.085  72.545  1.00  0.00    -0.503 A  
HETATM   27  C   UNL     1     -13.194  16.021  72.964  1.00  0.00    -0.590 A  
HETATM   28  C   UNL     1     -11.898  15.966  72.463  1.00  0.00    -0.613 A  
HETATM   29  C   UNL     1     -11.546  14.970  71.546  1.00  0.00    -0.409 A  
ENDBRANCH  23  24
ENDBRANCH  15  18
ENDBRANCH  12  14
TORSDOF 3
ENDMDL
MODEL        6
REMARK 921   NORMALIZED FREE ENERGY PREDICTED BY IDOCK:   -7.26 KCAL/MOL
REMARK 922        TOTAL FREE ENERGY PREDICTED BY IDOCK:   -9.44 KCAL/MOL
REMARK 923 INTER-LIGAND FREE ENERGY PREDICTED BY IDOCK:   -8.57 KCAL/MOL
REMARK 924 INTRA-LIGAND FREE ENERGY PREDICTED BY IDOCK:   -0.87 KCAL/MOL
REMARK 927      BINDING AFFINITY PREDICTED BY RF-SCORE:    0.00 PKD
ROOT
HETATM    1  C   UNL     1     -10.681   8.257  69.783  1.00  0.00    -0.221 C  
HETATM    2  S   UNL     1     -10.485   8.476  67.967  1.00  0.00    -0.152 SA 
HETATM    3  C   UNL     1      -8.681   8.067  67.952  1.00  0.00    -0.128 C  
HETATM    4  CA  UNL     1      -8.442   7.250  69.247  1.00  0.00    -0.133 C  
HETATM    5  C   UNL     1      -8.323   7.365  66.637  1.00  0.00    -0.124 C  
HETATM    6  C   UNL     1      -7.906   9.401  67.961  1.00  0.00    -0.091 C  
HETATM    7  N   UNL     1      -9.369   7.779  70.271  1.00  0.00    -0.157 N  
HETATM    8  C   UNL     1      -8.679   5.733  69.130  1.00  0.00    -0.113 C  
HETATM    9  OXT UNL     1      -8.155   5.008  68.299  1.00  0.00    -0.086 OA 
HETATM   10  O   UNL     1      -9.471   5.225  70.110  1.00  0.00    -0.145 OA 
HETATM   11  C   UNL     1      -9.078   8.954  70.919  1.00  0.00    -0.230 C  
HETATM   12  CA  UNL     1     -10.499   9.515  70.674  1.00  0.00    -0.308 C  
HETATM   13  O   UNL     1      -8.019   9.381  71.318  1.00  0.00    -0.328 OA 
ENDROOT
BRANCH  12  14
HETATM   14  N   UNL     1     -10.586  10.832  69.987  1.00  0.00    -0.459 N  
HETATM   15  C   UNL     1     -11.775  11.536  69.966  1.00  0.00    -0.332 C  
HETATM   16  H   UNL     1      -9.762  11.220  69.528  1.00  0.00     0.000 HD 
HETATM   17  O   UNL     1     -12.753  11.129  70.582  1.00  0.00    -0.313 OA 
BRANCH  15  18
HETATM   18  C   UNL     1     -11.782  12.735  69.151  1.00  0.00    -0.375 A  
HETATM   19  C   UNL     1     -11.491  12.819  67.799  1.00  0.00    -0.326 A  
HETATM   20  C   UNL     1     -11.090  11.882  66.728  1.00  0.00    -0.359 C  
HETATM   21  O   UNL     1     -11.569  14.111  67.403  1.00  0.00    -0.331 OA 
HETATM   22  N   UNL     1     -11.891  14.906  68.468  1.00  0.00    -0.318 NA 
HETATM   23  C   UNL     1     -12.019  14.102  69.539  1.00  0.00    -0.340 A  
BRANCH  23  24
HETATM   24  C   UNL     1     -12.381  14.699  70.835  1.00  0.00    -0.406 A  
HETATM   25  C   UNL     1     -11.420  15.145  71.750  1.00  0.00    -0.452 A  
HETATM   26  C   UNL     1     -11.799  15.672  72.990  1.00  0.00    -0.558 A  
HETATM   27  C   UNL     1     -13.145  15.742  73.343  1.00  0.00    -0.690 A  
HETATM   28  C   UNL     1     -14.115  15.294  72.453  1.00  0.00    -0.622 A  
HETATM   29  C   UNL     1     -13.736  14.780  71.209  1.00  0.00    -0.476 A  
ENDBRANCH  23  24
ENDBRANCH  15  18
ENDBRANCH  12  14
TORSDOF 3
ENDMDL
MODEL        7
REMARK 921   NORMALIZED FREE ENERGY PREDICTED BY IDOCK:   -7.13 KCAL/MOL
REMARK 922        TOTAL FREE ENERGY PREDICTED BY IDOCK:   -9.29 KCAL/MOL
REMARK 923 INTER-LIGAND FREE ENERGY PREDICTED BY IDOCK:   -8.41 KCAL/MOL
REMARK 924 INTRA-LIGAND FREE ENERGY PREDICTED BY IDOCK:   -0.88 KCAL/MOL
REMARK 927      BINDING AFFINITY PREDICTED BY RF-SCORE:    0.00 PKD
ROOT
HETATM    1  C   UNL     1     -10.654   8.432  69.540  1.00  0.00    -0.213 C  
HETATM    2  S   UNL     1     -10.368   8.722  67.746  1.00  0.00    -0.229 SA 
HETATM    3  C   UNL     1      -8.555   8.355  67.814  1.00  0.00    -0.130 C  
HETATM    4  CA  UNL     1      -8.366   7.496  69.090  1.00  0.00    -0.135 C  
HETATM    5  C   UNL     1      -8.111   7.710  66.496  1.00  0.00    -0.119 C  
HETATM    6  C   UNL     1      -7.815   9.705  67.912  1.00  0.00    -0.087 C  
HETATM    7  N   UNL     1      -9.358   7.965  70.081  1.00  0.00    -0.156 N  
HETATM    8  C   UNL     1      -8.559   5.979  68.906  1.00  0.00    -0.116 C  
HETATM    9  OXT UNL     1      -7.974   5.297  68.078  1.00  0.00    -0.091 OA 
HETATM   10  O   UNL     1      -9.389   5.418  69.823  1.00  0.00    -0.133 OA 
HETATM   11  C   UNL     1      -9.132   9.121  70.785  1.00  0.00    -0.255 C  
HETATM   12  CA  UNL     1     -10.550   9.659  70.484  1.00  0.00    -0.306 C  
HETATM   13  O   UNL     1      -8.106   9.558  71.256  1.00  0.00    -0.284 OA 
ENDROOT
BRANCH  12  14
HETATM   14  N   UNL     1     -10.634  10.999  69.841  1.00  0.00    -0.443 N  
HETATM   15  C   UNL     1     -11.840  11.668  69.765  1.00  0.00    -0.357 C  
HETATM   16  H   UNL     1      -9.793  11.427  69.453  1.00  0.00     0.000 HD 
HETATM   17  O   UNL     1     -12.844  11.209  70.298  1.00  0.00    -0.193 OA 
BRANCH  15  18
HETATM   18  C   UNL     1     -11.830  12.897  68.995  1.00  0.00    -0.352 A  
HETATM   19  C   UNL     1     -11.511  13.032  67.654  1.00  0.00    -0.324 A  
HETATM   20  C   UNL     1     -11.087  12.135  66.558  1.00  0.00    -0.352 C  
HETATM   21  O   UNL     1     -11.582  14.337  67.305  1.00  0.00    -0.338 OA 
HETATM   22  N   UNL     1     -11.926  15.091  68.392  1.00  0.00    -0.255 NA 
HETATM   23  C   UNL     1     -12.076  14.248  69.429  1.00  0.00    -0.318 A  
BRANCH  23  24
HETATM   24  C   UNL     1     -12.466  14.796  70.739  1.00  0.00    -0.402 A  
HETATM   25  C   UNL     1     -13.802  14.878  71.149  1.00  0.00    -0.428 A  
HETATM   26  C   UNL     1     -14.140  15.442  72.386  1.00  0.00    -0.645 A  
HETATM   27  C   UNL     1     -13.148  15.951  73.221  1.00  0.00    -0.694 A  
HETATM   28  C   UNL     1     -11.816  15.890  72.827  1.00  0.00    -0.583 A  
HETATM   29  C   UNL     1     -11.478  15.315  71.597  1.00  0.00    -0.471 A  
ENDBRANCH  23  24
ENDBRANCH  15  18
ENDBRANCH  12  14
TORSDOF 3
ENDMDL
MODEL        8
REMARK 921   NORMALIZED FREE ENERGY PREDICTED BY IDOCK:   -6.98 KCAL/MOL
REMARK 922        TOTAL FREE ENERGY PREDICTED BY IDOCK:   -9.11 KCAL/MOL
REMARK 923 INTER-LIGAND FREE ENERGY PREDICTED BY IDOCK:   -8.39 KCAL/MOL
REMARK 924 INTRA-LIGAND FREE ENERGY PREDICTED BY IDOCK:   -0.72 KCAL/MOL
REMARK 927      BINDING AFFINITY PREDICTED BY RF-SCORE:    0.00 PKD
ROOT
HETATM    1  C   UNL     1     -10.986  16.307  68.095  1.00  0.00    -0.343 C  
HETATM    2  S   UNL     1      -9.507  15.917  69.117  1.00  0.00    -0.270 SA 
HETATM    3  C   UNL     1      -8.293  16.628  67.915  1.00  0.00    -0.185 C  
HETATM    4  CA  UNL     1      -9.115  17.618  67.051  1.00  0.00    -0.250 C  
HETATM    5  C   UNL     1      -7.104  17.225  68.677  1.00  0.00    -0.227 C  
HETATM    6  C   UNL     1      -7.734  15.458  67.078  1.00  0.00    -0.220 C  
HETATM    7  N   UNL     1     -10.478  17.059  66.926  1.00  0.00    -0.299 N  
HETATM    8  C   UNL     1      -9.236  19.048  67.611  1.00  0.00    -0.294 C  
HETATM    9  OXT UNL     1      -8.292  19.751  67.936  1.00  0.00    -0.299 OA 
HETATM   10  O   UNL     1     -10.509  19.520  67.632  1.00  0.00    -0.420 OA 
HETATM   11  C   UNL     1     -10.722  16.035  66.045  1.00  0.00    -0.267 C  
HETATM   12  CA  UNL     1     -11.480  15.212  67.113  1.00  0.00    -0.250 C  
HETATM   13  O   UNL     1     -10.289  15.846  64.931  1.00  0.00    -0.517 OA 
ENDROOT
BRANCH  12  14
HETATM   14  N   UNL     1     -10.991  13.829  67.361  1.00  0.00    -0.280 N  
HETATM   15  C   UNL     1     -11.647  12.743  66.816  1.00  0.00    -0.370 C  
HETATM   16  H   UNL     1     -10.163  13.681  67.939  1.00  0.00     0.000 HD 
HETATM   17  O   UNL     1     -12.592  12.902  66.052  1.00  0.00    -0.467 OA 
BRANCH  15  18
HETATM   18  C   UNL     1     -11.168  11.441  67.238  1.00  0.00    -0.370 A  
HETATM   19  C   UNL     1     -11.391  10.834  68.464  1.00  0.00    -0.295 A  
HETATM   20  C   UNL     1     -12.096  11.176  69.717  1.00  0.00    -0.414 C  
HETATM   21  O   UNL     1     -10.754   9.640  68.495  1.00  0.00    -0.219 OA 
HETATM   22  N   UNL     1     -10.088   9.436  67.319  1.00  0.00    -0.210 NA 
HETATM   23  C   UNL     1     -10.315  10.511  66.542  1.00  0.00    -0.233 A  
BRANCH  23  24
HETATM   24  C   UNL     1      -9.723  10.552  65.195  1.00  0.00    -0.341 A  
HETATM   25  C   UNL     1      -8.453  10.032  64.919  1.00  0.00    -0.173 A  
HETATM   26  C   UNL     1      -7.904  10.122  63.634  1.00  0.00    -0.154 A  
HETATM   27  C   UNL     1      -8.608  10.753  62.611  1.00  0.00    -0.266 A  
HETATM   28  C   UNL     1      -9.867  11.286  62.868  1.00  0.00    -0.317 A  
HETATM   29  C   UNL     1     -10.420  11.184  64.148  1.00  0.00    -0.442 A  
ENDBRANCH  23  24
ENDBRANCH  15  18
ENDBRANCH  12  14
TORSDOF 3
ENDMDL
MODEL        9
REMARK 921   NORMALIZED FREE ENERGY PREDICTED BY IDOCK:   -6.89 KCAL/MOL
REMARK 922        TOTAL FREE ENERGY PREDICTED BY IDOCK:   -9.00 KCAL/MOL
REMARK 923 INTER-LIGAND FREE ENERGY PREDICTED BY IDOCK:   -8.05 KCAL/MOL
REMARK 924 INTRA-LIGAND FREE ENERGY PREDICTED BY IDOCK:   -0.95 KCAL/MOL
REMARK 927      BINDING AFFINITY PREDICTED BY RF-SCORE:    0.00 PKD
ROOT
HETATM    1  C   UNL     1      -7.482  17.125  66.374  1.00  0.00    -0.306 C  
HETATM    2  S   UNL     1      -9.099  17.921  66.001  1.00  0.00     0.131 SA 
HETATM    3  C   UNL     1      -9.135  18.936  67.547  1.00  0.00    -0.280 C  
HETATM    4  CA  UNL     1      -7.656  19.030  68.002  1.00  0.00    -0.270 C  
HETATM    5  C   UNL     1      -9.841  20.269  67.272  1.00  0.00    -0.593 C  
HETATM    6  C   UNL     1     -10.007  18.183  68.573  1.00  0.00    -0.408 C  
HETATM    7  N   UNL     1      -7.003  17.759  67.622  1.00  0.00    -0.179 N  
HETATM    8  C   UNL     1      -6.844  20.186  67.390  1.00  0.00    -0.235 C  
HETATM    9  OXT UNL     1      -7.171  21.362  67.421  1.00  0.00    -0.535 OA 
HETATM   10  O   UNL     1      -5.648  19.799  66.872  1.00  0.00    -0.173 OA 
HETATM   11  C   UNL     1      -7.200  16.632  68.379  1.00  0.00    -0.173 C  
HETATM   12  CA  UNL     1      -7.515  15.772  67.133  1.00  0.00    -0.224 C  
HETATM   13  O   UNL     1      -7.277  16.505  69.580  1.00  0.00    -0.209 OA 
ENDROOT
BRANCH  12  14
HETATM   14  N   UNL     1      -8.814  15.044  67.136  1.00  0.00    -0.200 N  
HETATM   15  C   UNL     1      -8.938  13.831  67.784  1.00  0.00    -0.194 C  
HETATM   16  H   UNL     1      -9.620  15.445  66.655  1.00  0.00     0.000 HD 
HETATM   17  O   UNL     1      -8.007  13.373  68.437  1.00  0.00    -0.138 OA 
BRANCH  15  18
HETATM   18  C   UNL     1     -10.203  13.147  67.602  1.00  0.00    -0.224 A  
HETATM   19  C   UNL     1     -10.557  12.328  66.542  1.00  0.00    -0.234 A  
HETATM   20  C   UNL     1      -9.921  11.854  65.295  1.00  0.00    -0.280 C  
HETATM   21  O   UNL     1     -11.831  11.903  66.710  1.00  0.00    -0.598 OA 
HETATM   22  N   UNL     1     -12.352  12.434  67.856  1.00  0.00    -0.117 NA 
HETATM   23  C   UNL     1     -11.393  13.196  68.413  1.00  0.00    -0.289 A  
BRANCH  23  24
HETATM   24  C   UNL     1     -11.681  13.884  69.682  1.00  0.00    -0.370 A  
HETATM   25  C   UNL     1     -11.184  15.160  69.972  1.00  0.00    -0.301 A  
HETATM   26  C   UNL     1     -11.445  15.769  71.205  1.00  0.00    -0.481 A  
HETATM   27  C   UNL     1     -12.189  15.103  72.176  1.00  0.00    -0.451 A  
HETATM   28  C   UNL     1     -12.682  13.829  71.912  1.00  0.00    -0.347 A  
HETATM   29  C   UNL     1     -12.432  13.227  70.675  1.00  0.00    -0.373 A  
ENDBRANCH  23  24
ENDBRANCH  15  18
ENDBRANCH  12  14
TORSDOF 3
ENDMDL
MODEL       10
REMARK 921   NORMALIZED FREE ENERGY PREDICTED BY IDOCK:   -6.80 KCAL/MOL
REMARK 922        TOTAL FREE ENERGY PREDICTED BY IDOCK:   -8.90 KCAL/MOL
REMARK 923 INTER-LIGAND FREE ENERGY PREDICTED BY IDOCK:   -7.39 KCAL/MOL
REMARK 924 INTRA-LIGAND FREE ENERGY PREDICTED BY IDOCK:   -1.51 KCAL/MOL
REMARK 927      BINDING AFFINITY PREDICTED BY RF-SCORE:    0.00 PKD
ROOT
HETATM    1  C   UNL     1     -10.836   8.235  69.965  1.00  0.00    -0.232 C  
HETATM    2  S   UNL     1     -10.164   9.114  68.494  1.00  0.00    -0.203 SA 
HETATM    3  C   UNL     1      -8.391   8.785  68.910  1.00  0.00    -0.127 C  
HETATM    4  CA  UNL     1      -8.420   7.554  69.852  1.00  0.00    -0.138 C  
HETATM    5  C   UNL     1      -7.580   8.626  67.619  1.00  0.00    -0.098 C  
HETATM    6  C   UNL     1      -7.844  10.040  69.620  1.00  0.00    -0.171 C  
HETATM    7  N   UNL     1      -9.664   7.644  70.647  1.00  0.00    -0.175 N  
HETATM    8  C   UNL     1      -8.400   6.181  69.153  1.00  0.00    -0.116 C  
HETATM    9  OXT UNL     1      -7.566   5.828  68.335  1.00  0.00    -0.086 OA 
HETATM   10  O   UNL     1      -9.360   5.328  69.597  1.00  0.00    -0.116 OA 
HETATM   11  C   UNL     1      -9.736   8.504  71.714  1.00  0.00    -0.267 C  
HETATM   12  CA  UNL     1     -11.091   9.080  71.241  1.00  0.00    -0.312 C  
HETATM   13  O   UNL     1      -8.903   8.781  72.548  1.00  0.00    -0.402 OA 
ENDROOT
BRANCH  12  14
HETATM   14  N   UNL     1     -11.161  10.555  71.058  1.00  0.00    -0.256 N  
HETATM   15  C   UNL     1     -12.348  11.162  70.696  1.00  0.00    -0.388 C  
HETATM   16  H   UNL     1     -10.326  11.124  71.200  1.00  0.00     0.000 HD 
HETATM   17  O   UNL     1     -13.381  10.509  70.602  1.00  0.00    -0.245 OA 
BRANCH  15  18
HETATM   18  C   UNL     1     -12.267  12.581  70.408  1.00  0.00    -0.368 A  
HETATM   19  C   UNL     1     -12.792  13.612  71.171  1.00  0.00    -0.323 A  
HETATM   20  C   UNL     1     -13.566  13.731  72.425  1.00  0.00    -0.690 C  
HETATM   21  O   UNL     1     -12.544  14.794  70.560  1.00  0.00    -0.334 OA 
HETATM   22  N   UNL     1     -11.875  14.579  69.387  1.00  0.00    -0.307 NA 
HETATM   23  C   UNL     1     -11.700  13.251  69.266  1.00  0.00    -0.326 A  
BRANCH  23  24
HETATM   24  C   UNL     1     -10.986  12.733  68.087  1.00  0.00    -0.273 A  
HETATM   25  C   UNL     1      -9.591  12.765  67.983  1.00  0.00    -0.217 A  
HETATM   26  C   UNL     1      -8.946  12.300  66.830  1.00  0.00    -0.209 A  
HETATM   27  C   UNL     1      -9.689  11.815  65.756  1.00  0.00    -0.260 A  
HETATM   28  C   UNL     1     -11.077  11.786  65.835  1.00  0.00    -0.355 A  
HETATM   29  C   UNL     1     -11.720  12.238  66.992  1.00  0.00    -0.399 A  
ENDBRANCH  23  24
ENDBRANCH  15  18
ENDBRANCH  12  14
TORSDOF 3
ENDMDL
MODEL       11
REMARK 921   NORMALIZED FREE ENERGY PREDICTED BY IDOCK:   -6.80 KCAL/MOL
REMARK 922        TOTAL FREE ENERGY PREDICTED BY IDOCK:   -8.89 KCAL/MOL
REMARK 923 INTER-LIGAND FREE ENERGY PREDICTED BY IDOCK:   -7.99 KCAL/MOL
REMARK 924 INTRA-LIGAND FREE ENERGY PREDICTED BY IDOCK:   -0.91 KCAL/MOL
REMARK 927      BINDING AFFINITY PREDICTED BY RF-SCORE:    0.00 PKD
ROOT
HETATM    1  C   UNL     1      -9.933  11.509  68.700  1.00  0.00    -0.199 C  
HETATM    2  S   UNL     1     -10.671  10.705  67.220  1.00  0.00    -0.285 SA 
HETATM    3  C   UNL     1      -9.122   9.819  66.733  1.00  0.00    -0.146 C  
HETATM    4  CA  UNL     1      -8.275   9.745  68.029  1.00  0.00    -0.109 C  
HETATM    5  C   UNL     1      -9.478   8.476  66.084  1.00  0.00    -0.286 C  
HETATM    6  C   UNL     1      -8.432  10.663  65.641  1.00  0.00    -0.180 C  
HETATM    7  N   UNL     1      -8.558  10.973  68.803  1.00  0.00    -0.156 N  
HETATM    8  C   UNL     1      -8.555   8.534  68.939  1.00  0.00    -0.127 C  
HETATM    9  OXT UNL     1      -8.526   7.368  68.576  1.00  0.00    -0.125 OA 
HETATM   10  O   UNL     1      -8.755   8.863  70.241  1.00  0.00    -0.142 OA 
HETATM   11  C   UNL     1      -7.970  12.161  68.447  1.00  0.00    -0.152 C  
HETATM   12  CA  UNL     1      -9.316  12.920  68.508  1.00  0.00    -0.074 C  
HETATM   13  O   UNL     1      -6.848  12.386  68.051  1.00  0.00    -0.073 OA 
ENDROOT
BRANCH  12  14
HETATM   14  N   UNL     1      -9.721  13.660  67.282  1.00  0.00    -0.237 N  
HETATM   15  C   UNL     1     -10.837  14.474  67.290  1.00  0.00    -0.297 C  
HETATM   16  H   UNL     1      -9.170  13.566  66.429  1.00  0.00     0.000 HD 
HETATM   17  O   UNL     1     -11.464  14.666  68.326  1.00  0.00    -0.284 OA 
BRANCH  15  18
HETATM   18  C   UNL     1     -11.217  15.032  66.007  1.00  0.00    -0.310 A  
HETATM   19  C   UNL     1     -11.938  14.397  65.008  1.00  0.00    -0.412 A  
HETATM   20  C   UNL     1     -12.548  13.065  64.808  1.00  0.00    -0.460 C  
HETATM   21  O   UNL     1     -12.063  15.229  63.948  1.00  0.00    -0.525 OA 
HETATM   22  N   UNL     1     -11.424  16.410  64.204  1.00  0.00    -1.032 NA 
HETATM   23  C   UNL     1     -10.898  16.317  65.439  1.00  0.00    -0.273 A  
BRANCH  23  24
HETATM   24  C   UNL     1     -10.159  17.468  65.984  1.00  0.00    -0.270 A  
HETATM   25  C   UNL     1     -10.685  18.765  65.983  1.00  0.00    -0.337 A  
HETATM   26  C   UNL     1      -9.938  19.843  66.474  1.00  0.00    -0.591 A  
HETATM   27  C   UNL     1      -8.646  19.643  66.952  1.00  0.00    -0.359 A  
HETATM   28  C   UNL     1      -8.100  18.364  66.951  1.00  0.00    -0.257 A  
HETATM   29  C   UNL     1      -8.852  17.285  66.473  1.00  0.00    -0.290 A  
ENDBRANCH  23  24
ENDBRANCH  15  18
ENDBRANCH  12  14
TORSDOF 3
ENDMDL
MODEL       12
REMARK 921   NORMALIZED FREE ENERGY PREDICTED BY IDOCK:   -6.80 KCAL/MOL
REMARK 922        TOTAL FREE ENERGY PREDICTED BY IDOCK:   -8.89 KCAL/MOL
REMARK 923 INTER-LIGAND FREE ENERGY PREDICTED BY IDOCK:   -7.98 KCAL/MOL
REMARK 924 INTRA-LIGAND FREE ENERGY PREDICTED BY IDOCK:   -0.91 KCAL/MOL
REMARK 927      BINDING AFFINITY PREDICTED BY RF-SCORE:    0.00 PKD
ROOT
HETATM    1  C   UNL     1     -11.409  10.848  65.997  1.00  0.00     0.383 C  
HETATM    2  S   UNL     1     -11.613  12.195  67.234  1.00  0.00    -0.306 SA 
HETATM    3  C   UNL     1     -10.663  13.449  66.260  1.00  0.00    -0.287 C  
HETATM    4  CA  UNL     1     -10.709  12.941  64.796  1.00  0.00    -0.333 C  
HETATM    5  C   UNL     1     -11.249  14.844  66.507  1.00  0.00    -0.335 C  
HETATM    6  C   UNL     1      -9.225  13.473  66.817  1.00  0.00    -0.248 C  
HETATM    7  N   UNL     1     -10.707  11.463  64.849  1.00  0.00    -0.298 N  
HETATM    8  C   UNL     1     -11.933  13.387  63.975  1.00  0.00    -0.464 C  
HETATM    9  OXT UNL     1     -12.291  14.545  63.830  1.00  0.00    -0.730 OA 
HETATM   10  O   UNL     1     -12.556  12.369  63.326  1.00  0.00    -0.661 OA 
HETATM   11  C   UNL     1      -9.537  10.785  65.083  1.00  0.00    -0.245 C  
HETATM   12  CA  UNL     1     -10.191   9.903  66.171  1.00  0.00    -0.207 C  
HETATM   13  O   UNL     1      -8.416  11.007  64.684  1.00  0.00    -0.008 OA 
ENDROOT
BRANCH  12  14
HETATM   14  N   UNL     1      -9.539   9.900  67.510  1.00  0.00    -0.154 N  
HETATM   15  C   UNL     1      -9.630   8.795  68.333  1.00  0.00    -0.147 C  
HETATM   16  H   UNL     1      -9.020  10.721  67.821  1.00  0.00     0.000 HD 
HETATM   17  O   UNL     1     -10.177   7.769  67.945  1.00  0.00    -0.186 OA 
BRANCH  15  18
HETATM   18  C   UNL     1      -9.079   8.956  69.665  1.00  0.00    -0.151 A  
HETATM   19  C   UNL     1      -7.744   9.125  69.994  1.00  0.00    -0.088 A  
HETATM   20  C   UNL     1      -6.461   9.197  69.264  1.00  0.00    -0.045 C  
HETATM   21  O   UNL     1      -7.620   9.205  71.340  1.00  0.00    -0.293 OA 
HETATM   22  N   UNL     1      -8.847   9.075  71.928  1.00  0.00    -0.350 NA 
HETATM   23  C   UNL     1      -9.747   8.916  70.941  1.00  0.00    -0.239 A  
BRANCH  23  24
HETATM   24  C   UNL     1     -11.168   8.766  71.293  1.00  0.00    -0.352 A  
HETATM   25  C   UNL     1     -11.810   7.523  71.305  1.00  0.00    -0.319 A  
HETATM   26  C   UNL     1     -13.174   7.421  71.607  1.00  0.00    -0.416 A  
HETATM   27  C   UNL     1     -13.920   8.565  71.881  1.00  0.00    -0.498 A  
HETATM   28  C   UNL     1     -13.304   9.811  71.864  1.00  0.00    -0.530 A  
HETATM   29  C   UNL     1     -11.939   9.910  71.575  1.00  0.00    -0.473 A  
ENDBRANCH  23  24
ENDBRANCH  15  18
ENDBRANCH  12  14
TORSDOF 3
ENDMDL
MODEL       13
REMARK 921   NORMALIZED FREE ENERGY PREDICTED BY IDOCK:   -6.80 KCAL/MOL
REMARK 922        TOTAL FREE ENERGY PREDICTED BY IDOCK:   -8.89 KCAL/MOL
REMARK 923 INTER-LIGAND FREE ENERGY PREDICTED BY IDOCK:   -8.22 KCAL/MOL
REMARK 924 INTRA-LIGAND FREE ENERGY PREDICTED BY IDOCK:   -0.68 KCAL/MOL
REMARK 927      BINDING AFFINITY PREDICTED BY RF-SCORE:    0.00 PKD
ROOT
HETATM    1  C   UNL     1      -8.980  13.988  66.604  1.00  0.00    -0.154 C  
HETATM    2  S   UNL     1      -9.846  13.073  65.264  1.00  0.00    -0.007 SA 
HETATM    3  C   UNL     1     -11.443  13.988  65.454  1.00  0.00    -0.315 C  
HETATM    4  CA  UNL     1     -11.064  15.317  66.156  1.00  0.00    -0.280 C  
HETATM    5  C   UNL     1     -12.128  14.118  64.089  1.00  0.00    -0.437 C  
HETATM    6  C   UNL     1     -12.370  13.118  66.328  1.00  0.00    -0.346 C  
HETATM    7  N   UNL     1      -9.933  15.023  67.062  1.00  0.00    -0.240 N  
HETATM    8  C   UNL     1     -10.641  16.466  65.222  1.00  0.00    -0.299 C  
HETATM    9  OXT UNL     1     -11.301  16.880  64.282  1.00  0.00    -1.202 OA 
HETATM   10  O   UNL     1      -9.479  17.067  65.587  1.00  0.00    -0.526 OA 
HETATM   11  C   UNL     1     -10.160  14.412  68.269  1.00  0.00    -0.239 C  
HETATM   12  CA  UNL     1      -9.034  13.379  68.030  1.00  0.00    -0.190 C  
HETATM   13  O   UNL     1     -11.061  14.565  69.062  1.00  0.00    -0.241 OA 
ENDROOT
BRANCH  12  14
HETATM   14  N   UNL     1      -9.415  11.943  68.124  1.00  0.00    -0.190 N  
HETATM   15  C   UNL     1      -8.533  11.014  68.641  1.00  0.00    -0.157 C  
HETATM   16  H   UNL     1     -10.336  11.641  67.803  1.00  0.00     0.000 HD 
HETATM   17  O   UNL     1      -7.456  11.367  69.108  1.00  0.00    -0.114 OA 
BRANCH  15  18
HETATM   18  C   UNL     1      -8.954   9.629  68.554  1.00  0.00    -0.124 A  
HETATM   19  C   UNL     1      -8.398   8.643  67.754  1.00  0.00    -0.118 A  
HETATM   20  C   UNL     1      -7.301   8.556  66.768  1.00  0.00    -0.082 C  
HETATM   21  O   UNL     1      -9.085   7.489  67.922  1.00  0.00    -0.131 OA 
HETATM   22  N   UNL     1     -10.109   7.682  68.807  1.00  0.00    -0.189 NA 
HETATM   23  C   UNL     1     -10.058   8.968  69.200  1.00  0.00    -0.195 A  
BRANCH  23  24
HETATM   24  C   UNL     1     -11.048   9.450  70.177  1.00  0.00    -0.277 A  
HETATM   25  C   UNL     1     -11.415   8.705  71.304  1.00  0.00    -0.341 A  
HETATM   26  C   UNL     1     -12.389   9.177  72.191  1.00  0.00    -0.424 A  
HETATM   27  C   UNL     1     -13.027  10.393  71.954  1.00  0.00    -0.555 A  
HETATM   28  C   UNL     1     -12.685  11.144  70.835  1.00  0.00    -0.438 A  
HETATM   29  C   UNL     1     -11.702  10.677  69.956  1.00  0.00    -0.405 A  
ENDBRANCH  23  24
ENDBRANCH  15  18
ENDBRANCH  12  14
TORSDOF 3
ENDMDL
MODEL       14
REMARK 921   NORMALIZED FREE ENERGY PREDICTED BY IDOCK:   -6.78 KCAL/MOL
REMARK 922        TOTAL FREE ENERGY PREDICTED BY IDOCK:   -8.87 KCAL/MOL
REMARK 923 INTER-LIGAND FREE ENERGY PREDICTED BY IDOCK:   -7.82 KCAL/MOL
REMARK 924 INTRA-LIGAND FREE ENERGY PREDICTED BY IDOCK:   -1.05 KCAL/MOL
REMARK 927      BINDING AFFINITY PREDICTED BY RF-SCORE:    0.00 PKD
ROOT
HETATM    1  C   UNL     1      -8.310   8.416  67.682  1.00  0.00    -0.130 C  
HETATM    2  S   UNL     1      -9.792   8.408  66.592  1.00  0.00    -0.279 SA 
HETATM    3  C   UNL     1      -9.536  10.131  65.966  1.00  0.00    -0.210 C  
HETATM    4  CA  UNL     1      -8.032  10.425  66.198  1.00  0.00    -0.138 C  
HETATM    5  C   UNL     1     -10.026  10.229  64.516  1.00  0.00    -0.359 C  
HETATM    6  C   UNL     1     -10.441  11.063  66.797  1.00  0.00    -0.300 C  
HETATM    7  N   UNL     1      -7.635   9.709  67.429  1.00  0.00    -0.094 N  
HETATM    8  C   UNL     1      -7.086   9.986  65.065  1.00  0.00    -0.136 C  
HETATM    9  OXT UNL     1      -7.206  10.306  63.893  1.00  0.00    -0.127 OA 
HETATM   10  O   UNL     1      -6.017   9.266  65.495  1.00  0.00    -0.057 OA 
HETATM   11  C   UNL     1      -7.960  10.224  68.659  1.00  0.00    -0.111 C  
HETATM   12  CA  UNL     1      -8.512   8.866  69.153  1.00  0.00    -0.132 C  
HETATM   13  O   UNL     1      -7.965  11.370  69.046  1.00  0.00    -0.115 OA 
ENDROOT
BRANCH  12  14
HETATM   14  N   UNL     1      -9.911   8.860  69.662  1.00  0.00    -0.186 N  
HETATM   15  C   UNL     1     -10.170   9.038  71.007  1.00  0.00    -0.277 C  
HETATM   16  H   UNL     1     -10.686   8.724  69.012  1.00  0.00     0.000 HD 
HETATM   17  O   UNL     1      -9.261   9.286  71.791  1.00  0.00    -0.306 OA 
BRANCH  15  18
HETATM   18  C   UNL     1     -11.554   8.873  71.409  1.00  0.00    -0.382 A  
HETATM   19  C   UNL     1     -12.174   7.689  71.775  1.00  0.00    -0.311 A  
HETATM   20  C   UNL     1     -11.785   6.268  71.896  1.00  0.00    -0.370 C  
HETATM   21  O   UNL     1     -13.477   7.932  72.049  1.00  0.00    -0.291 OA 
HETATM   22  N   UNL     1     -13.754   9.256  71.857  1.00  0.00    -0.404 NA 
HETATM   23  C   UNL     1     -12.611   9.848  71.464  1.00  0.00    -0.416 A  
BRANCH  23  24
HETATM   24  C   UNL     1     -12.617  11.296  71.199  1.00  0.00    -0.501 A  
HETATM   25  C   UNL     1     -11.940  11.862  70.112  1.00  0.00    -0.413 A  
HETATM   26  C   UNL     1     -11.935  13.248  69.912  1.00  0.00    -0.400 A  
HETATM   27  C   UNL     1     -12.588  14.091  70.808  1.00  0.00    -0.431 A  
HETATM   28  C   UNL     1     -13.257  13.549  71.901  1.00  0.00    -0.510 A  
HETATM   29  C   UNL     1     -13.274  12.164  72.092  1.00  0.00    -0.438 A  
ENDBRANCH  23  24
ENDBRANCH  15  18
ENDBRANCH  12  14
TORSDOF 3
ENDMDL
MODEL       15
REMARK 921   NORMALIZED FREE ENERGY PREDICTED BY IDOCK:   -6.78 KCAL/MOL
REMARK 922        TOTAL FREE ENERGY PREDICTED BY IDOCK:   -8.87 KCAL/MOL
REMARK 923 INTER-LIGAND FREE ENERGY PREDICTED BY IDOCK:   -8.08 KCAL/MOL
REMARK 924 INTRA-LIGAND FREE ENERGY PREDICTED BY IDOCK:   -0.79 KCAL/MOL
REMARK 927      BINDING AFFINITY PREDICTED BY RF-SCORE:    0.00 PKD
ROOT
HETATM    1  C   UNL     1     -10.875  10.400  67.568  1.00  0.00    -0.301 C  
HETATM    2  S   UNL     1      -9.276  11.081  66.965  1.00  0.00    -0.155 SA 
HETATM    3  C   UNL     1      -8.230  10.027  68.068  1.00  0.00    -0.116 C  
HETATM    4  CA  UNL     1      -9.129   8.821  68.444  1.00  0.00    -0.141 C  
HETATM    5  C   UNL     1      -6.912   9.690  67.360  1.00  0.00    -0.084 C  
HETATM    6  C   UNL     1      -7.859  10.876  69.301  1.00  0.00    -0.096 C  
HETATM    7  N   UNL     1     -10.518   9.321  68.515  1.00  0.00    -0.210 N  
HETATM    8  C   UNL     1      -9.098   7.637  67.461  1.00  0.00    -0.125 C  
HETATM    9  OXT UNL     1      -8.085   7.064  67.090  1.00  0.00    -0.115 OA 
HETATM   10  O   UNL     1     -10.331   7.200  67.092  1.00  0.00    -0.227 OA 
HETATM   11  C   UNL     1     -10.941  10.023  69.616  1.00  0.00    -0.264 C  
HETATM   12  CA  UNL     1     -11.563  11.140  68.746  1.00  0.00    -0.322 C  
HETATM   13  O   UNL     1     -10.693   9.854  70.788  1.00  0.00    -0.306 OA 
ENDROOT
BRANCH  12  14
HETATM   14  N   UNL     1     -11.103  12.530  69.016  1.00  0.00    -0.319 N  
HETATM   15  C   UNL     1     -11.532  13.577  68.225  1.00  0.00    -0.310 C  
HETATM   16  H   UNL     1     -10.466  12.710  69.792  1.00  0.00     0.000 HD 
HETATM   17  O   UNL     1     -12.362  13.395  67.341  1.00  0.00    -0.260 OA 
BRANCH  15  18
HETATM   18  C   UNL     1     -10.912  14.861  68.490  1.00  0.00    -0.260 A  
HETATM   19  C   UNL     1      -9.930  15.479  67.732  1.00  0.00    -0.222 A  
HETATM   20  C   UNL     1      -9.168  15.166  66.505  1.00  0.00    -0.318 C  
HETATM   21  O   UNL     1      -9.581  16.648  68.319  1.00  0.00    -0.222 OA 
HETATM   22  N   UNL     1     -10.297  16.823  69.470  1.00  0.00    -0.259 NA 
HETATM   23  C   UNL     1     -11.105  15.756  69.602  1.00  0.00    -0.307 A  
BRANCH  23  24
HETATM   24  C   UNL     1     -12.009  15.691  70.761  1.00  0.00    -0.438 A  
HETATM   25  C   UNL     1     -13.354  15.321  70.643  1.00  0.00    -0.320 A  
HETATM   26  C   UNL     1     -14.196  15.307  71.761  1.00  0.00    -0.669 A  
HETATM   27  C   UNL     1     -13.712  15.683  73.012  1.00  0.00    -0.560 A  
HETATM   28  C   UNL     1     -12.382  16.065  73.149  1.00  0.00    -0.637 A  
HETATM   29  C   UNL     1     -11.537  16.066  72.034  1.00  0.00    -0.512 A  
ENDBRANCH  23  24
ENDBRANCH  15  18
ENDBRANCH  12  14
TORSDOF 3
ENDMDL
MODEL       16
REMARK 921   NORMALIZED FREE ENERGY PREDICTED BY IDOCK:   -6.78 KCAL/MOL
REMARK 922        TOTAL FREE ENERGY PREDICTED BY IDOCK:   -8.87 KCAL/MOL
REMARK 923 INTER-LIGAND FREE ENERGY PREDICTED BY IDOCK:   -7.54 KCAL/MOL
REMARK 924 INTRA-LIGAND FREE ENERGY PREDICTED BY IDOCK:   -1.33 KCAL/MOL
REMARK 927      BINDING AFFINITY PREDICTED BY RF-SCORE:    0.00 PKD
ROOT
HETATM    1  C   UNL     1     -10.401   8.926  68.308  1.00  0.00    -0.206 C  
HETATM    2  S   UNL     1     -10.384   9.643  66.614  1.00  0.00    -0.175 SA 
HETATM    3  C   UNL     1      -8.580   9.339  66.332  1.00  0.00    -0.131 C  
HETATM    4  CA  UNL     1      -8.202   8.210  67.325  1.00  0.00    -0.121 C  
HETATM    5  C   UNL     1      -8.334   9.041  64.849  1.00  0.00    -0.178 C  
HETATM    6  C   UNL     1      -7.837  10.654  66.644  1.00  0.00    -0.135 C  
HETATM    7  N   UNL     1      -9.038   8.395  68.531  1.00  0.00    -0.136 N  
HETATM    8  C   UNL     1      -8.416   6.774  66.813  1.00  0.00    -0.117 C  
HETATM    9  OXT UNL     1      -7.958   6.329  65.772  1.00  0.00    -0.104 OA 
HETATM   10  O   UNL     1      -9.100   5.981  67.678  1.00  0.00    -0.112 OA 
HETATM   11  C   UNL     1      -8.713   9.359  69.452  1.00  0.00    -0.157 C  
HETATM   12  CA  UNL     1     -10.162   9.899  69.493  1.00  0.00    -0.225 C  
HETATM   13  O   UNL     1      -7.630   9.711  69.861  1.00  0.00    -0.101 OA 
ENDROOT
BRANCH  12  14
HETATM   14  N   UNL     1     -10.343  11.349  69.208  1.00  0.00    -0.419 N  
HETATM   15  C   UNL     1     -11.607  11.880  69.048  1.00  0.00    -0.317 C  
HETATM   16  H   UNL     1      -9.526  11.955  69.131  1.00  0.00     0.000 HD 
HETATM   17  O   UNL     1     -12.604  11.187  69.219  1.00  0.00    -0.336 OA 
BRANCH  15  18
HETATM   18  C   UNL     1     -11.658  13.270  68.635  1.00  0.00    -0.362 A  
HETATM   19  C   UNL     1     -11.807  14.373  69.460  1.00  0.00    -0.329 A  
HETATM   20  C   UNL     1     -11.970  14.615  70.909  1.00  0.00    -0.388 C  
HETATM   21  O   UNL     1     -11.845  15.495  68.704  1.00  0.00    -0.362 OA 
HETATM   22  N   UNL     1     -11.742  15.169  67.380  1.00  0.00    -0.255 NA 
HETATM   23  C   UNL     1     -11.634  13.830  67.308  1.00  0.00    -0.361 A  
BRANCH  23  24
HETATM   24  C   UNL     1     -11.492  13.199  65.986  1.00  0.00    -0.370 A  
HETATM   25  C   UNL     1     -10.258  13.099  65.332  1.00  0.00    -0.301 A  
HETATM   26  C   UNL     1     -10.166  12.528  64.057  1.00  0.00    -0.390 A  
HETATM   27  C   UNL     1     -11.309  12.068  63.408  1.00  0.00    -0.484 A  
HETATM   28  C   UNL     1     -12.546  12.169  64.035  1.00  0.00    -0.507 A  
HETATM   29  C   UNL     1     -12.636  12.727  65.314  1.00  0.00    -0.460 A  
ENDBRANCH  23  24
ENDBRANCH  15  18
ENDBRANCH  12  14
TORSDOF 3
ENDMDL
MODEL       17
REMARK 921   NORMALIZED FREE ENERGY PREDICTED BY IDOCK:   -6.75 KCAL/MOL
REMARK 922        TOTAL FREE ENERGY PREDICTED BY IDOCK:   -8.83 KCAL/MOL
REMARK 923 INTER-LIGAND FREE ENERGY PREDICTED BY IDOCK:   -7.43 KCAL/MOL
REMARK 924 INTRA-LIGAND FREE ENERGY PREDICTED BY IDOCK:   -1.40 KCAL/MOL
REMARK 927      BINDING AFFINITY PREDICTED BY RF-SCORE:    0.00 PKD
ROOT
HETATM    1  C   UNL     1     -10.481   9.250  68.472  1.00  0.00    -0.206 C  
HETATM    2  S   UNL     1     -10.131  10.474  67.144  1.00  0.00    -0.219 SA 
HETATM    3  C   UNL     1      -8.292  10.297  67.246  1.00  0.00    -0.121 C  
HETATM    4  CA  UNL     1      -8.057   8.912  67.903  1.00  0.00    -0.106 C  
HETATM    5  C   UNL     1      -7.677  10.495  65.856  1.00  0.00    -0.148 C  
HETATM    6  C   UNL     1      -7.766  11.449  68.126  1.00  0.00    -0.118 C  
HETATM    7  N   UNL     1      -9.167   8.690  68.855  1.00  0.00    -0.145 N  
HETATM    8  C   UNL     1      -8.013   7.715  66.935  1.00  0.00    -0.115 C  
HETATM    9  OXT UNL     1      -7.284   7.635  65.958  1.00  0.00    -0.067 OA 
HETATM   10  O   UNL     1      -8.806   6.679  67.311  1.00  0.00    -0.117 OA 
HETATM   11  C   UNL     1      -9.156   9.310  70.079  1.00  0.00    -0.210 C  
HETATM   12  CA  UNL     1     -10.617   9.791  69.919  1.00  0.00    -0.265 C  
HETATM   13  O   UNL     1      -8.237   9.522  70.837  1.00  0.00    -0.291 OA 
ENDROOT
BRANCH  12  14
HETATM   14  N   UNL     1     -10.857  11.254  70.061  1.00  0.00    -0.436 N  
HETATM   15  C   UNL     1     -12.139  11.742  70.223  1.00  0.00    -0.342 C  
HETATM   16  H   UNL     1     -10.069  11.900  70.038  1.00  0.00     0.000 HD 
HETATM   17  O   UNL     1     -13.090  10.978  70.338  1.00  0.00    -0.127 OA 
BRANCH  15  18
HETATM   18  C   UNL     1     -12.268  13.187  70.209  1.00  0.00    -0.376 A  
HETATM   19  C   UNL     1     -12.769  13.984  71.226  1.00  0.00    -0.365 A  
HETATM   20  C   UNL     1     -13.328  13.771  72.578  1.00  0.00    -0.656 C  
HETATM   21  O   UNL     1     -12.761  15.277  70.827  1.00  0.00    -0.375 OA 
HETATM   22  N   UNL     1     -12.281  15.367  69.551  1.00  0.00    -0.288 NA 
HETATM   23  C   UNL     1     -11.981  14.119  69.149  1.00  0.00    -0.349 A  
BRANCH  23  24
HETATM   24  C   UNL     1     -11.422  13.922  67.802  1.00  0.00    -0.354 A  
HETATM   25  C   UNL     1     -10.077  14.169  67.504  1.00  0.00    -0.236 A  
HETATM   26  C   UNL     1      -9.588  14.008  66.202  1.00  0.00    -0.263 A  
HETATM   27  C   UNL     1     -10.442  13.619  65.173  1.00  0.00    -0.388 A  
HETATM   28  C   UNL     1     -11.785  13.380  65.445  1.00  0.00    -0.354 A  
HETATM   29  C   UNL     1     -12.269  13.527  66.749  1.00  0.00    -0.392 A  
ENDBRANCH  23  24
ENDBRANCH  15  18
ENDBRANCH  12  14
TORSDOF 3
ENDMDL
MODEL       18
REMARK 921   NORMALIZED FREE ENERGY PREDICTED BY IDOCK:   -6.72 KCAL/MOL
REMARK 922        TOTAL FREE ENERGY PREDICTED BY IDOCK:   -8.81 KCAL/MOL
REMARK 923 INTER-LIGAND FREE ENERGY PREDICTED BY IDOCK:   -7.73 KCAL/MOL
REMARK 924 INTRA-LIGAND FREE ENERGY PREDICTED BY IDOCK:   -1.07 KCAL/MOL
REMARK 927      BINDING AFFINITY PREDICTED BY RF-SCORE:    0.00 PKD
ROOT
HETATM    1  C   UNL     1      -7.935  15.903  66.522  1.00  0.00    -0.196 C  
HETATM    2  S   UNL     1      -9.739  16.208  66.321  1.00  0.00    -0.331 SA 
HETATM    3  C   UNL     1      -9.838  17.467  67.673  1.00  0.00    -0.291 C  
HETATM    4  CA  UNL     1      -8.389  17.993  67.840  1.00  0.00    -0.248 C  
HETATM    5  C   UNL     1     -10.899  18.516  67.323  1.00  0.00    -0.330 C  
HETATM    6  C   UNL     1     -10.338  16.744  68.940  1.00  0.00    -0.317 C  
HETATM    7  N   UNL     1      -7.480  16.863  67.552  1.00  0.00    -0.154 N  
HETATM    8  C   UNL     1      -7.997  19.166  66.922  1.00  0.00    -0.259 C  
HETATM    9  OXT UNL     1      -8.615  20.215  66.828  1.00  0.00    -0.319 OA 
HETATM   10  O   UNL     1      -6.821  18.979  66.269  1.00  0.00    -0.201 OA 
HETATM   11  C   UNL     1      -7.272  15.890  68.498  1.00  0.00    -0.128 C  
HETATM   12  CA  UNL     1      -7.511  14.755  67.475  1.00  0.00    -0.198 C  
HETATM   13  O   UNL     1      -7.155  15.984  69.698  1.00  0.00    -0.200 OA 
ENDROOT
BRANCH  12  14
HETATM   14  N   UNL     1      -8.561  13.757  67.819  1.00  0.00    -0.171 N  
HETATM   15  C   UNL     1      -8.371  12.416  67.547  1.00  0.00    -0.173 C  
HETATM   16  H   UNL     1      -9.427  14.065  68.261  1.00  0.00     0.000 HD 
HETATM   17  O   UNL     1      -7.305  12.015  67.095  1.00  0.00    -0.140 OA 
BRANCH  15  18
HETATM   18  C   UNL     1      -9.512  11.556  67.794  1.00  0.00    -0.168 A  
HETATM   19  C   UNL     1      -9.627  10.598  68.789  1.00  0.00    -0.186 A  
HETATM   20  C   UNL     1      -8.776  10.078  69.879  1.00  0.00    -0.169 C  
HETATM   21  O   UNL     1     -10.825   9.977  68.677  1.00  0.00    -0.223 OA 
HETATM   22  N   UNL     1     -11.515  10.486  67.612  1.00  0.00    -0.420 NA 
HETATM   23  C   UNL     1     -10.743  11.438  67.056  1.00  0.00    -0.261 A  
BRANCH  23  24
HETATM   24  C   UNL     1     -11.254  12.170  65.886  1.00  0.00    -0.384 A  
HETATM   25  C   UNL     1     -12.148  13.241  66.003  1.00  0.00    -0.491 A  
HETATM   26  C   UNL     1     -12.643  13.891  64.866  1.00  0.00    -0.380 A  
HETATM   27  C   UNL     1     -12.269  13.466  63.594  1.00  0.00    -0.480 A  
HETATM   28  C   UNL     1     -11.391  12.396  63.455  1.00  0.00    -0.553 A  
HETATM   29  C   UNL     1     -10.886  11.756  64.592  1.00  0.00    -0.363 A  
ENDBRANCH  23  24
ENDBRANCH  15  18
ENDBRANCH  12  14
TORSDOF 3
ENDMDL
MODEL       19
REMARK 921   NORMALIZED FREE ENERGY PREDICTED BY IDOCK:   -6.69 KCAL/MOL
REMARK 922        TOTAL FREE ENERGY PREDICTED BY IDOCK:   -8.77 KCAL/MOL
REMARK 923 INTER-LIGAND FREE ENERGY PREDICTED BY IDOCK:   -7.98 KCAL/MOL
REMARK 924 INTRA-LIGAND FREE ENERGY PREDICTED BY IDOCK:   -0.79 KCAL/MOL
REMARK 927      BINDING AFFINITY PREDICTED BY RF-SCORE:    0.00 PKD
ROOT
HETATM    1  C   UNL     1      -9.617  13.594  66.433  1.00  0.00    -0.268 C  
HETATM    2  S   UNL     1     -10.038  12.720  64.870  1.00  0.00    -0.165 SA 
HETATM    3  C   UNL     1     -11.708  13.498  64.700  1.00  0.00    -0.381 C  
HETATM    4  CA  UNL     1     -11.636  14.795  65.545  1.00  0.00    -0.301 C  
HETATM    5  C   UNL     1     -12.042  13.679  63.214  1.00  0.00    -0.096 C  
HETATM    6  C   UNL     1     -12.741  12.500  65.262  1.00  0.00    -0.093 C  
HETATM    7  N   UNL     1     -10.742  14.519  66.690  1.00  0.00    -0.300 N  
HETATM    8  C   UNL     1     -11.099  16.039  64.811  1.00  0.00    -0.365 C  
HETATM    9  OXT UNL     1     -11.541  16.472  63.758  1.00  0.00    -1.109 OA 
HETATM   10  O   UNL     1     -10.122  16.695  65.490  1.00  0.00    -0.553 OA 
HETATM   11  C   UNL     1     -11.205  13.804  67.766  1.00  0.00    -0.288 C  
HETATM   12  CA  UNL     1      -9.967  12.877  67.764  1.00  0.00    -0.230 C  
HETATM   13  O   UNL     1     -12.285  13.831  68.312  1.00  0.00    -0.335 OA 
ENDROOT
BRANCH  12  14
HETATM   14  N   UNL     1     -10.229  11.414  67.681  1.00  0.00    -0.178 N  
HETATM   15  C   UNL     1      -9.295  10.506  68.140  1.00  0.00    -0.148 C  
HETATM   16  H   UNL     1     -11.106  11.079  67.282  1.00  0.00     0.000 HD 
HETATM   17  O   UNL     1      -8.273  10.889  68.698  1.00  0.00    -0.130 OA 
BRANCH  15  18
HETATM   18  C   UNL     1      -9.593   9.111  67.880  1.00  0.00    -0.168 A  
HETATM   19  C   UNL     1      -9.292   8.400  66.729  1.00  0.00    -0.184 A  
HETATM   20  C   UNL     1      -8.642   8.685  65.432  1.00  0.00    -0.206 C  
HETATM   21  O   UNL     1      -9.760   7.135  66.848  1.00  0.00    -0.165 OA 
HETATM   22  N   UNL     1     -10.389   6.984  68.052  1.00  0.00    -0.182 NA 
HETATM   23  C   UNL     1     -10.310   8.163  68.694  1.00  0.00    -0.200 A  
BRANCH  23  24
HETATM   24  C   UNL     1     -10.899   8.281  70.038  1.00  0.00    -0.232 A  
HETATM   25  C   UNL     1     -10.846   7.241  70.973  1.00  0.00    -0.258 A  
HETATM   26  C   UNL     1     -11.452   7.373  72.229  1.00  0.00    -0.329 A  
HETATM   27  C   UNL     1     -12.138   8.539  72.559  1.00  0.00    -0.395 A  
HETATM   28  C   UNL     1     -12.212   9.580  71.640  1.00  0.00    -0.477 A  
HETATM   29  C   UNL     1     -11.596   9.452  70.391  1.00  0.00    -0.241 A  
ENDBRANCH  23  24
ENDBRANCH  15  18
ENDBRANCH  12  14
TORSDOF 3
ENDMDL
MODEL       20
REMARK 921   NORMALIZED FREE ENERGY PREDICTED BY IDOCK:   -6.65 KCAL/MOL
REMARK 922        TOTAL FREE ENERGY PREDICTED BY IDOCK:   -8.72 KCAL/MOL
REMARK 923 INTER-LIGAND FREE ENERGY PREDICTED BY IDOCK:   -7.22 KCAL/MOL
REMARK 924 INTRA-LIGAND FREE ENERGY PREDICTED BY IDOCK:   -1.50 KCAL/MOL
REMARK 927      BINDING AFFINITY PREDICTED BY RF-SCORE:    0.00 PKD
ROOT
HETATM    1  C   UNL     1      -9.142  15.039  66.137  1.00  0.00    -0.202 C  
HETATM    2  S   UNL     1      -9.686  13.304  65.858  1.00  0.00    -0.111 SA 
HETATM    3  C   UNL     1     -11.468  13.635  66.231  1.00  0.00    -0.333 C  
HETATM    4  CA  UNL     1     -11.648  15.159  66.014  1.00  0.00    -0.080 C  
HETATM    5  C   UNL     1     -12.352  12.723  65.374  1.00  0.00    -0.528 C  
HETATM    6  C   UNL     1     -11.714  13.230  67.699  1.00  0.00    -0.408 C  
HETATM    7  N   UNL     1     -10.378  15.807  66.404  1.00  0.00    -0.289 N  
HETATM    8  C   UNL     1     -11.980  15.591  64.573  1.00  0.00    -0.170 C  
HETATM    9  OXT UNL     1     -12.906  15.150  63.909  1.00  0.00    -0.671 OA 
HETATM   10  O   UNL     1     -11.196  16.599  64.110  1.00  0.00    -1.103 OA 
HETATM   11  C   UNL     1     -10.083  15.998  67.730  1.00  0.00    -0.243 C  
HETATM   12  CA  UNL     1      -8.661  15.412  67.565  1.00  0.00    -0.175 C  
HETATM   13  O   UNL     1     -10.802  16.320  68.649  1.00  0.00    -0.284 OA 
ENDROOT
BRANCH  12  14
HETATM   14  N   UNL     1      -8.299  14.278  68.459  1.00  0.00    -0.155 N  
HETATM   15  C   UNL     1      -7.058  13.680  68.366  1.00  0.00    -0.107 C  
HETATM   16  H   UNL     1      -8.972  13.941  69.148  1.00  0.00     0.000 HD 
HETATM   17  O   UNL     1      -6.205  14.123  67.605  1.00  0.00    -0.245 OA 
BRANCH  15  18
HETATM   18  C   UNL     1      -6.866  12.499  69.186  1.00  0.00    -0.062 A  
HETATM   19  C   UNL     1      -6.086  12.401  70.328  1.00  0.00    -0.071 A  
HETATM   20  C   UNL     1      -5.216  13.303  71.112  1.00  0.00    -0.176 C  
HETATM   21  O   UNL     1      -6.130  11.131  70.793  1.00  0.00    -0.336 OA 
HETATM   22  N   UNL     1      -6.912  10.363  69.976  1.00  0.00    -0.151 NA 
HETATM   23  C   UNL     1      -7.365  11.161  68.993  1.00  0.00    -0.120 A  
BRANCH  23  24
HETATM   24  C   UNL     1      -8.254  10.591  67.968  1.00  0.00    -0.112 A  
HETATM   25  C   UNL     1      -9.604  10.316  68.215  1.00  0.00    -0.151 A  
HETATM   26  C   UNL     1     -10.411   9.736  67.229  1.00  0.00    -0.324 A  
HETATM   27  C   UNL     1      -9.875   9.403  65.987  1.00  0.00    -0.366 A  
HETATM   28  C   UNL     1      -8.533   9.658  65.725  1.00  0.00    -0.142 A  
HETATM   29  C   UNL     1      -7.731  10.249  66.706  1.00  0.00    -0.111 A  
ENDBRANCH  23  24
ENDBRANCH  15  18
ENDBRANCH  12  14
TORSDOF 3
ENDMDL
MODEL       21
REMARK 921   NORMALIZED FREE ENERGY PREDICTED BY IDOCK:   -6.65 KCAL/MOL
REMARK 922        TOTAL FREE ENERGY PREDICTED BY IDOCK:   -8.72 KCAL/MOL
REMARK 923 INTER-LIGAND FREE ENERGY PREDICTED BY IDOCK:   -7.95 KCAL/MOL
REMARK 924 INTRA-LIGAND FREE ENERGY PREDICTED BY IDOCK:   -0.77 KCAL/MOL
REMARK 927      BINDING AFFINITY PREDICTED BY RF-SCORE:    0.00 PKD
ROOT
HETATM    1  C   UNL     1      -9.707  17.105  67.714  1.00  0.00    -0.271 C  
HETATM    2  S   UNL     1      -8.316  16.574  68.795  1.00  0.00    -0.247 SA 
HETATM    3  C   UNL     1      -7.203  16.097  67.396  1.00  0.00    -0.182 C  
HETATM    4  CA  UNL     1      -7.738  16.880  66.170  1.00  0.00    -0.224 C  
HETATM    5  C   UNL     1      -5.744  16.367  67.784  1.00  0.00    -0.151 C  
HETATM    6  C   UNL     1      -7.330  14.572  67.206  1.00  0.00    -0.098 C  
HETATM    7  N   UNL     1      -9.204  16.985  66.328  1.00  0.00    -0.262 N  
HETATM    8  C   UNL     1      -7.176  18.303  65.993  1.00  0.00    -0.263 C  
HETATM    9  OXT UNL     1      -5.988  18.583  65.946  1.00  0.00    -0.162 OA 
HETATM   10  O   UNL     1      -8.131  19.248  65.793  1.00  0.00    -0.448 OA 
HETATM   11  C   UNL     1     -10.005  15.910  66.033  1.00  0.00    -0.334 C  
HETATM   12  CA  UNL     1     -10.781  16.041  67.365  1.00  0.00    -0.306 C  
HETATM   13  O   UNL     1      -9.923  15.100  65.137  1.00  0.00    -0.323 OA 
ENDROOT
BRANCH  12  14
HETATM   14  N   UNL     1     -10.825  14.832  68.233  1.00  0.00    -0.243 N  
HETATM   15  C   UNL     1     -11.728  13.818  67.980  1.00  0.00    -0.355 C  
HETATM   16  H   UNL     1     -10.183  14.752  69.022  1.00  0.00     0.000 HD 
HETATM   17  O   UNL     1     -12.449  13.856  66.990  1.00  0.00    -0.323 OA 
BRANCH  15  18
HETATM   18  C   UNL     1     -11.778  12.759  68.970  1.00  0.00    -0.371 A  
HETATM   19  C   UNL     1     -12.261  12.858  70.265  1.00  0.00    -0.289 A  
HETATM   20  C   UNL     1     -12.846  13.919  71.112  1.00  0.00    -0.423 C  
HETATM   21  O   UNL     1     -12.108  11.669  70.892  1.00  0.00    -0.341 OA 
HETATM   22  N   UNL     1     -11.513  10.772  70.050  1.00  0.00    -0.306 NA 
HETATM   23  C   UNL     1     -11.296  11.405  68.883  1.00  0.00    -0.270 A  
BRANCH  23  24
HETATM   24  C   UNL     1     -10.671  10.661  67.777  1.00  0.00    -0.302 A  
HETATM   25  C   UNL     1     -10.093  11.301  66.675  1.00  0.00    -0.251 A  
HETATM   26  C   UNL     1      -9.543  10.560  65.622  1.00  0.00    -0.278 A  
HETATM   27  C   UNL     1      -9.582   9.168  65.645  1.00  0.00    -0.287 A  
HETATM   28  C   UNL     1     -10.162   8.513  66.726  1.00  0.00    -0.370 A  
HETATM   29  C   UNL     1     -10.699   9.253  67.784  1.00  0.00    -0.270 A  
ENDBRANCH  23  24
ENDBRANCH  15  18
ENDBRANCH  12  14
TORSDOF 3
ENDMDL
MODEL       22
REMARK 921   NORMALIZED FREE ENERGY PREDICTED BY IDOCK:   -6.63 KCAL/MOL
REMARK 922        TOTAL FREE ENERGY PREDICTED BY IDOCK:   -8.69 KCAL/MOL
REMARK 923 INTER-LIGAND FREE ENERGY PREDICTED BY IDOCK:   -7.77 KCAL/MOL
REMARK 924 INTRA-LIGAND FREE ENERGY PREDICTED BY IDOCK:   -0.93 KCAL/MOL
REMARK 927      BINDING AFFINITY PREDICTED BY RF-SCORE:    0.00 PKD
ROOT
HETATM    1  C   UNL     1     -12.222  13.229  66.437  1.00  0.00    -0.356 C  
HETATM    2  S   UNL     1     -11.519  14.421  67.649  1.00  0.00    -0.364 SA 
HETATM    3  C   UNL     1     -10.125  14.953  66.556  1.00  0.00    -0.271 C  
HETATM    4  CA  UNL     1     -10.584  14.602  65.117  1.00  0.00    -0.421 C  
HETATM    5  C   UNL     1      -9.800  16.428  66.817  1.00  0.00    -0.265 C  
HETATM    6  C   UNL     1      -8.877  14.149  66.975  1.00  0.00    -0.237 C  
HETATM    7  N   UNL     1     -11.407  13.377  65.212  1.00  0.00    -0.293 N  
HETATM    8  C   UNL     1     -11.417  15.682  64.402  1.00  0.00    -0.262 C  
HETATM    9  OXT UNL     1     -11.075  16.845  64.258  1.00  0.00    -1.135 OA 
HETATM   10  O   UNL     1     -12.562  15.209  63.844  1.00  0.00    -0.794 OA 
HETATM   11  C   UNL     1     -10.804  12.153  65.354  1.00  0.00    -0.294 C  
HETATM   12  CA  UNL     1     -11.736  11.758  66.523  1.00  0.00    -0.069 C  
HETATM   13  O   UNL     1      -9.795  11.718  64.846  1.00  0.00    -0.249 OA 
ENDROOT
BRANCH  12  14
HETATM   14  N   UNL     1     -11.076  11.350  67.794  1.00  0.00    -0.244 N  
HETATM   15  C   UNL     1     -10.740  10.030  68.019  1.00  0.00    -0.256 C  
HETATM   16  H   UNL     1     -10.870  12.053  68.505  1.00  0.00     0.000 HD 
HETATM   17  O   UNL     1     -10.903   9.186  67.145  1.00  0.00    -0.212 OA 
BRANCH  15  18
HETATM   18  C   UNL     1     -10.233   9.726  69.344  1.00  0.00    -0.223 A  
HETATM   19  C   UNL     1     -10.906   9.885  70.545  1.00  0.00    -0.326 A  
HETATM   20  C   UNL     1     -12.236  10.369  70.972  1.00  0.00    -0.498 C  
HETATM   21  O   UNL     1     -10.092   9.528  71.565  1.00  0.00    -0.219 OA 
HETATM   22  N   UNL     1      -8.874   9.148  71.077  1.00  0.00    -0.223 NA 
HETATM   23  C   UNL     1      -8.927   9.264  69.738  1.00  0.00    -0.172 A  
BRANCH  23  24
HETATM   24  C   UNL     1      -7.741   8.901  68.946  1.00  0.00    -0.095 A  
HETATM   25  C   UNL     1      -7.651   7.696  68.239  1.00  0.00    -0.114 A  
HETATM   26  C   UNL     1      -6.492   7.365  67.528  1.00  0.00    -0.060 A  
HETATM   27  C   UNL     1      -5.396   8.225  67.530  1.00  0.00    -0.034 A  
HETATM   28  C   UNL     1      -5.460   9.422  68.235  1.00  0.00    -0.037 A  
HETATM   29  C   UNL     1      -6.624   9.758  68.935  1.00  0.00    -0.046 A  
ENDBRANCH  23  24
ENDBRANCH  15  18
ENDBRANCH  12  14
TORSDOF 3
ENDMDL
MODEL       23
REMARK 921   NORMALIZED FREE ENERGY PREDICTED BY IDOCK:   -6.59 KCAL/MOL
REMARK 922        TOTAL FREE ENERGY PREDICTED BY IDOCK:   -8.65 KCAL/MOL
REMARK 923 INTER-LIGAND FREE ENERGY PREDICTED BY IDOCK:   -7.59 KCAL/MOL
REMARK 924 INTRA-LIGAND FREE ENERGY PREDICTED BY IDOCK:   -1.06 KCAL/MOL
REMARK 927      BINDING AFFINITY PREDICTED BY RF-SCORE:    0.00 PKD
ROOT
HETATM    1  C   UNL     1      -9.322  15.938  69.434  1.00  0.00    -0.250 C  
HETATM    2  S   UNL     1      -8.159  15.778  68.016  1.00  0.00    -0.143 SA 
HETATM    3  C   UNL     1      -9.221  16.726  66.834  1.00  0.00    -0.232 C  
HETATM    4  CA  UNL     1     -10.151  17.586  67.728  1.00  0.00    -0.330 C  
HETATM    5  C   UNL     1      -8.334  17.496  65.849  1.00  0.00     0.002 C  
HETATM    6  C   UNL     1     -10.013  15.698  66.000  1.00  0.00    -0.359 C  
HETATM    7  N   UNL     1     -10.421  16.803  68.953  1.00  0.00    -0.311 N  
HETATM    8  C   UNL     1      -9.586  18.955  68.153  1.00  0.00    -0.338 C  
HETATM    9  OXT UNL     1      -9.156  19.800  67.384  1.00  0.00    -0.307 OA 
HETATM   10  O   UNL     1      -9.688  19.198  69.485  1.00  0.00    -0.145 OA 
HETATM   11  C   UNL     1     -11.337  15.781  68.926  1.00  0.00    -0.356 C  
HETATM   12  CA  UNL     1     -10.364  14.806  69.629  1.00  0.00    -0.065 C  
HETATM   13  O   UNL     1     -12.403  15.706  68.360  1.00  0.00     0.076 OA 
ENDROOT
BRANCH  12  14
HETATM   14  N   UNL     1     -10.086  13.521  68.931  1.00  0.00    -0.425 N  
HETATM   15  C   UNL     1     -11.012  12.496  68.950  1.00  0.00    -0.227 C  
HETATM   16  H   UNL     1      -9.204  13.396  68.433  1.00  0.00     0.000 HD 
HETATM   17  O   UNL     1     -12.111  12.656  69.471  1.00  0.00    -0.271 OA 
BRANCH  15  18
HETATM   18  C   UNL     1     -10.579  11.245  68.359  1.00  0.00    -0.226 A  
HETATM   19  C   UNL     1     -10.053  10.151  69.029  1.00  0.00    -0.205 A  
HETATM   20  C   UNL     1      -9.727   9.807  70.429  1.00  0.00    -0.244 C  
HETATM   21  O   UNL     1      -9.735   9.188  68.133  1.00  0.00    -0.149 OA 
HETATM   22  N   UNL     1     -10.020   9.617  66.867  1.00  0.00    -0.198 NA 
HETATM   23  C   UNL     1     -10.525  10.860  66.973  1.00  0.00    -0.244 A  
BRANCH  23  24
HETATM   24  C   UNL     1     -10.937  11.565  65.748  1.00  0.00    -0.305 A  
HETATM   25  C   UNL     1     -11.979  12.500  65.736  1.00  0.00    -0.482 A  
HETATM   26  C   UNL     1     -12.371  13.123  64.545  1.00  0.00    -0.447 A  
HETATM   27  C   UNL     1     -11.741  12.804  63.344  1.00  0.00    -0.556 A  
HETATM   28  C   UNL     1     -10.712  11.869  63.333  1.00  0.00    -0.476 A  
HETATM   29  C   UNL     1     -10.312  11.257  64.525  1.00  0.00    -0.381 A  
ENDBRANCH  23  24
ENDBRANCH  15  18
ENDBRANCH  12  14
TORSDOF 3
ENDMDL
MODEL       24
REMARK 921   NORMALIZED FREE ENERGY PREDICTED BY IDOCK:   -6.54 KCAL/MOL
REMARK 922        TOTAL FREE ENERGY PREDICTED BY IDOCK:   -8.60 KCAL/MOL
REMARK 923 INTER-LIGAND FREE ENERGY PREDICTED BY IDOCK:   -7.79 KCAL/MOL
REMARK 924 INTRA-LIGAND FREE ENERGY PREDICTED BY IDOCK:   -0.80 KCAL/MOL
REMARK 927      BINDING AFFINITY PREDICTED BY RF-SCORE:    0.00 PKD
ROOT
HETATM    1  C   UNL     1      -9.131  11.657  66.663  1.00  0.00    -0.194 C  
HETATM    2  S   UNL     1      -8.975  11.521  68.491  1.00  0.00    -0.109 SA 
HETATM    3  C   UNL     1     -10.583  10.634  68.721  1.00  0.00    -0.206 C  
HETATM    4  CA  UNL     1     -10.894  10.000  67.341  1.00  0.00    -0.249 C  
HETATM    5  C   UNL     1     -10.469   9.659  69.899  1.00  0.00    -0.285 C  
HETATM    6  C   UNL     1     -11.637  11.686  69.123  1.00  0.00    -0.378 C  
HETATM    7  N   UNL     1     -10.365  10.920  66.311  1.00  0.00    -0.246 N  
HETATM    8  C   UNL     1     -10.282   8.608  67.095  1.00  0.00    -0.283 C  
HETATM    9  OXT UNL     1     -10.425   7.644  67.830  1.00  0.00    -0.213 OA 
HETATM   10  O   UNL     1      -9.623   8.502  65.911  1.00  0.00    -0.197 OA 
HETATM   11  C   UNL     1     -11.060  12.057  65.983  1.00  0.00    -0.320 C  
HETATM   12  CA  UNL     1      -9.797  12.941  66.100  1.00  0.00    -0.270 C  
HETATM   13  O   UNL     1     -12.252  12.234  65.866  1.00  0.00    -0.634 OA 
ENDROOT
BRANCH  12  14
HETATM   14  N   UNL     1      -9.880  14.105  67.025  1.00  0.00    -0.252 N  
HETATM   15  C   UNL     1      -9.947  15.392  66.529  1.00  0.00    -0.268 C  
HETATM   16  H   UNL     1      -9.888  13.951  68.033  1.00  0.00     0.000 HD 
HETATM   17  O   UNL     1     -10.023  15.594  65.322  1.00  0.00    -0.335 OA 
BRANCH  15  18
HETATM   18  C   UNL     1      -9.882  16.451  67.517  1.00  0.00    -0.239 A  
HETATM   19  C   UNL     1     -10.728  16.626  68.601  1.00  0.00    -0.349 A  
HETATM   20  C   UNL     1     -11.909  15.935  69.161  1.00  0.00    -0.340 C  
HETATM   21  O   UNL     1     -10.371  17.746  69.272  1.00  0.00    -0.318 OA 
HETATM   22  N   UNL     1      -9.309  18.342  68.651  1.00  0.00    -0.329 NA 
HETATM   23  C   UNL     1      -8.996  17.585  67.584  1.00  0.00    -0.231 A  
BRANCH  23  24
HETATM   24  C   UNL     1      -7.866  17.991  66.734  1.00  0.00    -0.260 A  
HETATM   25  C   UNL     1      -6.732  17.189  66.561  1.00  0.00    -0.290 A  
HETATM   26  C   UNL     1      -5.657  17.624  65.775  1.00  0.00    -0.117 A  
HETATM   27  C   UNL     1      -5.691  18.877  65.168  1.00  0.00    -0.267 A  
HETATM   28  C   UNL     1      -6.804  19.694  65.337  1.00  0.00    -0.303 A  
HETATM   29  C   UNL     1      -7.882  19.254  66.110  1.00  0.00    -0.313 A  
ENDBRANCH  23  24
ENDBRANCH  15  18
ENDBRANCH  12  14
TORSDOF 3
ENDMDL
MODEL       25
REMARK 921   NORMALIZED FREE ENERGY PREDICTED BY IDOCK:   -6.54 KCAL/MOL
REMARK 922        TOTAL FREE ENERGY PREDICTED BY IDOCK:   -8.59 KCAL/MOL
REMARK 923 INTER-LIGAND FREE ENERGY PREDICTED BY IDOCK:   -7.67 KCAL/MOL
REMARK 924 INTRA-LIGAND FREE ENERGY PREDICTED BY IDOCK:   -0.92 KCAL/MOL
REMARK 927      BINDING AFFINITY PREDICTED BY RF-SCORE:    0.00 PKD
ROOT
HETATM    1  C   UNL     1      -8.171  16.865  66.365  1.00  0.00    -0.307 C  
HETATM    2  S   UNL     1      -9.886  17.532  66.362  1.00  0.00    -0.299 SA 
HETATM    3  C   UNL     1      -9.671  18.527  67.907  1.00  0.00    -0.314 C  
HETATM    4  CA  UNL     1      -8.141  18.735  68.043  1.00  0.00    -0.283 C  
HETATM    5  C   UNL     1     -10.520  19.801  67.822  1.00  0.00    -0.555 C  
HETATM    6  C   UNL     1     -10.245  17.696  69.074  1.00  0.00    -0.314 C  
HETATM    7  N   UNL     1      -7.488  17.524  67.500  1.00  0.00    -0.186 N  
HETATM    8  C   UNL     1      -7.568  19.958  67.302  1.00  0.00    -0.271 C  
HETATM    9  OXT UNL     1      -7.971  21.103  67.432  1.00  0.00    -0.253 OA 
HETATM   10  O   UNL     1      -6.484  19.674  66.534  1.00  0.00    -0.181 OA 
HETATM   11  C   UNL     1      -7.432  16.378  68.252  1.00  0.00    -0.161 C  
HETATM   12  CA  UNL     1      -7.938  15.507  67.078  1.00  0.00    -0.233 C  
HETATM   13  O   UNL     1      -7.243  16.234  69.438  1.00  0.00    -0.225 OA 
ENDROOT
BRANCH  12  14
HETATM   14  N   UNL     1      -9.147  14.677  67.336  1.00  0.00    -0.190 N  
HETATM   15  C   UNL     1      -9.029  13.420  67.896  1.00  0.00    -0.201 C  
HETATM   16  H   UNL     1     -10.070  15.040  67.097  1.00  0.00     0.000 HD 
HETATM   17  O   UNL     1      -7.939  13.000  68.267  1.00  0.00    -0.139 OA 
BRANCH  15  18
HETATM   18  C   UNL     1     -10.255  12.647  67.971  1.00  0.00    -0.230 A  
HETATM   19  C   UNL     1     -11.293  12.827  68.871  1.00  0.00    -0.296 A  
HETATM   20  C   UNL     1     -11.588  13.733  70.001  1.00  0.00    -0.265 C  
HETATM   21  O   UNL     1     -12.245  11.891  68.649  1.00  0.00    -0.358 OA 
HETATM   22  N   UNL     1     -11.861  11.069  67.626  1.00  0.00    -0.562 NA 
HETATM   23  C   UNL     1     -10.659  11.499  67.202  1.00  0.00    -0.237 A  
BRANCH  23  24
HETATM   24  C   UNL     1     -10.009  10.796  66.083  1.00  0.00    -0.283 A  
HETATM   25  C   UNL     1      -9.203   9.667  66.274  1.00  0.00    -0.213 A  
HETATM   26  C   UNL     1      -8.568   9.047  65.191  1.00  0.00    -0.204 A  
HETATM   27  C   UNL     1      -8.712   9.559  63.904  1.00  0.00    -0.238 A  
HETATM   28  C   UNL     1      -9.499  10.687  63.695  1.00  0.00    -0.337 A  
HETATM   29  C   UNL     1     -10.143  11.298  64.775  1.00  0.00    -0.338 A  
ENDBRANCH  23  24
ENDBRANCH  15  18
ENDBRANCH  12  14
TORSDOF 3
ENDMDL
MODEL       26
REMARK 921   NORMALIZED FREE ENERGY PREDICTED BY IDOCK:   -6.54 KCAL/MOL
REMARK 922        TOTAL FREE ENERGY PREDICTED BY IDOCK:   -8.59 KCAL/MOL
REMARK 923 INTER-LIGAND FREE ENERGY PREDICTED BY IDOCK:   -7.70 KCAL/MOL
REMARK 924 INTRA-LIGAND FREE ENERGY PREDICTED BY IDOCK:   -0.89 KCAL/MOL
REMARK 927      BINDING AFFINITY PREDICTED BY RF-SCORE:    0.00 PKD
ROOT
HETATM    1  C   UNL     1      -9.311  11.186  65.986  1.00  0.00    -0.206 C  
HETATM    2  S   UNL     1      -7.794  11.553  66.960  1.00  0.00    -0.164 SA 
HETATM    3  C   UNL     1      -8.018  10.144  68.138  1.00  0.00    -0.104 C  
HETATM    4  CA  UNL     1      -8.937   9.140  67.394  1.00  0.00    -0.117 C  
HETATM    5  C   UNL     1      -6.647   9.610  68.569  1.00  0.00    -0.052 C  
HETATM    6  C   UNL     1      -8.688  10.707  69.408  1.00  0.00    -0.040 C  
HETATM    7  N   UNL     1      -9.858   9.935  66.554  1.00  0.00    -0.202 N  
HETATM    8  C   UNL     1      -8.217   8.127  66.485  1.00  0.00    -0.107 C  
HETATM    9  OXT UNL     1      -7.310   7.391  66.843  1.00  0.00    -0.088 OA 
HETATM   10  O   UNL     1      -8.743   8.043  65.236  1.00  0.00    -0.130 OA 
HETATM   11  C   UNL     1     -10.941  10.558  67.121  1.00  0.00    -0.228 C  
HETATM   12  CA  UNL     1     -10.621  11.897  66.417  1.00  0.00    -0.248 C  
HETATM   13  O   UNL     1     -11.689  10.178  67.993  1.00  0.00    -0.194 OA 
ENDROOT
BRANCH  12  14
HETATM   14  N   UNL     1     -10.470  13.092  67.292  1.00  0.00    -0.238 N  
HETATM   15  C   UNL     1     -11.402  14.111  67.255  1.00  0.00    -0.332 C  
HETATM   16  H   UNL     1      -9.673  13.159  67.925  1.00  0.00     0.000 HD 
HETATM   17  O   UNL     1     -12.410  14.012  66.564  1.00  0.00    -0.457 OA 
BRANCH  15  18
HETATM   18  C   UNL     1     -11.081  15.286  68.043  1.00  0.00    -0.312 A  
HETATM   19  C   UNL     1     -10.269  16.342  67.662  1.00  0.00    -0.272 A  
HETATM   20  C   UNL     1      -9.470  16.705  66.473  1.00  0.00    -0.288 C  
HETATM   21  O   UNL     1     -10.183  17.231  68.680  1.00  0.00    -0.309 OA 
HETATM   22  N   UNL     1     -10.908  16.785  69.749  1.00  0.00    -0.265 NA 
HETATM   23  C   UNL     1     -11.456  15.608  69.396  1.00  0.00    -0.348 A  
BRANCH  23  24
HETATM   24  C   UNL     1     -12.311  14.904  70.365  1.00  0.00    -0.401 A  
HETATM   25  C   UNL     1     -13.291  15.562  71.118  1.00  0.00    -0.553 A  
HETATM   26  C   UNL     1     -14.060  14.868  72.060  1.00  0.00    -0.613 A  
HETATM   27  C   UNL     1     -13.845  13.509  72.279  1.00  0.00    -0.680 A  
HETATM   28  C   UNL     1     -12.869  12.839  71.550  1.00  0.00    -0.369 A  
HETATM   29  C   UNL     1     -12.110  13.530  70.600  1.00  0.00    -0.386 A  
ENDBRANCH  23  24
ENDBRANCH  15  18
ENDBRANCH  12  14
TORSDOF 3
ENDMDL
MODEL       27
REMARK 921   NORMALIZED FREE ENERGY PREDICTED BY IDOCK:   -6.54 KCAL/MOL
REMARK 922        TOTAL FREE ENERGY PREDICTED BY IDOCK:   -8.59 KCAL/MOL
REMARK 923 INTER-LIGAND FREE ENERGY PREDICTED BY IDOCK:   -7.26 KCAL/MOL
REMARK 924 INTRA-LIGAND FREE ENERGY PREDICTED BY IDOCK:   -1.32 KCAL/MOL
REMARK 927      BINDING AFFINITY PREDICTED BY RF-SCORE:    0.00 PKD
ROOT
HETATM    1  C   UNL     1     -10.185  15.192  68.298  1.00  0.00    -0.223 C  
HETATM    2  S   UNL     1      -8.558  15.069  69.148  1.00  0.00    -0.158 SA 
HETATM    3  C   UNL     1      -7.590  14.789  67.596  1.00  0.00    -0.174 C  
HETATM    4  CA  UNL     1      -8.481  15.351  66.459  1.00  0.00    -0.213 C  
HETATM    5  C   UNL     1      -6.199  15.418  67.736  1.00  0.00    -0.180 C  
HETATM    6  C   UNL     1      -7.371  13.268  67.458  1.00  0.00    -0.159 C  
HETATM    7  N   UNL     1      -9.887  15.115  66.851  1.00  0.00    -0.232 N  
HETATM    8  C   UNL     1      -8.314  16.854  66.166  1.00  0.00    -0.251 C  
HETATM    9  OXT UNL     1      -7.252  17.404  65.921  1.00  0.00    -0.344 OA 
HETATM   10  O   UNL     1      -9.490  17.533  66.107  1.00  0.00    -0.424 OA 
HETATM   11  C   UNL     1     -10.439  13.866  66.711  1.00  0.00    -0.270 C  
HETATM   12  CA  UNL     1     -11.009  13.886  68.148  1.00  0.00    -0.249 C  
HETATM   13  O   UNL     1     -10.300  13.049  65.829  1.00  0.00    -0.277 OA 
ENDROOT
BRANCH  12  14
HETATM   14  N   UNL     1     -10.625  12.754  69.035  1.00  0.00    -0.431 N  
HETATM   15  C   UNL     1     -11.301  11.551  68.971  1.00  0.00    -0.276 C  
HETATM   16  H   UNL     1      -9.855  12.866  69.695  1.00  0.00     0.000 HD 
HETATM   17  O   UNL     1     -12.172  11.368  68.128  1.00  0.00    -0.602 OA 
BRANCH  15  18
HETATM   18  C   UNL     1     -10.936  10.570  69.975  1.00  0.00    -0.351 A  
HETATM   19  C   UNL     1     -11.690  10.190  71.074  1.00  0.00    -0.382 A  
HETATM   20  C   UNL     1     -13.000  10.555  71.653  1.00  0.00    -0.581 C  
HETATM   21  O   UNL     1     -11.000   9.277  71.796  1.00  0.00    -0.369 OA 
HETATM   22  N   UNL     1      -9.785   9.045  71.215  1.00  0.00    -0.289 NA 
HETATM   23  C   UNL     1      -9.716   9.818  70.115  1.00  0.00    -0.248 A  
BRANCH  23  24
HETATM   24  C   UNL     1      -8.506   9.756  69.279  1.00  0.00    -0.152 A  
HETATM   25  C   UNL     1      -7.238  10.091  69.769  1.00  0.00    -0.127 A  
HETATM   26  C   UNL     1      -6.115  10.059  68.935  1.00  0.00    -0.040 A  
HETATM   27  C   UNL     1      -6.245   9.712  67.592  1.00  0.00    -0.053 A  
HETATM   28  C   UNL     1      -7.498   9.387  67.083  1.00  0.00    -0.091 A  
HETATM   29  C   UNL     1      -8.618   9.406  67.920  1.00  0.00    -0.120 A  
ENDBRANCH  23  24
ENDBRANCH  15  18
ENDBRANCH  12  14
TORSDOF 3
ENDMDL
MODEL       28
REMARK 921   NORMALIZED FREE ENERGY PREDICTED BY IDOCK:   -6.52 KCAL/MOL
REMARK 922        TOTAL FREE ENERGY PREDICTED BY IDOCK:   -8.57 KCAL/MOL
REMARK 923 INTER-LIGAND FREE ENERGY PREDICTED BY IDOCK:   -7.91 KCAL/MOL
REMARK 924 INTRA-LIGAND FREE ENERGY PREDICTED BY IDOCK:   -0.66 KCAL/MOL
REMARK 927      BINDING AFFINITY PREDICTED BY RF-SCORE:    0.00 PKD
ROOT
HETATM    1  C   UNL     1     -10.716  15.847  68.973  1.00  0.00    -0.251 C  
HETATM    2  S   UNL     1      -8.887  15.921  69.157  1.00  0.00    -0.248 SA 
HETATM    3  C   UNL     1      -8.571  16.416  67.402  1.00  0.00    -0.178 C  
HETATM    4  CA  UNL     1      -9.906  17.034  66.912  1.00  0.00    -0.271 C  
HETATM    5  C   UNL     1      -7.342  17.329  67.338  1.00  0.00    -0.185 C  
HETATM    6  C   UNL     1      -8.207  15.136  66.621  1.00  0.00    -0.083 C  
HETATM    7  N   UNL     1     -10.998  16.308  67.596  1.00  0.00    -0.288 N  
HETATM    8  C   UNL     1     -10.085  18.538  67.192  1.00  0.00    -0.353 C  
HETATM    9  OXT UNL     1      -9.292  19.407  66.865  1.00  0.00    -0.304 OA 
HETATM   10  O   UNL     1     -11.274  18.848  67.770  1.00  0.00    -0.160 OA 
HETATM   11  C   UNL     1     -11.375  15.063  67.158  1.00  0.00    -0.320 C  
HETATM   12  CA  UNL     1     -11.336  14.478  68.588  1.00  0.00    -0.276 C  
HETATM   13  O   UNL     1     -11.476  14.632  66.032  1.00  0.00    -0.340 OA 
ENDROOT
BRANCH  12  14
HETATM   14  N   UNL     1     -10.478  13.279  68.796  1.00  0.00    -0.363 N  
HETATM   15  C   UNL     1     -10.917  12.027  68.413  1.00  0.00    -0.237 C  
HETATM   16  H   UNL     1      -9.559  13.383  69.225  1.00  0.00     0.000 HD 
HETATM   17  O   UNL     1     -11.982  11.891  67.821  1.00  0.00    -0.559 OA 
BRANCH  15  18
HETATM   18  C   UNL     1     -10.062  10.918  68.791  1.00  0.00    -0.205 A  
HETATM   19  C   UNL     1      -8.823  10.607  68.254  1.00  0.00    -0.139 A  
HETATM   20  C   UNL     1      -7.939  11.161  67.206  1.00  0.00    -0.137 C  
HETATM   21  O   UNL     1      -8.350   9.482  68.839  1.00  0.00    -0.115 OA 
HETATM   22  N   UNL     1      -9.256   9.015  69.750  1.00  0.00    -0.160 NA 
HETATM   23  C   UNL     1     -10.304   9.859  69.737  1.00  0.00    -0.246 A  
BRANCH  23  24
HETATM   24  C   UNL     1     -11.433   9.602  70.645  1.00  0.00    -0.376 A  
HETATM   25  C   UNL     1     -11.816   8.308  71.017  1.00  0.00    -0.276 A  
HETATM   26  C   UNL     1     -12.921   8.098  71.852  1.00  0.00    -0.356 A  
HETATM   27  C   UNL     1     -13.672   9.178  72.310  1.00  0.00    -0.548 A  
HETATM   28  C   UNL     1     -13.315  10.471  71.943  1.00  0.00    -0.461 A  
HETATM   29  C   UNL     1     -12.204  10.681  71.120  1.00  0.00    -0.479 A  
ENDBRANCH  23  24
ENDBRANCH  15  18
ENDBRANCH  12  14
TORSDOF 3
ENDMDL
MODEL       29
REMARK 921   NORMALIZED FREE ENERGY PREDICTED BY IDOCK:   -6.51 KCAL/MOL
REMARK 922        TOTAL FREE ENERGY PREDICTED BY IDOCK:   -8.56 KCAL/MOL
REMARK 923 INTER-LIGAND FREE ENERGY PREDICTED BY IDOCK:   -8.20 KCAL/MOL
REMARK 924 INTRA-LIGAND FREE ENERGY PREDICTED BY IDOCK:   -0.36 KCAL/MOL
REMARK 927      BINDING AFFINITY PREDICTED BY RF-SCORE:    0.00 PKD
ROOT
HETATM    1  C   UNL     1     -12.050  14.213  66.712  1.00  0.00    -0.442 C  
HETATM    2  S   UNL     1     -11.768  15.177  68.254  1.00  0.00    -0.258 SA 
HETATM    3  C   UNL     1     -10.013  15.606  67.852  1.00  0.00    -0.223 C  
HETATM    4  CA  UNL     1      -9.904  15.457  66.313  1.00  0.00    -0.297 C  
HETATM    5  C   UNL     1      -9.679  16.990  68.420  1.00  0.00    -0.279 C  
HETATM    6  C   UNL     1      -9.112  14.599  68.595  1.00  0.00    -0.189 C  
HETATM    7  N   UNL     1     -10.810  14.357  65.918  1.00  0.00    -0.297 N  
HETATM    8  C   UNL     1     -10.285  16.705  65.495  1.00  0.00    -0.202 C  
HETATM    9  OXT UNL     1      -9.805  17.817  65.655  1.00  0.00    -0.528 OA 
HETATM   10  O   UNL     1     -11.158  16.451  64.486  1.00  0.00    -0.742 OA 
HETATM   11  C   UNL     1     -10.429  13.052  66.105  1.00  0.00    -0.279 C  
HETATM   12  CA  UNL     1     -11.777  12.687  66.769  1.00  0.00    -0.392 C  
HETATM   13  O   UNL     1      -9.348  12.529  65.960  1.00  0.00    -0.195 OA 
ENDROOT
BRANCH  12  14
HETATM   14  N   UNL     1     -11.709  12.075  68.125  1.00  0.00    -0.336 N  
HETATM   15  C   UNL     1     -11.381  10.742  68.278  1.00  0.00    -0.309 C  
HETATM   16  H   UNL     1     -11.907  12.645  68.948  1.00  0.00     0.000 HD 
HETATM   17  O   UNL     1     -11.059  10.062  67.311  1.00  0.00    -0.229 OA 
BRANCH  15  18
HETATM   18  C   UNL     1     -11.483  10.220  69.628  1.00  0.00    -0.297 A  
HETATM   19  C   UNL     1     -12.047  10.858  70.722  1.00  0.00    -0.368 A  
HETATM   20  C   UNL     1     -12.693  12.160  70.988  1.00  0.00    -0.322 C  
HETATM   21  O   UNL     1     -11.922  10.068  71.814  1.00  0.00    -0.354 OA 
HETATM   22  N   UNL     1     -11.267   8.915  71.482  1.00  0.00    -0.299 NA 
HETATM   23  C   UNL     1     -10.984   8.982  70.168  1.00  0.00    -0.233 A  
BRANCH  23  24
HETATM   24  C   UNL     1     -10.285   7.852  69.534  1.00  0.00    -0.208 A  
HETATM   25  C   UNL     1      -8.894   7.820  69.385  1.00  0.00    -0.139 A  
HETATM   26  C   UNL     1      -8.266   6.747  68.742  1.00  0.00    -0.121 A  
HETATM   27  C   UNL     1      -9.021   5.700  68.219  1.00  0.00    -0.114 A  
HETATM   28  C   UNL     1     -10.406   5.719  68.346  1.00  0.00    -0.269 A  
HETATM   29  C   UNL     1     -11.032   6.785  69.001  1.00  0.00    -0.281 A  
ENDBRANCH  23  24
ENDBRANCH  15  18
ENDBRANCH  12  14
TORSDOF 3
ENDMDL
MODEL       30
REMARK 921   NORMALIZED FREE ENERGY PREDICTED BY IDOCK:   -6.49 KCAL/MOL
REMARK 922        TOTAL FREE ENERGY PREDICTED BY IDOCK:   -8.53 KCAL/MOL
REMARK 923 INTER-LIGAND FREE ENERGY PREDICTED BY IDOCK:   -7.03 KCAL/MOL
REMARK 924 INTRA-LIGAND FREE ENERGY PREDICTED BY IDOCK:   -1.50 KCAL/MOL
REMARK 927      BINDING AFFINITY PREDICTED BY RF-SCORE:    0.00 PKD
ROOT
HETATM    1  C   UNL     1     -11.302   7.339  70.722  1.00  0.00    -0.285 C  
HETATM    2  S   UNL     1     -10.299   8.013  69.335  1.00  0.00    -0.217 SA 
HETATM    3  C   UNL     1      -8.669   7.564  70.087  1.00  0.00    -0.142 C  
HETATM    4  CA  UNL     1      -8.990   6.433  71.097  1.00  0.00    -0.146 C  
HETATM    5  C   UNL     1      -7.669   7.214  68.979  1.00  0.00    -0.109 C  
HETATM    6  C   UNL     1      -8.122   8.824  70.788  1.00  0.00    -0.156 C  
HETATM    7  N   UNL     1     -10.334   6.709  71.646  1.00  0.00    -0.204 N  
HETATM    8  C   UNL     1      -8.995   5.005  70.518  1.00  0.00    -0.125 C  
HETATM    9  OXT UNL     1      -8.075   4.503  69.892  1.00  0.00    -0.066 OA 
HETATM   10  O   UNL     1     -10.102   4.288  70.844  1.00  0.00    -0.185 OA 
HETATM   11  C   UNL     1     -10.497   7.666  72.616  1.00  0.00    -0.287 C  
HETATM   12  CA  UNL     1     -11.682   8.317  71.865  1.00  0.00    -0.322 C  
HETATM   13  O   UNL     1      -9.796   7.942  73.563  1.00  0.00    -0.293 OA 
ENDROOT
BRANCH  12  14
HETATM   14  N   UNL     1     -11.564   9.770  71.561  1.00  0.00    -0.379 N  
HETATM   15  C   UNL     1     -12.620  10.458  70.997  1.00  0.00    -0.393 C  
HETATM   16  H   UNL     1     -10.695  10.261  71.773  1.00  0.00     0.000 HD 
HETATM   17  O   UNL     1     -13.699   9.906  70.813  1.00  0.00    -0.187 OA 
BRANCH  15  18
HETATM   18  C   UNL     1     -12.345  11.830  70.616  1.00  0.00    -0.421 A  
HETATM   19  C   UNL     1     -12.858  12.973  71.208  1.00  0.00    -0.281 A  
HETATM   20  C   UNL     1     -13.785  13.281  72.318  1.00  0.00    -0.686 C  
HETATM   21  O   UNL     1     -12.397  14.063  70.552  1.00  0.00    -0.324 OA 
HETATM   22  N   UNL     1     -11.596  13.678  69.514  1.00  0.00    -0.294 NA 
HETATM   23  C   UNL     1     -11.551  12.333  69.524  1.00  0.00    -0.298 A  
BRANCH  23  24
HETATM   24  C   UNL     1     -10.736  11.643  68.511  1.00  0.00    -0.250 A  
HETATM   25  C   UNL     1      -9.337  11.647  68.544  1.00  0.00    -0.169 A  
HETATM   26  C   UNL     1      -8.593  11.013  67.542  1.00  0.00    -0.128 A  
HETATM   27  C   UNL     1      -9.237  10.383  66.480  1.00  0.00    -0.184 A  
HETATM   28  C   UNL     1     -10.626  10.377  66.423  1.00  0.00    -0.198 A  
HETATM   29  C   UNL     1     -11.369  10.999  67.431  1.00  0.00    -0.306 A  
ENDBRANCH  23  24
ENDBRANCH  15  18
ENDBRANCH  12  14
TORSDOF 3
ENDMDL
MODEL       31
REMARK 921   NORMALIZED FREE ENERGY PREDICTED BY IDOCK:   -6.46 KCAL/MOL
REMARK 922        TOTAL FREE ENERGY PREDICTED BY IDOCK:   -8.49 KCAL/MOL
REMARK 923 INTER-LIGAND FREE ENERGY PREDICTED BY IDOCK:   -7.53 KCAL/MOL
REMARK 924 INTRA-LIGAND FREE ENERGY PREDICTED BY IDOCK:   -0.97 KCAL/MOL
REMARK 927      BINDING AFFINITY PREDICTED BY RF-SCORE:    0.00 PKD
ROOT
HETATM    1  C   UNL     1      -9.477   8.961  71.781  1.00  0.00    -0.264 C  
HETATM    2  S   UNL     1     -11.302   8.745  71.861  1.00  0.00    -0.372 SA 
HETATM    3  C   UNL     1     -11.257   6.919  71.564  1.00  0.00    -0.256 C  
HETATM    4  CA  UNL     1      -9.826   6.481  71.967  1.00  0.00    -0.158 C  
HETATM    5  C   UNL     1     -12.407   6.245  72.324  1.00  0.00    -0.147 C  
HETATM    6  C   UNL     1     -11.530   6.689  70.064  1.00  0.00    -0.434 C  
HETATM    7  N   UNL     1      -8.919   7.599  71.633  1.00  0.00    -0.125 N  
HETATM    8  C   UNL     1      -9.630   6.136  73.456  1.00  0.00    -0.147 C  
HETATM    9  OXT UNL     1     -10.303   5.332  74.080  1.00  0.00    -0.233 OA 
HETATM   10  O   UNL     1      -8.557   6.748  74.021  1.00  0.00    -0.130 OA 
HETATM   11  C   UNL     1      -8.527   7.801  70.333  1.00  0.00    -0.132 C  
HETATM   12  CA  UNL     1      -8.863   9.310  70.399  1.00  0.00    -0.234 C  
HETATM   13  O   UNL     1      -8.237   7.000  69.474  1.00  0.00    -0.128 OA 
ENDROOT
BRANCH  12  14
HETATM   14  N   UNL     1      -9.802   9.830  69.368  1.00  0.00    -0.192 N  
HETATM   15  C   UNL     1      -9.454  10.913  68.584  1.00  0.00    -0.190 C  
HETATM   16  H   UNL     1     -10.710   9.383  69.239  1.00  0.00     0.000 HD 
HETATM   17  O   UNL     1      -8.337  11.410  68.665  1.00  0.00    -0.153 OA 
BRANCH  15  18
HETATM   18  C   UNL     1     -10.498  11.420  67.714  1.00  0.00    -0.215 A  
HETATM   19  C   UNL     1     -10.653  11.152  66.363  1.00  0.00    -0.261 A  
HETATM   20  C   UNL     1      -9.938  10.362  65.338  1.00  0.00    -0.362 C  
HETATM   21  O   UNL     1     -11.721  11.835  65.890  1.00  0.00    -0.397 OA 
HETATM   22  N   UNL     1     -12.281  12.575  66.894  1.00  0.00    -0.456 NA 
HETATM   23  C   UNL     1     -11.559  12.349  68.006  1.00  0.00    -0.347 A  
BRANCH  23  24
HETATM   24  C   UNL     1     -11.954  13.016  69.257  1.00  0.00    -0.331 A  
HETATM   25  C   UNL     1     -12.316  12.302  70.405  1.00  0.00    -0.309 A  
HETATM   26  C   UNL     1     -12.725  12.968  71.567  1.00  0.00    -0.349 A  
HETATM   27  C   UNL     1     -12.799  14.359  71.590  1.00  0.00    -0.416 A  
HETATM   28  C   UNL     1     -12.456  15.087  70.456  1.00  0.00    -0.425 A  
HETATM   29  C   UNL     1     -12.034  14.421  69.301  1.00  0.00    -0.362 A  
ENDBRANCH  23  24
ENDBRANCH  15  18
ENDBRANCH  12  14
TORSDOF 3
ENDMDL
MODEL       32
REMARK 921   NORMALIZED FREE ENERGY PREDICTED BY IDOCK:   -6.46 KCAL/MOL
REMARK 922        TOTAL FREE ENERGY PREDICTED BY IDOCK:   -8.49 KCAL/MOL
REMARK 923 INTER-LIGAND FREE ENERGY PREDICTED BY IDOCK:   -7.54 KCAL/MOL
REMARK 924 INTRA-LIGAND FREE ENERGY PREDICTED BY IDOCK:   -0.96 KCAL/MOL
REMARK 927      BINDING AFFINITY PREDICTED BY RF-SCORE:    0.00 PKD
ROOT
HETATM    1  C   UNL     1     -11.529  14.310  67.294  1.00  0.00    -0.352 C  
HETATM    2  S   UNL     1     -10.206  13.918  66.076  1.00  0.00    -0.318 SA 
HETATM    3  C   UNL     1      -9.188  12.928  67.263  1.00  0.00    -0.208 C  
HETATM    4  CA  UNL     1     -10.176  12.487  68.372  1.00  0.00    -0.228 C  
HETATM    5  C   UNL     1      -8.472  11.800  66.511  1.00  0.00    -0.125 C  
HETATM    6  C   UNL     1      -8.085  13.858  67.810  1.00  0.00    -0.174 C  
HETATM    7  N   UNL     1     -11.169  13.572  68.525  1.00  0.00    -0.261 N  
HETATM    8  C   UNL     1     -10.939  11.177  68.101  1.00  0.00    -0.238 C  
HETATM    9  OXT UNL     1     -10.416  10.111  67.819  1.00  0.00    -0.198 OA 
HETATM   10  O   UNL     1     -12.281  11.276  68.293  1.00  0.00    -0.611 OA 
HETATM   11  C   UNL     1     -10.843  14.709  69.222  1.00  0.00    -0.258 C  
HETATM   12  CA  UNL     1     -11.383  15.627  68.101  1.00  0.00    -0.340 C  
HETATM   13  O   UNL     1     -10.193  14.842  70.233  1.00  0.00     0.006 OA 
ENDROOT
BRANCH  12  14
HETATM   14  N   UNL     1     -10.438  16.639  67.554  1.00  0.00    -0.312 N  
HETATM   15  C   UNL     1     -10.159  17.793  68.260  1.00  0.00    -0.371 C  
HETATM   16  H   UNL     1      -9.994  16.480  66.650  1.00  0.00     0.000 HD 
HETATM   17  O   UNL     1     -10.617  17.964  69.384  1.00  0.00    -0.051 OA 
BRANCH  15  18
HETATM   18  C   UNL     1      -9.337  18.769  67.570  1.00  0.00    -0.315 A  
HETATM   19  C   UNL     1      -9.707  19.538  66.478  1.00  0.00    -0.388 A  
HETATM   20  C   UNL     1     -10.910  19.692  65.633  1.00  0.00    -0.358 C  
HETATM   21  O   UNL     1      -8.659  20.305  66.096  1.00  0.00    -0.226 OA 
HETATM   22  N   UNL     1      -7.582  20.055  66.899  1.00  0.00    -0.269 NA 
HETATM   23  C   UNL     1      -7.960  19.126  67.795  1.00  0.00    -0.273 A  
BRANCH  23  24
HETATM   24  C   UNL     1      -6.988  18.676  68.804  1.00  0.00    -0.311 A  
HETATM   25  C   UNL     1      -6.667  17.326  68.987  1.00  0.00    -0.238 A  
HETATM   26  C   UNL     1      -5.767  16.930  69.983  1.00  0.00    -0.224 A  
HETATM   27  C   UNL     1      -5.190  17.876  70.826  1.00  0.00    -0.279 A  
HETATM   28  C   UNL     1      -5.504  19.222  70.669  1.00  0.00    -0.250 A  
HETATM   29  C   UNL     1      -6.393  19.618  69.665  1.00  0.00    -0.366 A  
ENDBRANCH  23  24
ENDBRANCH  15  18
ENDBRANCH  12  14
TORSDOF 3
ENDMDL
MODEL       33
REMARK 921   NORMALIZED FREE ENERGY PREDICTED BY IDOCK:   -6.44 KCAL/MOL
REMARK 922        TOTAL FREE ENERGY PREDICTED BY IDOCK:   -8.48 KCAL/MOL
REMARK 923 INTER-LIGAND FREE ENERGY PREDICTED BY IDOCK:   -7.59 KCAL/MOL
REMARK 924 INTRA-LIGAND FREE ENERGY PREDICTED BY IDOCK:   -0.88 KCAL/MOL
REMARK 927      BINDING AFFINITY PREDICTED BY RF-SCORE:    0.00 PKD
ROOT
HETATM    1  C   UNL     1     -11.620  11.751  66.706  1.00  0.00    -0.210 C  
HETATM    2  S   UNL     1     -11.319  13.254  67.723  1.00  0.00    -0.314 SA 
HETATM    3  C   UNL     1     -10.342  14.133  66.421  1.00  0.00    -0.287 C  
HETATM    4  CA  UNL     1     -10.761  13.467  65.085  1.00  0.00    -0.341 C  
HETATM    5  C   UNL     1     -10.584  15.643  66.526  1.00  0.00    -0.307 C  
HETATM    6  C   UNL     1      -8.848  13.907  66.734  1.00  0.00    -0.170 C  
HETATM    7  N   UNL     1     -11.039  12.045  65.377  1.00  0.00    -0.312 N  
HETATM    8  C   UNL     1     -12.006  14.067  64.405  1.00  0.00    -0.454 C  
HETATM    9  OXT UNL     1     -12.150  15.248  64.131  1.00  0.00    -0.554 OA 
HETATM   10  O   UNL     1     -12.927  13.139  64.036  1.00  0.00    -0.543 OA 
HETATM   11  C   UNL     1     -10.003  11.159  65.532  1.00  0.00    -0.249 C  
HETATM   12  CA  UNL     1     -10.601  10.588  66.838  1.00  0.00    -0.243 C  
HETATM   13  O   UNL     1      -8.956  11.074  64.931  1.00  0.00    -0.179 OA 
ENDROOT
BRANCH  12  14
HETATM   14  N   UNL     1      -9.722  10.610  68.040  1.00  0.00    -0.154 N  
HETATM   15  C   UNL     1      -8.880   9.549  68.313  1.00  0.00    -0.124 C  
HETATM   16  H   UNL     1      -9.742  11.414  68.667  1.00  0.00     0.000 HD 
HETATM   17  O   UNL     1      -8.780   8.612  67.530  1.00  0.00    -0.133 OA 
BRANCH  15  18
HETATM   18  C   UNL     1      -8.177   9.615  69.580  1.00  0.00    -0.148 A  
HETATM   19  C   UNL     1      -6.994  10.289  69.837  1.00  0.00    -0.142 A  
HETATM   20  C   UNL     1      -6.042  11.115  69.064  1.00  0.00    -0.044 C  
HETATM   21  O   UNL     1      -6.633  10.086  71.125  1.00  0.00    -0.325 OA 
HETATM   22  N   UNL     1      -7.542   9.271  71.740  1.00  0.00    -0.284 NA 
HETATM   23  C   UNL     1      -8.483   8.965  70.829  1.00  0.00    -0.182 A  
BRANCH  23  24
HETATM   24  C   UNL     1      -9.605   8.102  71.230  1.00  0.00    -0.203 A  
HETATM   25  C   UNL     1     -10.436   8.407  72.315  1.00  0.00    -0.407 A  
HETATM   26  C   UNL     1     -11.470   7.543  72.693  1.00  0.00    -0.369 A  
HETATM   27  C   UNL     1     -11.677   6.350  72.005  1.00  0.00    -0.376 A  
HETATM   28  C   UNL     1     -10.856   6.022  70.932  1.00  0.00    -0.349 A  
HETATM   29  C   UNL     1      -9.831   6.892  70.546  1.00  0.00    -0.187 A  
ENDBRANCH  23  24
ENDBRANCH  15  18
ENDBRANCH  12  14
TORSDOF 3
ENDMDL
MODEL       34
REMARK 921   NORMALIZED FREE ENERGY PREDICTED BY IDOCK:   -6.41 KCAL/MOL
REMARK 922        TOTAL FREE ENERGY PREDICTED BY IDOCK:   -8.43 KCAL/MOL
REMARK 923 INTER-LIGAND FREE ENERGY PREDICTED BY IDOCK:   -7.51 KCAL/MOL
REMARK 924 INTRA-LIGAND FREE ENERGY PREDICTED BY IDOCK:   -0.92 KCAL/MOL
REMARK 927      BINDING AFFINITY PREDICTED BY RF-SCORE:    0.00 PKD
ROOT
HETATM    1  C   UNL     1      -8.445   8.687  68.951  1.00  0.00    -0.129 C  
HETATM    2  S   UNL     1     -10.199   8.486  69.467  1.00  0.00    -0.210 SA 
HETATM    3  C   UNL     1     -10.293   6.694  69.014  1.00  0.00    -0.192 C  
HETATM    4  CA  UNL     1      -8.823   6.204  69.005  1.00  0.00    -0.123 C  
HETATM    5  C   UNL     1     -11.240   5.968  69.976  1.00  0.00    -0.425 C  
HETATM    6  C   UNL     1     -10.939   6.607  67.615  1.00  0.00    -0.392 C  
HETATM    7  N   UNL     1      -7.989   7.337  68.551  1.00  0.00    -0.122 N  
HETATM    8  C   UNL     1      -8.274   5.722  70.361  1.00  0.00    -0.107 C  
HETATM    9  OXT UNL     1      -8.799   4.871  71.063  1.00  0.00    -0.121 OA 
HETATM   10  O   UNL     1      -7.073   6.266  70.689  1.00  0.00    -0.065 OA 
HETATM   11  C   UNL     1      -7.926   7.653  67.217  1.00  0.00    -0.118 C  
HETATM   12  CA  UNL     1      -8.182   9.153  67.494  1.00  0.00    -0.108 C  
HETATM   13  O   UNL     1      -7.888   6.930  66.247  1.00  0.00    -0.095 OA 
ENDROOT
BRANCH  12  14
HETATM   14  N   UNL     1      -9.330   9.777  66.780  1.00  0.00    -0.148 N  
HETATM   15  C   UNL     1      -9.287  11.107  66.410  1.00  0.00    -0.188 C  
HETATM   16  H   UNL     1     -10.155   9.218  66.563  1.00  0.00     0.000 HD 
HETATM   17  O   UNL     1      -8.273  11.773  66.587  1.00  0.00    -0.171 OA 
BRANCH  15  18
HETATM   18  C   UNL     1     -10.512  11.644  65.849  1.00  0.00    -0.300 A  
HETATM   19  C   UNL     1     -10.863  11.679  64.509  1.00  0.00    -0.324 A  
HETATM   20  C   UNL     1     -10.250  11.266  63.229  1.00  0.00    -0.417 C  
HETATM   21  O   UNL     1     -12.064  12.288  64.377  1.00  0.00    -0.394 OA 
HETATM   22  N   UNL     1     -12.524  12.682  65.602  1.00  0.00    -0.620 NA 
HETATM   23  C   UNL     1     -11.603  12.312  66.510  1.00  0.00    -0.377 A  
BRANCH  23  24
HETATM   24  C   UNL     1     -11.852  12.601  67.932  1.00  0.00    -0.388 A  
HETATM   25  C   UNL     1     -11.945  13.908  68.426  1.00  0.00    -0.391 A  
HETATM   26  C   UNL     1     -12.143  14.147  69.791  1.00  0.00    -0.409 A  
HETATM   27  C   UNL     1     -12.231  13.084  70.686  1.00  0.00    -0.390 A  
HETATM   28  C   UNL     1     -12.130  11.778  70.217  1.00  0.00    -0.426 A  
HETATM   29  C   UNL     1     -11.945  11.540  68.852  1.00  0.00    -0.364 A  
ENDBRANCH  23  24
ENDBRANCH  15  18
ENDBRANCH  12  14
TORSDOF 3
ENDMDL
MODEL       35
REMARK 921   NORMALIZED FREE ENERGY PREDICTED BY IDOCK:   -6.40 KCAL/MOL
REMARK 922        TOTAL FREE ENERGY PREDICTED BY IDOCK:   -8.43 KCAL/MOL
REMARK 923 INTER-LIGAND FREE ENERGY PREDICTED BY IDOCK:   -7.63 KCAL/MOL
REMARK 924 INTRA-LIGAND FREE ENERGY PREDICTED BY IDOCK:   -0.80 KCAL/MOL
REMARK 927      BINDING AFFINITY PREDICTED BY RF-SCORE:    0.00 PKD
ROOT
HETATM    1  C   UNL     1      -8.349   7.750  68.611  1.00  0.00    -0.129 C  
HETATM    2  S   UNL     1      -9.290   6.216  68.995  1.00  0.00    -0.128 SA 
HETATM    3  C   UNL     1      -9.731   5.856  67.235  1.00  0.00    -0.127 C  
HETATM    4  CA  UNL     1      -8.677   6.619  66.392  1.00  0.00    -0.141 C  
HETATM    5  C   UNL     1      -9.795   4.339  67.020  1.00  0.00    -0.216 C  
HETATM    6  C   UNL     1     -11.157   6.393  66.998  1.00  0.00    -0.405 C  
HETATM    7  N   UNL     1      -8.335   7.850  67.135  1.00  0.00    -0.116 N  
HETATM    8  C   UNL     1      -7.370   5.854  66.110  1.00  0.00    -0.081 C  
HETATM    9  OXT UNL     1      -7.307   4.742  65.609  1.00  0.00    -0.074 OA 
HETATM   10  O   UNL     1      -6.248   6.569  66.385  1.00  0.00    -0.035 OA 
HETATM   11  C   UNL     1      -9.185   8.928  67.108  1.00  0.00    -0.139 C  
HETATM   12  CA  UNL     1      -9.131   9.090  68.645  1.00  0.00    -0.137 C  
HETATM   13  O   UNL     1      -9.842   9.378  66.197  1.00  0.00    -0.250 OA 
ENDROOT
BRANCH  12  14
HETATM   14  N   UNL     1     -10.434   9.079  69.364  1.00  0.00    -0.220 N  
HETATM   15  C   UNL     1     -10.486   9.286  70.728  1.00  0.00    -0.276 C  
HETATM   16  H   UNL     1     -11.297   8.918  68.844  1.00  0.00     0.000 HD 
HETATM   17  O   UNL     1      -9.471   9.564  71.357  1.00  0.00    -0.224 OA 
BRANCH  15  18
HETATM   18  C   UNL     1     -11.788   9.114  71.342  1.00  0.00    -0.415 A  
HETATM   19  C   UNL     1     -12.356   7.921  71.760  1.00  0.00    -0.320 A  
HETATM   20  C   UNL     1     -11.970   6.494  71.764  1.00  0.00    -0.394 C  
HETATM   21  O   UNL     1     -13.595   8.162  72.250  1.00  0.00    -0.245 OA 
HETATM   22  N   UNL     1     -13.882   9.494  72.154  1.00  0.00    -0.362 NA 
HETATM   23  C   UNL     1     -12.811  10.094  71.604  1.00  0.00    -0.454 A  
BRANCH  23  24
HETATM   24  C   UNL     1     -12.842  11.551  71.396  1.00  0.00    -0.489 A  
HETATM   25  C   UNL     1     -12.158  12.173  70.345  1.00  0.00    -0.395 A  
HETATM   26  C   UNL     1     -12.177  13.566  70.201  1.00  0.00    -0.400 A  
HETATM   27  C   UNL     1     -12.863  14.359  71.118  1.00  0.00    -0.417 A  
HETATM   28  C   UNL     1     -13.540  13.761  72.176  1.00  0.00    -0.613 A  
HETATM   29  C   UNL     1     -13.531  12.369  72.312  1.00  0.00    -0.428 A  
ENDBRANCH  23  24
ENDBRANCH  15  18
ENDBRANCH  12  14
TORSDOF 3
ENDMDL
MODEL       36
REMARK 921   NORMALIZED FREE ENERGY PREDICTED BY IDOCK:   -6.39 KCAL/MOL
REMARK 922        TOTAL FREE ENERGY PREDICTED BY IDOCK:   -8.41 KCAL/MOL
REMARK 923 INTER-LIGAND FREE ENERGY PREDICTED BY IDOCK:   -7.19 KCAL/MOL
REMARK 924 INTRA-LIGAND FREE ENERGY PREDICTED BY IDOCK:   -1.22 KCAL/MOL
REMARK 927      BINDING AFFINITY PREDICTED BY RF-SCORE:    0.00 PKD
ROOT
HETATM    1  C   UNL     1      -9.083  14.727  67.662  1.00  0.00    -0.185 C  
HETATM    2  S   UNL     1      -9.600  14.127  66.002  1.00  0.00    -0.168 SA 
HETATM    3  C   UNL     1     -11.123  15.176  65.923  1.00  0.00    -0.319 C  
HETATM    4  CA  UNL     1     -10.866  16.334  66.922  1.00  0.00    -0.151 C  
HETATM    5  C   UNL     1     -11.390  15.587  64.470  1.00  0.00    -0.322 C  
HETATM    6  C   UNL     1     -12.312  14.295  66.355  1.00  0.00    -0.378 C  
HETATM    7  N   UNL     1     -10.054  15.782  68.027  1.00  0.00    -0.226 N  
HETATM    8  C   UNL     1     -10.124  17.555  66.348  1.00  0.00    -0.345 C  
HETATM    9  OXT UNL     1     -10.467  18.177  65.355  1.00  0.00    -0.598 OA 
HETATM   10  O   UNL     1      -9.071  17.960  67.106  1.00  0.00    -0.243 OA 
HETATM   11  C   UNL     1     -10.648  15.025  69.005  1.00  0.00    -0.245 C  
HETATM   12  CA  UNL     1      -9.572  13.920  68.893  1.00  0.00     0.028 C  
HETATM   13  O   UNL     1     -11.722  15.158  69.547  1.00  0.00    -0.290 OA 
ENDROOT
BRANCH  12  14
HETATM   14  N   UNL     1     -10.059  12.538  68.630  1.00  0.00    -0.378 N  
HETATM   15  C   UNL     1      -9.167  11.491  68.501  1.00  0.00    -0.167 C  
HETATM   16  H   UNL     1     -11.060  12.362  68.543  1.00  0.00     0.000 HD 
HETATM   17  O   UNL     1      -7.968  11.666  68.684  1.00  0.00    -0.144 OA 
BRANCH  15  18
HETATM   18  C   UNL     1      -9.742  10.220  68.106  1.00  0.00    -0.158 A  
HETATM   19  C   UNL     1     -10.117   9.184  68.947  1.00  0.00    -0.197 A  
HETATM   20  C   UNL     1     -10.101   8.925  70.402  1.00  0.00    -0.232 C  
HETATM   21  O   UNL     1     -10.579   8.150  68.205  1.00  0.00    -0.183 OA 
HETATM   22  N   UNL     1     -10.505   8.461  66.877  1.00  0.00    -0.315 NA 
HETATM   23  C   UNL     1      -9.997   9.703  66.786  1.00  0.00    -0.227 A  
BRANCH  23  24
HETATM   24  C   UNL     1      -9.821  10.303  65.454  1.00  0.00    -0.362 A  
HETATM   25  C   UNL     1     -10.836  11.029  64.818  1.00  0.00    -0.234 A  
HETATM   26  C   UNL     1     -10.648  11.552  63.534  1.00  0.00    -0.487 A  
HETATM   27  C   UNL     1      -9.450  11.340  62.856  1.00  0.00    -0.385 A  
HETATM   28  C   UNL     1      -8.434  10.612  63.464  1.00  0.00    -0.089 A  
HETATM   29  C   UNL     1      -8.617  10.100  64.753  1.00  0.00    -0.191 A  
ENDBRANCH  23  24
ENDBRANCH  15  18
ENDBRANCH  12  14
TORSDOF 3
ENDMDL
MODEL       37
REMARK 921   NORMALIZED FREE ENERGY PREDICTED BY IDOCK:   -6.38 KCAL/MOL
REMARK 922        TOTAL FREE ENERGY PREDICTED BY IDOCK:   -8.41 KCAL/MOL
REMARK 923 INTER-LIGAND FREE ENERGY PREDICTED BY IDOCK:   -7.46 KCAL/MOL
REMARK 924 INTRA-LIGAND FREE ENERGY PREDICTED BY IDOCK:   -0.94 KCAL/MOL
REMARK 927      BINDING AFFINITY PREDICTED BY RF-SCORE:    0.00 PKD
ROOT
HETATM    1  C   UNL     1      -9.375  13.963  66.957  1.00  0.00    -0.251 C  
HETATM    2  S   UNL     1     -10.127  12.973  65.601  1.00  0.00    -0.238 SA 
HETATM    3  C   UNL     1     -11.666  13.995  65.495  1.00  0.00    -0.350 C  
HETATM    4  CA  UNL     1     -11.286  15.362  66.118  1.00  0.00    -0.161 C  
HETATM    5  C   UNL     1     -12.161  14.031  64.044  1.00  0.00    -0.395 C  
HETATM    6  C   UNL     1     -12.756  13.272  66.312  1.00  0.00     0.061 C  
HETATM    7  N   UNL     1     -10.302  15.093  67.189  1.00  0.00    -0.259 N  
HETATM    8  C   UNL     1     -10.667  16.386  65.149  1.00  0.00    -0.291 C  
HETATM    9  OXT UNL     1     -11.171  16.744  64.096  1.00  0.00    -1.155 OA 
HETATM   10  O   UNL     1      -9.520  16.951  65.610  1.00  0.00    -0.524 OA 
HETATM   11  C   UNL     1     -10.724  14.617  68.406  1.00  0.00    -0.241 C  
HETATM   12  CA  UNL     1      -9.653  13.501  68.412  1.00  0.00    -0.196 C  
HETATM   13  O   UNL     1     -11.705  14.901  69.055  1.00  0.00    -0.293 OA 
ENDROOT
BRANCH  12  14
HETATM   14  N   UNL     1     -10.144  12.106  68.583  1.00  0.00    -0.346 N  
HETATM   15  C   UNL     1      -9.254  11.062  68.739  1.00  0.00    -0.162 C  
HETATM   16  H   UNL     1     -11.147  11.920  68.585  1.00  0.00     0.000 HD 
HETATM   17  O   UNL     1      -8.049  11.275  68.824  1.00  0.00    -0.145 OA 
BRANCH  15  18
HETATM   18  C   UNL     1      -9.837   9.735  68.755  1.00  0.00    -0.176 A  
HETATM   19  C   UNL     1     -10.556   9.158  69.790  1.00  0.00    -0.229 A  
HETATM   20  C   UNL     1     -10.987   9.556  71.147  1.00  0.00    -0.438 C  
HETATM   21  O   UNL     1     -10.905   7.897  69.445  1.00  0.00    -0.205 OA 
HETATM   22  N   UNL     1     -10.418   7.603  68.202  1.00  0.00    -0.200 NA 
HETATM   23  C   UNL     1      -9.763   8.693  67.763  1.00  0.00    -0.165 A  
BRANCH  23  24
HETATM   24  C   UNL     1      -9.145   8.659  66.428  1.00  0.00    -0.218 A  
HETATM   25  C   UNL     1      -8.020   7.875  66.142  1.00  0.00    -0.104 A  
HETATM   26  C   UNL     1      -7.434   7.898  64.871  1.00  0.00    -0.082 A  
HETATM   27  C   UNL     1      -7.950   8.720  63.872  1.00  0.00    -0.157 A  
HETATM   28  C   UNL     1      -9.060   9.515  64.139  1.00  0.00    -0.203 A  
HETATM   29  C   UNL     1      -9.653   9.483  65.405  1.00  0.00    -0.342 A  
ENDBRANCH  23  24
ENDBRANCH  15  18
ENDBRANCH  12  14
TORSDOF 3
ENDMDL
MODEL       38
REMARK 921   NORMALIZED FREE ENERGY PREDICTED BY IDOCK:   -6.37 KCAL/MOL
REMARK 922        TOTAL FREE ENERGY PREDICTED BY IDOCK:   -8.39 KCAL/MOL
REMARK 923 INTER-LIGAND FREE ENERGY PREDICTED BY IDOCK:   -7.44 KCAL/MOL
REMARK 924 INTRA-LIGAND FREE ENERGY PREDICTED BY IDOCK:   -0.95 KCAL/MOL
REMARK 927      BINDING AFFINITY PREDICTED BY RF-SCORE:    0.00 PKD
ROOT
HETATM    1  C   UNL     1      -8.903   9.664  69.612  1.00  0.00    -0.201 C  
HETATM    2  S   UNL     1     -10.599   8.979  69.816  1.00  0.00    -0.227 SA 
HETATM    3  C   UNL     1     -10.260   7.431  68.860  1.00  0.00    -0.196 C  
HETATM    4  CA  UNL     1      -8.720   7.260  68.903  1.00  0.00    -0.128 C  
HETATM    5  C   UNL     1     -11.083   6.276  69.442  1.00  0.00    -0.477 C  
HETATM    6  C   UNL     1     -10.775   7.655  67.423  1.00  0.00    -0.318 C  
HETATM    7  N   UNL     1      -8.132   8.617  68.906  1.00  0.00    -0.116 N  
HETATM    8  C   UNL     1      -8.169   6.500  70.124  1.00  0.00    -0.129 C  
HETATM    9  OXT UNL     1      -8.536   5.391  70.479  1.00  0.00    -0.117 OA 
HETATM   10  O   UNL     1      -7.145   7.138  70.748  1.00  0.00    -0.063 OA 
HETATM   11  C   UNL     1      -8.053   9.334  67.738  1.00  0.00    -0.104 C  
HETATM   12  CA  UNL     1      -8.655  10.596  68.397  1.00  0.00    -0.134 C  
HETATM   13  O   UNL     1      -7.790   8.966  66.615  1.00  0.00    -0.098 OA 
ENDROOT
BRANCH  12  14
HETATM   14  N   UNL     1      -9.863  11.176  67.748  1.00  0.00    -0.169 N  
HETATM   15  C   UNL     1      -9.739  12.142  66.769  1.00  0.00    -0.207 C  
HETATM   16  H   UNL     1     -10.791  10.858  68.029  1.00  0.00     0.000 HD 
HETATM   17  O   UNL     1      -8.634  12.477  66.358  1.00  0.00    -0.048 OA 
BRANCH  15  18
HETATM   18  C   UNL     1     -10.980  12.735  66.309  1.00  0.00    -0.307 A  
HETATM   19  C   UNL     1     -11.594  12.527  65.084  1.00  0.00    -0.353 A  
HETATM   20  C   UNL     1     -11.313  11.740  63.865  1.00  0.00    -0.494 C  
HETATM   21  O   UNL     1     -12.715  13.282  65.011  1.00  0.00    -0.623 OA 
HETATM   22  N   UNL     1     -12.860  14.012  66.157  1.00  0.00    -0.286 NA 
HETATM   23  C   UNL     1     -11.823  13.707  66.957  1.00  0.00    -0.408 A  
BRANCH  23  24
HETATM   24  C   UNL     1     -11.736  14.346  68.280  1.00  0.00    -0.376 A  
HETATM   25  C   UNL     1     -12.128  13.693  69.455  1.00  0.00    -0.368 A  
HETATM   26  C   UNL     1     -12.068  14.345  70.693  1.00  0.00    -0.404 A  
HETATM   27  C   UNL     1     -11.635  15.667  70.771  1.00  0.00    -0.412 A  
HETATM   28  C   UNL     1     -11.252  16.337  69.614  1.00  0.00    -0.311 A  
HETATM   29  C   UNL     1     -11.299  15.681  68.380  1.00  0.00    -0.365 A  
ENDBRANCH  23  24
ENDBRANCH  15  18
ENDBRANCH  12  14
TORSDOF 3
ENDMDL
MODEL       39
REMARK 921   NORMALIZED FREE ENERGY PREDICTED BY IDOCK:   -6.36 KCAL/MOL
REMARK 922        TOTAL FREE ENERGY PREDICTED BY IDOCK:   -8.37 KCAL/MOL
REMARK 923 INTER-LIGAND FREE ENERGY PREDICTED BY IDOCK:   -7.65 KCAL/MOL
REMARK 924 INTRA-LIGAND FREE ENERGY PREDICTED BY IDOCK:   -0.73 KCAL/MOL
REMARK 927      BINDING AFFINITY PREDICTED BY RF-SCORE:    0.00 PKD
ROOT
HETATM    1  C   UNL     1     -10.053  14.620  69.077  1.00  0.00    -0.209 C  
HETATM    2  S   UNL     1      -8.479  14.600  68.124  1.00  0.00    -0.165 SA 
HETATM    3  C   UNL     1      -9.151  15.561  66.692  1.00  0.00    -0.279 C  
HETATM    4  CA  UNL     1     -10.379  16.319  67.256  1.00  0.00    -0.285 C  
HETATM    5  C   UNL     1      -8.041  16.430  66.089  1.00  0.00    -0.193 C  
HETATM    6  C   UNL     1      -9.552  14.545  65.603  1.00  0.00    -0.189 C  
HETATM    7  N   UNL     1     -10.987  15.454  68.290  1.00  0.00    -0.276 N  
HETATM    8  C   UNL     1     -10.080  17.688  67.897  1.00  0.00    -0.345 C  
HETATM    9  OXT UNL     1      -9.477  18.597  67.348  1.00  0.00    -0.291 OA 
HETATM   10  O   UNL     1     -10.633  17.848  69.127  1.00  0.00    -0.168 OA 
HETATM   11  C   UNL     1     -11.772  14.390  67.921  1.00  0.00    -0.356 C  
HETATM   12  CA  UNL     1     -11.023  13.426  68.871  1.00  0.00    -0.248 C  
HETATM   13  O   UNL     1     -12.583  14.294  67.028  1.00  0.00    -0.179 OA 
ENDROOT
BRANCH  12  14
HETATM   14  N   UNL     1     -10.445  12.200  68.257  1.00  0.00    -0.207 N  
HETATM   15  C   UNL     1     -11.204  11.053  68.131  1.00  0.00    -0.302 C  
HETATM   16  H   UNL     1      -9.480  12.206  67.926  1.00  0.00     0.000 HD 
HETATM   17  O   UNL     1     -12.389  11.049  68.444  1.00  0.00    -0.528 OA 
BRANCH  15  18
HETATM   18  C   UNL     1     -10.498   9.881  67.650  1.00  0.00    -0.296 A  
HETATM   19  C   UNL     1      -9.926   9.714  66.398  1.00  0.00    -0.255 A  
HETATM   20  C   UNL     1      -9.798  10.515  65.163  1.00  0.00    -0.359 C  
HETATM   21  O   UNL     1      -9.390   8.474  66.312  1.00  0.00    -0.193 OA 
HETATM   22  N   UNL     1      -9.604   7.793  67.477  1.00  0.00    -0.143 NA 
HETATM   23  C   UNL     1     -10.278   8.616  68.302  1.00  0.00    -0.198 A  
BRANCH  23  24
HETATM   24  C   UNL     1     -10.631   8.138  69.648  1.00  0.00    -0.223 A  
HETATM   25  C   UNL     1     -11.036   6.820  69.894  1.00  0.00    -0.340 A  
HETATM   26  C   UNL     1     -11.403   6.410  71.181  1.00  0.00    -0.376 A  
HETATM   27  C   UNL     1     -11.391   7.317  72.239  1.00  0.00    -0.310 A  
HETATM   28  C   UNL     1     -11.004   8.633  72.013  1.00  0.00    -0.432 A  
HETATM   29  C   UNL     1     -10.624   9.039  70.730  1.00  0.00    -0.300 A  
ENDBRANCH  23  24
ENDBRANCH  15  18
ENDBRANCH  12  14
TORSDOF 3
ENDMDL
MODEL       40
REMARK 921   NORMALIZED FREE ENERGY PREDICTED BY IDOCK:   -6.34 KCAL/MOL
REMARK 922        TOTAL FREE ENERGY PREDICTED BY IDOCK:   -8.35 KCAL/MOL
REMARK 923 INTER-LIGAND FREE ENERGY PREDICTED BY IDOCK:   -7.47 KCAL/MOL
REMARK 924 INTRA-LIGAND FREE ENERGY PREDICTED BY IDOCK:   -0.88 KCAL/MOL
REMARK 927      BINDING AFFINITY PREDICTED BY RF-SCORE:    0.00 PKD
ROOT
HETATM    1  C   UNL     1      -8.823  11.668  66.622  1.00  0.00    -0.187 C  
HETATM    2  S   UNL     1      -8.670  10.939  68.305  1.00  0.00    -0.146 SA 
HETATM    3  C   UNL     1     -10.047   9.725  68.076  1.00  0.00    -0.171 C  
HETATM    4  CA  UNL     1     -10.190   9.562  66.541  1.00  0.00    -0.237 C  
HETATM    5  C   UNL     1      -9.742   8.445  68.864  1.00  0.00    -0.168 C  
HETATM    6  C   UNL     1     -11.313  10.338  68.711  1.00  0.00    -0.226 C  
HETATM    7  N   UNL     1      -9.859  10.869  65.933  1.00  0.00    -0.225 N  
HETATM    8  C   UNL     1      -9.285   8.495  65.898  1.00  0.00    -0.182 C  
HETATM    9  OXT UNL     1      -9.224   7.327  66.251  1.00  0.00    -0.168 OA 
HETATM   10  O   UNL     1      -8.600   8.940  64.813  1.00  0.00    -0.175 OA 
HETATM   11  C   UNL     1     -10.782  11.885  65.944  1.00  0.00    -0.284 C  
HETATM   12  CA  UNL     1      -9.744  12.906  66.466  1.00  0.00    -0.257 C  
HETATM   13  O   UNL     1     -11.981  11.849  65.786  1.00  0.00    -0.451 OA 
ENDROOT
BRANCH  12  14
HETATM   14  N   UNL     1     -10.095  13.635  67.716  1.00  0.00    -0.237 N  
HETATM   15  C   UNL     1     -10.880  14.771  67.670  1.00  0.00    -0.285 C  
HETATM   16  H   UNL     1      -9.754  13.292  68.614  1.00  0.00     0.000 HD 
HETATM   17  O   UNL     1     -11.369  15.151  66.613  1.00  0.00    -0.320 OA 
BRANCH  15  18
HETATM   18  C   UNL     1     -11.040  15.476  68.928  1.00  0.00    -0.282 A  
HETATM   19  C   UNL     1     -11.663  15.000  70.070  1.00  0.00    -0.306 A  
HETATM   20  C   UNL     1     -12.355  13.758  70.476  1.00  0.00    -0.429 C  
HETATM   21  O   UNL     1     -11.643  15.960  71.024  1.00  0.00    -0.362 OA 
HETATM   22  N   UNL     1     -11.034  17.084  70.541  1.00  0.00     0.299 NA 
HETATM   23  C   UNL     1     -10.664  16.822  69.274  1.00  0.00    -0.324 A  
BRANCH  23  24
HETATM   24  C   UNL     1      -9.963  17.867  68.509  1.00  0.00    -0.379 A  
HETATM   25  C   UNL     1      -8.569  17.991  68.514  1.00  0.00    -0.306 A  
HETATM   26  C   UNL     1      -7.937  19.021  67.807  1.00  0.00    -0.292 A  
HETATM   27  C   UNL     1      -8.692  19.955  67.100  1.00  0.00    -0.397 A  
HETATM   28  C   UNL     1     -10.079  19.855  67.092  1.00  0.00    -0.573 A  
HETATM   29  C   UNL     1     -10.709  18.819  67.788  1.00  0.00    -0.406 A  
ENDBRANCH  23  24
ENDBRANCH  15  18
ENDBRANCH  12  14
TORSDOF 3
ENDMDL
MODEL       41
REMARK 921   NORMALIZED FREE ENERGY PREDICTED BY IDOCK:   -6.33 KCAL/MOL
REMARK 922        TOTAL FREE ENERGY PREDICTED BY IDOCK:   -8.34 KCAL/MOL
REMARK 923 INTER-LIGAND FREE ENERGY PREDICTED BY IDOCK:   -7.27 KCAL/MOL
REMARK 924 INTRA-LIGAND FREE ENERGY PREDICTED BY IDOCK:   -1.08 KCAL/MOL
REMARK 927      BINDING AFFINITY PREDICTED BY RF-SCORE:    0.00 PKD
ROOT
HETATM    1  C   UNL     1      -8.898  18.309  68.767  1.00  0.00    -0.215 C  
HETATM    2  S   UNL     1      -7.512  17.103  68.676  1.00  0.00    -0.253 SA 
HETATM    3  C   UNL     1      -7.233  17.321  66.859  1.00  0.00    -0.200 C  
HETATM    4  CA  UNL     1      -7.843  18.705  66.522  1.00  0.00    -0.268 C  
HETATM    5  C   UNL     1      -5.743  17.146  66.543  1.00  0.00    -0.202 C  
HETATM    6  C   UNL     1      -7.970  16.174  66.139  1.00  0.00     0.053 C  
HETATM    7  N   UNL     1      -9.007  18.896  67.413  1.00  0.00    -0.275 N  
HETATM    8  C   UNL     1      -6.901  19.910  66.703  1.00  0.00    -0.213 C  
HETATM    9  OXT UNL     1      -5.796  20.014  66.195  1.00  0.00    -0.164 OA 
HETATM   10  O   UNL     1      -7.446  20.926  67.422  1.00  0.00    -0.353 OA 
HETATM   11  C   UNL     1     -10.195  18.267  67.136  1.00  0.00    -0.373 C  
HETATM   12  CA  UNL     1     -10.336  17.754  68.588  1.00  0.00    -0.350 C  
HETATM   13  O   UNL     1     -10.742  18.070  66.075  1.00  0.00    -0.319 OA 
ENDROOT
BRANCH  12  14
HETATM   14  N   UNL     1     -10.507  16.286  68.764  1.00  0.00    -0.263 N  
HETATM   15  C   UNL     1     -11.758  15.747  68.990  1.00  0.00    -0.396 C  
HETATM   16  H   UNL     1      -9.693  15.672  68.717  1.00  0.00     0.000 HD 
HETATM   17  O   UNL     1     -12.758  16.455  68.967  1.00  0.00     0.646 OA 
BRANCH  15  18
HETATM   18  C   UNL     1     -11.787  14.327  69.286  1.00  0.00    -0.372 A  
HETATM   19  C   UNL     1     -11.922  13.744  70.536  1.00  0.00    -0.296 A  
HETATM   20  C   UNL     1     -12.064  14.218  71.930  1.00  0.00    -0.167 C  
HETATM   21  O   UNL     1     -11.870  12.398  70.411  1.00  0.00    -0.299 OA 
HETATM   22  N   UNL     1     -11.683  12.059  69.100  1.00  0.00    -0.311 NA 
HETATM   23  C   UNL     1     -11.623  13.205  68.398  1.00  0.00    -0.337 A  
BRANCH  23  24
HETATM   24  C   UNL     1     -11.441  13.135  66.939  1.00  0.00    -0.384 A  
HETATM   25  C   UNL     1     -12.331  13.739  66.042  1.00  0.00    -0.499 A  
HETATM   26  C   UNL     1     -12.149  13.619  64.659  1.00  0.00    -0.449 A  
HETATM   27  C   UNL     1     -11.086  12.875  64.152  1.00  0.00    -0.438 A  
HETATM   28  C   UNL     1     -10.198  12.257  65.026  1.00  0.00    -0.312 A  
HETATM   29  C   UNL     1     -10.373  12.389  66.407  1.00  0.00    -0.255 A  
ENDBRANCH  23  24
ENDBRANCH  15  18
ENDBRANCH  12  14
TORSDOF 3
ENDMDL
MODEL       42
REMARK 921   NORMALIZED FREE ENERGY PREDICTED BY IDOCK:   -6.30 KCAL/MOL
REMARK 922        TOTAL FREE ENERGY PREDICTED BY IDOCK:   -8.31 KCAL/MOL
REMARK 923 INTER-LIGAND FREE ENERGY PREDICTED BY IDOCK:   -7.83 KCAL/MOL
REMARK 924 INTRA-LIGAND FREE ENERGY PREDICTED BY IDOCK:   -0.49 KCAL/MOL
REMARK 927      BINDING AFFINITY PREDICTED BY RF-SCORE:    0.00 PKD
ROOT
HETATM    1  C   UNL     1      -9.117   7.951  69.599  1.00  0.00    -0.153 C  
HETATM    2  S   UNL     1      -8.540   8.781  71.136  1.00  0.00    -0.206 SA 
HETATM    3  C   UNL     1      -9.234   7.501  72.277  1.00  0.00    -0.138 C  
HETATM    4  CA  UNL     1      -9.391   6.228  71.407  1.00  0.00    -0.152 C  
HETATM    5  C   UNL     1      -8.332   7.367  73.510  1.00  0.00    -0.179 C  
HETATM    6  C   UNL     1     -10.594   8.024  72.784  1.00  0.00    -0.420 C  
HETATM    7  N   UNL     1      -9.726   6.676  70.038  1.00  0.00    -0.163 N  
HETATM    8  C   UNL     1      -8.147   5.324  71.321  1.00  0.00    -0.114 C  
HETATM    9  OXT UNL     1      -7.543   4.874  72.282  1.00  0.00    -0.086 OA 
HETATM   10  O   UNL     1      -7.811   4.975  70.051  1.00  0.00    -0.068 OA 
HETATM   11  C   UNL     1     -11.004   7.077  69.740  1.00  0.00    -0.250 C  
HETATM   12  CA  UNL     1     -10.506   8.366  69.046  1.00  0.00    -0.201 C  
HETATM   13  O   UNL     1     -12.066   6.628  70.107  1.00  0.00    -0.323 OA 
ENDROOT
BRANCH  12  14
HETATM   14  N   UNL     1     -11.063   9.653  69.549  1.00  0.00    -0.361 N  
HETATM   15  C   UNL     1     -11.452  10.641  68.667  1.00  0.00    -0.263 C  
HETATM   16  H   UNL     1     -11.158   9.805  70.553  1.00  0.00     0.000 HD 
HETATM   17  O   UNL     1     -11.424  10.447  67.457  1.00  0.00    -0.386 OA 
BRANCH  15  18
HETATM   18  C   UNL     1     -11.845  11.902  69.268  1.00  0.00    -0.379 A  
HETATM   19  C   UNL     1     -12.387  12.083  70.530  1.00  0.00    -0.282 A  
HETATM   20  C   UNL     1     -12.768  11.220  71.667  1.00  0.00    -0.448 C  
HETATM   21  O   UNL     1     -12.655  13.397  70.718  1.00  0.00    -0.336 OA 
HETATM   22  N   UNL     1     -12.321  14.105  69.597  1.00  0.00    -0.309 NA 
HETATM   23  C   UNL     1     -11.834  13.226  68.702  1.00  0.00    -0.345 A  
BRANCH  23  24
HETATM   24  C   UNL     1     -11.378  13.725  67.394  1.00  0.00    -0.348 A  
HETATM   25  C   UNL     1     -10.104  14.273  67.205  1.00  0.00    -0.254 A  
HETATM   26  C   UNL     1      -9.716  14.773  65.956  1.00  0.00    -0.350 A  
HETATM   27  C   UNL     1     -10.605  14.753  64.883  1.00  0.00    -0.431 A  
HETATM   28  C   UNL     1     -11.879  14.223  65.054  1.00  0.00    -0.396 A  
HETATM   29  C   UNL     1     -12.261  13.711  66.298  1.00  0.00    -0.484 A  
ENDBRANCH  23  24
ENDBRANCH  15  18
ENDBRANCH  12  14
TORSDOF 3
ENDMDL
MODEL       43
REMARK 921   NORMALIZED FREE ENERGY PREDICTED BY IDOCK:   -6.23 KCAL/MOL
REMARK 922        TOTAL FREE ENERGY PREDICTED BY IDOCK:   -8.23 KCAL/MOL
REMARK 923 INTER-LIGAND FREE ENERGY PREDICTED BY IDOCK:   -7.52 KCAL/MOL
REMARK 924 INTRA-LIGAND FREE ENERGY PREDICTED BY IDOCK:   -0.71 KCAL/MOL
REMARK 927      BINDING AFFINITY PREDICTED BY RF-SCORE:    0.00 PKD
ROOT
HETATM    1  C   UNL     1      -8.263   8.769  69.452  1.00  0.00    -0.108 C  
HETATM    2  S   UNL     1      -8.326   8.318  71.235  1.00  0.00    -0.144 SA 
HETATM    3  C   UNL     1      -9.103   6.663  70.952  1.00  0.00    -0.154 C  
HETATM    4  CA  UNL     1      -8.771   6.308  69.480  1.00  0.00    -0.132 C  
HETATM    5  C   UNL     1      -8.606   5.673  72.011  1.00  0.00    -0.130 C  
HETATM    6  C   UNL     1     -10.620   6.822  71.179  1.00  0.00    -0.252 C  
HETATM    7  N   UNL     1      -8.750   7.578  68.721  1.00  0.00    -0.129 N  
HETATM    8  C   UNL     1      -7.424   5.596  69.254  1.00  0.00    -0.079 C  
HETATM    9  OXT UNL     1      -7.072   4.575  69.824  1.00  0.00    -0.048 OA 
HETATM   10  O   UNL     1      -6.668   6.155  68.274  1.00  0.00    -0.062 OA 
HETATM   11  C   UNL     1      -9.928   8.175  68.347  1.00  0.00    -0.190 C  
HETATM   12  CA  UNL     1      -9.471   9.554  68.875  1.00  0.00    -0.155 C  
HETATM   13  O   UNL     1     -10.958   7.681  67.949  1.00  0.00    -0.076 OA 
ENDROOT
BRANCH  12  14
HETATM   14  N   UNL     1     -10.363  10.219  69.864  1.00  0.00    -0.350 N  
HETATM   15  C   UNL     1     -11.487  10.904  69.447  1.00  0.00    -0.302 C  
HETATM   16  H   UNL     1     -10.142  10.169  70.859  1.00  0.00     0.000 HD 
HETATM   17  O   UNL     1     -11.816  10.906  68.266  1.00  0.00    -0.530 OA 
BRANCH  15  18
HETATM   18  C   UNL     1     -12.202  11.630  70.479  1.00  0.00    -0.451 A  
HETATM   19  C   UNL     1     -12.938  11.082  71.518  1.00  0.00    -0.448 A  
HETATM   20  C   UNL     1     -13.293   9.723  71.980  1.00  0.00    -0.547 C  
HETATM   21  O   UNL     1     -13.485  12.077  72.254  1.00  0.00    -0.465 OA 
HETATM   22  N   UNL     1     -13.147  13.290  71.720  1.00  0.00    -0.390 NA 
HETATM   23  C   UNL     1     -12.377  13.050  70.643  1.00  0.00    -0.310 A  
BRANCH  23  24
HETATM   24  C   UNL     1     -11.853  14.192  69.877  1.00  0.00    -0.387 A  
HETATM   25  C   UNL     1     -11.256  15.298  70.494  1.00  0.00    -0.338 A  
HETATM   26  C   UNL     1     -10.804  16.385  69.736  1.00  0.00    -0.343 A  
HETATM   27  C   UNL     1     -10.961  16.392  68.352  1.00  0.00    -0.353 A  
HETATM   28  C   UNL     1     -11.562  15.308  67.721  1.00  0.00    -0.277 A  
HETATM   29  C   UNL     1     -12.001  14.217  68.477  1.00  0.00    -0.367 A  
ENDBRANCH  23  24
ENDBRANCH  15  18
ENDBRANCH  12  14
TORSDOF 3
ENDMDL
MODEL       44
REMARK 921   NORMALIZED FREE ENERGY PREDICTED BY IDOCK:   -6.21 KCAL/MOL
REMARK 922        TOTAL FREE ENERGY PREDICTED BY IDOCK:   -8.20 KCAL/MOL
REMARK 923 INTER-LIGAND FREE ENERGY PREDICTED BY IDOCK:   -7.16 KCAL/MOL
REMARK 924 INTRA-LIGAND FREE ENERGY PREDICTED BY IDOCK:   -1.04 KCAL/MOL
REMARK 927      BINDING AFFINITY PREDICTED BY RF-SCORE:    0.00 PKD
ROOT
HETATM    1  C   UNL     1     -10.659  14.959  69.220  1.00  0.00    -0.243 C  
HETATM    2  S   UNL     1      -8.877  14.790  68.791  1.00  0.00    -0.162 SA 
HETATM    3  C   UNL     1      -9.086  15.332  67.034  1.00  0.00    -0.225 C  
HETATM    4  CA  UNL     1     -10.409  16.139  67.016  1.00  0.00    -0.290 C  
HETATM    5  C   UNL     1      -7.832  16.084  66.574  1.00  0.00    -0.226 C  
HETATM    6  C   UNL     1      -9.176  14.059  66.168  1.00  0.00    -0.062 C  
HETATM    7  N   UNL     1     -11.308  15.524  68.016  1.00  0.00    -0.339 N  
HETATM    8  C   UNL     1     -10.279  17.637  67.351  1.00  0.00    -0.345 C  
HETATM    9  OXT UNL     1      -9.525  18.414  66.787  1.00  0.00    -0.278 OA 
HETATM   10  O   UNL     1     -11.161  18.066  68.291  1.00  0.00    -0.054 OA 
HETATM   11  C   UNL     1     -11.974  14.361  67.719  1.00  0.00    -0.333 C  
HETATM   12  CA  UNL     1     -11.552  13.702  69.052  1.00  0.00    -0.312 C  
HETATM   13  O   UNL     1     -12.495  14.006  66.686  1.00  0.00    -0.420 OA 
ENDROOT
BRANCH  12  14
HETATM   14  N   UNL     1     -10.846  12.395  68.957  1.00  0.00    -0.374 N  
HETATM   15  C   UNL     1     -11.558  11.211  68.959  1.00  0.00    -0.324 C  
HETATM   16  H   UNL     1      -9.829  12.373  68.889  1.00  0.00     0.000 HD 
HETATM   17  O   UNL     1     -12.784  11.218  68.956  1.00  0.00    -0.190 OA 
BRANCH  15  18
HETATM   18  C   UNL     1     -10.763   9.999  69.004  1.00  0.00    -0.244 A  
HETATM   19  C   UNL     1     -10.543   9.193  70.110  1.00  0.00    -0.228 A  
HETATM   20  C   UNL     1     -10.941   9.196  71.534  1.00  0.00    -0.434 C  
HETATM   21  O   UNL     1      -9.721   8.175  69.767  1.00  0.00    -0.171 OA 
HETATM   22  N   UNL     1      -9.365   8.287  68.452  1.00  0.00    -0.135 NA 
HETATM   23  C   UNL     1      -9.975   9.384  67.967  1.00  0.00    -0.176 A  
BRANCH  23  24
HETATM   24  C   UNL     1      -9.776   9.740  66.553  1.00  0.00    -0.267 A  
HETATM   25  C   UNL     1     -10.620  10.631  65.879  1.00  0.00    -0.178 A  
HETATM   26  C   UNL     1     -10.425  10.917  64.522  1.00  0.00    -0.393 A  
HETATM   27  C   UNL     1      -9.397  10.299  63.813  1.00  0.00    -0.339 A  
HETATM   28  C   UNL     1      -8.555   9.402  64.462  1.00  0.00    -0.219 A  
HETATM   29  C   UNL     1      -8.742   9.127  65.820  1.00  0.00    -0.192 A  
ENDBRANCH  23  24
ENDBRANCH  15  18
ENDBRANCH  12  14
TORSDOF 3
ENDMDL
MODEL       45
REMARK 921   NORMALIZED FREE ENERGY PREDICTED BY IDOCK:   -6.20 KCAL/MOL
REMARK 922        TOTAL FREE ENERGY PREDICTED BY IDOCK:   -8.19 KCAL/MOL
REMARK 923 INTER-LIGAND FREE ENERGY PREDICTED BY IDOCK:   -7.52 KCAL/MOL
REMARK 924 INTRA-LIGAND FREE ENERGY PREDICTED BY IDOCK:   -0.67 KCAL/MOL
REMARK 927      BINDING AFFINITY PREDICTED BY RF-SCORE:    0.00 PKD
ROOT
HETATM    1  C   UNL     1      -9.050   7.274  70.117  1.00  0.00    -0.148 C  
HETATM    2  S   UNL     1      -9.691   7.334  71.841  1.00  0.00    -0.154 SA 
HETATM    3  C   UNL     1     -10.979   6.031  71.575  1.00  0.00    -0.277 C  
HETATM    4  CA  UNL     1     -10.491   5.228  70.342  1.00  0.00    -0.251 C  
HETATM    5  C   UNL     1     -11.174   5.229  72.867  1.00  0.00    -0.375 C  
HETATM    6  C   UNL     1     -12.314   6.753  71.301  1.00  0.00    -0.395 C  
HETATM    7  N   UNL     1      -9.792   6.180  69.452  1.00  0.00    -0.153 N  
HETATM    8  C   UNL     1      -9.528   4.064  70.645  1.00  0.00    -0.170 C  
HETATM    9  OXT UNL     1      -9.752   3.161  71.436  1.00  0.00    -0.151 OA 
HETATM   10  O   UNL     1      -8.410   4.065  69.874  1.00  0.00    -0.060 OA 
HETATM   11  C   UNL     1     -10.514   7.031  68.654  1.00  0.00    -0.204 C  
HETATM   12  CA  UNL     1      -9.677   8.255  69.092  1.00  0.00    -0.171 C  
HETATM   13  O   UNL     1     -11.535   6.837  68.035  1.00  0.00    -0.036 OA 
ENDROOT
BRANCH  12  14
HETATM   14  N   UNL     1     -10.428   9.411  69.653  1.00  0.00    -0.213 N  
HETATM   15  C   UNL     1     -11.021  10.336  68.817  1.00  0.00    -0.243 C  
HETATM   16  H   UNL     1     -10.507   9.520  70.664  1.00  0.00     0.000 HD 
HETATM   17  O   UNL     1     -11.010  10.178  67.601  1.00  0.00    -0.289 OA 
BRANCH  15  18
HETATM   18  C   UNL     1     -11.603  11.493  69.470  1.00  0.00    -0.400 A  
HETATM   19  C   UNL     1     -12.306  11.503  70.664  1.00  0.00    -0.364 A  
HETATM   20  C   UNL     1     -12.733  10.502  71.665  1.00  0.00    -0.550 C  
HETATM   21  O   UNL     1     -12.720  12.764  70.930  1.00  0.00    -0.288 OA 
HETATM   22  N   UNL     1     -12.326  13.604  69.927  1.00  0.00    -0.289 NA 
HETATM   23  C   UNL     1     -11.655  12.863  69.027  1.00  0.00    -0.322 A  
BRANCH  23  24
HETATM   24  C   UNL     1     -11.097  13.524  67.836  1.00  0.00    -0.288 A  
HETATM   25  C   UNL     1      -9.745  13.874  67.737  1.00  0.00    -0.225 A  
HETATM   26  C   UNL     1      -9.257  14.538  66.605  1.00  0.00    -0.290 A  
HETATM   27  C   UNL     1     -10.117  14.881  65.565  1.00  0.00    -0.400 A  
HETATM   28  C   UNL     1     -11.466  14.553  65.649  1.00  0.00    -0.341 A  
HETATM   29  C   UNL     1     -11.951  13.878  66.774  1.00  0.00    -0.472 A  
ENDBRANCH  23  24
ENDBRANCH  15  18
ENDBRANCH  12  14
TORSDOF 3
ENDMDL
MODEL       46
REMARK 921   NORMALIZED FREE ENERGY PREDICTED BY IDOCK:   -6.16 KCAL/MOL
REMARK 922        TOTAL FREE ENERGY PREDICTED BY IDOCK:   -8.15 KCAL/MOL
REMARK 923 INTER-LIGAND FREE ENERGY PREDICTED BY IDOCK:   -7.53 KCAL/MOL
REMARK 924 INTRA-LIGAND FREE ENERGY PREDICTED BY IDOCK:   -0.62 KCAL/MOL
REMARK 927      BINDING AFFINITY PREDICTED BY RF-SCORE:    0.00 PKD
ROOT
HETATM    1  C   UNL     1     -10.941   8.495  70.290  1.00  0.00    -0.235 C  
HETATM    2  S   UNL     1     -10.832   6.962  69.277  1.00  0.00    -0.221 SA 
HETATM    3  C   UNL     1      -9.437   6.231  70.248  1.00  0.00    -0.161 C  
HETATM    4  CA  UNL     1      -9.490   6.939  71.626  1.00  0.00    -0.157 C  
HETATM    5  C   UNL     1      -9.569   4.704  70.270  1.00  0.00    -0.270 C  
HETATM    6  C   UNL     1      -8.132   6.547  69.488  1.00  0.00    -0.118 C  
HETATM    7  N   UNL     1      -9.965   8.319  71.387  1.00  0.00    -0.183 N  
HETATM    8  C   UNL     1     -10.416   6.291  72.672  1.00  0.00    -0.211 C  
HETATM    9  OXT UNL     1     -10.369   5.120  73.014  1.00  0.00    -0.174 OA 
HETATM   10  O   UNL     1     -11.260   7.169  73.273  1.00  0.00    -0.257 OA 
HETATM   11  C   UNL     1      -9.103   9.268  70.896  1.00  0.00    -0.222 C  
HETATM   12  CA  UNL     1     -10.114   9.719  69.816  1.00  0.00    -0.239 C  
HETATM   13  O   UNL     1      -7.935   9.462  71.146  1.00  0.00    -0.322 OA 
ENDROOT
BRANCH  12  14
HETATM   14  N   UNL     1      -9.639   9.693  68.405  1.00  0.00    -0.143 N  
HETATM   15  C   UNL     1     -10.452  10.139  67.382  1.00  0.00    -0.256 C  
HETATM   16  H   UNL     1      -8.704   9.343  68.192  1.00  0.00     0.000 HD 
HETATM   17  O   UNL     1     -11.544  10.641  67.625  1.00  0.00    -0.492 OA 
BRANCH  15  18
HETATM   18  C   UNL     1      -9.943   9.937  66.040  1.00  0.00    -0.338 A  
HETATM   19  C   UNL     1      -9.222   8.845  65.583  1.00  0.00    -0.204 A  
HETATM   20  C   UNL     1      -8.707   7.584  66.158  1.00  0.00    -0.174 C  
HETATM   21  O   UNL     1      -8.894   9.036  64.284  1.00  0.00    -0.164 OA 
HETATM   22  N   UNL     1      -9.364  10.246  63.858  1.00  0.00    -0.271 NA 
HETATM   23  C   UNL     1      -9.997  10.816  64.900  1.00  0.00    -0.312 A  
BRANCH  23  24
HETATM   24  C   UNL     1     -10.621  12.137  64.716  1.00  0.00    -0.335 A  
HETATM   25  C   UNL     1     -10.238  13.258  65.462  1.00  0.00    -0.298 A  
HETATM   26  C   UNL     1     -10.880  14.489  65.288  1.00  0.00    -0.377 A  
HETATM   27  C   UNL     1     -11.929  14.614  64.380  1.00  0.00    -0.454 A  
HETATM   28  C   UNL     1     -12.332  13.510  63.637  1.00  0.00    -0.377 A  
HETATM   29  C   UNL     1     -11.682  12.283  63.802  1.00  0.00    -0.566 A  
ENDBRANCH  23  24
ENDBRANCH  15  18
ENDBRANCH  12  14
TORSDOF 3
ENDMDL
MODEL       47
REMARK 921   NORMALIZED FREE ENERGY PREDICTED BY IDOCK:   -6.16 KCAL/MOL
REMARK 922        TOTAL FREE ENERGY PREDICTED BY IDOCK:   -8.14 KCAL/MOL
REMARK 923 INTER-LIGAND FREE ENERGY PREDICTED BY IDOCK:   -7.12 KCAL/MOL
REMARK 924 INTRA-LIGAND FREE ENERGY PREDICTED BY IDOCK:   -1.02 KCAL/MOL
REMARK 927      BINDING AFFINITY PREDICTED BY RF-SCORE:    0.00 PKD
ROOT
HETATM    1  C   UNL     1     -11.511  11.370  66.832  1.00  0.00    -0.119 C  
HETATM    2  S   UNL     1     -11.124  12.182  68.437  1.00  0.00    -0.267 SA 
HETATM    3  C   UNL     1      -9.791  13.265  67.748  1.00  0.00    -0.224 C  
HETATM    4  CA  UNL     1     -10.085  13.348  66.229  1.00  0.00    -0.299 C  
HETATM    5  C   UNL     1      -9.770  14.599  68.504  1.00  0.00    -0.225 C  
HETATM    6  C   UNL     1      -8.442  12.577  68.038  1.00  0.00    -0.173 C  
HETATM    7  N   UNL     1     -10.664  12.049  65.826  1.00  0.00    -0.269 N  
HETATM    8  C   UNL     1     -11.062  14.459  65.799  1.00  0.00    -0.316 C  
HETATM    9  OXT UNL     1     -10.939  15.641  66.077  1.00  0.00    -0.299 OA 
HETATM   10  O   UNL     1     -12.058  14.025  64.984  1.00  0.00    -0.375 OA 
HETATM   11  C   UNL     1      -9.848  10.960  65.643  1.00  0.00    -0.241 C  
HETATM   12  CA  UNL     1     -10.759  10.053  66.503  1.00  0.00    -0.024 C  
HETATM   13  O   UNL     1      -8.746  10.888  65.150  1.00  0.00    -0.187 OA 
ENDROOT
BRANCH  12  14
HETATM   14  N   UNL     1     -10.114   9.353  67.648  1.00  0.00    -0.197 N  
HETATM   15  C   UNL     1     -10.389   8.024  67.903  1.00  0.00    -0.222 C  
HETATM   16  H   UNL     1      -9.464   9.860  68.250  1.00  0.00     0.000 HD 
HETATM   17  O   UNL     1     -11.100   7.375  67.145  1.00  0.00    -0.263 OA 
BRANCH  15  18
HETATM   18  C   UNL     1      -9.816   7.486  69.123  1.00  0.00    -0.170 A  
HETATM   19  C   UNL     1      -8.667   6.720  69.230  1.00  0.00    -0.135 A  
HETATM   20  C   UNL     1      -7.655   6.170  68.304  1.00  0.00    -0.098 C  
HETATM   21  O   UNL     1      -8.476   6.378  70.526  1.00  0.00    -0.134 OA 
HETATM   22  N   UNL     1      -9.486   6.884  71.295  1.00  0.00    -0.165 NA 
HETATM   23  C   UNL     1     -10.315   7.553  70.472  1.00  0.00    -0.215 A  
BRANCH  23  24
HETATM   24  C   UNL     1     -11.496   8.220  71.044  1.00  0.00    -0.303 A  
HETATM   25  C   UNL     1     -12.645   7.516  71.422  1.00  0.00    -0.382 A  
HETATM   26  C   UNL     1     -13.765   8.187  71.926  1.00  0.00    -0.395 A  
HETATM   27  C   UNL     1     -13.761   9.576  72.040  1.00  0.00    -0.435 A  
HETATM   28  C   UNL     1     -12.633  10.295  71.660  1.00  0.00    -0.534 A  
HETATM   29  C   UNL     1     -11.510   9.623  71.169  1.00  0.00    -0.456 A  
ENDBRANCH  23  24
ENDBRANCH  15  18
ENDBRANCH  12  14
TORSDOF 3
ENDMDL
MODEL       48
REMARK 921   NORMALIZED FREE ENERGY PREDICTED BY IDOCK:   -6.07 KCAL/MOL
REMARK 922        TOTAL FREE ENERGY PREDICTED BY IDOCK:   -8.04 KCAL/MOL
REMARK 923 INTER-LIGAND FREE ENERGY PREDICTED BY IDOCK:   -7.13 KCAL/MOL
REMARK 924 INTRA-LIGAND FREE ENERGY PREDICTED BY IDOCK:   -0.91 KCAL/MOL
REMARK 927      BINDING AFFINITY PREDICTED BY RF-SCORE:    0.00 PKD
ROOT
HETATM    1  C   UNL     1      -8.398   8.471  67.169  1.00  0.00    -0.111 C  
HETATM    2  S   UNL     1      -9.995   8.742  66.296  1.00  0.00    -0.157 SA 
HETATM    3  C   UNL     1      -9.537  10.412  65.645  1.00  0.00    -0.226 C  
HETATM    4  CA  UNL     1      -7.987  10.442  65.666  1.00  0.00    -0.153 C  
HETATM    5  C   UNL     1     -10.195  10.630  64.278  1.00  0.00    -0.391 C  
HETATM    6  C   UNL     1     -10.147  11.461  66.597  1.00  0.00    -0.247 C  
HETATM    7  N   UNL     1      -7.553   9.637  66.828  1.00  0.00    -0.097 N  
HETATM    8  C   UNL     1      -7.293   9.879  64.412  1.00  0.00    -0.133 C  
HETATM    9  OXT UNL     1      -7.516  10.245  63.268  1.00  0.00    -0.144 OA 
HETATM   10  O   UNL     1      -6.315   8.978  64.686  1.00  0.00    -0.069 OA 
HETATM   11  C   UNL     1      -7.614  10.167  68.093  1.00  0.00    -0.087 C  
HETATM   12  CA  UNL     1      -8.318   8.910  68.655  1.00  0.00    -0.124 C  
HETATM   13  O   UNL     1      -7.370  11.287  68.480  1.00  0.00    -0.092 OA 
ENDROOT
BRANCH  12  14
HETATM   14  N   UNL     1      -9.614   9.126  69.354  1.00  0.00    -0.161 N  
HETATM   15  C   UNL     1      -9.656   9.268  70.727  1.00  0.00    -0.275 C  
HETATM   16  H   UNL     1     -10.479   9.171  68.814  1.00  0.00     0.000 HD 
HETATM   17  O   UNL     1      -8.622   9.302  71.385  1.00  0.00    -0.326 OA 
BRANCH  15  18
HETATM   18  C   UNL     1     -10.982   9.332  71.312  1.00  0.00    -0.421 A  
HETATM   19  C   UNL     1     -11.916  10.342  71.139  1.00  0.00    -0.376 A  
HETATM   20  C   UNL     1     -11.985  11.623  70.405  1.00  0.00    -0.448 C  
HETATM   21  O   UNL     1     -13.018  10.063  71.873  1.00  0.00    -0.408 OA 
HETATM   22  N   UNL     1     -12.840   8.892  72.555  1.00  0.00    -0.388 NA 
HETATM   23  C   UNL     1     -11.615   8.431  72.241  1.00  0.00    -0.383 A  
BRANCH  23  24
HETATM   24  C   UNL     1     -11.162   7.161  72.830  1.00  0.00    -0.314 A  
HETATM   25  C   UNL     1     -11.736   5.930  72.488  1.00  0.00    -0.288 A  
HETATM   26  C   UNL     1     -11.307   4.745  73.098  1.00  0.00    -0.380 A  
HETATM   27  C   UNL     1     -10.312   4.775  74.073  1.00  0.00    -0.299 A  
HETATM   28  C   UNL     1      -9.738   5.988  74.434  1.00  0.00    -0.242 A  
HETATM   29  C   UNL     1     -10.158   7.170  73.816  1.00  0.00    -0.391 A  
ENDBRANCH  23  24
ENDBRANCH  15  18
ENDBRANCH  12  14
TORSDOF 3
ENDMDL
MODEL       49
REMARK 921   NORMALIZED FREE ENERGY PREDICTED BY IDOCK:   -6.04 KCAL/MOL
REMARK 922        TOTAL FREE ENERGY PREDICTED BY IDOCK:   -8.00 KCAL/MOL
REMARK 923 INTER-LIGAND FREE ENERGY PREDICTED BY IDOCK:   -6.95 KCAL/MOL
REMARK 924 INTRA-LIGAND FREE ENERGY PREDICTED BY IDOCK:   -1.05 KCAL/MOL
REMARK 927      BINDING AFFINITY PREDICTED BY RF-SCORE:    0.00 PKD
ROOT
HETATM    1  C   UNL     1     -10.786   9.313  68.750  1.00  0.00    -0.154 C  
HETATM    2  S   UNL     1     -10.191   9.256  67.010  1.00  0.00    -0.264 SA 
HETATM    3  C   UNL     1      -8.677   8.263  67.393  1.00  0.00    -0.124 C  
HETATM    4  CA  UNL     1      -8.988   7.559  68.739  1.00  0.00    -0.129 C  
HETATM    5  C   UNL     1      -8.351   7.343  66.211  1.00  0.00    -0.132 C  
HETATM    6  C   UNL     1      -7.498   9.250  67.518  1.00  0.00    -0.088 C  
HETATM    7  N   UNL     1      -9.842   8.477  69.523  1.00  0.00    -0.184 N  
HETATM    8  C   UNL     1      -9.717   6.207  68.629  1.00  0.00    -0.128 C  
HETATM    9  OXT UNL     1      -9.337   5.262  67.955  1.00  0.00    -0.111 OA 
HETATM   10  O   UNL     1     -10.805   6.106  69.437  1.00  0.00    -0.277 OA 
HETATM   11  C   UNL     1      -9.282   9.548  70.174  1.00  0.00    -0.244 C  
HETATM   12  CA  UNL     1     -10.342  10.524  69.612  1.00  0.00    -0.193 C  
HETATM   13  O   UNL     1      -8.235   9.633  70.773  1.00  0.00    -0.273 OA 
ENDROOT
BRANCH  12  14
HETATM   14  N   UNL     1      -9.830  11.712  68.875  1.00  0.00    -0.397 N  
HETATM   15  C   UNL     1     -10.679  12.747  68.535  1.00  0.00    -0.253 C  
HETATM   16  H   UNL     1      -8.843  11.762  68.619  1.00  0.00     0.000 HD 
HETATM   17  O   UNL     1     -11.847  12.745  68.906  1.00  0.00    -0.305 OA 
BRANCH  15  18
HETATM   18  C   UNL     1     -10.104  13.783  67.698  1.00  0.00    -0.242 A  
HETATM   19  C   UNL     1      -9.323  14.848  68.117  1.00  0.00    -0.193 A  
HETATM   20  C   UNL     1      -8.803  15.355  69.404  1.00  0.00    -0.251 C  
HETATM   21  O   UNL     1      -9.006  15.618  67.050  1.00  0.00    -0.198 OA 
HETATM   22  N   UNL     1      -9.574  15.102  65.918  1.00  0.00    -0.336 NA 
HETATM   23  C   UNL     1     -10.249  13.997  66.281  1.00  0.00    -0.296 A  
BRANCH  23  24
HETATM   24  C   UNL     1     -10.953  13.223  65.244  1.00  0.00    -0.307 A  
HETATM   25  C   UNL     1     -10.273  12.521  64.242  1.00  0.00    -0.359 A  
HETATM   26  C   UNL     1     -10.975  11.828  63.249  1.00  0.00    -0.387 A  
HETATM   27  C   UNL     1     -12.368  11.845  63.230  1.00  0.00    -0.508 A  
HETATM   28  C   UNL     1     -13.062  12.546  64.210  1.00  0.00    -0.093 A  
HETATM   29  C   UNL     1     -12.360  13.227  65.210  1.00  0.00    -0.525 A  
ENDBRANCH  23  24
ENDBRANCH  15  18
ENDBRANCH  12  14
TORSDOF 3
ENDMDL
MODEL       50
REMARK 921   NORMALIZED FREE ENERGY PREDICTED BY IDOCK:   -6.03 KCAL/MOL
REMARK 922        TOTAL FREE ENERGY PREDICTED BY IDOCK:   -8.00 KCAL/MOL
REMARK 923 INTER-LIGAND FREE ENERGY PREDICTED BY IDOCK:   -6.51 KCAL/MOL
REMARK 924 INTRA-LIGAND FREE ENERGY PREDICTED BY IDOCK:   -1.48 KCAL/MOL
REMARK 927      BINDING AFFINITY PREDICTED BY RF-SCORE:    0.00 PKD
ROOT
HETATM    1  C   UNL     1     -10.845   8.203  69.600  1.00  0.00    -0.158 C  
HETATM    2  S   UNL     1      -9.816   8.438  68.093  1.00  0.00    -0.176 SA 
HETATM    3  C   UNL     1      -8.256   7.814  68.868  1.00  0.00    -0.127 C  
HETATM    4  CA  UNL     1      -8.721   6.945  70.064  1.00  0.00    -0.142 C  
HETATM    5  C   UNL     1      -7.404   7.103  67.810  1.00  0.00    -0.097 C  
HETATM    6  C   UNL     1      -7.447   9.043  69.328  1.00  0.00    -0.075 C  
HETATM    7  N   UNL     1      -9.957   7.559  70.593  1.00  0.00    -0.183 N  
HETATM    8  C   UNL     1      -9.022   5.470  69.738  1.00  0.00    -0.125 C  
HETATM    9  OXT UNL     1      -8.248   4.706  69.183  1.00  0.00    -0.079 OA 
HETATM   10  O   UNL     1     -10.221   5.040  70.211  1.00  0.00    -0.253 OA 
HETATM   11  C   UNL     1      -9.885   8.675  71.389  1.00  0.00    -0.256 C  
HETATM   12  CA  UNL     1     -10.971   9.408  70.568  1.00  0.00    -0.274 C  
HETATM   13  O   UNL     1      -9.092   8.962  72.256  1.00  0.00    -0.381 OA 
ENDROOT
BRANCH  12  14
HETATM   14  N   UNL     1     -10.605  10.742  70.019  1.00  0.00    -0.459 N  
HETATM   15  C   UNL     1     -11.481  11.429  69.200  1.00  0.00    -0.299 C  
HETATM   16  H   UNL     1      -9.700  11.153  70.248  1.00  0.00     0.000 HD 
HETATM   17  O   UNL     1     -12.604  10.992  68.980  1.00  0.00    -0.378 OA 
BRANCH  15  18
HETATM   18  C   UNL     1     -10.964  12.649  68.610  1.00  0.00    -0.292 A  
HETATM   19  C   UNL     1     -11.201  13.944  69.045  1.00  0.00    -0.274 A  
HETATM   20  C   UNL     1     -11.973  14.586  70.130  1.00  0.00    -0.377 C  
HETATM   21  O   UNL     1     -10.577  14.815  68.218  1.00  0.00    -0.234 OA 
HETATM   22  N   UNL     1      -9.938  14.134  67.220  1.00  0.00    -0.246 NA 
HETATM   23  C   UNL     1     -10.160  12.823  67.428  1.00  0.00    -0.219 A  
BRANCH  23  24
HETATM   24  C   UNL     1      -9.567  11.847  66.499  1.00  0.00    -0.226 A  
HETATM   25  C   UNL     1     -10.327  11.170  65.538  1.00  0.00    -0.326 A  
HETATM   26  C   UNL     1      -9.738  10.219  64.697  1.00  0.00    -0.398 A  
HETATM   27  C   UNL     1      -8.384   9.914  64.818  1.00  0.00    -0.163 A  
HETATM   28  C   UNL     1      -7.614  10.567  65.775  1.00  0.00    -0.142 A  
HETATM   29  C   UNL     1      -8.201  11.527  66.606  1.00  0.00    -0.156 A  
ENDBRANCH  23  24
ENDBRANCH  15  18
ENDBRANCH  12  14
TORSDOF 3
ENDMDL
MODEL       51
REMARK 921   NORMALIZED FREE ENERGY PREDICTED BY IDOCK:   -6.03 KCAL/MOL
REMARK 922        TOTAL FREE ENERGY PREDICTED BY IDOCK:   -7.99 KCAL/MOL
REMARK 923 INTER-LIGAND FREE ENERGY PREDICTED BY IDOCK:   -7.24 KCAL/MOL
REMARK 924 INTRA-LIGAND FREE ENERGY PREDICTED BY IDOCK:   -0.75 KCAL/MOL
REMARK 927      BINDING AFFINITY PREDICTED BY RF-SCORE:    0.00 PKD
ROOT
HETATM    1  C   UNL     1      -8.323   8.549  70.822  1.00  0.00    -0.139 C  
HETATM    2  S   UNL     1      -8.743   8.320  72.599  1.00  0.00    -0.214 SA 
HETATM    3  C   UNL     1      -9.566   6.680  72.356  1.00  0.00    -0.147 C  
HETATM    4  CA  UNL     1      -8.994   6.136  71.022  1.00  0.00    -0.143 C  
HETATM    5  C   UNL     1      -9.341   5.803  73.593  1.00  0.00    -0.137 C  
HETATM    6  C   UNL     1     -11.085   6.935  72.270  1.00  0.00    -0.284 C  
HETATM    7  N   UNL     1      -8.747   7.302  70.148  1.00  0.00    -0.140 N  
HETATM    8  C   UNL     1      -7.680   5.340  71.138  1.00  0.00    -0.101 C  
HETATM    9  OXT UNL     1      -7.509   4.380  71.873  1.00  0.00    -0.066 OA 
HETATM   10  O   UNL     1      -6.720   5.741  70.265  1.00  0.00    -0.045 OA 
HETATM   11  C   UNL     1      -9.792   7.903  69.492  1.00  0.00    -0.176 C  
HETATM   12  CA  UNL     1      -9.347   9.314  69.943  1.00  0.00    -0.198 C  
HETATM   13  O   UNL     1     -10.763   7.413  68.961  1.00  0.00    -0.209 OA 
ENDROOT
BRANCH  12  14
HETATM   14  N   UNL     1     -10.359  10.134  70.664  1.00  0.00    -0.374 N  
HETATM   15  C   UNL     1     -11.322  10.835  69.966  1.00  0.00    -0.319 C  
HETATM   16  H   UNL     1     -10.341  10.179  71.684  1.00  0.00     0.000 HD 
HETATM   17  O   UNL     1     -11.413  10.728  68.748  1.00  0.00    -0.269 OA 
BRANCH  15  18
HETATM   18  C   UNL     1     -12.164  11.709  70.760  1.00  0.00    -0.443 A  
HETATM   19  C   UNL     1     -13.011  11.332  71.790  1.00  0.00    -0.414 A  
HETATM   20  C   UNL     1     -13.399  10.067  72.449  1.00  0.00    -0.261 C  
HETATM   21  O   UNL     1     -13.654  12.424  72.264  1.00  0.00    -0.504 OA 
HETATM   22  N   UNL     1     -13.272  13.532  71.560  1.00  0.00    -0.346 NA 
HETATM   23  C   UNL     1     -12.377  13.129  70.640  1.00  0.00    -0.326 A  
BRANCH  23  24
HETATM   24  C   UNL     1     -11.781  14.132  69.743  1.00  0.00    -0.370 A  
HETATM   25  C   UNL     1     -11.831  14.014  68.349  1.00  0.00    -0.397 A  
HETATM   26  C   UNL     1     -11.219  14.967  67.525  1.00  0.00    -0.333 A  
HETATM   27  C   UNL     1     -10.530  16.041  68.084  1.00  0.00    -0.269 A  
HETATM   28  C   UNL     1     -10.459  16.170  69.467  1.00  0.00    -0.295 A  
HETATM   29  C   UNL     1     -11.081  15.225  70.288  1.00  0.00    -0.316 A  
ENDBRANCH  23  24
ENDBRANCH  15  18
ENDBRANCH  12  14
TORSDOF 3
ENDMDL
MODEL       52
REMARK 921   NORMALIZED FREE ENERGY PREDICTED BY IDOCK:   -6.02 KCAL/MOL
REMARK 922        TOTAL FREE ENERGY PREDICTED BY IDOCK:   -7.98 KCAL/MOL
REMARK 923 INTER-LIGAND FREE ENERGY PREDICTED BY IDOCK:   -7.11 KCAL/MOL
REMARK 924 INTRA-LIGAND FREE ENERGY PREDICTED BY IDOCK:   -0.88 KCAL/MOL
REMARK 927      BINDING AFFINITY PREDICTED BY RF-SCORE:    0.00 PKD
ROOT
HETATM    1  C   UNL     1      -9.767   8.713  66.665  1.00  0.00    -0.247 C  
HETATM    2  S   UNL     1      -8.801   8.981  65.121  1.00  0.00    -0.152 SA 
HETATM    3  C   UNL     1      -7.195   9.279  65.990  1.00  0.00    -0.091 C  
HETATM    4  CA  UNL     1      -7.361   8.617  67.382  1.00  0.00    -0.089 C  
HETATM    5  C   UNL     1      -6.039   8.757  65.129  1.00  0.00    -0.059 C  
HETATM    6  C   UNL     1      -7.005  10.806  66.097  1.00  0.00    -0.124 C  
HETATM    7  N   UNL     1      -8.781   8.765  67.767  1.00  0.00    -0.135 N  
HETATM    8  C   UNL     1      -7.000   7.122  67.455  1.00  0.00    -0.079 C  
HETATM    9  OXT UNL     1      -5.936   6.643  67.095  1.00  0.00    -0.020 OA 
HETATM   10  O   UNL     1      -7.952   6.359  68.053  1.00  0.00    -0.106 OA 
HETATM   11  C   UNL     1      -9.242   9.966  68.246  1.00  0.00    -0.129 C  
HETATM   12  CA  UNL     1     -10.460   9.951  67.293  1.00  0.00    -0.258 C  
HETATM   13  O   UNL     1      -8.714  10.761  68.989  1.00  0.00    -0.161 OA 
ENDROOT
BRANCH  12  14
HETATM   14  N   UNL     1     -10.629  11.137  66.408  1.00  0.00    -0.260 N  
HETATM   15  C   UNL     1     -11.543  12.123  66.724  1.00  0.00    -0.345 C  
HETATM   16  H   UNL     1     -10.066  11.221  65.562  1.00  0.00     0.000 HD 
HETATM   17  O   UNL     1     -12.169  12.082  67.777  1.00  0.00    -0.474 OA 
BRANCH  15  18
HETATM   18  C   UNL     1     -11.724  13.156  65.722  1.00  0.00    -0.415 A  
HETATM   19  C   UNL     1     -12.232  12.990  64.443  1.00  0.00    -0.406 A  
HETATM   20  C   UNL     1     -12.734  11.865  63.627  1.00  0.00    -0.509 C  
HETATM   21  O   UNL     1     -12.213  14.179  63.796  1.00  0.00    -0.600 OA 
HETATM   22  N   UNL     1     -11.684  15.143  64.608  1.00  0.00    -0.393 NA 
HETATM   23  C   UNL     1     -11.374  14.552  65.776  1.00  0.00    -0.336 A  
BRANCH  23  24
HETATM   24  C   UNL     1     -10.794  15.371  66.853  1.00  0.00    -0.313 A  
HETATM   25  C   UNL     1     -11.384  15.471  68.119  1.00  0.00    -0.348 A  
HETATM   26  C   UNL     1     -10.827  16.291  69.108  1.00  0.00    -0.314 A  
HETATM   27  C   UNL     1      -9.684  17.040  68.840  1.00  0.00    -0.259 A  
HETATM   28  C   UNL     1      -9.089  16.964  67.585  1.00  0.00    -0.223 A  
HETATM   29  C   UNL     1      -9.638  16.135  66.602  1.00  0.00    -0.263 A  
ENDBRANCH  23  24
ENDBRANCH  15  18
ENDBRANCH  12  14
TORSDOF 3
ENDMDL
MODEL       53
REMARK 921   NORMALIZED FREE ENERGY PREDICTED BY IDOCK:   -6.02 KCAL/MOL
REMARK 922        TOTAL FREE ENERGY PREDICTED BY IDOCK:   -7.98 KCAL/MOL
REMARK 923 INTER-LIGAND FREE ENERGY PREDICTED BY IDOCK:   -7.33 KCAL/MOL
REMARK 924 INTRA-LIGAND FREE ENERGY PREDICTED BY IDOCK:   -0.65 KCAL/MOL
REMARK 927      BINDING AFFINITY PREDICTED BY RF-SCORE:    0.00 PKD
ROOT
HETATM    1  C   UNL     1      -8.689   7.181  68.771  1.00  0.00    -0.124 C  
HETATM    2  S   UNL     1      -9.073   7.127  70.569  1.00  0.00    -0.155 SA 
HETATM    3  C   UNL     1     -10.376   5.823  70.413  1.00  0.00    -0.244 C  
HETATM    4  CA  UNL     1     -10.068   5.103  69.075  1.00  0.00    -0.187 C  
HETATM    5  C   UNL     1     -10.376   4.942  71.668  1.00  0.00    -0.241 C  
HETATM    6  C   UNL     1     -11.742   6.538  70.381  1.00  0.00    -0.439 C  
HETATM    7  N   UNL     1      -9.512   6.117  68.154  1.00  0.00    -0.114 N  
HETATM    8  C   UNL     1      -9.064   3.938  69.163  1.00  0.00    -0.136 C  
HETATM    9  OXT UNL     1      -9.164   2.986  69.921  1.00  0.00    -0.126 OA 
HETATM   10  O   UNL     1      -8.070   4.003  68.239  1.00  0.00    -0.079 OA 
HETATM   11  C   UNL     1     -10.349   7.004  67.523  1.00  0.00    -0.225 C  
HETATM   12  CA  UNL     1      -9.465   8.212  67.910  1.00  0.00    -0.146 C  
HETATM   13  O   UNL     1     -11.448   6.832  67.047  1.00  0.00    -0.209 OA 
ENDROOT
BRANCH  12  14
HETATM   14  N   UNL     1     -10.134   9.320  68.645  1.00  0.00    -0.182 N  
HETATM   15  C   UNL     1     -10.914  10.240  67.971  1.00  0.00    -0.289 C  
HETATM   16  H   UNL     1     -10.017   9.401  69.655  1.00  0.00     0.000 HD 
HETATM   17  O   UNL     1     -11.136  10.112  66.772  1.00  0.00    -0.059 OA 
BRANCH  15  18
HETATM   18  C   UNL     1     -11.400  11.354  68.763  1.00  0.00    -0.334 A  
HETATM   19  C   UNL     1     -11.854  11.303  70.071  1.00  0.00    -0.367 A  
HETATM   20  C   UNL     1     -12.040  10.261  71.102  1.00  0.00    -0.494 C  
HETATM   21  O   UNL     1     -12.256  12.538  70.453  1.00  0.00    -0.348 OA 
HETATM   22  N   UNL     1     -12.098  13.420  69.421  1.00  0.00    -0.299 NA 
HETATM   23  C   UNL     1     -11.588  12.730  68.384  1.00  0.00    -0.325 A  
BRANCH  23  24
HETATM   24  C   UNL     1     -11.300  13.445  67.130  1.00  0.00    -0.344 A  
HETATM   25  C   UNL     1     -12.245  13.571  66.105  1.00  0.00    -0.484 A  
HETATM   26  C   UNL     1     -11.923  14.224  64.909  1.00  0.00    -0.430 A  
HETATM   27  C   UNL     1     -10.646  14.742  64.711  1.00  0.00    -0.355 A  
HETATM   28  C   UNL     1      -9.689  14.617  65.712  1.00  0.00    -0.331 A  
HETATM   29  C   UNL     1     -10.014  13.976  66.912  1.00  0.00    -0.263 A  
ENDBRANCH  23  24
ENDBRANCH  15  18
ENDBRANCH  12  14
TORSDOF 3
ENDMDL
MODEL       54
REMARK 921   NORMALIZED FREE ENERGY PREDICTED BY IDOCK:   -6.02 KCAL/MOL
REMARK 922        TOTAL FREE ENERGY PREDICTED BY IDOCK:   -7.98 KCAL/MOL
REMARK 923 INTER-LIGAND FREE ENERGY PREDICTED BY IDOCK:   -6.99 KCAL/MOL
REMARK 924 INTRA-LIGAND FREE ENERGY PREDICTED BY IDOCK:   -0.98 KCAL/MOL
REMARK 927      BINDING AFFINITY PREDICTED BY RF-SCORE:    0.00 PKD
ROOT
HETATM    1  C   UNL     1      -7.977   7.475  68.445  1.00  0.00    -0.123 C  
HETATM    2  S   UNL     1      -9.153   6.144  68.925  1.00  0.00    -0.122 SA 
HETATM    3  C   UNL     1      -9.706   5.791  67.194  1.00  0.00    -0.136 C  
HETATM    4  CA  UNL     1      -8.565   6.324  66.291  1.00  0.00    -0.138 C  
HETATM    5  C   UNL     1     -10.036   4.300  67.053  1.00  0.00    -0.166 C  
HETATM    6  C   UNL     1     -11.026   6.555  66.967  1.00  0.00    -0.466 C  
HETATM    7  N   UNL     1      -7.993   7.509  66.966  1.00  0.00    -0.115 N  
HETATM    8  C   UNL     1      -7.418   5.335  66.013  1.00  0.00    -0.082 C  
HETATM    9  OXT UNL     1      -7.562   4.208  65.564  1.00  0.00    -0.083 OA 
HETATM   10  O   UNL     1      -6.182   5.857  66.227  1.00  0.00    -0.034 OA 
HETATM   11  C   UNL     1      -8.647   8.715  66.909  1.00  0.00    -0.120 C  
HETATM   12  CA  UNL     1      -8.516   8.930  68.435  1.00  0.00    -0.129 C  
HETATM   13  O   UNL     1      -9.246   9.233  65.994  1.00  0.00    -0.173 OA 
ENDROOT
BRANCH  12  14
HETATM   14  N   UNL     1      -9.779   9.175  69.185  1.00  0.00    -0.160 N  
HETATM   15  C   UNL     1      -9.755   9.390  70.549  1.00  0.00    -0.271 C  
HETATM   16  H   UNL     1     -10.669   9.184  68.687  1.00  0.00     0.000 HD 
HETATM   17  O   UNL     1      -8.690   9.467  71.151  1.00  0.00    -0.284 OA 
BRANCH  15  18
HETATM   18  C   UNL     1     -11.050   9.477  71.195  1.00  0.00    -0.450 A  
HETATM   19  C   UNL     1     -11.977  10.498  71.060  1.00  0.00    -0.364 A  
HETATM   20  C   UNL     1     -12.062  11.777  70.324  1.00  0.00    -0.426 C  
HETATM   21  O   UNL     1     -13.048  10.239  71.847  1.00  0.00    -0.434 OA 
HETATM   22  N   UNL     1     -12.854   9.069  72.525  1.00  0.00    -0.386 NA 
HETATM   23  C   UNL     1     -11.652   8.589  72.157  1.00  0.00    -0.377 A  
BRANCH  23  24
HETATM   24  C   UNL     1     -11.191   7.315  72.730  1.00  0.00    -0.348 A  
HETATM   25  C   UNL     1     -11.672   6.076  72.290  1.00  0.00    -0.338 A  
HETATM   26  C   UNL     1     -11.240   4.885  72.885  1.00  0.00    -0.318 A  
HETATM   27  C   UNL     1     -10.336   4.915  73.944  1.00  0.00    -0.287 A  
HETATM   28  C   UNL     1      -9.854   6.136  74.405  1.00  0.00    -0.294 A  
HETATM   29  C   UNL     1     -10.276   7.325  73.801  1.00  0.00    -0.370 A  
ENDBRANCH  23  24
ENDBRANCH  15  18
ENDBRANCH  12  14
TORSDOF 3
ENDMDL
MODEL       55
REMARK 921   NORMALIZED FREE ENERGY PREDICTED BY IDOCK:   -6.02 KCAL/MOL
REMARK 922        TOTAL FREE ENERGY PREDICTED BY IDOCK:   -7.98 KCAL/MOL
REMARK 923 INTER-LIGAND FREE ENERGY PREDICTED BY IDOCK:   -7.20 KCAL/MOL
REMARK 924 INTRA-LIGAND FREE ENERGY PREDICTED BY IDOCK:   -0.78 KCAL/MOL
REMARK 927      BINDING AFFINITY PREDICTED BY RF-SCORE:    0.00 PKD
ROOT
HETATM    1  C   UNL     1      -9.722  14.042  66.905  1.00  0.00    -0.271 C  
HETATM    2  S   UNL     1      -9.883  14.436  68.695  1.00  0.00    -0.214 SA 
HETATM    3  C   UNL     1     -11.653  13.910  68.814  1.00  0.00    -0.335 C  
HETATM    4  CA  UNL     1     -11.868  12.948  67.618  1.00  0.00    -0.346 C  
HETATM    5  C   UNL     1     -11.925  13.327  70.205  1.00  0.00    -0.372 C  
HETATM    6  C   UNL     1     -12.520  15.181  68.695  1.00  0.00     0.263 C  
HETATM    7  N   UNL     1     -11.010  13.428  66.514  1.00  0.00    -0.288 N  
HETATM    8  C   UNL     1     -11.522  11.470  67.882  1.00  0.00    -0.301 C  
HETATM    9  OXT UNL     1     -11.971  10.803  68.801  1.00  0.00    -0.414 OA 
HETATM   10  O   UNL     1     -10.723  10.918  66.933  1.00  0.00    -0.253 OA 
HETATM   11  C   UNL     1     -11.399  14.506  65.759  1.00  0.00    -0.336 C  
HETATM   12  CA  UNL     1     -10.016  15.184  65.897  1.00  0.00    -0.328 C  
HETATM   13  O   UNL     1     -12.497  14.817  65.355  1.00  0.00    -0.201 OA 
ENDROOT
BRANCH  12  14
HETATM   14  N   UNL     1     -10.003  16.569  66.442  1.00  0.00    -0.287 N  
HETATM   15  C   UNL     1      -8.898  17.380  66.273  1.00  0.00    -0.203 C  
HETATM   16  H   UNL     1     -10.818  16.924  66.944  1.00  0.00     0.000 HD 
HETATM   17  O   UNL     1      -7.943  17.004  65.602  1.00  0.00    -0.318 OA 
BRANCH  15  18
HETATM   18  C   UNL     1      -8.940  18.654  66.964  1.00  0.00    -0.289 A  
HETATM   19  C   UNL     1      -9.717  19.752  66.630  1.00  0.00    -0.407 A  
HETATM   20  C   UNL     1     -10.699  20.090  65.578  1.00  0.00    -0.259 C  
HETATM   21  O   UNL     1      -9.455  20.764  67.490  1.00  0.00    -0.390 OA 
HETATM   22  N   UNL     1      -8.501  20.377  68.388  1.00  0.00     0.165 NA 
HETATM   23  C   UNL     1      -8.166  19.108  68.091  1.00  0.00    -0.318 A  
BRANCH  23  24
HETATM   24  C   UNL     1      -7.158  18.428  68.920  1.00  0.00    -0.292 A  
HETATM   25  C   UNL     1      -7.014  17.035  68.932  1.00  0.00    -0.219 A  
HETATM   26  C   UNL     1      -6.070  16.419  69.762  1.00  0.00    -0.212 A  
HETATM   27  C   UNL     1      -5.270  17.184  70.608  1.00  0.00    -0.253 A  
HETATM   28  C   UNL     1      -5.406  18.568  70.619  1.00  0.00    -0.257 A  
HETATM   29  C   UNL     1      -6.340  19.184  69.780  1.00  0.00    -0.260 A  
ENDBRANCH  23  24
ENDBRANCH  15  18
ENDBRANCH  12  14
TORSDOF 3
ENDMDL
MODEL       56
REMARK 921   NORMALIZED FREE ENERGY PREDICTED BY IDOCK:   -5.93 KCAL/MOL
REMARK 922        TOTAL FREE ENERGY PREDICTED BY IDOCK:   -7.87 KCAL/MOL
REMARK 923 INTER-LIGAND FREE ENERGY PREDICTED BY IDOCK:   -7.13 KCAL/MOL
REMARK 924 INTRA-LIGAND FREE ENERGY PREDICTED BY IDOCK:   -0.74 KCAL/MOL
REMARK 927      BINDING AFFINITY PREDICTED BY RF-SCORE:    0.00 PKD
ROOT
HETATM    1  C   UNL     1      -8.798  15.971  66.057  1.00  0.00    -0.279 C  
HETATM    2  S   UNL     1     -10.471  16.708  66.264  1.00  0.00    -0.225 SA 
HETATM    3  C   UNL     1      -9.924  18.002  67.468  1.00  0.00    -0.327 C  
HETATM    4  CA  UNL     1      -8.400  18.156  67.230  1.00  0.00    -0.241 C  
HETATM    5  C   UNL     1     -10.767  19.269  67.281  1.00  0.00    -0.594 C  
HETATM    6  C   UNL     1     -10.236  17.475  68.884  1.00  0.00    -0.353 C  
HETATM    7  N   UNL     1      -7.884  16.824  66.847  1.00  0.00    -0.193 N  
HETATM    8  C   UNL     1      -7.996  19.158  66.133  1.00  0.00    -0.276 C  
HETATM    9  OXT UNL     1      -8.357  20.324  66.086  1.00  0.00    -0.226 OA 
HETATM   10  O   UNL     1      -7.104  18.659  65.238  1.00  0.00    -0.513 OA 
HETATM   11  C   UNL     1      -7.671  15.867  67.807  1.00  0.00    -0.141 C  
HETATM   12  CA  UNL     1      -8.421  14.790  66.990  1.00  0.00    -0.222 C  
HETATM   13  O   UNL     1      -7.231  15.975  68.929  1.00  0.00    -0.145 OA 
ENDROOT
BRANCH  12  14
HETATM   14  N   UNL     1      -9.549  14.099  67.673  1.00  0.00    -0.212 N  
HETATM   15  C   UNL     1      -9.347  12.894  68.318  1.00  0.00    -0.194 C  
HETATM   16  H   UNL     1     -10.479  14.518  67.666  1.00  0.00     0.000 HD 
HETATM   17  O   UNL     1      -8.223  12.415  68.410  1.00  0.00    -0.164 OA 
BRANCH  15  18
HETATM   18  C   UNL     1     -10.540  12.244  68.825  1.00  0.00    -0.223 A  
HETATM   19  C   UNL     1     -11.539  12.827  69.589  1.00  0.00    -0.252 A  
HETATM   20  C   UNL     1     -11.809  14.162  70.162  1.00  0.00    -0.382 C  
HETATM   21  O   UNL     1     -12.469  11.893  69.899  1.00  0.00    -0.119 OA 
HETATM   22  N   UNL     1     -12.107  10.684  69.373  1.00  0.00    -0.236 NA 
HETATM   23  C   UNL     1     -10.942  10.865  68.724  1.00  0.00    -0.237 A  
BRANCH  23  24
HETATM   24  C   UNL     1     -10.324   9.716  68.043  1.00  0.00    -0.262 A  
HETATM   25  C   UNL     1      -9.965   8.545  68.722  1.00  0.00    -0.197 A  
HETATM   26  C   UNL     1      -9.343   7.487  68.049  1.00  0.00    -0.142 A  
HETATM   27  C   UNL     1      -9.050   7.591  66.691  1.00  0.00    -0.189 A  
HETATM   28  C   UNL     1      -9.388   8.750  66.001  1.00  0.00    -0.296 A  
HETATM   29  C   UNL     1     -10.022   9.802  66.670  1.00  0.00    -0.292 A  
ENDBRANCH  23  24
ENDBRANCH  15  18
ENDBRANCH  12  14
TORSDOF 3
ENDMDL
MODEL       57
REMARK 921   NORMALIZED FREE ENERGY PREDICTED BY IDOCK:   -5.93 KCAL/MOL
REMARK 922        TOTAL FREE ENERGY PREDICTED BY IDOCK:   -7.87 KCAL/MOL
REMARK 923 INTER-LIGAND FREE ENERGY PREDICTED BY IDOCK:   -7.30 KCAL/MOL
REMARK 924 INTRA-LIGAND FREE ENERGY PREDICTED BY IDOCK:   -0.57 KCAL/MOL
REMARK 927      BINDING AFFINITY PREDICTED BY RF-SCORE:    0.00 PKD
ROOT
HETATM    1  C   UNL     1     -11.214  15.280  66.708  1.00  0.00    -0.241 C  
HETATM    2  S   UNL     1      -9.865  14.734  65.582  1.00  0.00    -0.281 SA 
HETATM    3  C   UNL     1     -10.291  12.936  65.686  1.00  0.00    -0.282 C  
HETATM    4  CA  UNL     1     -11.774  12.899  66.135  1.00  0.00    -0.396 C  
HETATM    5  C   UNL     1      -9.974  12.254  64.350  1.00  0.00    -0.231 C  
HETATM    6  C   UNL     1      -9.355  12.301  66.735  1.00  0.00    -0.218 C  
HETATM    7  N   UNL     1     -11.988  14.060  67.025  1.00  0.00    -0.425 N  
HETATM    8  C   UNL     1     -12.814  12.971  65.001  1.00  0.00    -0.295 C  
HETATM    9  OXT UNL     1     -12.846  12.225  64.035  1.00  0.00    -0.696 OA 
HETATM   10  O   UNL     1     -13.784  13.900  65.207  1.00  0.00    -0.238 OA 
HETATM   11  C   UNL     1     -11.558  14.015  68.328  1.00  0.00    -0.329 C  
HETATM   12  CA  UNL     1     -10.874  15.397  68.218  1.00  0.00    -0.269 C  
HETATM   13  O   UNL     1     -11.578  13.102  69.123  1.00  0.00    -0.278 OA 
ENDROOT
BRANCH  12  14
HETATM   14  N   UNL     1      -9.429  15.458  68.570  1.00  0.00    -0.196 N  
HETATM   15  C   UNL     1      -8.783  16.673  68.679  1.00  0.00    -0.250 C  
HETATM   16  H   UNL     1      -8.912  14.594  68.733  1.00  0.00     0.000 HD 
HETATM   17  O   UNL     1      -9.405  17.724  68.570  1.00  0.00    -0.283 OA 
BRANCH  15  18
HETATM   18  C   UNL     1      -7.349  16.607  68.887  1.00  0.00    -0.225 A  
HETATM   19  C   UNL     1      -6.656  15.621  69.570  1.00  0.00    -0.179 A  
HETATM   20  C   UNL     1      -6.996  14.381  70.300  1.00  0.00     0.173 C  
HETATM   21  O   UNL     1      -5.337  15.926  69.581  1.00  0.00    -0.109 OA 
HETATM   22  N   UNL     1      -5.128  17.110  68.932  1.00  0.00    -0.142 NA 
HETATM   23  C   UNL     1      -6.327  17.549  68.508  1.00  0.00    -0.179 A  
BRANCH  23  24
HETATM   24  C   UNL     1      -6.395  18.812  67.756  1.00  0.00    -0.210 A  
HETATM   25  C   UNL     1      -6.727  18.859  66.396  1.00  0.00    -0.228 A  
HETATM   26  C   UNL     1      -6.744  20.075  65.703  1.00  0.00    -0.294 A  
HETATM   27  C   UNL     1      -6.409  21.260  66.353  1.00  0.00    -0.280 A  
HETATM   28  C   UNL     1      -6.066  21.234  67.700  1.00  0.00    -0.420 A  
HETATM   29  C   UNL     1      -6.062  20.021  68.396  1.00  0.00    -0.293 A  
ENDBRANCH  23  24
ENDBRANCH  15  18
ENDBRANCH  12  14
TORSDOF 3
ENDMDL
MODEL       58
REMARK 921   NORMALIZED FREE ENERGY PREDICTED BY IDOCK:   -5.90 KCAL/MOL
REMARK 922        TOTAL FREE ENERGY PREDICTED BY IDOCK:   -7.84 KCAL/MOL
REMARK 923 INTER-LIGAND FREE ENERGY PREDICTED BY IDOCK:   -6.82 KCAL/MOL
REMARK 924 INTRA-LIGAND FREE ENERGY PREDICTED BY IDOCK:   -1.03 KCAL/MOL
REMARK 927      BINDING AFFINITY PREDICTED BY RF-SCORE:    0.00 PKD
ROOT
HETATM    1  C   UNL     1     -10.689   9.323  66.613  1.00  0.00     0.004 C  
HETATM    2  S   UNL     1     -10.862  10.460  68.049  1.00  0.00    -0.287 SA 
HETATM    3  C   UNL     1      -9.532  11.620  67.491  1.00  0.00    -0.171 C  
HETATM    4  CA  UNL     1      -9.402  11.381  65.965  1.00  0.00    -0.217 C  
HETATM    5  C   UNL     1      -9.881  13.049  67.922  1.00  0.00    -0.224 C  
HETATM    6  C   UNL     1      -8.242  11.239  68.246  1.00  0.00    -0.143 C  
HETATM    7  N   UNL     1      -9.687   9.950  65.724  1.00  0.00    -0.247 N  
HETATM    8  C   UNL     1     -10.350  12.211  65.079  1.00  0.00    -0.287 C  
HETATM    9  OXT UNL     1     -10.452  13.427  65.116  1.00  0.00    -0.315 OA 
HETATM   10  O   UNL     1     -11.023  11.474  64.158  1.00  0.00    -0.347 OA 
HETATM   11  C   UNL     1      -8.727   9.005  65.987  1.00  0.00    -0.160 C  
HETATM   12  CA  UNL     1      -9.723   8.120  66.772  1.00  0.00    -0.235 C  
HETATM   13  O   UNL     1      -7.531   9.040  65.808  1.00  0.00    -0.088 OA 
ENDROOT
BRANCH  12  14
HETATM   14  N   UNL     1      -9.339   7.756  68.164  1.00  0.00    -0.145 N  
HETATM   15  C   UNL     1     -10.102   6.865  68.892  1.00  0.00    -0.170 C  
HETATM   16  H   UNL     1      -8.506   8.169  68.583  1.00  0.00     0.000 HD 
HETATM   17  O   UNL     1     -11.059   6.295  68.379  1.00  0.00    -0.323 OA 
BRANCH  15  18
HETATM   18  C   UNL     1      -9.716   6.694  70.280  1.00  0.00    -0.182 A  
HETATM   19  C   UNL     1      -8.573   6.067  70.750  1.00  0.00    -0.135 A  
HETATM   20  C   UNL     1      -7.406   5.381  70.157  1.00  0.00    -0.068 C  
HETATM   21  O   UNL     1      -8.582   6.076  72.103  1.00  0.00    -0.128 OA 
HETATM   22  N   UNL     1      -9.721   6.680  72.557  1.00  0.00    -0.158 NA 
HETATM   23  C   UNL     1     -10.428   7.058  71.477  1.00  0.00    -0.204 A  
BRANCH  23  24
HETATM   24  C   UNL     1     -11.709   7.757  71.677  1.00  0.00    -0.316 A  
HETATM   25  C   UNL     1     -12.937   7.086  71.673  1.00  0.00    -0.400 A  
HETATM   26  C   UNL     1     -14.139   7.787  71.826  1.00  0.00    -0.519 A  
HETATM   27  C   UNL     1     -14.132   9.173  71.965  1.00  0.00    -0.380 A  
HETATM   28  C   UNL     1     -12.923   9.860  71.960  1.00  0.00    -0.518 A  
HETATM   29  C   UNL     1     -11.722   9.157  71.820  1.00  0.00    -0.456 A  
ENDBRANCH  23  24
ENDBRANCH  15  18
ENDBRANCH  12  14
TORSDOF 3
ENDMDL
MODEL       59
REMARK 921   NORMALIZED FREE ENERGY PREDICTED BY IDOCK:   -5.89 KCAL/MOL
REMARK 922        TOTAL FREE ENERGY PREDICTED BY IDOCK:   -7.83 KCAL/MOL
REMARK 923 INTER-LIGAND FREE ENERGY PREDICTED BY IDOCK:   -7.13 KCAL/MOL
REMARK 924 INTRA-LIGAND FREE ENERGY PREDICTED BY IDOCK:   -0.70 KCAL/MOL
REMARK 927      BINDING AFFINITY PREDICTED BY RF-SCORE:    0.00 PKD
ROOT
HETATM    1  C   UNL     1     -11.297   7.667  71.191  1.00  0.00    -0.266 C  
HETATM    2  S   UNL     1     -10.898   6.688  69.686  1.00  0.00    -0.315 SA 
HETATM    3  C   UNL     1      -9.373   5.919  70.397  1.00  0.00    -0.159 C  
HETATM    4  CA  UNL     1      -9.548   6.024  71.934  1.00  0.00    -0.150 C  
HETATM    5  C   UNL     1      -9.198   4.504  69.834  1.00  0.00    -0.193 C  
HETATM    6  C   UNL     1      -8.167   6.742  69.898  1.00  0.00    -0.127 C  
HETATM    7  N   UNL     1     -10.292   7.273  72.203  1.00  0.00    -0.191 N  
HETATM    8  C   UNL     1     -10.313   4.863  72.597  1.00  0.00    -0.197 C  
HETATM    9  OXT UNL     1     -10.029   3.681  72.475  1.00  0.00    -0.146 OA 
HETATM   10  O   UNL     1     -11.308   5.268  73.429  1.00  0.00    -0.293 OA 
HETATM   11  C   UNL     1      -9.642   8.482  72.161  1.00  0.00    -0.312 C  
HETATM   12  CA  UNL     1     -10.736   9.112  71.268  1.00  0.00    -0.331 C  
HETATM   13  O   UNL     1      -8.533   8.782  72.541  1.00  0.00    -0.403 OA 
ENDROOT
BRANCH  12  14
HETATM   14  N   UNL     1     -10.283   9.717  69.985  1.00  0.00    -0.237 N  
HETATM   15  C   UNL     1     -10.998  10.745  69.403  1.00  0.00    -0.254 C  
HETATM   16  H   UNL     1      -9.438   9.369  69.532  1.00  0.00     0.000 HD 
HETATM   17  O   UNL     1     -11.968  11.233  69.973  1.00  0.00    -0.307 OA 
BRANCH  15  18
HETATM   18  C   UNL     1     -10.547  11.160  68.089  1.00  0.00    -0.227 A  
HETATM   19  C   UNL     1     -10.188  10.333  67.037  1.00  0.00    -0.228 A  
HETATM   20  C   UNL     1     -10.101   8.876  66.801  1.00  0.00    -0.350 C  
HETATM   21  O   UNL     1      -9.789  11.089  65.988  1.00  0.00    -0.211 OA 
HETATM   22  N   UNL     1      -9.853  12.414  66.319  1.00  0.00    -0.243 NA 
HETATM   23  C   UNL     1     -10.301  12.487  67.585  1.00  0.00    -0.218 A  
BRANCH  23  24
HETATM   24  C   UNL     1     -10.483  13.813  68.198  1.00  0.00    -0.252 A  
HETATM   25  C   UNL     1     -11.748  14.346  68.469  1.00  0.00    -0.370 A  
HETATM   26  C   UNL     1     -11.885  15.627  69.017  1.00  0.00    -0.379 A  
HETATM   27  C   UNL     1     -10.759  16.403  69.283  1.00  0.00    -0.325 A  
HETATM   28  C   UNL     1      -9.493  15.896  69.010  1.00  0.00    -0.247 A  
HETATM   29  C   UNL     1      -9.357  14.611  68.475  1.00  0.00    -0.201 A  
ENDBRANCH  23  24
ENDBRANCH  15  18
ENDBRANCH  12  14
TORSDOF 3
ENDMDL
MODEL       60
REMARK 921   NORMALIZED FREE ENERGY PREDICTED BY IDOCK:   -5.85 KCAL/MOL
REMARK 922        TOTAL FREE ENERGY PREDICTED BY IDOCK:   -7.78 KCAL/MOL
REMARK 923 INTER-LIGAND FREE ENERGY PREDICTED BY IDOCK:   -6.62 KCAL/MOL
REMARK 924 INTRA-LIGAND FREE ENERGY PREDICTED BY IDOCK:   -1.16 KCAL/MOL
REMARK 927      BINDING AFFINITY PREDICTED BY RF-SCORE:    0.00 PKD
ROOT
HETATM    1  C   UNL     1      -9.024  11.506  66.302  1.00  0.00    -0.196 C  
HETATM    2  S   UNL     1      -8.489  11.359  68.057  1.00  0.00    -0.152 SA 
HETATM    3  C   UNL     1     -10.072  10.598  68.640  1.00  0.00    -0.183 C  
HETATM    4  CA  UNL     1     -10.719   9.990  67.370  1.00  0.00    -0.274 C  
HETATM    5  C   UNL     1      -9.781   9.618  69.783  1.00  0.00    -0.247 C  
HETATM    6  C   UNL     1     -10.933  11.728  69.241  1.00  0.00    -0.231 C  
HETATM    7  N   UNL     1     -10.356  10.866  66.235  1.00  0.00    -0.246 N  
HETATM    8  C   UNL     1     -10.281   8.555  67.022  1.00  0.00    -0.301 C  
HETATM    9  OXT UNL     1     -10.334   7.605  67.787  1.00  0.00    -0.194 OA 
HETATM   10  O   UNL     1      -9.902   8.398  65.727  1.00  0.00    -0.020 OA 
HETATM   11  C   UNL     1     -11.018  12.053  66.045  1.00  0.00    -0.304 C  
HETATM   12  CA  UNL     1      -9.696  12.837  65.874  1.00  0.00    -0.198 C  
HETATM   13  O   UNL     1     -12.190  12.321  66.183  1.00  0.00    -0.647 OA 
ENDROOT
BRANCH  12  14
HETATM   14  N   UNL     1      -9.491  14.004  66.775  1.00  0.00    -0.273 N  
HETATM   15  C   UNL     1      -9.820  15.279  66.359  1.00  0.00    -0.275 C  
HETATM   16  H   UNL     1      -9.104  13.861  67.708  1.00  0.00     0.000 HD 
HETATM   17  O   UNL     1     -10.363  15.463  65.275  1.00  0.00    -0.367 OA 
BRANCH  15  18
HETATM   18  C   UNL     1      -9.448  16.352  67.261  1.00  0.00    -0.231 A  
HETATM   19  C   UNL     1      -8.461  17.303  67.055  1.00  0.00    -0.219 A  
HETATM   20  C   UNL     1      -7.477  17.614  65.997  1.00  0.00    -0.282 C  
HETATM   21  O   UNL     1      -8.386  18.113  68.136  1.00  0.00    -0.261 OA 
HETATM   22  N   UNL     1      -9.293  17.716  69.079  1.00  0.00    -0.143 NA 
HETATM   23  C   UNL     1      -9.944  16.650  68.580  1.00  0.00    -0.261 A  
BRANCH  23  24
HETATM   24  C   UNL     1     -11.000  16.021  69.390  1.00  0.00    -0.321 A  
HETATM   25  C   UNL     1     -12.131  15.426  68.816  1.00  0.00    -0.183 A  
HETATM   26  C   UNL     1     -13.135  14.872  69.618  1.00  0.00     0.535 A  
HETATM   27  C   UNL     1     -13.035  14.922  71.007  1.00  0.00    -0.437 A  
HETATM   28  C   UNL     1     -11.926  15.519  71.596  1.00  0.00    -0.478 A  
HETATM   29  C   UNL     1     -10.916  16.060  70.794  1.00  0.00    -0.232 A  
ENDBRANCH  23  24
ENDBRANCH  15  18
ENDBRANCH  12  14
TORSDOF 3
ENDMDL
MODEL       61
REMARK 921   NORMALIZED FREE ENERGY PREDICTED BY IDOCK:   -5.85 KCAL/MOL
REMARK 922        TOTAL FREE ENERGY PREDICTED BY IDOCK:   -7.78 KCAL/MOL
REMARK 923 INTER-LIGAND FREE ENERGY PREDICTED BY IDOCK:   -6.31 KCAL/MOL
REMARK 924 INTRA-LIGAND FREE ENERGY PREDICTED BY IDOCK:   -1.47 KCAL/MOL
REMARK 927      BINDING AFFINITY PREDICTED BY RF-SCORE:    0.00 PKD
ROOT
HETATM    1  C   UNL     1     -10.106  11.070  68.577  1.00  0.00    -0.190 C  
HETATM    2  S   UNL     1     -10.531  10.871  66.798  1.00  0.00    -0.254 SA 
HETATM    3  C   UNL     1      -9.007   9.909  66.378  1.00  0.00    -0.147 C  
HETATM    4  CA  UNL     1      -8.521   9.317  67.725  1.00  0.00    -0.116 C  
HETATM    5  C   UNL     1      -9.325   8.897  65.272  1.00  0.00    -0.095 C  
HETATM    6  C   UNL     1      -7.986  10.901  65.783  1.00  0.00    -0.075 C  
HETATM    7  N   UNL     1      -8.861  10.297  68.779  1.00  0.00    -0.140 N  
HETATM    8  C   UNL     1      -9.139   7.961  68.117  1.00  0.00    -0.133 C  
HETATM    9  OXT UNL     1      -9.139   6.965  67.412  1.00  0.00    -0.122 OA 
HETATM   10  O   UNL     1      -9.621   7.928  69.387  1.00  0.00    -0.160 OA 
HETATM   11  C   UNL     1      -8.085  11.415  68.953  1.00  0.00    -0.067 C  
HETATM   12  CA  UNL     1      -9.320  12.345  68.981  1.00  0.00     0.422 C  
HETATM   13  O   UNL     1      -6.884  11.547  68.890  1.00  0.00    -0.080 OA 
ENDROOT
BRANCH  12  14
HETATM   14  N   UNL     1      -9.332  13.469  68.004  1.00  0.00    -0.206 N  
HETATM   15  C   UNL     1     -10.332  14.421  68.040  1.00  0.00    -0.227 C  
HETATM   16  H   UNL     1      -8.594  13.537  67.302  1.00  0.00     0.000 HD 
HETATM   17  O   UNL     1     -11.179  14.405  68.926  1.00  0.00    -0.238 OA 
BRANCH  15  18
HETATM   18  C   UNL     1     -10.322  15.385  66.957  1.00  0.00    -0.280 A  
HETATM   19  C   UNL     1      -9.946  16.717  67.037  1.00  0.00    -0.271 A  
HETATM   20  C   UNL     1      -9.468  17.633  68.093  1.00  0.00    -0.286 C  
HETATM   21  O   UNL     1     -10.105  17.301  65.827  1.00  0.00    -0.533 OA 
HETATM   22  N   UNL     1     -10.600  16.393  64.933  1.00  0.00    -0.683 NA 
HETATM   23  C   UNL     1     -10.747  15.228  65.590  1.00  0.00    -0.365 A  
BRANCH  23  24
HETATM   24  C   UNL     1     -11.255  14.058  64.855  1.00  0.00    -0.362 A  
HETATM   25  C   UNL     1     -12.573  13.604  64.987  1.00  0.00    -0.434 A  
HETATM   26  C   UNL     1     -13.011  12.464  64.303  1.00  0.00    -0.257 A  
HETATM   27  C   UNL     1     -12.133  11.749  63.492  1.00  0.00    -0.485 A  
HETATM   28  C   UNL     1     -10.817  12.177  63.356  1.00  0.00    -0.474 A  
HETATM   29  C   UNL     1     -10.383  13.323  64.029  1.00  0.00    -0.051 A  
ENDBRANCH  23  24
ENDBRANCH  15  18
ENDBRANCH  12  14
TORSDOF 3
ENDMDL
MODEL       62
REMARK 921   NORMALIZED FREE ENERGY PREDICTED BY IDOCK:   -5.78 KCAL/MOL
REMARK 922        TOTAL FREE ENERGY PREDICTED BY IDOCK:   -7.70 KCAL/MOL
REMARK 923 INTER-LIGAND FREE ENERGY PREDICTED BY IDOCK:   -7.12 KCAL/MOL
REMARK 924 INTRA-LIGAND FREE ENERGY PREDICTED BY IDOCK:   -0.58 KCAL/MOL
REMARK 927      BINDING AFFINITY PREDICTED BY RF-SCORE:    0.00 PKD
ROOT
HETATM    1  C   UNL     1      -9.011  17.966  67.999  1.00  0.00    -0.267 C  
HETATM    2  S   UNL     1      -8.511  16.842  69.368  1.00  0.00     0.438 SA 
HETATM    3  C   UNL     1      -6.701  16.931  68.991  1.00  0.00    -0.215 C  
HETATM    4  CA  UNL     1      -6.522  18.245  68.188  1.00  0.00    -0.189 C  
HETATM    5  C   UNL     1      -5.899  16.823  70.293  1.00  0.00    -0.118 C  
HETATM    6  C   UNL     1      -6.343  15.688  68.152  1.00  0.00    -0.133 C  
HETATM    7  N   UNL     1      -7.749  18.435  67.386  1.00  0.00    -0.222 N  
HETATM    8  C   UNL     1      -6.301  19.515  69.030  1.00  0.00    -0.286 C  
HETATM    9  OXT UNL     1      -5.437  19.645  69.883  1.00  0.00    -0.214 OA 
HETATM   10  O   UNL     1      -7.108  20.550  68.679  1.00  0.00    -0.138 OA 
HETATM   11  C   UNL     1      -7.935  17.715  66.232  1.00  0.00    -0.257 C  
HETATM   12  CA  UNL     1      -9.372  17.312  66.639  1.00  0.00    -0.260 C  
HETATM   13  O   UNL     1      -7.142  17.401  65.374  1.00  0.00    -0.046 OA 
ENDROOT
BRANCH  12  14
HETATM   14  N   UNL     1      -9.674  15.854  66.663  1.00  0.00    -0.241 N  
HETATM   15  C   UNL     1     -10.693  15.336  65.888  1.00  0.00    -0.334 C  
HETATM   16  H   UNL     1      -9.125  15.233  67.257  1.00  0.00     0.000 HD 
HETATM   17  O   UNL     1     -11.310  16.051  65.106  1.00  0.00    -0.201 OA 
BRANCH  15  18
HETATM   18  C   UNL     1     -10.991  13.932  66.097  1.00  0.00    -0.293 A  
HETATM   19  C   UNL     1     -10.890  12.916  65.160  1.00  0.00    -0.296 A  
HETATM   20  C   UNL     1     -10.508  12.805  63.736  1.00  0.00    -0.335 C  
HETATM   21  O   UNL     1     -11.287  11.749  65.719  1.00  0.00    -0.318 OA 
HETATM   22  N   UNL     1     -11.672  11.961  67.014  1.00  0.00    -0.589 NA 
HETATM   23  C   UNL     1     -11.509  13.272  67.267  1.00  0.00    -0.338 A  
BRANCH  23  24
HETATM   24  C   UNL     1     -11.837  13.781  68.609  1.00  0.00    -0.409 A  
HETATM   25  C   UNL     1     -11.840  15.148  68.912  1.00  0.00    -0.337 A  
HETATM   26  C   UNL     1     -12.118  15.595  70.210  1.00  0.00    -0.413 A  
HETATM   27  C   UNL     1     -12.376  14.681  71.229  1.00  0.00    -0.407 A  
HETATM   28  C   UNL     1     -12.366  13.319  70.951  1.00  0.00    -0.413 A  
HETATM   29  C   UNL     1     -12.102  12.873  69.652  1.00  0.00    -0.290 A  
ENDBRANCH  23  24
ENDBRANCH  15  18
ENDBRANCH  12  14
TORSDOF 3
ENDMDL
MODEL       63
REMARK 921   NORMALIZED FREE ENERGY PREDICTED BY IDOCK:   -5.75 KCAL/MOL
REMARK 922        TOTAL FREE ENERGY PREDICTED BY IDOCK:   -7.66 KCAL/MOL
REMARK 923 INTER-LIGAND FREE ENERGY PREDICTED BY IDOCK:   -6.71 KCAL/MOL
REMARK 924 INTRA-LIGAND FREE ENERGY PREDICTED BY IDOCK:   -0.95 KCAL/MOL
REMARK 927      BINDING AFFINITY PREDICTED BY RF-SCORE:    0.00 PKD
ROOT
HETATM    1  C   UNL     1      -9.054   9.768  70.105  1.00  0.00    -0.197 C  
HETATM    2  S   UNL     1     -10.866   9.615  69.819  1.00  0.00    -0.255 SA 
HETATM    3  C   UNL     1     -10.945   7.820  70.262  1.00  0.00    -0.247 C  
HETATM    4  CA  UNL     1      -9.688   7.565  71.133  1.00  0.00    -0.162 C  
HETATM    5  C   UNL     1     -12.295   7.511  70.919  1.00  0.00    -0.198 C  
HETATM    6  C   UNL     1     -10.905   7.019  68.944  1.00  0.00    -0.203 C  
HETATM    7  N   UNL     1      -8.620   8.453  70.627  1.00  0.00    -0.133 N  
HETATM    8  C   UNL     1      -9.858   7.835  72.640  1.00  0.00    -0.225 C  
HETATM    9  OXT UNL     1     -10.730   7.347  73.342  1.00  0.00    -0.379 OA 
HETATM   10  O   UNL     1      -8.877   8.611  73.170  1.00  0.00    -0.343 OA 
HETATM   11  C   UNL     1      -7.936   8.123  69.484  1.00  0.00    -0.113 C  
HETATM   12  CA  UNL     1      -8.121   9.537  68.887  1.00  0.00    -0.096 C  
HETATM   13  O   UNL     1      -7.549   7.045  69.093  1.00  0.00    -0.095 OA 
ENDROOT
BRANCH  12  14
HETATM   14  N   UNL     1      -8.754   9.616  67.542  1.00  0.00    -0.126 N  
HETATM   15  C   UNL     1      -8.183  10.377  66.541  1.00  0.00    -0.131 C  
HETATM   16  H   UNL     1      -9.617   9.104  67.358  1.00  0.00     0.000 HD 
HETATM   17  O   UNL     1      -7.104  10.931  66.715  1.00  0.00    -0.113 OA 
BRANCH  15  18
HETATM   18  C   UNL     1      -8.957  10.494  65.320  1.00  0.00    -0.211 A  
HETATM   19  C   UNL     1      -8.819   9.726  64.175  1.00  0.00    -0.231 A  
HETATM   20  C   UNL     1      -7.952   8.615  63.727  1.00  0.00    -0.160 C  
HETATM   21  O   UNL     1      -9.696  10.157  63.238  1.00  0.00    -0.264 OA 
HETATM   22  N   UNL     1     -10.412  11.215  63.723  1.00  0.00    -0.374 NA 
HETATM   23  C   UNL     1      -9.982  11.446  64.977  1.00  0.00    -0.266 A  
BRANCH  23  24
HETATM   24  C   UNL     1     -10.601  12.534  65.750  1.00  0.00    -0.299 A  
HETATM   25  C   UNL     1     -10.587  13.865  65.315  1.00  0.00    -0.372 A  
HETATM   26  C   UNL     1     -11.151  14.881  66.095  1.00  0.00    -0.335 A  
HETATM   27  C   UNL     1     -11.719  14.586  67.332  1.00  0.00    -0.425 A  
HETATM   28  C   UNL     1     -11.734  13.272  67.787  1.00  0.00    -0.398 A  
HETATM   29  C   UNL     1     -11.182  12.255  67.002  1.00  0.00    -0.367 A  
ENDBRANCH  23  24
ENDBRANCH  15  18
ENDBRANCH  12  14
TORSDOF 3
ENDMDL
MODEL       64
REMARK 921   NORMALIZED FREE ENERGY PREDICTED BY IDOCK:   -5.75 KCAL/MOL
REMARK 922        TOTAL FREE ENERGY PREDICTED BY IDOCK:   -7.66 KCAL/MOL
REMARK 923 INTER-LIGAND FREE ENERGY PREDICTED BY IDOCK:   -6.67 KCAL/MOL
REMARK 924 INTRA-LIGAND FREE ENERGY PREDICTED BY IDOCK:   -0.99 KCAL/MOL
REMARK 927      BINDING AFFINITY PREDICTED BY RF-SCORE:    0.00 PKD
ROOT
HETATM    1  C   UNL     1      -8.703   9.548  69.961  1.00  0.00    -0.221 C  
HETATM    2  S   UNL     1     -10.406   8.950  69.605  1.00  0.00    -0.216 SA 
HETATM    3  C   UNL     1      -9.915   7.946  68.130  1.00  0.00    -0.180 C  
HETATM    4  CA  UNL     1      -8.400   7.678  68.312  1.00  0.00    -0.125 C  
HETATM    5  C   UNL     1     -10.812   6.707  68.029  1.00  0.00    -0.345 C  
HETATM    6  C   UNL     1     -10.204   8.798  66.876  1.00  0.00    -0.357 C  
HETATM    7  N   UNL     1      -7.826   8.862  68.987  1.00  0.00    -0.090 N  
HETATM    8  C   UNL     1      -8.040   6.433  69.145  1.00  0.00    -0.111 C  
HETATM    9  OXT UNL     1      -8.451   5.304  68.925  1.00  0.00    -0.092 OA 
HETATM   10  O   UNL     1      -7.127   6.675  70.122  1.00  0.00    -0.070 OA 
HETATM   11  C   UNL     1      -7.572  10.005  68.271  1.00  0.00    -0.084 C  
HETATM   12  CA  UNL     1      -8.275  10.895  69.322  1.00  0.00    -0.036 C  
HETATM   13  O   UNL     1      -7.136  10.140  67.151  1.00  0.00    -0.087 OA 
ENDROOT
BRANCH  12  14
HETATM   14  N   UNL     1      -9.372  11.772  68.826  1.00  0.00    -0.388 N  
HETATM   15  C   UNL     1      -9.139  13.109  68.569  1.00  0.00    -0.053 C  
HETATM   16  H   UNL     1     -10.303  11.383  68.676  1.00  0.00     0.000 HD 
HETATM   17  O   UNL     1      -8.011  13.577  68.663  1.00  0.00    -0.138 OA 
BRANCH  15  18
HETATM   18  C   UNL     1     -10.309  13.896  68.227  1.00  0.00    -0.249 A  
HETATM   19  C   UNL     1     -10.894  14.888  68.999  1.00  0.00    -0.245 A  
HETATM   20  C   UNL     1     -10.649  15.501  70.321  1.00  0.00    -0.324 C  
HETATM   21  O   UNL     1     -11.986  15.367  68.359  1.00  0.00    -0.301 OA 
HETATM   22  N   UNL     1     -12.161  14.705  67.176  1.00  0.00    -0.293 NA 
HETATM   23  C   UNL     1     -11.166  13.806  67.073  1.00  0.00    -0.311 A  
BRANCH  23  24
HETATM   24  C   UNL     1     -11.100  12.955  65.874  1.00  0.00    -0.310 A  
HETATM   25  C   UNL     1      -9.936  12.271  65.503  1.00  0.00    -0.264 A  
HETATM   26  C   UNL     1      -9.897  11.502  64.334  1.00  0.00    -0.277 A  
HETATM   27  C   UNL     1     -11.015  11.421  63.507  1.00  0.00    -0.406 A  
HETATM   28  C   UNL     1     -12.178  12.102  63.852  1.00  0.00    -0.587 A  
HETATM   29  C   UNL     1     -12.220  12.860  65.026  1.00  0.00    -0.515 A  
ENDBRANCH  23  24
ENDBRANCH  15  18
ENDBRANCH  12  14
TORSDOF 3
ENDMDL
MODEL       65
REMARK 921   NORMALIZED FREE ENERGY PREDICTED BY IDOCK:   -5.71 KCAL/MOL
REMARK 922        TOTAL FREE ENERGY PREDICTED BY IDOCK:   -7.61 KCAL/MOL
REMARK 923 INTER-LIGAND FREE ENERGY PREDICTED BY IDOCK:   -6.70 KCAL/MOL
REMARK 924 INTRA-LIGAND FREE ENERGY PREDICTED BY IDOCK:   -0.92 KCAL/MOL
REMARK 927      BINDING AFFINITY PREDICTED BY RF-SCORE:    0.00 PKD
ROOT
HETATM    1  C   UNL     1     -10.804   6.288  70.337  1.00  0.00    -0.299 C  
HETATM    2  S   UNL     1      -8.993   6.026  70.530  1.00  0.00    -0.146 SA 
HETATM    3  C   UNL     1      -8.885   6.873  72.172  1.00  0.00    -0.131 C  
HETATM    4  CA  UNL     1     -10.325   6.828  72.744  1.00  0.00    -0.209 C  
HETATM    5  C   UNL     1      -7.800   6.206  73.026  1.00  0.00    -0.104 C  
HETATM    6  C   UNL     1      -8.412   8.319  71.914  1.00  0.00    -0.214 C  
HETATM    7  N   UNL     1     -11.252   6.924  71.595  1.00  0.00    -0.240 N  
HETATM    8  C   UNL     1     -10.685   5.560  73.541  1.00  0.00    -0.283 C  
HETATM    9  OXT UNL     1     -10.046   5.127  74.487  1.00  0.00    -0.210 OA 
HETATM   10  O   UNL     1     -11.857   4.989  73.159  1.00  0.00    -0.279 OA 
HETATM   11  C   UNL     1     -11.489   8.140  71.004  1.00  0.00    -0.279 C  
HETATM   12  CA  UNL     1     -11.260   7.567  69.586  1.00  0.00    -0.005 C  
HETATM   13  O   UNL     1     -11.618   9.235  71.501  1.00  0.00    -0.329 OA 
ENDROOT
BRANCH  12  14
HETATM   14  N   UNL     1     -10.233   8.247  68.749  1.00  0.00    -0.207 N  
HETATM   15  C   UNL     1     -10.207   8.060  67.381  1.00  0.00    -0.261 C  
HETATM   16  H   UNL     1      -9.544   8.856  69.190  1.00  0.00     0.000 HD 
HETATM   17  O   UNL     1     -11.076   7.400  66.823  1.00  0.00    -0.149 OA 
BRANCH  15  18
HETATM   18  C   UNL     1      -9.082   8.656  66.687  1.00  0.00    -0.203 A  
HETATM   19  C   UNL     1      -7.762   8.237  66.736  1.00  0.00    -0.094 A  
HETATM   20  C   UNL     1      -7.001   7.168  67.417  1.00  0.00    -0.079 C  
HETATM   21  O   UNL     1      -7.000   9.066  65.984  1.00  0.00    -0.082 OA 
HETATM   22  N   UNL     1      -7.779  10.049  65.441  1.00  0.00    -0.131 NA 
HETATM   23  C   UNL     1      -9.041   9.831  65.854  1.00  0.00    -0.168 A  
BRANCH  23  24
HETATM   24  C   UNL     1     -10.103  10.742  65.400  1.00  0.00    -0.347 A  
HETATM   25  C   UNL     1     -10.382  10.953  64.044  1.00  0.00    -0.417 A  
HETATM   26  C   UNL     1     -11.374  11.858  63.648  1.00  0.00    -0.536 A  
HETATM   27  C   UNL     1     -12.089  12.581  64.600  1.00  0.00    -0.496 A  
HETATM   28  C   UNL     1     -11.819  12.395  65.952  1.00  0.00    -0.467 A  
HETATM   29  C   UNL     1     -10.837  11.481  66.348  1.00  0.00    -0.334 A  
ENDBRANCH  23  24
ENDBRANCH  15  18
ENDBRANCH  12  14
TORSDOF 3
ENDMDL
MODEL       66
REMARK 921   NORMALIZED FREE ENERGY PREDICTED BY IDOCK:   -5.70 KCAL/MOL
REMARK 922        TOTAL FREE ENERGY PREDICTED BY IDOCK:   -7.60 KCAL/MOL
REMARK 923 INTER-LIGAND FREE ENERGY PREDICTED BY IDOCK:   -6.93 KCAL/MOL
REMARK 924 INTRA-LIGAND FREE ENERGY PREDICTED BY IDOCK:   -0.67 KCAL/MOL
REMARK 927      BINDING AFFINITY PREDICTED BY RF-SCORE:    0.00 PKD
ROOT
HETATM    1  C   UNL     1      -9.524   5.940  68.914  1.00  0.00    -0.126 C  
HETATM    2  S   UNL     1      -8.029   6.548  69.797  1.00  0.00    -0.122 SA 
HETATM    3  C   UNL     1      -8.687   6.186  71.489  1.00  0.00    -0.135 C  
HETATM    4  CA  UNL     1      -9.785   5.114  71.272  1.00  0.00    -0.169 C  
HETATM    5  C   UNL     1      -7.533   5.790  72.416  1.00  0.00    -0.096 C  
HETATM    6  C   UNL     1      -9.267   7.502  72.048  1.00  0.00    -0.163 C  
HETATM    7  N   UNL     1     -10.413   5.393  69.963  1.00  0.00    -0.301 N  
HETATM    8  C   UNL     1      -9.297   3.653  71.266  1.00  0.00    -0.144 C  
HETATM    9  OXT UNL     1      -8.638   3.135  72.153  1.00  0.00    -0.073 OA 
HETATM   10  O   UNL     1      -9.746   2.932  70.206  1.00  0.00    -0.118 OA 
HETATM   11  C   UNL     1     -11.331   6.406  69.842  1.00  0.00    -0.434 C  
HETATM   12  CA  UNL     1     -10.629   6.979  68.589  1.00  0.00    -0.210 C  
HETATM   13  O   UNL     1     -12.206   6.757  70.600  1.00  0.00    -0.386 OA 
ENDROOT
BRANCH  12  14
HETATM   14  N   UNL     1     -10.229   8.412  68.645  1.00  0.00    -0.198 N  
HETATM   15  C   UNL     1      -9.929   9.102  67.487  1.00  0.00    -0.205 C  
HETATM   16  H   UNL     1     -10.177   8.888  69.545  1.00  0.00     0.000 HD 
HETATM   17  O   UNL     1     -10.066   8.574  66.390  1.00  0.00    -0.279 OA 
BRANCH  15  18
HETATM   18  C   UNL     1      -9.417  10.447  67.671  1.00  0.00    -0.165 A  
HETATM   19  C   UNL     1      -8.516  10.865  68.638  1.00  0.00    -0.152 A  
HETATM   20  C   UNL     1      -7.782  10.242  69.760  1.00  0.00    -0.159 C  
HETATM   21  O   UNL     1      -8.308  12.196  68.511  1.00  0.00    -0.152 OA 
HETATM   22  N   UNL     1      -9.067  12.690  67.488  1.00  0.00    -0.183 NA 
HETATM   23  C   UNL     1      -9.752  11.657  66.966  1.00  0.00    -0.186 A  
BRANCH  23  24
HETATM   24  C   UNL     1     -10.648  11.904  65.824  1.00  0.00    -0.309 A  
HETATM   25  C   UNL     1     -10.366  11.436  64.535  1.00  0.00    -0.369 A  
HETATM   26  C   UNL     1     -11.222  11.723  63.465  1.00  0.00    -0.494 A  
HETATM   27  C   UNL     1     -12.361  12.500  63.662  1.00  0.00    -0.618 A  
HETATM   28  C   UNL     1     -12.652  12.984  64.933  1.00  0.00    -0.490 A  
HETATM   29  C   UNL     1     -11.805  12.686  66.005  1.00  0.00    -0.492 A  
ENDBRANCH  23  24
ENDBRANCH  15  18
ENDBRANCH  12  14
TORSDOF 3
ENDMDL
MODEL       67
REMARK 921   NORMALIZED FREE ENERGY PREDICTED BY IDOCK:   -5.58 KCAL/MOL
REMARK 922        TOTAL FREE ENERGY PREDICTED BY IDOCK:   -7.47 KCAL/MOL
REMARK 923 INTER-LIGAND FREE ENERGY PREDICTED BY IDOCK:   -6.83 KCAL/MOL
REMARK 924 INTRA-LIGAND FREE ENERGY PREDICTED BY IDOCK:   -0.64 KCAL/MOL
REMARK 927      BINDING AFFINITY PREDICTED BY RF-SCORE:    0.00 PKD
ROOT
HETATM    1  C   UNL     1      -8.044   7.023  70.358  1.00  0.00    -0.119 C  
HETATM    2  S   UNL     1      -8.147   8.138  71.818  1.00  0.00    -0.139 SA 
HETATM    3  C   UNL     1      -9.348   7.075  72.742  1.00  0.00    -0.135 C  
HETATM    4  CA  UNL     1      -9.186   5.660  72.132  1.00  0.00    -0.146 C  
HETATM    5  C   UNL     1      -9.087   7.193  74.248  1.00  0.00    -0.251 C  
HETATM    6  C   UNL     1     -10.757   7.652  72.495  1.00  0.00    -0.350 C  
HETATM    7  N   UNL     1      -8.860   5.838  70.700  1.00  0.00    -0.138 N  
HETATM    8  C   UNL     1      -8.088   4.784  72.764  1.00  0.00    -0.101 C  
HETATM    9  OXT UNL     1      -7.996   4.535  73.956  1.00  0.00    -0.095 OA 
HETATM   10  O   UNL     1      -7.253   4.214  71.857  1.00  0.00    -0.054 OA 
HETATM   11  C   UNL     1      -9.852   6.148  69.803  1.00  0.00    -0.163 C  
HETATM   12  CA  UNL     1      -9.022   7.297  69.185  1.00  0.00    -0.135 C  
HETATM   13  O   UNL     1     -10.993   5.750  69.736  1.00  0.00    -0.357 OA 
ENDROOT
BRANCH  12  14
HETATM   14  N   UNL     1      -9.662   8.641  69.155  1.00  0.00    -0.170 N  
HETATM   15  C   UNL     1     -10.545   8.975  68.147  1.00  0.00    -0.171 C  
HETATM   16  H   UNL     1      -9.446   9.321  69.884  1.00  0.00     0.000 HD 
HETATM   17  O   UNL     1     -10.882   8.146  67.310  1.00  0.00    -0.248 OA 
BRANCH  15  18
HETATM   18  C   UNL     1     -10.997  10.354  68.138  1.00  0.00    -0.334 A  
HETATM   19  C   UNL     1     -11.614  11.030  69.179  1.00  0.00    -0.319 A  
HETATM   20  C   UNL     1     -12.044  10.713  70.557  1.00  0.00    -0.448 C  
HETATM   21  O   UNL     1     -11.918  12.286  68.779  1.00  0.00    -0.302 OA 
HETATM   22  N   UNL     1     -11.534  12.467  67.480  1.00  0.00    -0.315 NA 
HETATM   23  C   UNL     1     -10.980  11.313  67.065  1.00  0.00    -0.294 A  
BRANCH  23  24
HETATM   24  C   UNL     1     -10.458  11.231  65.691  1.00  0.00    -0.317 A  
HETATM   25  C   UNL     1      -9.328  10.472  65.362  1.00  0.00    -0.255 A  
HETATM   26  C   UNL     1      -8.837  10.448  64.052  1.00  0.00    -0.225 A  
HETATM   27  C   UNL     1      -9.455  11.198  63.054  1.00  0.00    -0.386 A  
HETATM   28  C   UNL     1     -10.572  11.967  63.362  1.00  0.00    -0.485 A  
HETATM   29  C   UNL     1     -11.070  11.981  64.668  1.00  0.00    -0.375 A  
ENDBRANCH  23  24
ENDBRANCH  15  18
ENDBRANCH  12  14
TORSDOF 3
ENDMDL
MODEL       68
REMARK 921   NORMALIZED FREE ENERGY PREDICTED BY IDOCK:   -5.57 KCAL/MOL
REMARK 922        TOTAL FREE ENERGY PREDICTED BY IDOCK:   -7.45 KCAL/MOL
REMARK 923 INTER-LIGAND FREE ENERGY PREDICTED BY IDOCK:   -6.62 KCAL/MOL
REMARK 924 INTRA-LIGAND FREE ENERGY PREDICTED BY IDOCK:   -0.82 KCAL/MOL
REMARK 927      BINDING AFFINITY PREDICTED BY RF-SCORE:    0.00 PKD
ROOT
HETATM    1  C   UNL     1      -9.216  18.226  66.703  1.00  0.00    -0.295 C  
HETATM    2  S   UNL     1      -9.300  18.691  68.482  1.00  0.00    -0.347 SA 
HETATM    3  C   UNL     1      -7.466  18.759  68.714  1.00  0.00    -0.306 C  
HETATM    4  CA  UNL     1      -6.887  18.962  67.290  1.00  0.00    -0.206 C  
HETATM    5  C   UNL     1      -7.117  19.839  69.744  1.00  0.00    -0.121 C  
HETATM    6  C   UNL     1      -7.029  17.412  69.327  1.00  0.00    -0.175 C  
HETATM    7  N   UNL     1      -7.779  18.248  66.352  1.00  0.00    -0.247 N  
HETATM    8  C   UNL     1      -6.774  20.425  66.821  1.00  0.00    -0.243 C  
HETATM    9  OXT UNL     1      -6.201  21.312  67.433  1.00  0.00    -0.321 OA 
HETATM   10  O   UNL     1      -7.300  20.645  65.588  1.00  0.00    -0.085 OA 
HETATM   11  C   UNL     1      -7.695  16.884  66.228  1.00  0.00    -0.297 C  
HETATM   12  CA  UNL     1      -9.226  16.712  66.364  1.00  0.00    -0.287 C  
HETATM   13  O   UNL     1      -6.724  16.161  66.224  1.00  0.00     0.071 OA 
ENDROOT
BRANCH  12  14
HETATM   14  N   UNL     1      -9.702  15.795  67.435  1.00  0.00    -0.222 N  
HETATM   15  C   UNL     1     -10.680  14.856  67.172  1.00  0.00    -0.296 C  
HETATM   16  H   UNL     1      -9.303  15.860  68.371  1.00  0.00     0.000 HD 
HETATM   17  O   UNL     1     -11.112  14.705  66.034  1.00  0.00    -0.321 OA 
BRANCH  15  18
HETATM   18  C   UNL     1     -11.166  14.114  68.320  1.00  0.00    -0.295 A  
HETATM   19  C   UNL     1     -11.851  14.629  69.408  1.00  0.00    -0.329 A  
HETATM   20  C   UNL     1     -12.322  15.960  69.846  1.00  0.00    -0.098 C  
HETATM   21  O   UNL     1     -12.104  13.634  70.290  1.00  0.00    -0.327 OA 
HETATM   22  N   UNL     1     -11.586  12.458  69.826  1.00  0.00    -0.267 NA 
HETATM   23  C   UNL     1     -11.007  12.719  68.640  1.00  0.00    -0.260 A  
BRANCH  23  24
HETATM   24  C   UNL     1     -10.375  11.615  67.900  1.00  0.00    -0.206 A  
HETATM   25  C   UNL     1     -10.754  11.271  66.597  1.00  0.00    -0.321 A  
HETATM   26  C   UNL     1     -10.158  10.189  65.937  1.00  0.00    -0.325 A  
HETATM   27  C   UNL     1      -9.189   9.421  66.579  1.00  0.00    -0.202 A  
HETATM   28  C   UNL     1      -8.807   9.739  67.878  1.00  0.00    -0.122 A  
HETATM   29  C   UNL     1      -9.393  10.828  68.531  1.00  0.00    -0.174 A  
ENDBRANCH  23  24
ENDBRANCH  15  18
ENDBRANCH  12  14
TORSDOF 3
ENDMDL
MODEL       69
REMARK 921   NORMALIZED FREE ENERGY PREDICTED BY IDOCK:   -5.57 KCAL/MOL
REMARK 922        TOTAL FREE ENERGY PREDICTED BY IDOCK:   -7.45 KCAL/MOL
REMARK 923 INTER-LIGAND FREE ENERGY PREDICTED BY IDOCK:   -6.84 KCAL/MOL
REMARK 924 INTRA-LIGAND FREE ENERGY PREDICTED BY IDOCK:   -0.61 KCAL/MOL
REMARK 927      BINDING AFFINITY PREDICTED BY RF-SCORE:    0.00 PKD
ROOT
HETATM    1  C   UNL     1      -8.720   8.656  67.683  1.00  0.00    -0.136 C  
HETATM    2  S   UNL     1      -7.982   8.634  69.368  1.00  0.00    -0.103 SA 
HETATM    3  C   UNL     1      -8.293   6.832  69.652  1.00  0.00    -0.132 C  
HETATM    4  CA  UNL     1      -8.444   6.221  68.235  1.00  0.00    -0.114 C  
HETATM    5  C   UNL     1      -7.174   6.247  70.522  1.00  0.00    -0.080 C  
HETATM    6  C   UNL     1      -9.593   6.712  70.473  1.00  0.00    -0.177 C  
HETATM    7  N   UNL     1      -9.075   7.251  67.383  1.00  0.00    -0.121 N  
HETATM    8  C   UNL     1      -7.133   5.779  67.558  1.00  0.00    -0.074 C  
HETATM    9  OXT UNL     1      -6.314   5.020  68.052  1.00  0.00    -0.034 OA 
HETATM   10  O   UNL     1      -6.991   6.241  66.288  1.00  0.00    -0.063 OA 
HETATM   11  C   UNL     1     -10.426   7.478  67.465  1.00  0.00    -0.271 C  
HETATM   12  CA  UNL     1     -10.227   9.008  67.571  1.00  0.00    -0.241 C  
HETATM   13  O   UNL     1     -11.339   6.697  67.603  1.00  0.00    -0.246 OA 
ENDROOT
BRANCH  12  14
HETATM   14  N   UNL     1     -10.840   9.681  68.750  1.00  0.00    -0.353 N  
HETATM   15  C   UNL     1     -11.661  10.778  68.583  1.00  0.00    -0.219 C  
HETATM   16  H   UNL     1     -10.651   9.328  69.688  1.00  0.00     0.000 HD 
HETATM   17  O   UNL     1     -11.967  11.166  67.461  1.00  0.00    -0.580 OA 
BRANCH  15  18
HETATM   18  C   UNL     1     -12.087  11.437  69.803  1.00  0.00    -0.388 A  
HETATM   19  C   UNL     1     -12.079  12.800  70.055  1.00  0.00    -0.285 A  
HETATM   20  C   UNL     1     -11.687  14.022  69.323  1.00  0.00    -0.372 C  
HETATM   21  O   UNL     1     -12.516  13.025  71.316  1.00  0.00    -0.331 OA 
HETATM   22  N   UNL     1     -12.802  11.837  71.928  1.00  0.00    -0.307 NA 
HETATM   23  C   UNL     1     -12.546  10.859  71.040  1.00  0.00    -0.417 A  
BRANCH  23  24
HETATM   24  C   UNL     1     -12.783   9.462  71.435  1.00  0.00    -0.425 A  
HETATM   25  C   UNL     1     -11.818   8.696  72.100  1.00  0.00    -0.447 A  
HETATM   26  C   UNL     1     -12.063   7.357  72.426  1.00  0.00    -0.187 A  
HETATM   27  C   UNL     1     -13.270   6.756  72.073  1.00  0.00    -0.091 A  
HETATM   28  C   UNL     1     -14.238   7.496  71.403  1.00  0.00    -0.523 A  
HETATM   29  C   UNL     1     -13.997   8.838  71.089  1.00  0.00    -0.120 A  
ENDBRANCH  23  24
ENDBRANCH  15  18
ENDBRANCH  12  14
TORSDOF 3
ENDMDL
MODEL       70
REMARK 921   NORMALIZED FREE ENERGY PREDICTED BY IDOCK:   -5.54 KCAL/MOL
REMARK 922        TOTAL FREE ENERGY PREDICTED BY IDOCK:   -7.41 KCAL/MOL
REMARK 923 INTER-LIGAND FREE ENERGY PREDICTED BY IDOCK:   -6.93 KCAL/MOL
REMARK 924 INTRA-LIGAND FREE ENERGY PREDICTED BY IDOCK:   -0.48 KCAL/MOL
REMARK 927      BINDING AFFINITY PREDICTED BY RF-SCORE:    0.00 PKD
ROOT
HETATM    1  C   UNL     1      -7.673   9.991  67.752  1.00  0.00    -0.090 C  
HETATM    2  S   UNL     1      -7.339  10.447  69.503  1.00  0.00    -0.154 SA 
HETATM    3  C   UNL     1      -8.360   9.081  70.219  1.00  0.00    -0.157 C  
HETATM    4  CA  UNL     1      -8.457   8.018  69.095  1.00  0.00    -0.136 C  
HETATM    5  C   UNL     1      -7.738   8.610  71.539  1.00  0.00    -0.152 C  
HETATM    6  C   UNL     1      -9.740   9.674  70.572  1.00  0.00    -0.280 C  
HETATM    7  N   UNL     1      -8.471   8.747  67.808  1.00  0.00    -0.125 N  
HETATM    8  C   UNL     1      -7.309   6.992  69.049  1.00  0.00    -0.093 C  
HETATM    9  OXT UNL     1      -6.953   6.301  69.991  1.00  0.00    -0.061 OA 
HETATM   10  O   UNL     1      -6.761   6.840  67.815  1.00  0.00    -0.062 OA 
HETATM   11  C   UNL     1      -9.622   9.357  67.377  1.00  0.00    -0.145 C  
HETATM   12  CA  UNL     1      -8.880  10.675  67.058  1.00  0.00    -0.137 C  
HETATM   13  O   UNL     1     -10.773   8.988  67.450  1.00  0.00    -0.271 OA 
ENDROOT
BRANCH  12  14
HETATM   14  N   UNL     1      -9.405  11.909  67.704  1.00  0.00    -0.178 N  
HETATM   15  C   UNL     1     -10.448  12.612  67.133  1.00  0.00    -0.235 C  
HETATM   16  H   UNL     1      -8.991  12.239  68.576  1.00  0.00     0.000 HD 
HETATM   17  O   UNL     1     -11.014  12.187  66.132  1.00  0.00    -0.274 OA 
BRANCH  15  18
HETATM   18  C   UNL     1     -10.782  13.871  67.771  1.00  0.00    -0.252 A  
HETATM   19  C   UNL     1     -10.453  15.140  67.321  1.00  0.00    -0.271 A  
HETATM   20  C   UNL     1      -9.718  15.713  66.174  1.00  0.00    -0.348 C  
HETATM   21  O   UNL     1     -10.909  16.060  68.203  1.00  0.00    -0.297 OA 
HETATM   22  N   UNL     1     -11.525  15.435  69.251  1.00  0.00    -0.309 NA 
HETATM   23  C   UNL     1     -11.457  14.111  69.020  1.00  0.00    -0.285 A  
BRANCH  23  24
HETATM   24  C   UNL     1     -12.063  13.189  69.994  1.00  0.00    -0.375 A  
HETATM   25  C   UNL     1     -12.123  11.807  69.781  1.00  0.00    -0.338 A  
HETATM   26  C   UNL     1     -12.742  10.963  70.711  1.00  0.00    -0.431 A  
HETATM   27  C   UNL     1     -13.329  11.491  71.859  1.00  0.00    -0.408 A  
HETATM   28  C   UNL     1     -13.290  12.863  72.084  1.00  0.00    -0.615 A  
HETATM   29  C   UNL     1     -12.660  13.704  71.161  1.00  0.00    -0.452 A  
ENDBRANCH  23  24
ENDBRANCH  15  18
ENDBRANCH  12  14
TORSDOF 3
ENDMDL
MODEL       71
REMARK 921   NORMALIZED FREE ENERGY PREDICTED BY IDOCK:   -5.51 KCAL/MOL
REMARK 922        TOTAL FREE ENERGY PREDICTED BY IDOCK:   -7.38 KCAL/MOL
REMARK 923 INTER-LIGAND FREE ENERGY PREDICTED BY IDOCK:   -6.48 KCAL/MOL
REMARK 924 INTRA-LIGAND FREE ENERGY PREDICTED BY IDOCK:   -0.90 KCAL/MOL
REMARK 927      BINDING AFFINITY PREDICTED BY RF-SCORE:    0.00 PKD
ROOT
HETATM    1  C   UNL     1      -9.242   9.188  70.801  1.00  0.00    -0.262 C  
HETATM    2  S   UNL     1     -10.868   8.402  70.449  1.00  0.00    -0.233 SA 
HETATM    3  C   UNL     1     -10.149   6.936  69.579  1.00  0.00    -0.173 C  
HETATM    4  CA  UNL     1      -8.686   6.845  70.083  1.00  0.00    -0.141 C  
HETATM    5  C   UNL     1     -11.026   5.704  69.833  1.00  0.00    -0.309 C  
HETATM    6  C   UNL     1     -10.220   7.218  68.064  1.00  0.00    -0.225 C  
HETATM    7  N   UNL     1      -8.223   8.229  70.322  1.00  0.00    -0.117 N  
HETATM    8  C   UNL     1      -8.479   6.043  71.382  1.00  0.00    -0.128 C  
HETATM    9  OXT UNL     1      -8.857   4.896  71.561  1.00  0.00    -0.129 OA 
HETATM   10  O   UNL     1      -7.738   6.696  72.315  1.00  0.00    -0.095 OA 
HETATM   11  C   UNL     1      -7.844   9.019  69.265  1.00  0.00    -0.095 C  
HETATM   12  CA  UNL     1      -8.704  10.205  69.761  1.00  0.00    -0.126 C  
HETATM   13  O   UNL     1      -7.229   8.735  68.263  1.00  0.00    -0.079 OA 
ENDROOT
BRANCH  12  14
HETATM   14  N   UNL     1      -9.697  10.757  68.799  1.00  0.00    -0.185 N  
HETATM   15  C   UNL     1      -9.393  11.868  68.036  1.00  0.00    -0.193 C  
HETATM   16  H   UNL     1     -10.610  10.312  68.701  1.00  0.00     0.000 HD 
HETATM   17  O   UNL     1      -8.274  12.367  68.077  1.00  0.00    -0.148 OA 
BRANCH  15  18
HETATM   18  C   UNL     1     -10.481  12.402  67.240  1.00  0.00    -0.237 A  
HETATM   19  C   UNL     1     -11.482  13.258  67.673  1.00  0.00    -0.321 A  
HETATM   20  C   UNL     1     -11.856  13.913  68.944  1.00  0.00    -0.393 C  
HETATM   21  O   UNL     1     -12.333  13.505  66.650  1.00  0.00    -0.376 OA 
HETATM   22  N   UNL     1     -11.937  12.816  65.538  1.00  0.00    -0.425 NA 
HETATM   23  C   UNL     1     -10.824  12.136  65.867  1.00  0.00    -0.278 A  
BRANCH  23  24
HETATM   24  C   UNL     1     -10.167  11.311  64.840  1.00  0.00    -0.341 A  
HETATM   25  C   UNL     1     -10.237  11.617  63.475  1.00  0.00    -0.474 A  
HETATM   26  C   UNL     1      -9.633  10.788  62.522  1.00  0.00    -0.241 A  
HETATM   27  C   UNL     1      -8.968   9.630  62.917  1.00  0.00    -0.260 A  
HETATM   28  C   UNL     1      -8.896   9.303  64.267  1.00  0.00    -0.185 A  
HETATM   29  C   UNL     1      -9.489  10.138  65.219  1.00  0.00    -0.306 A  
ENDBRANCH  23  24
ENDBRANCH  15  18
ENDBRANCH  12  14
TORSDOF 3
ENDMDL
MODEL       72
REMARK 921   NORMALIZED FREE ENERGY PREDICTED BY IDOCK:   -5.51 KCAL/MOL
REMARK 922        TOTAL FREE ENERGY PREDICTED BY IDOCK:   -7.37 KCAL/MOL
REMARK 923 INTER-LIGAND FREE ENERGY PREDICTED BY IDOCK:   -6.50 KCAL/MOL
REMARK 924 INTRA-LIGAND FREE ENERGY PREDICTED BY IDOCK:   -0.88 KCAL/MOL
REMARK 927      BINDING AFFINITY PREDICTED BY RF-SCORE:    0.00 PKD
ROOT
HETATM    1  C   UNL     1      -7.656   6.792  68.654  1.00  0.00    -0.105 C  
HETATM    2  S   UNL     1      -9.093   5.679  68.942  1.00  0.00    -0.116 SA 
HETATM    3  C   UNL     1      -9.352   5.290  67.151  1.00  0.00    -0.122 C  
HETATM    4  CA  UNL     1      -7.992   5.592  66.472  1.00  0.00    -0.101 C  
HETATM    5  C   UNL     1      -9.875   3.856  67.006  1.00  0.00    -0.101 C  
HETATM    6  C   UNL     1     -10.472   6.218  66.636  1.00  0.00    -0.255 C  
HETATM    7  N   UNL     1      -7.385   6.726  67.201  1.00  0.00    -0.084 N  
HETATM    8  C   UNL     1      -6.979   4.431  66.468  1.00  0.00    -0.059 C  
HETATM    9  OXT UNL     1      -7.206   3.309  66.044  1.00  0.00    -0.068 OA 
HETATM   10  O   UNL     1      -5.741   4.785  66.902  1.00  0.00    -0.016 OA 
HETATM   11  C   UNL     1      -7.822   8.006  66.968  1.00  0.00    -0.104 C  
HETATM   12  CA  UNL     1      -7.953   8.305  68.480  1.00  0.00    -0.122 C  
HETATM   13  O   UNL     1      -8.149   8.540  65.933  1.00  0.00    -0.106 OA 
ENDROOT
BRANCH  12  14
HETATM   14  N   UNL     1      -9.283   8.778  68.953  1.00  0.00    -0.141 N  
HETATM   15  C   UNL     1      -9.410   9.402  70.179  1.00  0.00    -0.241 C  
HETATM   16  H   UNL     1     -10.107   8.642  68.368  1.00  0.00     0.000 HD 
HETATM   17  O   UNL     1      -8.421   9.651  70.860  1.00  0.00    -0.253 OA 
BRANCH  15  18
HETATM   18  C   UNL     1     -10.767   9.693  70.599  1.00  0.00    -0.388 A  
HETATM   19  C   UNL     1     -11.469   9.073  71.620  1.00  0.00    -0.361 A  
HETATM   20  C   UNL     1     -11.212   7.992  72.595  1.00  0.00    -0.462 C  
HETATM   21  O   UNL     1     -12.717   9.594  71.687  1.00  0.00    -0.348 OA 
HETATM   22  N   UNL     1     -12.877  10.543  70.716  1.00  0.00    -0.374 NA 
HETATM   23  C   UNL     1     -11.717  10.620  70.039  1.00  0.00    -0.324 A  
BRANCH  23  24
HETATM   24  C   UNL     1     -11.603  11.585  68.934  1.00  0.00    -0.384 A  
HETATM   25  C   UNL     1     -11.721  12.967  69.131  1.00  0.00    -0.376 A  
HETATM   26  C   UNL     1     -11.646  13.854  68.051  1.00  0.00    -0.368 A  
HETATM   27  C   UNL     1     -11.474  13.373  66.755  1.00  0.00    -0.376 A  
HETATM   28  C   UNL     1     -11.367  12.004  66.537  1.00  0.00    -0.413 A  
HETATM   29  C   UNL     1     -11.428  11.118  67.618  1.00  0.00    -0.328 A  
ENDBRANCH  23  24
ENDBRANCH  15  18
ENDBRANCH  12  14
TORSDOF 3
ENDMDL
MODEL       73
REMARK 921   NORMALIZED FREE ENERGY PREDICTED BY IDOCK:   -5.50 KCAL/MOL
REMARK 922        TOTAL FREE ENERGY PREDICTED BY IDOCK:   -7.37 KCAL/MOL
REMARK 923 INTER-LIGAND FREE ENERGY PREDICTED BY IDOCK:   -6.41 KCAL/MOL
REMARK 924 INTRA-LIGAND FREE ENERGY PREDICTED BY IDOCK:   -0.96 KCAL/MOL
REMARK 927      BINDING AFFINITY PREDICTED BY RF-SCORE:    0.00 PKD
ROOT
HETATM    1  C   UNL     1      -8.406   8.216  69.524  1.00  0.00    -0.122 C  
HETATM    2  S   UNL     1      -8.945   9.176  70.998  1.00  0.00    -0.162 SA 
HETATM    3  C   UNL     1     -10.745   8.809  70.775  1.00  0.00    -0.228 C  
HETATM    4  CA  UNL     1     -10.790   7.524  69.910  1.00  0.00    -0.240 C  
HETATM    5  C   UNL     1     -11.427   8.722  72.146  1.00  0.00    -0.421 C  
HETATM    6  C   UNL     1     -11.375  10.015  70.049  1.00  0.00    -0.334 C  
HETATM    7  N   UNL     1      -9.630   7.576  68.994  1.00  0.00    -0.153 N  
HETATM    8  C   UNL     1     -10.724   6.195  70.687  1.00  0.00    -0.275 C  
HETATM    9  OXT UNL     1     -11.471   5.885  71.602  1.00  0.00    -0.259 OA 
HETATM   10  O   UNL     1      -9.800   5.325  70.204  1.00  0.00    -0.184 OA 
HETATM   11  C   UNL     1      -9.672   8.370  67.876  1.00  0.00    -0.158 C  
HETATM   12  CA  UNL     1      -8.286   8.984  68.181  1.00  0.00    -0.121 C  
HETATM   13  O   UNL     1     -10.584   8.590  67.112  1.00  0.00    -0.303 OA 
ENDROOT
BRANCH  12  14
HETATM   14  N   UNL     1      -8.218  10.469  68.270  1.00  0.00    -0.113 N  
HETATM   15  C   UNL     1      -7.999  11.230  67.138  1.00  0.00    -0.151 C  
HETATM   16  H   UNL     1      -8.335  10.927  69.173  1.00  0.00     0.000 HD 
HETATM   17  O   UNL     1      -7.940  10.705  66.033  1.00  0.00    -0.151 OA 
BRANCH  15  18
HETATM   18  C   UNL     1      -7.811  12.651  67.363  1.00  0.00    -0.175 A  
HETATM   19  C   UNL     1      -6.728  13.255  67.980  1.00  0.00    -0.127 A  
HETATM   20  C   UNL     1      -5.466  12.810  68.608  1.00  0.00    -0.063 C  
HETATM   21  O   UNL     1      -6.931  14.592  68.034  1.00  0.00    -0.108 OA 
HETATM   22  N   UNL     1      -8.142  14.901  67.481  1.00  0.00    -0.167 NA 
HETATM   23  C   UNL     1      -8.699  13.747  67.073  1.00  0.00    -0.198 A  
BRANCH  23  24
HETATM   24  C   UNL     1     -10.017  13.787  66.418  1.00  0.00    -0.301 A  
HETATM   25  C   UNL     1     -11.088  12.989  66.839  1.00  0.00    -0.306 A  
HETATM   26  C   UNL     1     -12.316  13.024  66.168  1.00  0.00    -0.335 A  
HETATM   27  C   UNL     1     -12.486  13.842  65.053  1.00  0.00    -0.447 A  
HETATM   28  C   UNL     1     -11.431  14.634  64.612  1.00  0.00    -0.389 A  
HETATM   29  C   UNL     1     -10.209  14.608  65.290  1.00  0.00    -0.421 A  
ENDBRANCH  23  24
ENDBRANCH  15  18
ENDBRANCH  12  14
TORSDOF 3
ENDMDL
MODEL       74
REMARK 921   NORMALIZED FREE ENERGY PREDICTED BY IDOCK:   -5.49 KCAL/MOL
REMARK 922        TOTAL FREE ENERGY PREDICTED BY IDOCK:   -7.36 KCAL/MOL
REMARK 923 INTER-LIGAND FREE ENERGY PREDICTED BY IDOCK:   -6.46 KCAL/MOL
REMARK 924 INTRA-LIGAND FREE ENERGY PREDICTED BY IDOCK:   -0.90 KCAL/MOL
REMARK 927      BINDING AFFINITY PREDICTED BY RF-SCORE:    0.00 PKD
ROOT
HETATM    1  C   UNL     1     -10.227  16.153  66.458  1.00  0.00    -0.297 C  
HETATM    2  S   UNL     1     -11.285  15.646  67.875  1.00  0.00    -0.296 SA 
HETATM    3  C   UNL     1     -10.183  16.384  69.166  1.00  0.00    -0.280 C  
HETATM    4  CA  UNL     1      -9.348  17.455  68.419  1.00  0.00    -0.285 C  
HETATM    5  C   UNL     1     -11.031  16.888  70.340  1.00  0.00     0.309 C  
HETATM    6  C   UNL     1      -9.299  15.248  69.721  1.00  0.00    -0.084 C  
HETATM    7  N   UNL     1      -9.131  16.955  67.044  1.00  0.00    -0.220 N  
HETATM    8  C   UNL     1      -9.992  18.851  68.322  1.00  0.00    -0.376 C  
HETATM    9  OXT UNL     1     -10.401  19.498  69.274  1.00  0.00    -0.229 OA 
HETATM   10  O   UNL     1      -9.988  19.369  67.066  1.00  0.00    -0.324 OA 
HETATM   11  C   UNL     1      -8.178  15.997  66.804  1.00  0.00    -0.272 C  
HETATM   12  CA  UNL     1      -9.159  15.140  65.971  1.00  0.00    -0.161 C  
HETATM   13  O   UNL     1      -7.074  15.862  67.280  1.00  0.00    -0.174 OA 
ENDROOT
BRANCH  12  14
HETATM   14  N   UNL     1      -9.340  13.726  66.401  1.00  0.00    -0.433 N  
HETATM   15  C   UNL     1     -10.094  12.853  65.642  1.00  0.00    -0.272 C  
HETATM   16  H   UNL     1      -8.904  13.400  67.263  1.00  0.00     0.000 HD 
HETATM   17  O   UNL     1     -10.557  13.201  64.562  1.00  0.00    -0.363 OA 
BRANCH  15  18
HETATM   18  C   UNL     1     -10.320  11.545  66.227  1.00  0.00    -0.280 A  
HETATM   19  C   UNL     1     -11.079  11.260  67.351  1.00  0.00    -0.297 A  
HETATM   20  C   UNL     1     -11.877  12.029  68.329  1.00  0.00    -0.351 C  
HETATM   21  O   UNL     1     -11.022   9.931  67.605  1.00  0.00    -0.289 OA 
HETATM   22  N   UNL     1     -10.222   9.315  66.684  1.00  0.00    -0.262 NA 
HETATM   23  C   UNL     1      -9.778  10.267  65.843  1.00  0.00    -0.225 A  
BRANCH  23  24
HETATM   24  C   UNL     1      -8.898   9.875  64.730  1.00  0.00    -0.232 A  
HETATM   25  C   UNL     1      -9.252  10.072  63.389  1.00  0.00    -0.317 A  
HETATM   26  C   UNL     1      -8.407   9.651  62.355  1.00  0.00    -0.161 A  
HETATM   27  C   UNL     1      -7.206   9.009  62.645  1.00  0.00    -0.098 A  
HETATM   28  C   UNL     1      -6.841   8.794  63.969  1.00  0.00    -0.083 A  
HETATM   29  C   UNL     1      -7.679   9.226  65.002  1.00  0.00    -0.109 A  
ENDBRANCH  23  24
ENDBRANCH  15  18
ENDBRANCH  12  14
TORSDOF 3
ENDMDL
MODEL       75
REMARK 921   NORMALIZED FREE ENERGY PREDICTED BY IDOCK:   -5.47 KCAL/MOL
REMARK 922        TOTAL FREE ENERGY PREDICTED BY IDOCK:   -7.33 KCAL/MOL
REMARK 923 INTER-LIGAND FREE ENERGY PREDICTED BY IDOCK:   -6.55 KCAL/MOL
REMARK 924 INTRA-LIGAND FREE ENERGY PREDICTED BY IDOCK:   -0.77 KCAL/MOL
REMARK 927      BINDING AFFINITY PREDICTED BY RF-SCORE:    0.00 PKD
ROOT
HETATM    1  C   UNL     1      -9.754  13.906  68.517  1.00  0.00    -0.202 C  
HETATM    2  S   UNL     1      -8.403  14.608  67.484  1.00  0.00    -0.203 SA 
HETATM    3  C   UNL     1      -9.480  15.857  66.645  1.00  0.00    -0.241 C  
HETATM    4  CA  UNL     1     -10.692  16.044  67.592  1.00  0.00    -0.320 C  
HETATM    5  C   UNL     1      -8.663  17.118  66.340  1.00  0.00    -0.291 C  
HETATM    6  C   UNL     1      -9.897  15.265  65.283  1.00  0.00    -0.250 C  
HETATM    7  N   UNL     1     -10.944  14.738  68.239  1.00  0.00    -0.250 N  
HETATM    8  C   UNL     1     -10.515  17.099  68.701  1.00  0.00    -0.366 C  
HETATM    9  OXT UNL     1     -10.186  18.259  68.513  1.00  0.00    -0.381 OA 
HETATM   10  O   UNL     1     -10.850  16.651  69.939  1.00  0.00    -0.333 OA 
HETATM   11  C   UNL     1     -11.593  13.744  67.550  1.00  0.00    -0.354 C  
HETATM   12  CA  UNL     1     -10.530  12.691  67.942  1.00  0.00    -0.218 C  
HETATM   13  O   UNL     1     -12.527  13.810  66.784  1.00  0.00    -0.366 OA 
ENDROOT
BRANCH  12  14
HETATM   14  N   UNL     1      -9.876  11.955  66.825  1.00  0.00    -0.195 N  
HETATM   15  C   UNL     1     -10.413  10.772  66.355  1.00  0.00    -0.233 C  
HETATM   16  H   UNL     1      -9.025  12.327  66.403  1.00  0.00     0.000 HD 
HETATM   17  O   UNL     1     -11.479  10.352  66.791  1.00  0.00    -0.026 OA 
BRANCH  15  18
HETATM   18  C   UNL     1      -9.619  10.071  65.365  1.00  0.00    -0.342 A  
HETATM   19  C   UNL     1      -9.449  10.427  64.037  1.00  0.00    -0.299 A  
HETATM   20  C   UNL     1      -9.928  11.505  63.146  1.00  0.00    -0.404 C  
HETATM   21  O   UNL     1      -8.667   9.507  63.423  1.00  0.00    -0.206 OA 
HETATM   22  N   UNL     1      -8.321   8.526  64.308  1.00  0.00    -0.141 NA 
HETATM   23  C   UNL     1      -8.887   8.836  65.489  1.00  0.00    -0.188 A  
BRANCH  23  24
HETATM   24  C   UNL     1      -8.662   7.947  66.640  1.00  0.00    -0.154 A  
HETATM   25  C   UNL     1      -8.652   8.415  67.959  1.00  0.00    -0.135 A  
HETATM   26  C   UNL     1      -8.396   7.548  69.027  1.00  0.00    -0.129 A  
HETATM   27  C   UNL     1      -8.125   6.202  68.791  1.00  0.00    -0.105 A  
HETATM   28  C   UNL     1      -8.119   5.719  67.487  1.00  0.00    -0.102 A  
HETATM   29  C   UNL     1      -8.388   6.583  66.421  1.00  0.00    -0.120 A  
ENDBRANCH  23  24
ENDBRANCH  15  18
ENDBRANCH  12  14
TORSDOF 3
ENDMDL
MODEL       76
REMARK 921   NORMALIZED FREE ENERGY PREDICTED BY IDOCK:   -5.44 KCAL/MOL
REMARK 922        TOTAL FREE ENERGY PREDICTED BY IDOCK:   -7.30 KCAL/MOL
REMARK 923 INTER-LIGAND FREE ENERGY PREDICTED BY IDOCK:   -6.69 KCAL/MOL
REMARK 924 INTRA-LIGAND FREE ENERGY PREDICTED BY IDOCK:   -0.61 KCAL/MOL
REMARK 927      BINDING AFFINITY PREDICTED BY RF-SCORE:    0.00 PKD
ROOT
HETATM    1  C   UNL     1      -7.983  10.524  67.372  1.00  0.00    -0.110 C  
HETATM    2  S   UNL     1      -7.254  10.686  69.054  1.00  0.00    -0.106 SA 
HETATM    3  C   UNL     1      -7.748   8.990  69.604  1.00  0.00    -0.075 C  
HETATM    4  CA  UNL     1      -7.959   8.187  68.295  1.00  0.00    -0.123 C  
HETATM    5  C   UNL     1      -6.696   8.436  70.572  1.00  0.00    -0.037 C  
HETATM    6  C   UNL     1      -9.055   9.130  70.411  1.00  0.00    -0.270 C  
HETATM    7  N   UNL     1      -8.480   9.133  67.285  1.00  0.00    -0.121 N  
HETATM    8  C   UNL     1      -6.699   7.517  67.716  1.00  0.00    -0.066 C  
HETATM    9  OXT UNL     1      -5.964   6.763  68.334  1.00  0.00    -0.023 OA 
HETATM   10  O   UNL     1      -6.510   7.761  66.393  1.00  0.00    -0.045 OA 
HETATM   11  C   UNL     1      -9.800   9.505  67.308  1.00  0.00    -0.177 C  
HETATM   12  CA  UNL     1      -9.446  11.005  67.183  1.00  0.00    -0.164 C  
HETATM   13  O   UNL     1     -10.789   8.851  67.548  1.00  0.00    -0.218 OA 
ENDROOT
BRANCH  12  14
HETATM   14  N   UNL     1      -9.988  11.910  68.234  1.00  0.00    -0.198 N  
HETATM   15  C   UNL     1     -11.287  12.373  68.159  1.00  0.00    -0.291 C  
HETATM   16  H   UNL     1      -9.396  12.189  69.016  1.00  0.00     0.000 HD 
HETATM   17  O   UNL     1     -12.040  11.984  67.274  1.00  0.00    -0.572 OA 
BRANCH  15  18
HETATM   18  C   UNL     1     -11.662  13.357  69.157  1.00  0.00    -0.375 A  
HETATM   19  C   UNL     1     -12.230  13.105  70.396  1.00  0.00    -0.316 A  
HETATM   20  C   UNL     1     -12.662  11.911  71.154  1.00  0.00    -0.384 C  
HETATM   21  O   UNL     1     -12.468  14.278  71.027  1.00  0.00    -0.315 OA 
HETATM   22  N   UNL     1     -12.088  15.321  70.229  1.00  0.00    -0.325 NA 
HETATM   23  C   UNL     1     -11.603  14.794  69.090  1.00  0.00    -0.303 A  
BRANCH  23  24
HETATM   24  C   UNL     1     -11.101  15.702  68.046  1.00  0.00    -0.335 A  
HETATM   25  C   UNL     1     -10.824  17.052  68.296  1.00  0.00    -0.341 A  
HETATM   26  C   UNL     1     -10.385  17.897  67.270  1.00  0.00    -0.374 A  
HETATM   27  C   UNL     1     -10.236  17.410  65.973  1.00  0.00    -0.308 A  
HETATM   28  C   UNL     1     -10.517  16.075  65.702  1.00  0.00    -0.416 A  
HETATM   29  C   UNL     1     -10.943  15.229  66.730  1.00  0.00    -0.306 A  
ENDBRANCH  23  24
ENDBRANCH  15  18
ENDBRANCH  12  14
TORSDOF 3
ENDMDL
MODEL       77
REMARK 921   NORMALIZED FREE ENERGY PREDICTED BY IDOCK:   -5.28 KCAL/MOL
REMARK 922        TOTAL FREE ENERGY PREDICTED BY IDOCK:   -7.11 KCAL/MOL
REMARK 923 INTER-LIGAND FREE ENERGY PREDICTED BY IDOCK:   -5.91 KCAL/MOL
REMARK 924 INTRA-LIGAND FREE ENERGY PREDICTED BY IDOCK:   -1.20 KCAL/MOL
REMARK 927      BINDING AFFINITY PREDICTED BY RF-SCORE:    0.00 PKD
ROOT
HETATM    1  C   UNL     1     -11.357   8.191  70.827  1.00  0.00    -0.270 C  
HETATM    2  S   UNL     1     -11.330   6.715  69.728  1.00  0.00    -0.330 SA 
HETATM    3  C   UNL     1      -9.661   6.137  70.282  1.00  0.00    -0.164 C  
HETATM    4  CA  UNL     1      -9.449   6.792  71.671  1.00  0.00    -0.155 C  
HETATM    5  C   UNL     1      -9.608   4.606  70.243  1.00  0.00    -0.270 C  
HETATM    6  C   UNL     1      -8.634   6.638  69.246  1.00  0.00    -0.131 C  
HETATM    7  N   UNL     1     -10.124   8.107  71.640  1.00  0.00    -0.187 N  
HETATM    8  C   UNL     1     -10.003   6.000  72.871  1.00  0.00    -0.174 C  
HETATM    9  OXT UNL     1      -9.738   4.835  73.120  1.00  0.00    -0.136 OA 
HETATM   10  O   UNL     1     -10.765   6.747  73.713  1.00  0.00    -0.325 OA 
HETATM   11  C   UNL     1      -9.527   9.171  71.011  1.00  0.00    -0.274 C  
HETATM   12  CA  UNL     1     -10.820   9.523  70.240  1.00  0.00    -0.269 C  
HETATM   13  O   UNL     1      -8.364   9.503  70.979  1.00  0.00    -0.294 OA 
ENDROOT
BRANCH  12  14
HETATM   14  N   UNL     1     -10.714   9.599  68.757  1.00  0.00    -0.279 N  
HETATM   15  C   UNL     1     -10.194  10.725  68.147  1.00  0.00    -0.172 C  
HETATM   16  H   UNL     1     -11.027   8.814  68.186  1.00  0.00     0.000 HD 
HETATM   17  O   UNL     1      -9.736  11.643  68.817  1.00  0.00    -0.181 OA 
BRANCH  15  18
HETATM   18  C   UNL     1     -10.269  10.747  66.699  1.00  0.00    -0.283 A  
HETATM   19  C   UNL     1     -11.088  11.553  65.924  1.00  0.00    -0.214 A  
HETATM   20  C   UNL     1     -12.111  12.591  66.169  1.00  0.00    -0.357 C  
HETATM   21  O   UNL     1     -10.898  11.259  64.617  1.00  0.00    -0.317 OA 
HETATM   22  N   UNL     1      -9.979  10.255  64.494  1.00  0.00    -0.330 NA 
HETATM   23  C   UNL     1      -9.586   9.921  65.736  1.00  0.00    -0.250 A  
BRANCH  23  24
HETATM   24  C   UNL     1      -8.576   8.863  65.901  1.00  0.00    -0.177 A  
HETATM   25  C   UNL     1      -8.844   7.519  65.614  1.00  0.00    -0.072 A  
HETATM   26  C   UNL     1      -7.872   6.533  65.819  1.00  0.00    -0.104 A  
HETATM   27  C   UNL     1      -6.624   6.873  66.336  1.00  0.00    -0.052 A  
HETATM   28  C   UNL     1      -6.341   8.200  66.639  1.00  0.00    -0.055 A  
HETATM   29  C   UNL     1      -7.308   9.187  66.420  1.00  0.00    -0.092 A  
ENDBRANCH  23  24
ENDBRANCH  15  18
ENDBRANCH  12  14
TORSDOF 3
ENDMDL
MODEL       78
REMARK 921   NORMALIZED FREE ENERGY PREDICTED BY IDOCK:   -5.28 KCAL/MOL
REMARK 922        TOTAL FREE ENERGY PREDICTED BY IDOCK:   -7.11 KCAL/MOL
REMARK 923 INTER-LIGAND FREE ENERGY PREDICTED BY IDOCK:   -6.28 KCAL/MOL
REMARK 924 INTRA-LIGAND FREE ENERGY PREDICTED BY IDOCK:   -0.83 KCAL/MOL
REMARK 927      BINDING AFFINITY PREDICTED BY RF-SCORE:    0.00 PKD
ROOT
HETATM    1  C   UNL     1     -10.316  13.185  67.482  1.00  0.00    -0.225 C  
HETATM    2  S   UNL     1      -9.214  12.816  66.055  1.00  0.00     0.139 SA 
HETATM    3  C   UNL     1     -10.493  11.870  65.109  1.00  0.00    -0.287 C  
HETATM    4  CA  UNL     1     -11.852  12.352  65.677  1.00  0.00    -0.409 C  
HETATM    5  C   UNL     1     -10.279  12.078  63.606  1.00  0.00    -0.470 C  
HETATM    6  C   UNL     1     -10.253  10.371  65.383  1.00  0.00    -0.329 C  
HETATM    7  N   UNL     1     -11.644  12.649  67.111  1.00  0.00    -0.348 N  
HETATM    8  C   UNL     1     -12.443  13.609  65.011  1.00  0.00    -0.414 C  
HETATM    9  OXT UNL     1     -12.633  13.739  63.812  1.00  0.00    -0.712 OA 
HETATM   10  O   UNL     1     -12.836  14.563  65.896  1.00  0.00    -0.259 OA 
HETATM   11  C   UNL     1     -11.588  11.625  68.023  1.00  0.00    -0.313 C  
HETATM   12  CA  UNL     1     -10.299  12.186  68.669  1.00  0.00    -0.195 C  
HETATM   13  O   UNL     1     -12.233  10.603  68.087  1.00  0.00    -0.265 OA 
ENDROOT
BRANCH  12  14
HETATM   14  N   UNL     1      -9.134  11.263  68.743  1.00  0.00    -0.312 N  
HETATM   15  C   UNL     1      -9.108  10.237  69.668  1.00  0.00    -0.125 C  
HETATM   16  H   UNL     1      -8.347  11.388  68.105  1.00  0.00     0.000 HD 
HETATM   17  O   UNL     1     -10.077  10.018  70.386  1.00  0.00    -0.247 OA 
BRANCH  15  18
HETATM   18  C   UNL     1      -7.867   9.491  69.745  1.00  0.00    -0.128 A  
HETATM   19  C   UNL     1      -6.609  10.002  70.026  1.00  0.00    -0.102 A  
HETATM   20  C   UNL     1      -6.034  11.331  70.319  1.00  0.00    -0.154 C  
HETATM   21  O   UNL     1      -5.698   9.002  69.974  1.00  0.00    -0.031 OA 
HETATM   22  N   UNL     1      -6.314   7.828  69.645  1.00  0.00    -0.031 NA 
HETATM   23  C   UNL     1      -7.624   8.094  69.494  1.00  0.00    -0.100 A  
BRANCH  23  24
HETATM   24  C   UNL     1      -8.537   6.992  69.149  1.00  0.00    -0.133 A  
HETATM   25  C   UNL     1      -8.643   6.485  67.848  1.00  0.00    -0.117 A  
HETATM   26  C   UNL     1      -9.550   5.463  67.547  1.00  0.00    -0.138 A  
HETATM   27  C   UNL     1     -10.381   4.945  68.538  1.00  0.00    -0.035 A  
HETATM   28  C   UNL     1     -10.299   5.442  69.835  1.00  0.00    -0.377 A  
HETATM   29  C   UNL     1      -9.383   6.455  70.137  1.00  0.00    -0.164 A  
ENDBRANCH  23  24
ENDBRANCH  15  18
ENDBRANCH  12  14
TORSDOF 3
ENDMDL
MODEL       79
REMARK 921   NORMALIZED FREE ENERGY PREDICTED BY IDOCK:   -5.26 KCAL/MOL
REMARK 922        TOTAL FREE ENERGY PREDICTED BY IDOCK:   -7.09 KCAL/MOL
REMARK 923 INTER-LIGAND FREE ENERGY PREDICTED BY IDOCK:   -6.32 KCAL/MOL
REMARK 924 INTRA-LIGAND FREE ENERGY PREDICTED BY IDOCK:   -0.77 KCAL/MOL
REMARK 927      BINDING AFFINITY PREDICTED BY RF-SCORE:    0.00 PKD
ROOT
HETATM    1  C   UNL     1      -9.982   9.142  66.342  1.00  0.00    -0.288 C  
HETATM    2  S   UNL     1      -8.824  10.289  67.195  1.00  0.00    -0.135 SA 
HETATM    3  C   UNL     1      -7.295   9.530  66.482  1.00  0.00    -0.090 C  
HETATM    4  CA  UNL     1      -7.770   8.793  65.203  1.00  0.00    -0.103 C  
HETATM    5  C   UNL     1      -6.228  10.612  66.279  1.00  0.00    -0.119 C  
HETATM    6  C   UNL     1      -6.732   8.552  67.534  1.00  0.00    -0.063 C  
HETATM    7  N   UNL     1      -9.137   8.297  65.470  1.00  0.00    -0.074 N  
HETATM    8  C   UNL     1      -7.815   9.647  63.922  1.00  0.00    -0.136 C  
HETATM    9  OXT UNL     1      -6.878  10.295  63.482  1.00  0.00    -0.136 OA 
HETATM   10  O   UNL     1      -8.987   9.552  63.243  1.00  0.00    -0.238 OA 
HETATM   11  C   UNL     1      -9.322   7.168  66.229  1.00  0.00    -0.104 C  
HETATM   12  CA  UNL     1     -10.396   7.855  67.104  1.00  0.00    -0.328 C  
HETATM   13  O   UNL     1      -8.688   6.138  66.258  1.00  0.00    -0.133 OA 
ENDROOT
BRANCH  12  14
HETATM   14  N   UNL     1     -10.162   7.850  68.574  1.00  0.00    -0.202 N  
HETATM   15  C   UNL     1     -10.756   6.896  69.376  1.00  0.00    -0.246 C  
HETATM   16  H   UNL     1      -9.557   8.557  68.993  1.00  0.00     0.000 HD 
HETATM   17  O   UNL     1     -11.418   5.989  68.884  1.00  0.00    -0.221 OA 
BRANCH  15  18
HETATM   18  C   UNL     1     -10.573   7.071  70.804  1.00  0.00    -0.240 A  
HETATM   19  C   UNL     1     -10.045   6.147  71.691  1.00  0.00    -0.187 A  
HETATM   20  C   UNL     1      -9.517   4.768  71.615  1.00  0.00    -0.206 C  
HETATM   21  O   UNL     1     -10.068   6.663  72.943  1.00  0.00    -0.171 OA 
HETATM   22  N   UNL     1     -10.620   7.913  72.920  1.00  0.00    -0.354 NA 
HETATM   23  C   UNL     1     -10.941   8.184  71.642  1.00  0.00    -0.250 A  
BRANCH  23  24
HETATM   24  C   UNL     1     -11.546   9.487  71.323  1.00  0.00    -0.445 A  
HETATM   25  C   UNL     1     -10.975  10.373  70.402  1.00  0.00    -0.320 A  
HETATM   26  C   UNL     1     -11.556  11.622  70.151  1.00  0.00    -0.303 A  
HETATM   27  C   UNL     1     -12.706  12.013  70.835  1.00  0.00    -0.291 A  
HETATM   28  C   UNL     1     -13.282  11.152  71.763  1.00  0.00    -0.486 A  
HETATM   29  C   UNL     1     -12.708   9.899  72.003  1.00  0.00    -0.456 A  
ENDBRANCH  23  24
ENDBRANCH  15  18
ENDBRANCH  12  14
TORSDOF 3
ENDMDL
MODEL       80
REMARK 921   NORMALIZED FREE ENERGY PREDICTED BY IDOCK:   -5.23 KCAL/MOL
REMARK 922        TOTAL FREE ENERGY PREDICTED BY IDOCK:   -7.06 KCAL/MOL
REMARK 923 INTER-LIGAND FREE ENERGY PREDICTED BY IDOCK:   -6.41 KCAL/MOL
REMARK 924 INTRA-LIGAND FREE ENERGY PREDICTED BY IDOCK:   -0.65 KCAL/MOL
REMARK 927      BINDING AFFINITY PREDICTED BY RF-SCORE:    0.00 PKD
ROOT
HETATM    1  C   UNL     1     -11.289  11.549  66.273  1.00  0.00    -0.153 C  
HETATM    2  S   UNL     1     -11.904  12.676  67.591  1.00  0.00    -0.261 SA 
HETATM    3  C   UNL     1     -10.541  13.912  67.390  1.00  0.00    -0.267 C  
HETATM    4  CA  UNL     1      -9.994  13.679  65.958  1.00  0.00    -0.302 C  
HETATM    5  C   UNL     1     -11.073  15.319  67.687  1.00  0.00    -0.323 C  
HETATM    6  C   UNL     1      -9.481  13.609  68.468  1.00  0.00    -0.143 C  
HETATM    7  N   UNL     1     -10.122  12.233  65.674  1.00  0.00    -0.250 N  
HETATM    8  C   UNL     1     -10.715  14.450  64.837  1.00  0.00    -0.426 C  
HETATM    9  OXT UNL     1     -10.892  15.658  64.823  1.00  0.00    -0.437 OA 
HETATM   10  O   UNL     1     -11.073  13.673  63.782  1.00  0.00    -0.097 OA 
HETATM   11  C   UNL     1      -9.216  11.347  66.201  1.00  0.00    -0.210 C  
HETATM   12  CA  UNL     1     -10.334  10.405  66.706  1.00  0.00    -0.235 C  
HETATM   13  O   UNL     1      -8.019  11.452  66.347  1.00  0.00    -0.156 OA 
ENDROOT
BRANCH  12  14
HETATM   14  N   UNL     1     -10.317  10.067  68.155  1.00  0.00    -0.182 N  
HETATM   15  C   UNL     1     -10.708   8.815  68.589  1.00  0.00    -0.068 C  
HETATM   16  H   UNL     1     -10.015  10.766  68.835  1.00  0.00     0.000 HD 
HETATM   17  O   UNL     1     -10.994   7.936  67.785  1.00  0.00    -0.075 OA 
BRANCH  15  18
HETATM   18  C   UNL     1     -10.787   8.644  70.027  1.00  0.00    -0.226 A  
HETATM   19  C   UNL     1     -11.362   9.519  70.935  1.00  0.00    -0.341 A  
HETATM   20  C   UNL     1     -12.043  10.829  70.877  1.00  0.00    -0.475 C  
HETATM   21  O   UNL     1     -11.208   9.029  72.188  1.00  0.00    -0.351 OA 
HETATM   22  N   UNL     1     -10.522   7.848  72.145  1.00  0.00    -0.231 NA 
HETATM   23  C   UNL     1     -10.249   7.593  70.852  1.00  0.00    -0.199 A  
BRANCH  23  24
HETATM   24  C   UNL     1      -9.522   6.360  70.510  1.00  0.00    -0.173 A  
HETATM   25  C   UNL     1      -8.191   6.144  70.888  1.00  0.00    -0.126 A  
HETATM   26  C   UNL     1      -7.518   4.976  70.512  1.00  0.00    -0.062 A  
HETATM   27  C   UNL     1      -8.159   4.014  69.735  1.00  0.00    -0.060 A  
HETATM   28  C   UNL     1      -9.478   4.214  69.339  1.00  0.00    -0.260 A  
HETATM   29  C   UNL     1     -10.154   5.375  69.727  1.00  0.00    -0.319 A  
ENDBRANCH  23  24
ENDBRANCH  15  18
ENDBRANCH  12  14
TORSDOF 3
ENDMDL
MODEL       81
REMARK 921   NORMALIZED FREE ENERGY PREDICTED BY IDOCK:   -5.18 KCAL/MOL
REMARK 922        TOTAL FREE ENERGY PREDICTED BY IDOCK:   -6.99 KCAL/MOL
REMARK 923 INTER-LIGAND FREE ENERGY PREDICTED BY IDOCK:   -6.11 KCAL/MOL
REMARK 924 INTRA-LIGAND FREE ENERGY PREDICTED BY IDOCK:   -0.88 KCAL/MOL
REMARK 927      BINDING AFFINITY PREDICTED BY RF-SCORE:    0.00 PKD
ROOT
HETATM    1  C   UNL     1      -9.421   5.037  70.241  1.00  0.00    -0.172 C  
HETATM    2  S   UNL     1      -7.975   5.999  70.849  1.00  0.00    -0.117 SA 
HETATM    3  C   UNL     1      -8.829   6.626  72.366  1.00  0.00    -0.132 C  
HETATM    4  CA  UNL     1      -9.991   5.630  72.615  1.00  0.00    -0.174 C  
HETATM    5  C   UNL     1      -7.814   6.776  73.504  1.00  0.00    -0.097 C  
HETATM    6  C   UNL     1      -9.344   8.046  72.050  1.00  0.00    -0.237 C  
HETATM    7  N   UNL     1     -10.455   5.165  71.290  1.00  0.00    -0.205 N  
HETATM    8  C   UNL     1      -9.635   4.391  73.457  1.00  0.00    -0.116 C  
HETATM    9  OXT UNL     1      -9.117   4.424  74.562  1.00  0.00    -0.102 OA 
HETATM   10  O   UNL     1     -10.037   3.219  72.901  1.00  0.00    -0.137 OA 
HETATM   11  C   UNL     1     -11.264   5.968  70.525  1.00  0.00    -0.292 C  
HETATM   12  CA  UNL     1     -10.391   5.755  69.266  1.00  0.00    -0.257 C  
HETATM   13  O   UNL     1     -12.176   6.692  70.852  1.00  0.00    -0.368 OA 
ENDROOT
BRANCH  12  14
HETATM   14  N   UNL     1      -9.874   6.980  68.597  1.00  0.00    -0.145 N  
HETATM   15  C   UNL     1     -10.423   7.415  67.407  1.00  0.00    -0.296 C  
HETATM   16  H   UNL     1      -9.108   7.504  69.022  1.00  0.00     0.000 HD 
HETATM   17  O   UNL     1     -11.397   6.849  66.924  1.00  0.00    -0.269 OA 
BRANCH  15  18
HETATM   18  C   UNL     1      -9.750   8.534  66.775  1.00  0.00    -0.303 A  
HETATM   19  C   UNL     1      -8.844   8.472  65.728  1.00  0.00    -0.190 A  
HETATM   20  C   UNL     1      -8.229   7.410  64.905  1.00  0.00    -0.080 C  
HETATM   21  O   UNL     1      -8.408   9.720  65.439  1.00  0.00    -0.129 OA 
HETATM   22  N   UNL     1      -8.989  10.624  66.284  1.00  0.00    -0.160 NA 
HETATM   23  C   UNL     1      -9.800   9.935  67.107  1.00  0.00    -0.186 A  
BRANCH  23  24
HETATM   24  C   UNL     1     -10.572  10.670  68.121  1.00  0.00    -0.237 A  
HETATM   25  C   UNL     1     -10.963  10.089  69.333  1.00  0.00    -0.280 A  
HETATM   26  C   UNL     1     -11.731  10.805  70.259  1.00  0.00    -0.442 A  
HETATM   27  C   UNL     1     -12.138  12.107  69.977  1.00  0.00    -0.352 A  
HETATM   28  C   UNL     1     -11.771  12.699  68.774  1.00  0.00    -0.364 A  
HETATM   29  C   UNL     1     -10.992  11.987  67.855  1.00  0.00    -0.266 A  
ENDBRANCH  23  24
ENDBRANCH  15  18
ENDBRANCH  12  14
TORSDOF 3
ENDMDL
MODEL       82
REMARK 921   NORMALIZED FREE ENERGY PREDICTED BY IDOCK:   -5.17 KCAL/MOL
REMARK 922        TOTAL FREE ENERGY PREDICTED BY IDOCK:   -6.98 KCAL/MOL
REMARK 923 INTER-LIGAND FREE ENERGY PREDICTED BY IDOCK:   -6.03 KCAL/MOL
REMARK 924 INTRA-LIGAND FREE ENERGY PREDICTED BY IDOCK:   -0.95 KCAL/MOL
REMARK 927      BINDING AFFINITY PREDICTED BY RF-SCORE:    0.00 PKD
ROOT
HETATM    1  C   UNL     1      -8.961  11.889  66.081  1.00  0.00    -0.116 C  
HETATM    2  S   UNL     1     -10.796  11.791  65.975  1.00  0.00    -0.299 SA 
HETATM    3  C   UNL     1     -11.094  12.733  67.539  1.00  0.00    -0.263 C  
HETATM    4  CA  UNL     1      -9.796  13.548  67.773  1.00  0.00    -0.233 C  
HETATM    5  C   UNL     1     -12.386  13.548  67.411  1.00  0.00    -0.131 C  
HETATM    6  C   UNL     1     -11.336  11.701  68.660  1.00  0.00    -0.326 C  
HETATM    7  N   UNL     1      -8.673  12.732  67.262  1.00  0.00    -0.192 N  
HETATM    8  C   UNL     1      -9.740  14.922  67.080  1.00  0.00    -0.228 C  
HETATM    9  OXT UNL     1     -10.585  15.796  67.195  1.00  0.00    -0.305 OA 
HETATM   10  O   UNL     1      -8.595  15.135  66.380  1.00  0.00    -0.251 OA 
HETATM   11  C   UNL     1      -8.190  11.685  68.006  1.00  0.00    -0.146 C  
HETATM   12  CA  UNL     1      -8.228  10.723  66.796  1.00  0.00    -0.135 C  
HETATM   13  O   UNL     1      -8.023  11.592  69.201  1.00  0.00    -0.036 OA 
ENDROOT
BRANCH  12  14
HETATM   14  N   UNL     1      -8.999   9.461  66.970  1.00  0.00    -0.129 N  
HETATM   15  C   UNL     1      -8.426   8.369  67.591  1.00  0.00    -0.130 C  
HETATM   16  H   UNL     1      -9.958   9.403  66.627  1.00  0.00     0.000 HD 
HETATM   17  O   UNL     1      -7.307   8.446  68.084  1.00  0.00    -0.091 OA 
BRANCH  15  18
HETATM   18  C   UNL     1      -9.216   7.153  67.579  1.00  0.00    -0.131 A  
HETATM   19  C   UNL     1      -9.176   6.148  66.626  1.00  0.00    -0.144 A  
HETATM   20  C   UNL     1      -8.438   5.891  65.371  1.00  0.00    -0.153 C  
HETATM   21  O   UNL     1     -10.083   5.195  66.940  1.00  0.00    -0.179 OA 
HETATM   22  N   UNL     1     -10.750   5.546  68.080  1.00  0.00    -0.144 NA 
HETATM   23  C   UNL     1     -10.252   6.728  68.486  1.00  0.00    -0.175 A  
BRANCH  23  24
HETATM   24  C   UNL     1     -10.785   7.339  69.714  1.00  0.00    -0.253 A  
HETATM   25  C   UNL     1     -10.258   8.518  70.254  1.00  0.00    -0.206 A  
HETATM   26  C   UNL     1     -10.764   9.051  71.445  1.00  0.00    -0.401 A  
HETATM   27  C   UNL     1     -11.791   8.402  72.126  1.00  0.00    -0.441 A  
HETATM   28  C   UNL     1     -12.321   7.223  71.613  1.00  0.00    -0.387 A  
HETATM   29  C   UNL     1     -11.824   6.698  70.415  1.00  0.00    -0.407 A  
ENDBRANCH  23  24
ENDBRANCH  15  18
ENDBRANCH  12  14
TORSDOF 3
ENDMDL
MODEL       83
REMARK 921   NORMALIZED FREE ENERGY PREDICTED BY IDOCK:   -5.16 KCAL/MOL
REMARK 922        TOTAL FREE ENERGY PREDICTED BY IDOCK:   -6.97 KCAL/MOL
REMARK 923 INTER-LIGAND FREE ENERGY PREDICTED BY IDOCK:   -6.63 KCAL/MOL
REMARK 924 INTRA-LIGAND FREE ENERGY PREDICTED BY IDOCK:   -0.34 KCAL/MOL
REMARK 927      BINDING AFFINITY PREDICTED BY RF-SCORE:    0.00 PKD
ROOT
HETATM    1  C   UNL     1      -7.896   9.861  67.844  1.00  0.00    -0.090 C  
HETATM    2  S   UNL     1      -8.046   8.042  68.076  1.00  0.00    -0.130 SA 
HETATM    3  C   UNL     1      -8.878   7.745  66.450  1.00  0.00    -0.155 C  
HETATM    4  CA  UNL     1      -8.503   8.969  65.576  1.00  0.00    -0.144 C  
HETATM    5  C   UNL     1      -8.463   6.374  65.903  1.00  0.00    -0.147 C  
HETATM    6  C   UNL     1     -10.396   7.670  66.715  1.00  0.00    -0.343 C  
HETATM    7  N   UNL     1      -8.400  10.134  66.481  1.00  0.00    -0.122 N  
HETATM    8  C   UNL     1      -7.178   8.851  64.799  1.00  0.00    -0.092 C  
HETATM    9  OXT UNL     1      -6.889   7.932  64.048  1.00  0.00    -0.060 OA 
HETATM   10  O   UNL     1      -6.361   9.927  64.945  1.00  0.00    -0.095 OA 
HETATM   11  C   UNL     1      -9.537  10.759  66.927  1.00  0.00    -0.171 C  
HETATM   12  CA  UNL     1      -9.046  10.745  68.394  1.00  0.00    -0.164 C  
HETATM   13  O   UNL     1     -10.570  11.004  66.346  1.00  0.00    -0.257 OA 
ENDROOT
BRANCH  12  14
HETATM   14  N   UNL     1      -9.950  10.112  69.394  1.00  0.00    -0.217 N  
HETATM   15  C   UNL     1     -11.147  10.710  69.736  1.00  0.00    -0.295 C  
HETATM   16  H   UNL     1      -9.682   9.230  69.830  1.00  0.00     0.000 HD 
HETATM   17  O   UNL     1     -11.525  11.725  69.163  1.00  0.00    -0.248 OA 
BRANCH  15  18
HETATM   18  C   UNL     1     -11.877  10.081  70.820  1.00  0.00    -0.435 A  
HETATM   19  C   UNL     1     -12.794  10.688  71.662  1.00  0.00    -0.465 A  
HETATM   20  C   UNL     1     -13.359  12.043  71.833  1.00  0.00    -0.408 C  
HETATM   21  O   UNL     1     -13.236   9.785  72.569  1.00  0.00    -0.338 OA 
HETATM   22  N   UNL     1     -12.620   8.582  72.366  1.00  0.00    -0.377 NA 
HETATM   23  C   UNL     1     -11.788   8.733  71.319  1.00  0.00    -0.303 A  
BRANCH  23  24
HETATM   24  C   UNL     1     -10.999   7.575  70.867  1.00  0.00    -0.267 A  
HETATM   25  C   UNL     1      -9.705   7.321  71.337  1.00  0.00    -0.170 A  
HETATM   26  C   UNL     1      -8.968   6.232  70.856  1.00  0.00    -0.147 A  
HETATM   27  C   UNL     1      -9.506   5.393  69.883  1.00  0.00    -0.210 A  
HETATM   28  C   UNL     1     -10.785   5.635  69.395  1.00  0.00    -0.365 A  
HETATM   29  C   UNL     1     -11.526   6.715  69.885  1.00  0.00    -0.414 A  
ENDBRANCH  23  24
ENDBRANCH  15  18
ENDBRANCH  12  14
TORSDOF 3
ENDMDL
MODEL       84
REMARK 921   NORMALIZED FREE ENERGY PREDICTED BY IDOCK:   -5.14 KCAL/MOL
REMARK 922        TOTAL FREE ENERGY PREDICTED BY IDOCK:   -6.95 KCAL/MOL
REMARK 923 INTER-LIGAND FREE ENERGY PREDICTED BY IDOCK:   -6.11 KCAL/MOL
REMARK 924 INTRA-LIGAND FREE ENERGY PREDICTED BY IDOCK:   -0.84 KCAL/MOL
REMARK 927      BINDING AFFINITY PREDICTED BY RF-SCORE:    0.00 PKD
ROOT
HETATM    1  C   UNL     1      -9.992   7.191  70.086  1.00  0.00    -0.186 C  
HETATM    2  S   UNL     1      -8.163   7.273  69.904  1.00  0.00    -0.134 SA 
HETATM    3  C   UNL     1      -7.928   8.531  71.241  1.00  0.00    -0.132 C  
HETATM    4  CA  UNL     1      -9.193   8.416  72.129  1.00  0.00    -0.243 C  
HETATM    5  C   UNL     1      -6.587   8.290  71.945  1.00  0.00    -0.067 C  
HETATM    6  C   UNL     1      -7.823   9.912  70.561  1.00  0.00     0.046 C  
HETATM    7  N   UNL     1     -10.318   8.061  71.238  1.00  0.00    -0.191 N  
HETATM    8  C   UNL     1      -9.125   7.366  73.253  1.00  0.00    -0.174 C  
HETATM    9  OXT UNL     1      -8.244   7.302  74.096  1.00  0.00    -0.132 OA 
HETATM   10  O   UNL     1     -10.202   6.539  73.295  1.00  0.00    -0.191 OA 
HETATM   11  C   UNL     1     -10.910   9.024  70.460  1.00  0.00    -0.251 C  
HETATM   12  CA  UNL     1     -10.837   8.139  69.195  1.00  0.00    -0.016 C  
HETATM   13  O   UNL     1     -11.169  10.179  70.714  1.00  0.00    -0.321 OA 
ENDROOT
BRANCH  12  14
HETATM   14  N   UNL     1     -10.151   8.723  68.010  1.00  0.00    -0.187 N  
HETATM   15  C   UNL     1     -10.207   8.091  66.783  1.00  0.00    -0.297 C  
HETATM   16  H   UNL     1      -9.635   9.598  68.105  1.00  0.00     0.000 HD 
HETATM   17  O   UNL     1     -10.890   7.085  66.629  1.00  0.00    -0.244 OA 
BRANCH  15  18
HETATM   18  C   UNL     1      -9.388   8.672  65.738  1.00  0.00    -0.227 A  
HETATM   19  C   UNL     1      -8.292   8.088  65.123  1.00  0.00    -0.130 A  
HETATM   20  C   UNL     1      -7.555   6.811  65.234  1.00  0.00    -0.092 C  
HETATM   21  O   UNL     1      -7.769   8.953  64.223  1.00  0.00    -0.110 OA 
HETATM   22  N   UNL     1      -8.480  10.120  64.231  1.00  0.00    -0.167 NA 
HETATM   23  C   UNL     1      -9.461   9.981  65.141  1.00  0.00    -0.270 A  
BRANCH  23  24
HETATM   24  C   UNL     1     -10.400  11.096  65.348  1.00  0.00    -0.331 A  
HETATM   25  C   UNL     1     -10.520  11.756  66.577  1.00  0.00    -0.265 A  
HETATM   26  C   UNL     1     -11.452  12.787  66.750  1.00  0.00    -0.399 A  
HETATM   27  C   UNL     1     -12.292  13.159  65.703  1.00  0.00    -0.519 A  
HETATM   28  C   UNL     1     -12.196  12.508  64.478  1.00  0.00    -0.528 A  
HETATM   29  C   UNL     1     -11.256  11.487  64.302  1.00  0.00    -0.358 A  
ENDBRANCH  23  24
ENDBRANCH  15  18
ENDBRANCH  12  14
TORSDOF 3
ENDMDL
MODEL       85
REMARK 921   NORMALIZED FREE ENERGY PREDICTED BY IDOCK:   -5.14 KCAL/MOL
REMARK 922        TOTAL FREE ENERGY PREDICTED BY IDOCK:   -6.95 KCAL/MOL
REMARK 923 INTER-LIGAND FREE ENERGY PREDICTED BY IDOCK:   -6.00 KCAL/MOL
REMARK 924 INTRA-LIGAND FREE ENERGY PREDICTED BY IDOCK:   -0.95 KCAL/MOL
REMARK 927      BINDING AFFINITY PREDICTED BY RF-SCORE:    0.00 PKD
ROOT
HETATM    1  C   UNL     1     -10.607   5.724  67.176  1.00  0.00    -0.291 C  
HETATM    2  S   UNL     1      -9.482   7.098  66.694  1.00  0.00    -0.157 SA 
HETATM    3  C   UNL     1      -8.166   5.991  66.010  1.00  0.00    -0.125 C  
HETATM    4  CA  UNL     1      -8.890   4.659  65.684  1.00  0.00    -0.131 C  
HETATM    5  C   UNL     1      -7.469   6.684  64.833  1.00  0.00    -0.093 C  
HETATM    6  C   UNL     1      -7.097   5.812  67.108  1.00  0.00    -0.070 C  
HETATM    7  N   UNL     1      -9.957   4.487  66.692  1.00  0.00    -0.225 N  
HETATM    8  C   UNL     1      -9.535   4.577  64.288  1.00  0.00    -0.049 C  
HETATM    9  OXT UNL     1      -8.951   4.788  63.236  1.00  0.00    -0.140 OA 
HETATM   10  O   UNL     1     -10.825   4.150  64.306  1.00  0.00    -0.223 OA 
HETATM   11  C   UNL     1      -9.645   4.047  67.954  1.00  0.00    -0.143 C  
HETATM   12  CA  UNL     1     -10.473   5.171  68.620  1.00  0.00    -0.025 C  
HETATM   13  O   UNL     1      -8.848   3.210  68.312  1.00  0.00    -0.097 OA 
ENDROOT
BRANCH  12  14
HETATM   14  N   UNL     1      -9.759   6.036  69.598  1.00  0.00    -0.149 N  
HETATM   15  C   UNL     1      -9.735   5.707  70.940  1.00  0.00    -0.173 C  
HETATM   16  H   UNL     1      -9.283   6.878  69.276  1.00  0.00     0.000 HD 
HETATM   17  O   UNL     1     -10.228   4.657  71.335  1.00  0.00    -0.192 OA 
BRANCH  15  18
HETATM   18  C   UNL     1      -9.133   6.691  71.818  1.00  0.00    -0.144 A  
HETATM   19  C   UNL     1      -7.946   6.558  72.521  1.00  0.00    -0.104 A  
HETATM   20  C   UNL     1      -6.910   5.517  72.688  1.00  0.00    -0.077 C  
HETATM   21  O   UNL     1      -7.734   7.674  73.258  1.00  0.00    -0.099 OA 
HETATM   22  N   UNL     1      -8.767   8.551  73.081  1.00  0.00    -0.364 NA 
HETATM   23  C   UNL     1      -9.630   7.982  72.221  1.00  0.00    -0.223 A  
BRANCH  23  24
HETATM   24  C   UNL     1     -10.842   8.724  71.835  1.00  0.00    -0.431 A  
HETATM   25  C   UNL     1     -10.814   9.778  70.914  1.00  0.00    -0.399 A  
HETATM   26  C   UNL     1     -11.979  10.488  70.600  1.00  0.00    -0.455 A  
HETATM   27  C   UNL     1     -13.186  10.168  71.218  1.00  0.00    -0.453 A  
HETATM   28  C   UNL     1     -13.233   9.132  72.144  1.00  0.00    -0.524 A  
HETATM   29  C   UNL     1     -12.071   8.414  72.448  1.00  0.00    -0.443 A  
ENDBRANCH  23  24
ENDBRANCH  15  18
ENDBRANCH  12  14
TORSDOF 3
ENDMDL
MODEL       86
REMARK 921   NORMALIZED FREE ENERGY PREDICTED BY IDOCK:   -5.13 KCAL/MOL
REMARK 922        TOTAL FREE ENERGY PREDICTED BY IDOCK:   -6.93 KCAL/MOL
REMARK 923 INTER-LIGAND FREE ENERGY PREDICTED BY IDOCK:   -5.92 KCAL/MOL
REMARK 924 INTRA-LIGAND FREE ENERGY PREDICTED BY IDOCK:   -1.01 KCAL/MOL
REMARK 927      BINDING AFFINITY PREDICTED BY RF-SCORE:    0.00 PKD
ROOT
HETATM    1  C   UNL     1     -10.334  13.173  68.934  1.00  0.00    -0.048 C  
HETATM    2  S   UNL     1      -8.766  13.827  68.228  1.00  0.00    -0.169 SA 
HETATM    3  C   UNL     1      -9.580  14.685  66.805  1.00  0.00    -0.253 C  
HETATM    4  CA  UNL     1     -11.052  14.890  67.247  1.00  0.00    -0.336 C  
HETATM    5  C   UNL     1      -8.799  15.956  66.454  1.00  0.00    -0.368 C  
HETATM    6  C   UNL     1      -9.471  13.752  65.581  1.00  0.00     0.071 C  
HETATM    7  N   UNL     1     -11.416  13.735  68.096  1.00  0.00    -0.293 N  
HETATM    8  C   UNL     1     -11.333  16.176  68.045  1.00  0.00    -0.234 C  
HETATM    9  OXT UNL     1     -11.042  17.304  67.677  1.00  0.00    -0.219 OA 
HETATM   10  O   UNL     1     -12.035  15.967  69.189  1.00  0.00    -0.380 OA 
HETATM   11  C   UNL     1     -11.722  12.528  67.520  1.00  0.00    -0.374 C  
HETATM   12  CA  UNL     1     -10.784  11.760  68.479  1.00  0.00    -0.220 C  
HETATM   13  O   UNL     1     -12.345  12.283  66.512  1.00  0.00    -0.504 OA 
ENDROOT
BRANCH  12  14
HETATM   14  N   UNL     1      -9.742  10.903  67.849  1.00  0.00    -0.163 N  
HETATM   15  C   UNL     1      -9.955   9.549  67.677  1.00  0.00    -0.180 C  
HETATM   16  H   UNL     1      -8.862  11.319  67.542  1.00  0.00     0.000 HD 
HETATM   17  O   UNL     1     -11.036   9.046  67.962  1.00  0.00    -0.101 OA 
BRANCH  15  18
HETATM   18  C   UNL     1      -8.821   8.791  67.185  1.00  0.00    -0.137 A  
HETATM   19  C   UNL     1      -8.070   7.869  67.896  1.00  0.00    -0.129 A  
HETATM   20  C   UNL     1      -8.064   7.323  69.270  1.00  0.00    -0.124 C  
HETATM   21  O   UNL     1      -7.076   7.397  67.108  1.00  0.00    -0.079 OA 
HETATM   22  N   UNL     1      -7.130   7.998  65.881  1.00  0.00    -0.057 NA 
HETATM   23  C   UNL     1      -8.171   8.850  65.901  1.00  0.00    -0.119 A  
BRANCH  23  24
HETATM   24  C   UNL     1      -8.475   9.628  64.689  1.00  0.00    -0.183 A  
HETATM   25  C   UNL     1      -7.500   9.938  63.734  1.00  0.00    -0.136 A  
HETATM   26  C   UNL     1      -7.815  10.714  62.612  1.00  0.00    -0.135 A  
HETATM   27  C   UNL     1      -9.105  11.209  62.439  1.00  0.00    -0.292 A  
HETATM   28  C   UNL     1     -10.086  10.921  63.382  1.00  0.00    -0.398 A  
HETATM   29  C   UNL     1      -9.774  10.135  64.495  1.00  0.00    -0.361 A  
ENDBRANCH  23  24
ENDBRANCH  15  18
ENDBRANCH  12  14
TORSDOF 3
ENDMDL
MODEL       87
REMARK 921   NORMALIZED FREE ENERGY PREDICTED BY IDOCK:   -5.12 KCAL/MOL
REMARK 922        TOTAL FREE ENERGY PREDICTED BY IDOCK:   -6.92 KCAL/MOL
REMARK 923 INTER-LIGAND FREE ENERGY PREDICTED BY IDOCK:   -5.65 KCAL/MOL
REMARK 924 INTRA-LIGAND FREE ENERGY PREDICTED BY IDOCK:   -1.27 KCAL/MOL
REMARK 927      BINDING AFFINITY PREDICTED BY RF-SCORE:    0.00 PKD
ROOT
HETATM    1  C   UNL     1      -8.957  11.857  67.658  1.00  0.00    -0.169 C  
HETATM    2  S   UNL     1      -7.985  10.794  66.513  1.00  0.00    -0.148 SA 
HETATM    3  C   UNL     1      -9.417  10.399  65.410  1.00  0.00    -0.232 C  
HETATM    4  CA  UNL     1     -10.440  11.537  65.656  1.00  0.00    -0.266 C  
HETATM    5  C   UNL     1      -8.926  10.234  63.967  1.00  0.00    -0.261 C  
HETATM    6  C   UNL     1      -9.968   9.025  65.845  1.00  0.00    -0.169 C  
HETATM    7  N   UNL     1     -10.314  11.937  67.074  1.00  0.00    -0.210 N  
HETATM    8  C   UNL     1     -10.256  12.796  64.788  1.00  0.00    -0.281 C  
HETATM    9  OXT UNL     1     -10.194  12.799  63.568  1.00  0.00    -0.367 OA 
HETATM   10  O   UNL     1     -10.259  13.955  65.497  1.00  0.00    -0.311 OA 
HETATM   11  C   UNL     1     -10.883  11.168  68.058  1.00  0.00    -0.225 C  
HETATM   12  CA  UNL     1      -9.586  11.173  68.900  1.00  0.00    -0.142 C  
HETATM   13  O   UNL     1     -11.941  10.582  68.073  1.00  0.00    -0.350 OA 
ENDROOT
BRANCH  12  14
HETATM   14  N   UNL     1      -9.031   9.844  69.278  1.00  0.00    -0.166 N  
HETATM   15  C   UNL     1      -9.433   9.221  70.443  1.00  0.00    -0.246 C  
HETATM   16  H   UNL     1      -8.348   9.390  68.672  1.00  0.00     0.000 HD 
HETATM   17  O   UNL     1     -10.313   9.710  71.142  1.00  0.00    -0.294 OA 
BRANCH  15  18
HETATM   18  C   UNL     1      -8.725   8.001  70.781  1.00  0.00    -0.139 A  
HETATM   19  C   UNL     1      -7.933   7.785  71.898  1.00  0.00    -0.103 A  
HETATM   20  C   UNL     1      -7.498   8.572  73.071  1.00  0.00    -0.042 C  
HETATM   21  O   UNL     1      -7.414   6.536  71.845  1.00  0.00    -0.090 OA 
HETATM   22  N   UNL     1      -7.827   5.909  70.703  1.00  0.00    -0.103 NA 
HETATM   23  C   UNL     1      -8.615   6.773  70.037  1.00  0.00    -0.141 A  
BRANCH  23  24
HETATM   24  C   UNL     1      -9.216   6.347  68.763  1.00  0.00    -0.127 A  
HETATM   25  C   UNL     1     -10.594   6.419  68.523  1.00  0.00    -0.302 A  
HETATM   26  C   UNL     1     -11.137   5.968  67.314  1.00  0.00    -0.247 A  
HETATM   27  C   UNL     1     -10.313   5.420  66.334  1.00  0.00    -0.298 A  
HETATM   28  C   UNL     1      -8.943   5.329  66.557  1.00  0.00    -0.120 A  
HETATM   29  C   UNL     1      -8.400   5.791  67.760  1.00  0.00    -0.104 A  
ENDBRANCH  23  24
ENDBRANCH  15  18
ENDBRANCH  12  14
TORSDOF 3
ENDMDL
MODEL       88
REMARK 921   NORMALIZED FREE ENERGY PREDICTED BY IDOCK:   -5.12 KCAL/MOL
REMARK 922        TOTAL FREE ENERGY PREDICTED BY IDOCK:   -6.92 KCAL/MOL
REMARK 923 INTER-LIGAND FREE ENERGY PREDICTED BY IDOCK:   -6.37 KCAL/MOL
REMARK 924 INTRA-LIGAND FREE ENERGY PREDICTED BY IDOCK:   -0.55 KCAL/MOL
REMARK 927      BINDING AFFINITY PREDICTED BY RF-SCORE:    0.00 PKD
ROOT
HETATM    1  C   UNL     1      -8.056   8.233  66.935  1.00  0.00    -0.103 C  
HETATM    2  S   UNL     1      -9.463   8.776  65.881  1.00  0.00    -0.163 SA 
HETATM    3  C   UNL     1      -8.610  10.291  65.248  1.00  0.00    -0.165 C  
HETATM    4  CA  UNL     1      -7.098  10.014  65.444  1.00  0.00    -0.138 C  
HETATM    5  C   UNL     1      -9.062  10.574  63.811  1.00  0.00    -0.258 C  
HETATM    6  C   UNL     1      -9.094  11.482  66.101  1.00  0.00    -0.217 C  
HETATM    7  N   UNL     1      -6.962   9.192  66.666  1.00  0.00    -0.080 N  
HETATM    8  C   UNL     1      -6.403   9.270  64.289  1.00  0.00    -0.085 C  
HETATM    9  OXT UNL     1      -6.424   9.621  63.120  1.00  0.00    -0.101 OA 
HETATM   10  O   UNL     1      -5.661   8.205  64.692  1.00  0.00    -0.044 OA 
HETATM   11  C   UNL     1      -7.048   9.780  67.903  1.00  0.00    -0.083 C  
HETATM   12  CA  UNL     1      -8.047   8.713  68.410  1.00  0.00    -0.118 C  
HETATM   13  O   UNL     1      -6.626  10.845  68.289  1.00  0.00    -0.057 OA 
ENDROOT
BRANCH  12  14
HETATM   14  N   UNL     1      -9.339   9.214  68.953  1.00  0.00    -0.145 N  
HETATM   15  C   UNL     1      -9.466   9.522  70.293  1.00  0.00    -0.259 C  
HETATM   16  H   UNL     1     -10.139   9.330  68.330  1.00  0.00     0.000 HD 
HETATM   17  O   UNL     1      -8.497   9.469  71.041  1.00  0.00    -0.284 OA 
BRANCH  15  18
HETATM   18  C   UNL     1     -10.804   9.864  70.737  1.00  0.00    -0.387 A  
HETATM   19  C   UNL     1     -11.544   9.216  71.712  1.00  0.00    -0.387 A  
HETATM   20  C   UNL     1     -11.355   8.053  72.606  1.00  0.00    -0.469 C  
HETATM   21  O   UNL     1     -12.758   9.805  71.819  1.00  0.00    -0.370 OA 
HETATM   22  N   UNL     1     -12.859  10.830  70.920  1.00  0.00    -0.360 NA 
HETATM   23  C   UNL     1     -11.695  10.885  70.248  1.00  0.00    -0.347 A  
BRANCH  23  24
HETATM   24  C   UNL     1     -11.520  11.919  69.215  1.00  0.00    -0.366 A  
HETATM   25  C   UNL     1     -11.049  13.203  69.513  1.00  0.00    -0.067 A  
HETATM   26  C   UNL     1     -10.932  14.175  68.512  1.00  0.00    -0.271 A  
HETATM   27  C   UNL     1     -11.305  13.884  67.202  1.00  0.00    -0.346 A  
HETATM   28  C   UNL     1     -11.787  12.618  66.887  1.00  0.00    -0.425 A  
HETATM   29  C   UNL     1     -11.891  11.644  67.885  1.00  0.00    -0.273 A  
ENDBRANCH  23  24
ENDBRANCH  15  18
ENDBRANCH  12  14
TORSDOF 3
ENDMDL
MODEL       89
REMARK 921   NORMALIZED FREE ENERGY PREDICTED BY IDOCK:   -5.11 KCAL/MOL
REMARK 922        TOTAL FREE ENERGY PREDICTED BY IDOCK:   -6.91 KCAL/MOL
REMARK 923 INTER-LIGAND FREE ENERGY PREDICTED BY IDOCK:   -6.21 KCAL/MOL
REMARK 924 INTRA-LIGAND FREE ENERGY PREDICTED BY IDOCK:   -0.70 KCAL/MOL
REMARK 927      BINDING AFFINITY PREDICTED BY RF-SCORE:    0.00 PKD
ROOT
HETATM    1  C   UNL     1      -8.282   6.741  67.803  1.00  0.00    -0.120 C  
HETATM    2  S   UNL     1      -8.484   6.853  69.629  1.00  0.00    -0.134 SA 
HETATM    3  C   UNL     1      -9.355   5.228  69.791  1.00  0.00    -0.134 C  
HETATM    4  CA  UNL     1      -8.959   4.431  68.521  1.00  0.00    -0.115 C  
HETATM    5  C   UNL     1      -8.992   4.581  71.132  1.00  0.00    -0.168 C  
HETATM    6  C   UNL     1     -10.869   5.520  69.840  1.00  0.00    -0.298 C  
HETATM    7  N   UNL     1      -8.804   5.410  67.424  1.00  0.00    -0.107 N  
HETATM    8  C   UNL     1      -7.653   3.621  68.624  1.00  0.00    -0.053 C  
HETATM    9  OXT UNL     1      -7.407   2.804  69.498  1.00  0.00    -0.044 OA 
HETATM   10  O   UNL     1      -6.802   3.822  67.585  1.00  0.00    -0.049 OA 
HETATM   11  C   UNL     1      -9.913   5.922  66.798  1.00  0.00    -0.175 C  
HETATM   12  CA  UNL     1      -9.395   7.373  66.926  1.00  0.00    -0.157 C  
HETATM   13  O   UNL     1     -10.949   5.380  66.484  1.00  0.00    -0.239 OA 
ENDROOT
BRANCH  12  14
HETATM   14  N   UNL     1     -10.298   8.347  67.599  1.00  0.00    -0.242 N  
HETATM   15  C   UNL     1      -9.823   9.577  68.010  1.00  0.00    -0.155 C  
HETATM   16  H   UNL     1     -11.276   8.104  67.758  1.00  0.00     0.000 HD 
HETATM   17  O   UNL     1      -8.675   9.921  67.755  1.00  0.00    -0.128 OA 
BRANCH  15  18
HETATM   18  C   UNL     1     -10.751  10.385  68.778  1.00  0.00    -0.255 A  
HETATM   19  C   UNL     1     -11.474  11.475  68.321  1.00  0.00    -0.299 A  
HETATM   20  C   UNL     1     -11.609  12.214  67.048  1.00  0.00    -0.406 C  
HETATM   21  O   UNL     1     -12.203  11.988  69.339  1.00  0.00    -0.216 OA 
HETATM   22  N   UNL     1     -11.971  11.276  70.482  1.00  0.00    -0.364 NA 
HETATM   23  C   UNL     1     -11.093  10.304  70.175  1.00  0.00    -0.319 A  
BRANCH  23  24
HETATM   24  C   UNL     1     -10.673   9.367  71.229  1.00  0.00    -0.421 A  
HETATM   25  C   UNL     1      -9.332   9.201  71.595  1.00  0.00    -0.132 A  
HETATM   26  C   UNL     1      -8.965   8.272  72.575  1.00  0.00    -0.305 A  
HETATM   27  C   UNL     1      -9.931   7.478  73.190  1.00  0.00    -0.344 A  
HETATM   28  C   UNL     1     -11.268   7.619  72.833  1.00  0.00    -0.426 A  
HETATM   29  C   UNL     1     -11.635   8.558  71.863  1.00  0.00    -0.410 A  
ENDBRANCH  23  24
ENDBRANCH  15  18
ENDBRANCH  12  14
TORSDOF 3
ENDMDL
MODEL       90
REMARK 921   NORMALIZED FREE ENERGY PREDICTED BY IDOCK:   -5.08 KCAL/MOL
REMARK 922        TOTAL FREE ENERGY PREDICTED BY IDOCK:   -6.87 KCAL/MOL
REMARK 923 INTER-LIGAND FREE ENERGY PREDICTED BY IDOCK:   -6.05 KCAL/MOL
REMARK 924 INTRA-LIGAND FREE ENERGY PREDICTED BY IDOCK:   -0.83 KCAL/MOL
REMARK 927      BINDING AFFINITY PREDICTED BY RF-SCORE:    0.00 PKD
ROOT
HETATM    1  C   UNL     1      -9.300  12.436  68.273  1.00  0.00    -0.199 C  
HETATM    2  S   UNL     1      -9.040  12.706  66.472  1.00  0.00    -0.105 SA 
HETATM    3  C   UNL     1     -10.728  13.403  66.172  1.00  0.00    -0.284 C  
HETATM    4  CA  UNL     1     -11.208  13.904  67.557  1.00  0.00    -0.303 C  
HETATM    5  C   UNL     1     -10.660  14.456  65.060  1.00  0.00    -0.452 C  
HETATM    6  C   UNL     1     -11.610  12.257  65.635  1.00  0.00    -0.433 C  
HETATM    7  N   UNL     1     -10.638  12.992  68.571  1.00  0.00    -0.255 N  
HETATM    8  C   UNL     1     -10.797  15.342  67.924  1.00  0.00    -0.288 C  
HETATM    9  OXT UNL     1     -11.011  16.326  67.234  1.00  0.00    -0.264 OA 
HETATM   10  O   UNL     1     -10.238  15.452  69.158  1.00  0.00    -0.214 OA 
HETATM   11  C   UNL     1     -11.204  11.760  68.784  1.00  0.00    -0.251 C  
HETATM   12  CA  UNL     1      -9.833  11.047  68.713  1.00  0.00    -0.198 C  
HETATM   13  O   UNL     1     -12.368  11.431  68.802  1.00  0.00    -0.480 OA 
ENDROOT
BRANCH  12  14
HETATM   14  N   UNL     1      -9.706   9.943  67.722  1.00  0.00    -0.148 N  
HETATM   15  C   UNL     1      -8.585   9.136  67.711  1.00  0.00    -0.121 C  
HETATM   16  H   UNL     1     -10.452   9.781  67.046  1.00  0.00     0.000 HD 
HETATM   17  O   UNL     1      -7.716   9.259  68.567  1.00  0.00    -0.084 OA 
BRANCH  15  18
HETATM   18  C   UNL     1      -8.504   8.187  66.617  1.00  0.00    -0.129 A  
HETATM   19  C   UNL     1      -8.194   8.470  65.296  1.00  0.00    -0.149 A  
HETATM   20  C   UNL     1      -7.866   9.676  64.508  1.00  0.00    -0.134 C  
HETATM   21  O   UNL     1      -8.252   7.331  64.568  1.00  0.00    -0.107 OA 
HETATM   22  N   UNL     1      -8.614   6.284  65.369  1.00  0.00    -0.129 NA 
HETATM   23  C   UNL     1      -8.780   6.773  66.612  1.00  0.00    -0.127 A  
BRANCH  23  24
HETATM   24  C   UNL     1      -9.160   5.850  67.693  1.00  0.00    -0.106 A  
HETATM   25  C   UNL     1     -10.003   6.232  68.743  1.00  0.00    -0.173 A  
HETATM   26  C   UNL     1     -10.313   5.339  69.776  1.00  0.00    -0.369 A  
HETATM   27  C   UNL     1      -9.768   4.057  69.786  1.00  0.00    -0.254 A  
HETATM   28  C   UNL     1      -8.919   3.662  68.758  1.00  0.00    -0.181 A  
HETATM   29  C   UNL     1      -8.620   4.550  67.719  1.00  0.00    -0.107 A  
ENDBRANCH  23  24
ENDBRANCH  15  18
ENDBRANCH  12  14
TORSDOF 3
ENDMDL
MODEL       91
REMARK 921   NORMALIZED FREE ENERGY PREDICTED BY IDOCK:   -5.03 KCAL/MOL
REMARK 922        TOTAL FREE ENERGY PREDICTED BY IDOCK:   -6.82 KCAL/MOL
REMARK 923 INTER-LIGAND FREE ENERGY PREDICTED BY IDOCK:   -5.86 KCAL/MOL
REMARK 924 INTRA-LIGAND FREE ENERGY PREDICTED BY IDOCK:   -0.96 KCAL/MOL
REMARK 927      BINDING AFFINITY PREDICTED BY RF-SCORE:    0.00 PKD
ROOT
HETATM    1  C   UNL     1     -10.636   6.733  70.232  1.00  0.00    -0.215 C  
HETATM    2  S   UNL     1      -8.806   6.669  70.411  1.00  0.00    -0.152 SA 
HETATM    3  C   UNL     1      -8.810   7.078  72.216  1.00  0.00    -0.132 C  
HETATM    4  CA  UNL     1     -10.230   6.702  72.711  1.00  0.00    -0.187 C  
HETATM    5  C   UNL     1      -7.644   6.364  72.908  1.00  0.00    -0.095 C  
HETATM    6  C   UNL     1      -8.536   8.591  72.346  1.00  0.00    -0.222 C  
HETATM    7  N   UNL     1     -11.164   6.965  71.595  1.00  0.00    -0.240 N  
HETATM    8  C   UNL     1     -10.415   5.237  73.151  1.00  0.00    -0.212 C  
HETATM    9  OXT UNL     1      -9.722   4.665  73.978  1.00  0.00    -0.129 OA 
HETATM   10  O   UNL     1     -11.500   4.634  72.601  1.00  0.00    -0.036 OA 
HETATM   11  C   UNL     1     -11.563   8.249  71.321  1.00  0.00    -0.281 C  
HETATM   12  CA  UNL     1     -11.262   8.090  69.813  1.00  0.00     0.024 C  
HETATM   13  O   UNL     1     -11.837   9.156  72.074  1.00  0.00    -0.365 OA 
ENDROOT
BRANCH  12  14
HETATM   14  N   UNL     1     -10.338   9.088  69.208  1.00  0.00    -0.215 N  
HETATM   15  C   UNL     1     -10.201   9.177  67.837  1.00  0.00    -0.216 C  
HETATM   16  H   UNL     1      -9.801   9.711  69.811  1.00  0.00     0.000 HD 
HETATM   17  O   UNL     1     -10.898   8.496  67.093  1.00  0.00    -0.216 OA 
BRANCH  15  18
HETATM   18  C   UNL     1      -9.172  10.084  67.365  1.00  0.00    -0.153 A  
HETATM   19  C   UNL     1      -7.802   9.892  67.439  1.00  0.00    -0.098 A  
HETATM   20  C   UNL     1      -6.892   8.850  67.959  1.00  0.00    -0.070 C  
HETATM   21  O   UNL     1      -7.169  10.973  66.926  1.00  0.00    -0.117 OA 
HETATM   22  N   UNL     1      -8.088  11.902  66.523  1.00  0.00    -0.061 NA 
HETATM   23  C   UNL     1      -9.307  11.394  66.781  1.00  0.00    -0.180 A  
BRANCH  23  24
HETATM   24  C   UNL     1     -10.495  12.187  66.429  1.00  0.00    -0.261 A  
HETATM   25  C   UNL     1     -10.971  13.226  67.238  1.00  0.00    -0.284 A  
HETATM   26  C   UNL     1     -12.127  13.934  66.891  1.00  0.00    -0.467 A  
HETATM   27  C   UNL     1     -12.839  13.601  65.741  1.00  0.00    -0.390 A  
HETATM   28  C   UNL     1     -12.390  12.564  64.930  1.00  0.00    -0.539 A  
HETATM   29  C   UNL     1     -11.227  11.866  65.269  1.00  0.00    -0.351 A  
ENDBRANCH  23  24
ENDBRANCH  15  18
ENDBRANCH  12  14
TORSDOF 3
ENDMDL
MODEL       92
REMARK 921   NORMALIZED FREE ENERGY PREDICTED BY IDOCK:   -5.02 KCAL/MOL
REMARK 922        TOTAL FREE ENERGY PREDICTED BY IDOCK:   -6.81 KCAL/MOL
REMARK 923 INTER-LIGAND FREE ENERGY PREDICTED BY IDOCK:   -5.69 KCAL/MOL
REMARK 924 INTRA-LIGAND FREE ENERGY PREDICTED BY IDOCK:   -1.12 KCAL/MOL
REMARK 927      BINDING AFFINITY PREDICTED BY RF-SCORE:    0.00 PKD
ROOT
HETATM    1  C   UNL     1      -9.425  12.927  68.187  1.00  0.00    -0.218 C  
HETATM    2  S   UNL     1      -9.363  12.679  66.365  1.00  0.00    -0.153 SA 
HETATM    3  C   UNL     1     -10.916  13.625  66.024  1.00  0.00    -0.286 C  
HETATM    4  CA  UNL     1     -11.105  14.546  67.257  1.00  0.00    -0.312 C  
HETATM    5  C   UNL     1     -10.803  14.329  64.667  1.00  0.00    -0.384 C  
HETATM    6  C   UNL     1     -12.061  12.599  65.891  1.00  0.00    -0.459 C  
HETATM    7  N   UNL     1     -10.583  13.814  68.430  1.00  0.00    -0.247 N  
HETATM    8  C   UNL     1     -10.386  15.907  67.186  1.00  0.00    -0.300 C  
HETATM    9  OXT UNL     1     -10.504  16.711  66.274  1.00  0.00    -0.306 OA 
HETATM   10  O   UNL     1      -9.656  16.198  68.294  1.00  0.00    -0.210 OA 
HETATM   11  C   UNL     1     -11.335  12.825  69.013  1.00  0.00    -0.294 C  
HETATM   12  CA  UNL     1     -10.143  11.840  69.028  1.00  0.00     0.018 C  
HETATM   13  O   UNL     1     -12.527  12.770  69.213  1.00  0.00     0.019 OA 
ENDROOT
BRANCH  12  14
HETATM   14  N   UNL     1     -10.358  10.523  68.367  1.00  0.00    -0.168 N  
HETATM   15  C   UNL     1      -9.890   9.361  68.947  1.00  0.00    -0.171 C  
HETATM   16  H   UNL     1     -10.856  10.479  67.477  1.00  0.00     0.000 HD 
HETATM   17  O   UNL     1      -9.365   9.383  70.055  1.00  0.00    -0.192 OA 
BRANCH  15  18
HETATM   18  C   UNL     1     -10.031   8.158  68.149  1.00  0.00    -0.219 A  
HETATM   19  C   UNL     1     -10.723   7.009  68.498  1.00  0.00    -0.179 A  
HETATM   20  C   UNL     1     -11.505   6.540  69.662  1.00  0.00    -0.417 C  
HETATM   21  O   UNL     1     -10.596   6.092  67.510  1.00  0.00    -0.205 OA 
HETATM   22  N   UNL     1      -9.815   6.594  66.507  1.00  0.00    -0.143 NA 
HETATM   23  C   UNL     1      -9.453   7.839  66.869  1.00  0.00    -0.187 A  
BRANCH  23  24
HETATM   24  C   UNL     1      -8.611   8.627  65.955  1.00  0.00    -0.177 A  
HETATM   25  C   UNL     1      -9.018   8.953  64.655  1.00  0.00    -0.042 A  
HETATM   26  C   UNL     1      -8.175   9.671  63.799  1.00  0.00    -0.162 A  
HETATM   27  C   UNL     1      -6.904  10.056  64.221  1.00  0.00    -0.126 A  
HETATM   28  C   UNL     1      -6.477   9.732  65.504  1.00  0.00    -0.084 A  
HETATM   29  C   UNL     1      -7.325   9.026  66.364  1.00  0.00    -0.088 A  
ENDBRANCH  23  24
ENDBRANCH  15  18
ENDBRANCH  12  14
TORSDOF 3
ENDMDL
MODEL       93
REMARK 921   NORMALIZED FREE ENERGY PREDICTED BY IDOCK:   -4.99 KCAL/MOL
REMARK 922        TOTAL FREE ENERGY PREDICTED BY IDOCK:   -6.77 KCAL/MOL
REMARK 923 INTER-LIGAND FREE ENERGY PREDICTED BY IDOCK:   -6.45 KCAL/MOL
REMARK 924 INTRA-LIGAND FREE ENERGY PREDICTED BY IDOCK:   -0.32 KCAL/MOL
REMARK 927      BINDING AFFINITY PREDICTED BY RF-SCORE:    0.00 PKD
ROOT
HETATM    1  C   UNL     1     -10.018  13.016  67.729  1.00  0.00    -0.227 C  
HETATM    2  S   UNL     1      -9.066  12.420  66.273  1.00  0.00    -0.024 SA 
HETATM    3  C   UNL     1     -10.542  11.746  65.383  1.00  0.00    -0.277 C  
HETATM    4  CA  UNL     1     -11.755  12.498  65.989  1.00  0.00    -0.417 C  
HETATM    5  C   UNL     1     -10.344  11.894  63.870  1.00  0.00    -0.426 C  
HETATM    6  C   UNL     1     -10.601  10.232  65.671  1.00  0.00    -0.044 C  
HETATM    7  N   UNL     1     -11.440  12.757  67.410  1.00  0.00    -0.319 N  
HETATM    8  C   UNL     1     -12.102  13.844  65.325  1.00  0.00    -0.410 C  
HETATM    9  OXT UNL     1     -12.304  14.001  64.131  1.00  0.00    -0.620 OA 
HETATM   10  O   UNL     1     -12.261  14.864  66.208  1.00  0.00    -0.104 OA 
HETATM   11  C   UNL     1     -11.560  11.751  68.335  1.00  0.00    -0.318 C  
HETATM   12  CA  UNL     1     -10.163  12.043  68.930  1.00  0.00    -0.058 C  
HETATM   13  O   UNL     1     -12.396  10.882  68.435  1.00  0.00    -0.477 OA 
ENDROOT
BRANCH  12  14
HETATM   14  N   UNL     1      -9.207  10.903  68.979  1.00  0.00    -0.324 N  
HETATM   15  C   UNL     1      -9.322   9.932  69.954  1.00  0.00    -0.216 C  
HETATM   16  H   UNL     1      -8.460  10.838  68.286  1.00  0.00     0.000 HD 
HETATM   17  O   UNL     1     -10.260   9.945  70.743  1.00  0.00    -0.240 OA 
BRANCH  15  18
HETATM   18  C   UNL     1      -8.255   8.949  69.992  1.00  0.00    -0.122 A  
HETATM   19  C   UNL     1      -7.086   8.967  69.248  1.00  0.00    -0.058 A  
HETATM   20  C   UNL     1      -6.479   9.845  68.226  1.00  0.00    -0.055 C  
HETATM   21  O   UNL     1      -6.357   7.863  69.534  1.00  0.00    -0.033 OA 
HETATM   22  N   UNL     1      -7.021   7.089  70.444  1.00  0.00    -0.061 NA 
HETATM   23  C   UNL     1      -8.174   7.717  70.734  1.00  0.00    -0.107 A  
BRANCH  23  24
HETATM   24  C   UNL     1      -9.089   7.106  71.711  1.00  0.00    -0.146 A  
HETATM   25  C   UNL     1      -9.093   7.468  73.063  1.00  0.00    -0.222 A  
HETATM   26  C   UNL     1      -9.950   6.837  73.973  1.00  0.00    -0.367 A  
HETATM   27  C   UNL     1     -10.802   5.820  73.548  1.00  0.00    -0.272 A  
HETATM   28  C   UNL     1     -10.805   5.437  72.212  1.00  0.00    -0.286 A  
HETATM   29  C   UNL     1      -9.958   6.077  71.301  1.00  0.00    -0.223 A  
ENDBRANCH  23  24
ENDBRANCH  15  18
ENDBRANCH  12  14
TORSDOF 3
ENDMDL
MODEL       94
REMARK 921   NORMALIZED FREE ENERGY PREDICTED BY IDOCK:   -4.97 KCAL/MOL
REMARK 922        TOTAL FREE ENERGY PREDICTED BY IDOCK:   -6.75 KCAL/MOL
REMARK 923 INTER-LIGAND FREE ENERGY PREDICTED BY IDOCK:   -6.20 KCAL/MOL
REMARK 924 INTRA-LIGAND FREE ENERGY PREDICTED BY IDOCK:   -0.55 KCAL/MOL
REMARK 927      BINDING AFFINITY PREDICTED BY RF-SCORE:    0.00 PKD
ROOT
HETATM    1  C   UNL     1      -8.575   9.379  69.638  1.00  0.00    -0.168 C  
HETATM    2  S   UNL     1     -10.238   8.708  69.226  1.00  0.00    -0.213 SA 
HETATM    3  C   UNL     1      -9.675   7.813  67.707  1.00  0.00    -0.153 C  
HETATM    4  CA  UNL     1      -8.149   7.619  67.896  1.00  0.00    -0.123 C  
HETATM    5  C   UNL     1     -10.500   6.533  67.528  1.00  0.00    -0.297 C  
HETATM    6  C   UNL     1      -9.996   8.714  66.497  1.00  0.00    -0.353 C  
HETATM    7  N   UNL     1      -7.650   8.795  68.641  1.00  0.00    -0.095 N  
HETATM    8  C   UNL     1      -7.730   6.354  68.667  1.00  0.00    -0.101 C  
HETATM    9  OXT UNL     1      -8.075   5.217  68.383  1.00  0.00    -0.090 OA 
HETATM   10  O   UNL     1      -6.843   6.592  69.669  1.00  0.00    -0.054 OA 
HETATM   11  C   UNL     1      -7.452   9.987  67.991  1.00  0.00    -0.088 C  
HETATM   12  CA  UNL     1      -8.216  10.780  69.077  1.00  0.00    -0.138 C  
HETATM   13  O   UNL     1      -7.012  10.206  66.885  1.00  0.00    -0.086 OA 
ENDROOT
BRANCH  12  14
HETATM   14  N   UNL     1      -9.354  11.621  68.613  1.00  0.00    -0.334 N  
HETATM   15  C   UNL     1      -9.205  12.986  68.468  1.00  0.00    -0.062 C  
HETATM   16  H   UNL     1     -10.251  11.185  68.400  1.00  0.00     0.000 HD 
HETATM   17  O   UNL     1      -8.113  13.518  68.638  1.00  0.00    -0.133 OA 
BRANCH  15  18
HETATM   18  C   UNL     1     -10.414  13.720  68.148  1.00  0.00    -0.252 A  
HETATM   19  C   UNL     1     -10.566  14.670  67.150  1.00  0.00    -0.282 A  
HETATM   20  C   UNL     1      -9.707  15.288  66.118  1.00  0.00    -0.343 C  
HETATM   21  O   UNL     1     -11.829  15.157  67.184  1.00  0.00    -0.233 OA 
HETATM   22  N   UNL     1     -12.528  14.567  68.199  1.00  0.00     0.082 NA 
HETATM   23  C   UNL     1     -11.696  13.699  68.803  1.00  0.00    -0.348 A  
BRANCH  23  24
HETATM   24  C   UNL     1     -12.199  12.905  69.936  1.00  0.00    -0.258 A  
HETATM   25  C   UNL     1     -12.253  11.507  69.906  1.00  0.00    -0.328 A  
HETATM   26  C   UNL     1     -12.775  10.785  70.986  1.00  0.00    -0.513 A  
HETATM   27  C   UNL     1     -13.269  11.451  72.105  1.00  0.00    -0.293 A  
HETATM   28  C   UNL     1     -13.235  12.841  72.150  1.00  0.00    -0.546 A  
HETATM   29  C   UNL     1     -12.702  13.561  71.076  1.00  0.00    -0.399 A  
ENDBRANCH  23  24
ENDBRANCH  15  18
ENDBRANCH  12  14
TORSDOF 3
ENDMDL
MODEL       95
REMARK 921   NORMALIZED FREE ENERGY PREDICTED BY IDOCK:   -4.94 KCAL/MOL
REMARK 922        TOTAL FREE ENERGY PREDICTED BY IDOCK:   -6.71 KCAL/MOL
REMARK 923 INTER-LIGAND FREE ENERGY PREDICTED BY IDOCK:   -5.49 KCAL/MOL
REMARK 924 INTRA-LIGAND FREE ENERGY PREDICTED BY IDOCK:   -1.22 KCAL/MOL
REMARK 927      BINDING AFFINITY PREDICTED BY RF-SCORE:    0.00 PKD
ROOT
HETATM    1  C   UNL     1     -10.582   7.936  68.827  1.00  0.00    -0.127 C  
HETATM    2  S   UNL     1     -10.974   6.874  67.376  1.00  0.00    -0.266 SA 
HETATM    3  C   UNL     1      -9.295   6.100  67.291  1.00  0.00    -0.114 C  
HETATM    4  CA  UNL     1      -8.694   6.284  68.708  1.00  0.00    -0.121 C  
HETATM    5  C   UNL     1      -9.419   4.655  66.794  1.00  0.00    -0.172 C  
HETATM    6  C   UNL     1      -8.490   6.864  66.219  1.00  0.00    -0.131 C  
HETATM    7  N   UNL     1      -9.210   7.565  69.236  1.00  0.00    -0.145 N  
HETATM    8  C   UNL     1      -9.035   5.177  69.724  1.00  0.00    -0.110 C  
HETATM    9  OXT UNL     1      -8.847   3.984  69.545  1.00  0.00    -0.079 OA 
HETATM   10  O   UNL     1      -9.493   5.650  70.912  1.00  0.00    -0.160 OA 
HETATM   11  C   UNL     1      -8.665   8.751  68.814  1.00  0.00    -0.137 C  
HETATM   12  CA  UNL     1     -10.056   9.367  68.538  1.00  0.00    -0.187 C  
HETATM   13  O   UNL     1      -7.512   9.040  68.584  1.00  0.00    -0.081 OA 
ENDROOT
BRANCH  12  14
HETATM   14  N   UNL     1     -10.292   9.896  67.167  1.00  0.00    -0.231 N  
HETATM   15  C   UNL     1     -10.079  11.231  66.883  1.00  0.00    -0.212 C  
HETATM   16  H   UNL     1     -10.613   9.268  66.430  1.00  0.00     0.000 HD 
HETATM   17  O   UNL     1      -9.613  11.984  67.731  1.00  0.00    -0.183 OA 
BRANCH  15  18
HETATM   18  C   UNL     1     -10.474  11.663  65.556  1.00  0.00    -0.321 A  
HETATM   19  C   UNL     1     -11.463  12.583  65.245  1.00  0.00    -0.333 A  
HETATM   20  C   UNL     1     -12.430  13.412  65.995  1.00  0.00    -0.431 C  
HETATM   21  O   UNL     1     -11.562  12.696  63.900  1.00  0.00    -0.378 OA 
HETATM   22  N   UNL     1     -10.670  11.856  63.295  1.00  0.00    -0.385 NA 
HETATM   23  C   UNL     1     -10.003  11.214  64.271  1.00  0.00    -0.306 A  
BRANCH  23  24
HETATM   24  C   UNL     1      -8.957  10.247  63.899  1.00  0.00    -0.259 A  
HETATM   25  C   UNL     1      -7.730  10.176  64.568  1.00  0.00    -0.138 A  
HETATM   26  C   UNL     1      -6.742   9.270  64.162  1.00  0.00    -0.091 A  
HETATM   27  C   UNL     1      -6.959   8.436  63.067  1.00  0.00    -0.090 A  
HETATM   28  C   UNL     1      -8.168   8.499  62.382  1.00  0.00    -0.184 A  
HETATM   29  C   UNL     1      -9.159   9.395  62.797  1.00  0.00    -0.119 A  
ENDBRANCH  23  24
ENDBRANCH  15  18
ENDBRANCH  12  14
TORSDOF 3
ENDMDL
MODEL       96
REMARK 921   NORMALIZED FREE ENERGY PREDICTED BY IDOCK:   -4.94 KCAL/MOL
REMARK 922        TOTAL FREE ENERGY PREDICTED BY IDOCK:   -6.71 KCAL/MOL
REMARK 923 INTER-LIGAND FREE ENERGY PREDICTED BY IDOCK:   -6.28 KCAL/MOL
REMARK 924 INTRA-LIGAND FREE ENERGY PREDICTED BY IDOCK:   -0.43 KCAL/MOL
REMARK 927      BINDING AFFINITY PREDICTED BY RF-SCORE:    0.00 PKD
ROOT
HETATM    1  C   UNL     1     -11.275  14.104  67.101  1.00  0.00    -0.317 C  
HETATM    2  S   UNL     1     -12.012  15.337  68.251  1.00  0.00     0.003 SA 
HETATM    3  C   UNL     1     -10.386  15.995  68.840  1.00  0.00    -0.235 C  
HETATM    4  CA  UNL     1      -9.374  15.622  67.727  1.00  0.00    -0.202 C  
HETATM    5  C   UNL     1     -10.520  17.489  69.157  1.00  0.00    -0.190 C  
HETATM    6  C   UNL     1     -10.061  15.292  70.174  1.00  0.00    -0.116 C  
HETATM    7  N   UNL     1      -9.814  14.333  67.153  1.00  0.00    -0.247 N  
HETATM    8  C   UNL     1      -9.247  16.638  66.576  1.00  0.00    -0.270 C  
HETATM    9  OXT UNL     1      -9.008  17.827  66.719  1.00  0.00    -0.245 OA 
HETATM   10  O   UNL     1      -9.333  16.078  65.342  1.00  0.00    -0.339 OA 
HETATM   11  C   UNL     1      -9.562  13.161  67.821  1.00  0.00    -0.208 C  
HETATM   12  CA  UNL     1     -11.021  12.678  67.657  1.00  0.00    -0.241 C  
HETATM   13  O   UNL     1      -8.585  12.817  68.448  1.00  0.00    -0.177 OA 
ENDROOT
BRANCH  12  14
HETATM   14  N   UNL     1     -11.748  12.312  68.904  1.00  0.00    -0.313 N  
HETATM   15  C   UNL     1     -11.310  11.265  69.691  1.00  0.00    -0.287 C  
HETATM   16  H   UNL     1     -12.577  12.840  69.179  1.00  0.00     0.000 HD 
HETATM   17  O   UNL     1     -10.270  10.674  69.422  1.00  0.00    -0.220 OA 
BRANCH  15  18
HETATM   18  C   UNL     1     -12.172  10.909  70.801  1.00  0.00    -0.483 A  
HETATM   19  C   UNL     1     -12.513   9.629  71.208  1.00  0.00    -0.355 A  
HETATM   20  C   UNL     1     -12.217   8.250  70.766  1.00  0.00    -0.001 C  
HETATM   21  O   UNL     1     -13.364   9.704  72.257  1.00  0.00    -0.438 OA 
HETATM   22  N   UNL     1     -13.620  11.013  72.557  1.00  0.00     0.304 NA 
HETATM   23  C   UNL     1     -12.918  11.764  71.689  1.00  0.00    -0.362 A  
BRANCH  23  24
HETATM   24  C   UNL     1     -12.996  13.230  71.794  1.00  0.00    -0.430 A  
HETATM   25  C   UNL     1     -12.040  13.984  72.485  1.00  0.00     0.334 A  
HETATM   26  C   UNL     1     -12.167  15.374  72.598  1.00  0.00    -0.516 A  
HETATM   27  C   UNL     1     -13.264  16.028  72.041  1.00  0.00    -0.203 A  
HETATM   28  C   UNL     1     -14.230  15.296  71.361  1.00  0.00    -0.589 A  
HETATM   29  C   UNL     1     -14.096  13.909  71.236  1.00  0.00     0.060 A  
ENDBRANCH  23  24
ENDBRANCH  15  18
ENDBRANCH  12  14
TORSDOF 3
ENDMDL
MODEL       97
REMARK 921   NORMALIZED FREE ENERGY PREDICTED BY IDOCK:   -4.91 KCAL/MOL
REMARK 922        TOTAL FREE ENERGY PREDICTED BY IDOCK:   -6.68 KCAL/MOL
REMARK 923 INTER-LIGAND FREE ENERGY PREDICTED BY IDOCK:   -5.93 KCAL/MOL
REMARK 924 INTRA-LIGAND FREE ENERGY PREDICTED BY IDOCK:   -0.75 KCAL/MOL
REMARK 927      BINDING AFFINITY PREDICTED BY RF-SCORE:    0.00 PKD
ROOT
HETATM    1  C   UNL     1      -9.014   6.178  67.258  1.00  0.00    -0.112 C  
HETATM    2  S   UNL     1      -8.116   7.544  68.102  1.00  0.00    -0.125 SA 
HETATM    3  C   UNL     1      -6.449   6.757  67.946  1.00  0.00    -0.050 C  
HETATM    4  CA  UNL     1      -6.586   5.752  66.773  1.00  0.00    -0.056 C  
HETATM    5  C   UNL     1      -5.380   7.843  67.780  1.00  0.00    -0.032 C  
HETATM    6  C   UNL     1      -6.148   6.046  69.282  1.00  0.00    -0.029 C  
HETATM    7  N   UNL     1      -7.970   5.232  66.807  1.00  0.00    -0.104 N  
HETATM    8  C   UNL     1      -6.328   6.329  65.369  1.00  0.00    -0.038 C  
HETATM    9  OXT UNL     1      -5.320   6.934  65.039  1.00  0.00    -0.026 OA 
HETATM   10  O   UNL     1      -7.297   6.025  64.467  1.00  0.00    -0.060 OA 
HETATM   11  C   UNL     1      -8.320   4.267  67.718  1.00  0.00    -0.098 C  
HETATM   12  CA  UNL     1      -9.585   5.045  68.151  1.00  0.00    -0.138 C  
HETATM   13  O   UNL     1      -7.699   3.306  68.111  1.00  0.00    -0.059 OA 
ENDROOT
BRANCH  12  14
HETATM   14  N   UNL     1      -9.718   5.348  69.602  1.00  0.00    -0.162 N  
HETATM   15  C   UNL     1     -10.837   5.998  70.084  1.00  0.00    -0.339 C  
HETATM   16  H   UNL     1      -8.977   5.072  70.247  1.00  0.00     0.000 HD 
HETATM   17  O   UNL     1     -11.775   6.263  69.341  1.00  0.00    -0.319 OA 
BRANCH  15  18
HETATM   18  C   UNL     1     -10.796   6.366  71.487  1.00  0.00    -0.299 A  
HETATM   19  C   UNL     1     -10.456   5.543  72.549  1.00  0.00    -0.216 A  
HETATM   20  C   UNL     1     -10.053   4.132  72.725  1.00  0.00    -0.218 C  
HETATM   21  O   UNL     1     -10.569   6.236  73.706  1.00  0.00    -0.272 OA 
HETATM   22  N   UNL     1     -10.997   7.508  73.447  1.00  0.00    -0.326 NA 
HETATM   23  C   UNL     1     -11.149   7.613  72.114  1.00  0.00    -0.267 A  
BRANCH  23  24
HETATM   24  C   UNL     1     -11.592   8.898  71.550  1.00  0.00    -0.388 A  
HETATM   25  C   UNL     1     -10.885   9.555  70.536  1.00  0.00    -0.352 A  
HETATM   26  C   UNL     1     -11.314  10.796  70.049  1.00  0.00    -0.397 A  
HETATM   27  C   UNL     1     -12.445  11.409  70.584  1.00  0.00    -0.419 A  
HETATM   28  C   UNL     1     -13.155  10.778  71.601  1.00  0.00    -0.551 A  
HETATM   29  C   UNL     1     -12.733   9.533  72.077  1.00  0.00    -0.479 A  
ENDBRANCH  23  24
ENDBRANCH  15  18
ENDBRANCH  12  14
TORSDOF 3
ENDMDL
MODEL       98
REMARK 921   NORMALIZED FREE ENERGY PREDICTED BY IDOCK:   -4.91 KCAL/MOL
REMARK 922        TOTAL FREE ENERGY PREDICTED BY IDOCK:   -6.67 KCAL/MOL
REMARK 923 INTER-LIGAND FREE ENERGY PREDICTED BY IDOCK:   -5.34 KCAL/MOL
REMARK 924 INTRA-LIGAND FREE ENERGY PREDICTED BY IDOCK:   -1.33 KCAL/MOL
REMARK 927      BINDING AFFINITY PREDICTED BY RF-SCORE:    0.00 PKD
ROOT
HETATM    1  C   UNL     1      -8.168  10.229  67.342  1.00  0.00    -0.114 C  
HETATM    2  S   UNL     1      -9.982  10.057  67.084  1.00  0.00    -0.212 SA 
HETATM    3  C   UNL     1     -10.445  11.227  68.441  1.00  0.00    -0.197 C  
HETATM    4  CA  UNL     1      -9.189  12.109  68.659  1.00  0.00    -0.015 C  
HETATM    5  C   UNL     1     -11.732  11.970  68.064  1.00  0.00    -0.398 C  
HETATM    6  C   UNL     1     -10.777  10.380  69.687  1.00  0.00    -0.304 C  
HETATM    7  N   UNL     1      -8.009  11.258  68.393  1.00  0.00    -0.132 N  
HETATM    8  C   UNL     1      -9.088  13.357  67.762  1.00  0.00    -0.202 C  
HETATM    9  OXT UNL     1      -9.955  14.210  67.655  1.00  0.00    -0.228 OA 
HETATM   10  O   UNL     1      -7.885  13.491  67.146  1.00  0.00    -0.123 OA 
HETATM   11  C   UNL     1      -7.583  10.359  69.338  1.00  0.00    -0.140 C  
HETATM   12  CA  UNL     1      -7.488   9.216  68.301  1.00  0.00    -0.083 C  
HETATM   13  O   UNL     1      -7.530  10.462  70.542  1.00  0.00    -0.188 OA 
ENDROOT
BRANCH  12  14
HETATM   14  N   UNL     1      -8.251   7.974  68.604  1.00  0.00    -0.125 N  
HETATM   15  C   UNL     1      -7.705   6.993  69.407  1.00  0.00    -0.108 C  
HETATM   16  H   UNL     1      -9.186   7.847  68.215  1.00  0.00     0.000 HD 
HETATM   17  O   UNL     1      -6.620   7.162  69.951  1.00  0.00    -0.042 OA 
BRANCH  15  18
HETATM   18  C   UNL     1      -8.476   5.770  69.519  1.00  0.00    -0.112 A  
HETATM   19  C   UNL     1      -8.165   4.540  68.961  1.00  0.00    -0.080 A  
HETATM   20  C   UNL     1      -7.084   3.989  68.117  1.00  0.00    -0.059 C  
HETATM   21  O   UNL     1      -9.143   3.653  69.257  1.00  0.00    -0.105 OA 
HETATM   22  N   UNL     1     -10.120   4.265  69.991  1.00  0.00    -0.118 NA 
HETATM   23  C   UNL     1      -9.747   5.547  70.159  1.00  0.00    -0.182 A  
BRANCH  23  24
HETATM   24  C   UNL     1     -10.619   6.444  70.935  1.00  0.00    -0.285 A  
HETATM   25  C   UNL     1     -11.909   6.787  70.513  1.00  0.00    -0.418 A  
HETATM   26  C   UNL     1     -12.696   7.674  71.257  1.00  0.00    -0.306 A  
HETATM   27  C   UNL     1     -12.197   8.248  72.424  1.00  0.00    -0.412 A  
HETATM   28  C   UNL     1     -10.914   7.929  72.855  1.00  0.00    -0.452 A  
HETATM   29  C   UNL     1     -10.133   7.033  72.118  1.00  0.00    -0.198 A  
ENDBRANCH  23  24
ENDBRANCH  15  18
ENDBRANCH  12  14
TORSDOF 3
ENDMDL
MODEL       99
REMARK 921   NORMALIZED FREE ENERGY PREDICTED BY IDOCK:   -4.84 KCAL/MOL
REMARK 922        TOTAL FREE ENERGY PREDICTED BY IDOCK:   -6.60 KCAL/MOL
REMARK 923 INTER-LIGAND FREE ENERGY PREDICTED BY IDOCK:   -5.66 KCAL/MOL
REMARK 924 INTRA-LIGAND FREE ENERGY PREDICTED BY IDOCK:   -0.93 KCAL/MOL
REMARK 927      BINDING AFFINITY PREDICTED BY RF-SCORE:    0.00 PKD
ROOT
HETATM    1  C   UNL     1      -8.503  13.567  66.919  1.00  0.00    -0.048 C  
HETATM    2  S   UNL     1      -9.364  12.664  65.567  1.00  0.00     0.324 SA 
HETATM    3  C   UNL     1     -10.981  13.534  65.802  1.00  0.00    -0.278 C  
HETATM    4  CA  UNL     1     -10.625  14.854  66.532  1.00  0.00    -0.306 C  
HETATM    5  C   UNL     1     -11.688  13.681  64.450  1.00  0.00    -0.444 C  
HETATM    6  C   UNL     1     -11.874  12.620  66.666  1.00  0.00    -0.449 C  
HETATM    7  N   UNL     1      -9.475  14.566  67.415  1.00  0.00    -0.198 N  
HETATM    8  C   UNL     1     -10.243  16.036  65.621  1.00  0.00    -0.386 C  
HETATM    9  OXT UNL     1     -10.926  16.456  64.701  1.00  0.00    -0.707 OA 
HETATM   10  O   UNL     1      -9.091  16.657  65.986  1.00  0.00    -0.410 OA 
HETATM   11  C   UNL     1      -9.670  13.919  68.610  1.00  0.00    -0.160 C  
HETATM   12  CA  UNL     1      -8.523  12.921  68.330  1.00  0.00    -0.161 C  
HETATM   13  O   UNL     1     -10.563  14.031  69.418  1.00  0.00    -0.137 OA 
ENDROOT
BRANCH  12  14
HETATM   14  N   UNL     1      -8.867  11.474  68.392  1.00  0.00    -0.162 N  
HETATM   15  C   UNL     1      -7.882  10.525  68.586  1.00  0.00    -0.116 C  
HETATM   16  H   UNL     1      -9.839  11.180  68.291  1.00  0.00     0.000 HD 
HETATM   17  O   UNL     1      -6.722  10.862  68.793  1.00  0.00    -0.056 OA 
BRANCH  15  18
HETATM   18  C   UNL     1      -8.312   9.143  68.488  1.00  0.00    -0.123 A  
HETATM   19  C   UNL     1      -8.713   8.480  67.340  1.00  0.00    -0.134 A  
HETATM   20  C   UNL     1      -8.878   8.817  65.910  1.00  0.00    -0.222 C  
HETATM   21  O   UNL     1      -9.073   7.214  67.656  1.00  0.00    -0.128 OA 
HETATM   22  N   UNL     1      -8.939   7.015  69.002  1.00  0.00    -0.134 NA 
HETATM   23  C   UNL     1      -8.486   8.166  69.531  1.00  0.00    -0.127 A  
BRANCH  23  24
HETATM   24  C   UNL     1      -8.235   8.229  70.980  1.00  0.00    -0.123 A  
HETATM   25  C   UNL     1      -6.951   8.402  71.511  1.00  0.00    -0.075 A  
HETATM   26  C   UNL     1      -6.743   8.419  72.896  1.00  0.00    -0.103 A  
HETATM   27  C   UNL     1      -7.813   8.242  73.770  1.00  0.00    -0.228 A  
HETATM   28  C   UNL     1      -9.094   8.057  73.263  1.00  0.00    -0.349 A  
HETATM   29  C   UNL     1      -9.303   8.054  71.880  1.00  0.00    -0.225 A  
ENDBRANCH  23  24
ENDBRANCH  15  18
ENDBRANCH  12  14
TORSDOF 3
ENDMDL
MODEL      100
REMARK 921   NORMALIZED FREE ENERGY PREDICTED BY IDOCK:   -4.84 KCAL/MOL
REMARK 922        TOTAL FREE ENERGY PREDICTED BY IDOCK:   -6.59 KCAL/MOL
REMARK 923 INTER-LIGAND FREE ENERGY PREDICTED BY IDOCK:   -5.60 KCAL/MOL
REMARK 924 INTRA-LIGAND FREE ENERGY PREDICTED BY IDOCK:   -0.99 KCAL/MOL
REMARK 927      BINDING AFFINITY PREDICTED BY RF-SCORE:    0.00 PKD
ROOT
HETATM    1  C   UNL     1      -8.558  13.686  66.980  1.00  0.00    -0.159 C  
HETATM    2  S   UNL     1      -9.847  13.691  65.668  1.00  0.00    -0.112 SA 
HETATM    3  C   UNL     1     -11.238  13.266  66.811  1.00  0.00    -0.304 C  
HETATM    4  CA  UNL     1     -10.743  13.682  68.220  1.00  0.00    -0.254 C  
HETATM    5  C   UNL     1     -12.528  13.938  66.325  1.00  0.00    -0.454 C  
HETATM    6  C   UNL     1     -11.471  11.745  66.707  1.00  0.00    -0.352 C  
HETATM    7  N   UNL     1      -9.282  13.458  68.250  1.00  0.00    -0.207 N  
HETATM    8  C   UNL     1     -11.009  15.147  68.613  1.00  0.00    -0.255 C  
HETATM    9  OXT UNL     1     -12.102  15.690  68.582  1.00  0.00    -0.270 OA 
HETATM   10  O   UNL     1      -9.915  15.789  69.101  1.00  0.00    -0.210 OA 
HETATM   11  C   UNL     1      -8.784  12.189  68.413  1.00  0.00    -0.141 C  
HETATM   12  CA  UNL     1      -7.803  12.353  67.229  1.00  0.00    -0.166 C  
HETATM   13  O   UNL     1      -9.175  11.284  69.115  1.00  0.00    -0.053 OA 
ENDROOT
BRANCH  12  14
HETATM   14  N   UNL     1      -7.886  11.332  66.148  1.00  0.00    -0.345 N  
HETATM   15  C   UNL     1      -7.048  10.234  66.154  1.00  0.00    -0.121 C  
HETATM   16  H   UNL     1      -8.567  11.445  65.397  1.00  0.00     0.000 HD 
HETATM   17  O   UNL     1      -6.282  10.037  67.091  1.00  0.00    -0.064 OA 
BRANCH  15  18
HETATM   18  C   UNL     1      -7.119   9.382  64.982  1.00  0.00    -0.101 A  
HETATM   19  C   UNL     1      -6.435   9.556  63.790  1.00  0.00    -0.100 A  
HETATM   20  C   UNL     1      -5.476  10.536  63.237  1.00  0.00    -0.163 C  
HETATM   21  O   UNL     1      -6.788   8.578  62.924  1.00  0.00    -0.090 OA 
HETATM   22  N   UNL     1      -7.714   7.756  63.503  1.00  0.00    -0.126 NA 
HETATM   23  C   UNL     1      -7.938   8.221  64.745  1.00  0.00    -0.146 A  
BRANCH  23  24
HETATM   24  C   UNL     1      -8.893   7.508  65.609  1.00  0.00    -0.072 A  
HETATM   25  C   UNL     1      -9.013   6.113  65.601  1.00  0.00    -0.056 A  
HETATM   26  C   UNL     1      -9.960   5.470  66.408  1.00  0.00    -0.203 A  
HETATM   27  C   UNL     1     -10.814   6.213  67.219  1.00  0.00    -0.438 A  
HETATM   28  C   UNL     1     -10.718   7.600  67.233  1.00  0.00    -0.344 A  
HETATM   29  C   UNL     1      -9.764   8.241  66.437  1.00  0.00    -0.300 A  
ENDBRANCH  23  24
ENDBRANCH  15  18
ENDBRANCH  12  14
TORSDOF 3
ENDMDL
MODEL      101
REMARK 921   NORMALIZED FREE ENERGY PREDICTED BY IDOCK:   -4.84 KCAL/MOL
REMARK 922        TOTAL FREE ENERGY PREDICTED BY IDOCK:   -6.59 KCAL/MOL
REMARK 923 INTER-LIGAND FREE ENERGY PREDICTED BY IDOCK:   -6.19 KCAL/MOL
REMARK 924 INTRA-LIGAND FREE ENERGY PREDICTED BY IDOCK:   -0.40 KCAL/MOL
REMARK 927      BINDING AFFINITY PREDICTED BY RF-SCORE:    0.00 PKD
ROOT
HETATM    1  C   UNL     1     -11.282   6.803  71.272  1.00  0.00    -0.276 C  
HETATM    2  S   UNL     1     -10.302   5.861  70.032  1.00  0.00    -0.269 SA 
HETATM    3  C   UNL     1      -8.780   5.757  71.079  1.00  0.00    -0.134 C  
HETATM    4  CA  UNL     1      -9.276   5.966  72.532  1.00  0.00    -0.138 C  
HETATM    5  C   UNL     1      -8.051   4.438  70.799  1.00  0.00    -0.071 C  
HETATM    6  C   UNL     1      -7.831   6.886  70.626  1.00  0.00    -0.101 C  
HETATM    7  N   UNL     1     -10.421   6.900  72.471  1.00  0.00    -0.206 N  
HETATM    8  C   UNL     1      -9.739   4.694  73.267  1.00  0.00    -0.133 C  
HETATM    9  OXT UNL     1      -9.070   3.680  73.393  1.00  0.00    -0.100 OA 
HETATM   10  O   UNL     1     -10.953   4.818  73.863  1.00  0.00    -0.300 OA 
HETATM   11  C   UNL     1     -10.201   8.247  72.317  1.00  0.00    -0.305 C  
HETATM   12  CA  UNL     1     -11.243   8.351  71.180  1.00  0.00    -0.263 C  
HETATM   13  O   UNL     1      -9.346   8.955  72.796  1.00  0.00    -0.227 OA 
ENDROOT
BRANCH  12  14
HETATM   14  N   UNL     1     -10.770   8.928  69.891  1.00  0.00    -0.228 N  
HETATM   15  C   UNL     1     -11.449   9.973  69.298  1.00  0.00    -0.055 C  
HETATM   16  H   UNL     1      -9.936   8.547  69.443  1.00  0.00     0.000 HD 
HETATM   17  O   UNL     1     -12.402  10.500  69.861  1.00  0.00    -0.271 OA 
BRANCH  15  18
HETATM   18  C   UNL     1     -10.982  10.360  67.980  1.00  0.00    -0.347 A  
HETATM   19  C   UNL     1     -11.143  11.596  67.374  1.00  0.00    -0.281 A  
HETATM   20  C   UNL     1     -11.773  12.887  67.723  1.00  0.00    -0.412 C  
HETATM   21  O   UNL     1     -10.603  11.560  66.133  1.00  0.00    -0.250 OA 
HETATM   22  N   UNL     1     -10.096  10.316  65.882  1.00  0.00    -0.256 NA 
HETATM   23  C   UNL     1     -10.317   9.568  66.978  1.00  0.00    -0.250 A  
BRANCH  23  24
HETATM   24  C   UNL     1      -9.853   8.171  66.989  1.00  0.00    -0.299 A  
HETATM   25  C   UNL     1      -8.499   7.831  67.091  1.00  0.00    -0.124 A  
HETATM   26  C   UNL     1      -8.089   6.493  67.059  1.00  0.00    -0.113 A  
HETATM   27  C   UNL     1      -9.027   5.474  66.902  1.00  0.00    -0.111 A  
HETATM   28  C   UNL     1     -10.376   5.791  66.787  1.00  0.00    -0.312 A  
HETATM   29  C   UNL     1     -10.785   7.127  66.833  1.00  0.00    -0.363 A  
ENDBRANCH  23  24
ENDBRANCH  15  18
ENDBRANCH  12  14
TORSDOF 3
ENDMDL
MODEL      102
REMARK 921   NORMALIZED FREE ENERGY PREDICTED BY IDOCK:   -4.82 KCAL/MOL
REMARK 922        TOTAL FREE ENERGY PREDICTED BY IDOCK:   -6.57 KCAL/MOL
REMARK 923 INTER-LIGAND FREE ENERGY PREDICTED BY IDOCK:   -5.60 KCAL/MOL
REMARK 924 INTRA-LIGAND FREE ENERGY PREDICTED BY IDOCK:   -0.97 KCAL/MOL
REMARK 927      BINDING AFFINITY PREDICTED BY RF-SCORE:    0.00 PKD
ROOT
HETATM    1  C   UNL     1     -10.938  10.661  66.240  1.00  0.00     0.053 C  
HETATM    2  S   UNL     1     -11.661  11.803  67.489  1.00  0.00    -0.251 SA 
HETATM    3  C   UNL     1     -10.590  13.240  67.026  1.00  0.00    -0.259 C  
HETATM    4  CA  UNL     1     -10.121  12.942  65.579  1.00  0.00    -0.257 C  
HETATM    5  C   UNL     1     -11.367  14.547  67.226  1.00  0.00    -0.363 C  
HETATM    6  C   UNL     1      -9.411  13.275  68.019  1.00  0.00    -0.218 C  
HETATM    7  N   UNL     1      -9.980  11.475  65.460  1.00  0.00    -0.232 N  
HETATM    8  C   UNL     1     -11.065  13.422  64.461  1.00  0.00    -0.380 C  
HETATM    9  OXT UNL     1     -11.479  14.565  64.340  1.00  0.00    -0.346 OA 
HETATM   10  O   UNL     1     -11.342  12.469  63.533  1.00  0.00    -0.453 OA 
HETATM   11  C   UNL     1      -8.878  10.846  65.983  1.00  0.00    -0.188 C  
HETATM   12  CA  UNL     1      -9.744   9.779  66.692  1.00  0.00    -0.201 C  
HETATM   13  O   UNL     1      -7.719  11.192  65.998  1.00  0.00    -0.111 OA 
ENDROOT
BRANCH  12  14
HETATM   14  N   UNL     1      -9.549   9.628  68.160  1.00  0.00    -0.143 N  
HETATM   15  C   UNL     1     -10.140   8.584  68.844  1.00  0.00    -0.203 C  
HETATM   16  H   UNL     1      -8.972  10.301  68.665  1.00  0.00     0.000 HD 
HETATM   17  O   UNL     1     -10.767   7.718  68.243  1.00  0.00    -0.148 OA 
BRANCH  15  18
HETATM   18  C   UNL     1      -9.998   8.616  70.287  1.00  0.00    -0.204 A  
HETATM   19  C   UNL     1     -10.851   9.232  71.189  1.00  0.00    -0.337 A  
HETATM   20  C   UNL     1     -12.096  10.026  71.117  1.00  0.00    -0.475 C  
HETATM   21  O   UNL     1     -10.366   9.074  72.443  1.00  0.00    -0.174 OA 
HETATM   22  N   UNL     1      -9.191   8.378  72.403  1.00  0.00    -0.257 NA 
HETATM   23  C   UNL     1      -8.940   8.093  71.112  1.00  0.00    -0.146 A  
BRANCH  23  24
HETATM   24  C   UNL     1      -7.729   7.327  70.776  1.00  0.00    -0.092 A  
HETATM   25  C   UNL     1      -6.455   7.906  70.764  1.00  0.00    -0.037 A  
HETATM   26  C   UNL     1      -5.329   7.156  70.402  1.00  0.00    -0.023 A  
HETATM   27  C   UNL     1      -5.464   5.822  70.025  1.00  0.00    -0.009 A  
HETATM   28  C   UNL     1      -6.723   5.231  70.020  1.00  0.00    -0.044 A  
HETATM   29  C   UNL     1      -7.845   5.977  70.395  1.00  0.00    -0.106 A  
ENDBRANCH  23  24
ENDBRANCH  15  18
ENDBRANCH  12  14
TORSDOF 3
ENDMDL
MODEL      103
REMARK 921   NORMALIZED FREE ENERGY PREDICTED BY IDOCK:   -4.81 KCAL/MOL
REMARK 922        TOTAL FREE ENERGY PREDICTED BY IDOCK:   -6.56 KCAL/MOL
REMARK 923 INTER-LIGAND FREE ENERGY PREDICTED BY IDOCK:   -5.49 KCAL/MOL
REMARK 924 INTRA-LIGAND FREE ENERGY PREDICTED BY IDOCK:   -1.07 KCAL/MOL
REMARK 927      BINDING AFFINITY PREDICTED BY RF-SCORE:    0.00 PKD
ROOT
HETATM    1  C   UNL     1     -11.467  14.544  66.220  1.00  0.00    -0.358 C  
HETATM    2  S   UNL     1     -10.165  14.474  64.923  1.00  0.00    -0.168 SA 
HETATM    3  C   UNL     1     -10.132  12.626  64.832  1.00  0.00    -0.222 C  
HETATM    4  CA  UNL     1     -11.502  12.170  65.397  1.00  0.00    -0.336 C  
HETATM    5  C   UNL     1      -9.815  12.186  63.398  1.00  0.00    -0.206 C  
HETATM    6  C   UNL     1      -8.958  12.142  65.708  1.00  0.00     0.154 C  
HETATM    7  N   UNL     1     -11.885  13.142  66.444  1.00  0.00    -0.382 N  
HETATM    8  C   UNL     1     -12.651  12.094  64.374  1.00  0.00    -0.280 C  
HETATM    9  OXT UNL     1     -12.613  11.467  63.327  1.00  0.00    -0.365 OA 
HETATM   10  O   UNL     1     -13.785  12.723  64.779  1.00  0.00     0.040 OA 
HETATM   11  C   UNL     1     -11.311  13.073  67.688  1.00  0.00    -0.300 C  
HETATM   12  CA  UNL     1     -10.996  14.587  67.698  1.00  0.00    -0.288 C  
HETATM   13  O   UNL     1     -11.020  12.109  68.359  1.00  0.00    -0.209 OA 
ENDROOT
BRANCH  12  14
HETATM   14  N   UNL     1      -9.577  14.973  67.931  1.00  0.00    -0.202 N  
HETATM   15  C   UNL     1      -9.207  15.617  69.095  1.00  0.00    -0.254 C  
HETATM   16  H   UNL     1      -8.872  14.759  67.225  1.00  0.00     0.000 HD 
HETATM   17  O   UNL     1     -10.021  15.808  69.990  1.00  0.00    -0.264 OA 
BRANCH  15  18
HETATM   18  C   UNL     1      -7.830  16.070  69.152  1.00  0.00    -0.233 A  
HETATM   19  C   UNL     1      -7.374  17.362  68.949  1.00  0.00    -0.244 A  
HETATM   20  C   UNL     1      -7.976  18.672  68.619  1.00  0.00    -0.356 C  
HETATM   21  O   UNL     1      -6.024  17.383  69.051  1.00  0.00    -0.180 OA 
HETATM   22  N   UNL     1      -5.558  16.123  69.302  1.00  0.00    -0.114 NA 
HETATM   23  C   UNL     1      -6.626  15.307  69.362  1.00  0.00    -0.152 A  
BRANCH  23  24
HETATM   24  C   UNL     1      -6.413  13.878  69.639  1.00  0.00    -0.108 A  
HETATM   25  C   UNL     1      -5.800  13.425  70.814  1.00  0.00    -0.148 A  
HETATM   26  C   UNL     1      -5.577  12.059  71.027  1.00  0.00    -0.019 A  
HETATM   27  C   UNL     1      -5.945  11.127  70.060  1.00  0.00    -0.125 A  
HETATM   28  C   UNL     1      -6.545  11.557  68.881  1.00  0.00    -0.073 A  
HETATM   29  C   UNL     1      -6.779  12.920  68.674  1.00  0.00    -0.095 A  
ENDBRANCH  23  24
ENDBRANCH  15  18
ENDBRANCH  12  14
TORSDOF 3
ENDMDL
MODEL      104
REMARK 921   NORMALIZED FREE ENERGY PREDICTED BY IDOCK:   -4.80 KCAL/MOL
REMARK 922        TOTAL FREE ENERGY PREDICTED BY IDOCK:   -6.54 KCAL/MOL
REMARK 923 INTER-LIGAND FREE ENERGY PREDICTED BY IDOCK:   -5.95 KCAL/MOL
REMARK 924 INTRA-LIGAND FREE ENERGY PREDICTED BY IDOCK:   -0.59 KCAL/MOL
REMARK 927      BINDING AFFINITY PREDICTED BY RF-SCORE:    0.00 PKD
ROOT
HETATM    1  C   UNL     1     -10.075   9.221  66.378  1.00  0.00    -0.267 C  
HETATM    2  S   UNL     1      -9.238  10.583  67.289  1.00  0.00    -0.142 SA 
HETATM    3  C   UNL     1      -7.525   9.976  66.940  1.00  0.00    -0.095 C  
HETATM    4  CA  UNL     1      -7.664   9.075  65.687  1.00  0.00    -0.091 C  
HETATM    5  C   UNL     1      -6.572  11.170  66.809  1.00  0.00    -0.133 C  
HETATM    6  C   UNL     1      -7.059   9.178  68.175  1.00  0.00    -0.078 C  
HETATM    7  N   UNL     1      -8.989   8.424  65.764  1.00  0.00    -0.177 N  
HETATM    8  C   UNL     1      -7.568   9.801  64.332  1.00  0.00    -0.135 C  
HETATM    9  OXT UNL     1      -6.647  10.528  63.994  1.00  0.00    -0.052 OA 
HETATM   10  O   UNL     1      -8.574   9.491  63.473  1.00  0.00    -0.187 OA 
HETATM   11  C   UNL     1      -9.181   7.351  66.598  1.00  0.00    -0.158 C  
HETATM   12  CA  UNL     1     -10.472   7.961  67.192  1.00  0.00    -0.344 C  
HETATM   13  O   UNL     1      -8.448   6.421  66.850  1.00  0.00    -0.109 OA 
ENDROOT
BRANCH  12  14
HETATM   14  N   UNL     1     -10.517   8.114  68.672  1.00  0.00    -0.300 N  
HETATM   15  C   UNL     1     -11.045   7.115  69.465  1.00  0.00    -0.141 C  
HETATM   16  H   UNL     1     -10.156   8.965  69.104  1.00  0.00     0.000 HD 
HETATM   17  O   UNL     1     -11.407   6.052  68.974  1.00  0.00    -0.340 OA 
BRANCH  15  18
HETATM   18  C   UNL     1     -11.168   7.430  70.876  1.00  0.00    -0.292 A  
HETATM   19  C   UNL     1     -11.588   8.633  71.422  1.00  0.00    -0.293 A  
HETATM   20  C   UNL     1     -12.025   9.948  70.909  1.00  0.00    -0.434 C  
HETATM   21  O   UNL     1     -11.537   8.554  72.772  1.00  0.00    -0.312 OA 
HETATM   22  N   UNL     1     -11.072   7.325  73.149  1.00  0.00    -0.323 NA 
HETATM   23  C   UNL     1     -10.835   6.627  72.024  1.00  0.00    -0.233 A  
BRANCH  23  24
HETATM   24  C   UNL     1     -10.336   5.247  72.137  1.00  0.00    -0.268 A  
HETATM   25  C   UNL     1      -9.286   4.762  71.347  1.00  0.00    -0.201 A  
HETATM   26  C   UNL     1      -8.863   3.432  71.453  1.00  0.00    -0.135 A  
HETATM   27  C   UNL     1      -9.497   2.560  72.336  1.00  0.00    -0.164 A  
HETATM   28  C   UNL     1     -10.549   3.019  73.121  1.00  0.00    -0.263 A  
HETATM   29  C   UNL     1     -10.962   4.351  73.024  1.00  0.00    -0.289 A  
ENDBRANCH  23  24
ENDBRANCH  15  18
ENDBRANCH  12  14
TORSDOF 3
ENDMDL
MODEL      105
REMARK 921   NORMALIZED FREE ENERGY PREDICTED BY IDOCK:   -4.79 KCAL/MOL
REMARK 922        TOTAL FREE ENERGY PREDICTED BY IDOCK:   -6.54 KCAL/MOL
REMARK 923 INTER-LIGAND FREE ENERGY PREDICTED BY IDOCK:   -5.97 KCAL/MOL
REMARK 924 INTRA-LIGAND FREE ENERGY PREDICTED BY IDOCK:   -0.57 KCAL/MOL
REMARK 927      BINDING AFFINITY PREDICTED BY RF-SCORE:    0.00 PKD
ROOT
HETATM    1  C   UNL     1     -10.279  14.599  69.274  1.00  0.00    -0.147 C  
HETATM    2  S   UNL     1     -11.745  15.031  68.250  1.00  0.00    -0.273 SA 
HETATM    3  C   UNL     1     -11.287  13.921  66.843  1.00  0.00    -0.328 C  
HETATM    4  CA  UNL     1     -10.331  12.866  67.457  1.00  0.00    -0.223 C  
HETATM    5  C   UNL     1     -12.558  13.374  66.183  1.00  0.00    -0.294 C  
HETATM    6  C   UNL     1     -10.581  14.789  65.781  1.00  0.00    -0.338 C  
HETATM    7  N   UNL     1      -9.564  13.544  68.524  1.00  0.00    -0.191 N  
HETATM    8  C   UNL     1     -11.012  11.629  68.072  1.00  0.00    -0.224 C  
HETATM    9  OXT UNL     1     -11.808  10.909  67.489  1.00  0.00    -0.524 OA 
HETATM   10  O   UNL     1     -10.578  11.333  69.325  1.00  0.00    -0.212 OA 
HETATM   11  C   UNL     1      -8.509  14.360  68.200  1.00  0.00    -0.160 C  
HETATM   12  CA  UNL     1      -9.018  15.492  69.122  1.00  0.00    -0.256 C  
HETATM   13  O   UNL     1      -7.661  14.233  67.346  1.00  0.00    -0.177 OA 
ENDROOT
BRANCH  12  14
HETATM   14  N   UNL     1      -9.222  16.825  68.492  1.00  0.00    -0.236 N  
HETATM   15  C   UNL     1      -8.232  17.786  68.547  1.00  0.00    -0.296 C  
HETATM   16  H   UNL     1     -10.100  17.031  68.015  1.00  0.00     0.000 HD 
HETATM   17  O   UNL     1      -7.139  17.531  69.042  1.00  0.00    -0.249 OA 
BRANCH  15  18
HETATM   18  C   UNL     1      -8.591  19.091  68.026  1.00  0.00    -0.337 A  
HETATM   19  C   UNL     1      -9.535  19.961  68.549  1.00  0.00    -0.242 A  
HETATM   20  C   UNL     1     -10.474  19.963  69.690  1.00  0.00     0.324 C  
HETATM   21  O   UNL     1      -9.613  21.062  67.766  1.00  0.00    -0.211 OA 
HETATM   22  N   UNL     1      -8.751  20.944  66.711  1.00  0.00     0.100 NA 
HETATM   23  C   UNL     1      -8.125  19.760  66.839  1.00  0.00    -0.297 A  
BRANCH  23  24
HETATM   24  C   UNL     1      -7.118  19.378  65.836  1.00  0.00    -0.307 A  
HETATM   25  C   UNL     1      -6.387  18.188  65.923  1.00  0.00    -0.293 A  
HETATM   26  C   UNL     1      -5.408  17.874  64.972  1.00  0.00     0.093 A  
HETATM   27  C   UNL     1      -5.132  18.757  63.930  1.00  0.00    -0.190 A  
HETATM   28  C   UNL     1      -5.839  19.950  63.832  1.00  0.00    -0.312 A  
HETATM   29  C   UNL     1      -6.825  20.256  64.775  1.00  0.00    -0.170 A  
ENDBRANCH  23  24
ENDBRANCH  15  18
ENDBRANCH  12  14
TORSDOF 3
ENDMDL
MODEL      106
REMARK 921   NORMALIZED FREE ENERGY PREDICTED BY IDOCK:   -4.75 KCAL/MOL
REMARK 922        TOTAL FREE ENERGY PREDICTED BY IDOCK:   -6.49 KCAL/MOL
REMARK 923 INTER-LIGAND FREE ENERGY PREDICTED BY IDOCK:   -5.56 KCAL/MOL
REMARK 924 INTRA-LIGAND FREE ENERGY PREDICTED BY IDOCK:   -0.93 KCAL/MOL
REMARK 927      BINDING AFFINITY PREDICTED BY RF-SCORE:    0.00 PKD
ROOT
HETATM    1  C   UNL     1      -8.541   8.723  67.827  1.00  0.00    -0.129 C  
HETATM    2  S   UNL     1      -8.891   9.908  69.190  1.00  0.00    -0.176 SA 
HETATM    3  C   UNL     1     -10.122   8.816  70.036  1.00  0.00    -0.190 C  
HETATM    4  CA  UNL     1      -9.796   7.384  69.542  1.00  0.00    -0.165 C  
HETATM    5  C   UNL     1     -10.053   9.039  71.551  1.00  0.00    -0.409 C  
HETATM    6  C   UNL     1     -11.526   9.274  69.590  1.00  0.00     0.122 C  
HETATM    7  N   UNL     1      -9.313   7.503  68.150  1.00  0.00    -0.137 N  
HETATM    8  C   UNL     1      -8.728   6.628  70.354  1.00  0.00    -0.151 C  
HETATM    9  OXT UNL     1      -8.762   6.454  71.562  1.00  0.00    -0.133 OA 
HETATM   10  O   UNL     1      -7.754   6.069  69.588  1.00  0.00    -0.093 OA 
HETATM   11  C   UNL     1     -10.208   7.688  67.126  1.00  0.00    -0.290 C  
HETATM   12  CA  UNL     1      -9.387   8.857  66.534  1.00  0.00    -0.195 C  
HETATM   13  O   UNL     1     -11.304   7.205  66.953  1.00  0.00    -0.105 OA 
ENDROOT
BRANCH  12  14
HETATM   14  N   UNL     1     -10.105  10.147  66.342  1.00  0.00    -0.231 N  
HETATM   15  C   UNL     1      -9.934  10.880  65.184  1.00  0.00    -0.284 C  
HETATM   16  H   UNL     1     -10.729  10.493  67.071  1.00  0.00     0.000 HD 
HETATM   17  O   UNL     1      -9.255  10.443  64.261  1.00  0.00    -0.210 OA 
BRANCH  15  18
HETATM   18  C   UNL     1     -10.569  12.184  65.165  1.00  0.00    -0.324 A  
HETATM   19  C   UNL     1     -11.650  12.567  64.387  1.00  0.00    -0.358 A  
HETATM   20  C   UNL     1     -12.516  11.935  63.369  1.00  0.00    -0.582 C  
HETATM   21  O   UNL     1     -11.932  13.870  64.623  1.00  0.00    -0.379 OA 
HETATM   22  N   UNL     1     -11.050  14.380  65.533  1.00  0.00    -0.314 NA 
HETATM   23  C   UNL     1     -10.210  13.386  65.873  1.00  0.00    -0.299 A  
BRANCH  23  24
HETATM   24  C   UNL     1      -9.154  13.656  66.862  1.00  0.00    -0.249 A  
HETATM   25  C   UNL     1      -7.881  13.079  66.776  1.00  0.00     0.300 A  
HETATM   26  C   UNL     1      -6.912  13.327  67.756  1.00  0.00    -0.154 A  
HETATM   27  C   UNL     1      -7.209  14.140  68.848  1.00  0.00    -0.118 A  
HETATM   28  C   UNL     1      -8.471  14.713  68.958  1.00  0.00    -0.095 A  
HETATM   29  C   UNL     1      -9.433  14.476  67.972  1.00  0.00    -0.209 A  
ENDBRANCH  23  24
ENDBRANCH  15  18
ENDBRANCH  12  14
TORSDOF 3
ENDMDL
MODEL      107
REMARK 921   NORMALIZED FREE ENERGY PREDICTED BY IDOCK:   -4.74 KCAL/MOL
REMARK 922        TOTAL FREE ENERGY PREDICTED BY IDOCK:   -6.47 KCAL/MOL
REMARK 923 INTER-LIGAND FREE ENERGY PREDICTED BY IDOCK:   -6.09 KCAL/MOL
REMARK 924 INTRA-LIGAND FREE ENERGY PREDICTED BY IDOCK:   -0.38 KCAL/MOL
REMARK 927      BINDING AFFINITY PREDICTED BY RF-SCORE:    0.00 PKD
ROOT
HETATM    1  C   UNL     1     -10.176   8.484  68.258  1.00  0.00    -0.205 C  
HETATM    2  S   UNL     1      -8.461   7.882  68.543  1.00  0.00    -0.128 SA 
HETATM    3  C   UNL     1      -8.650   7.729  70.377  1.00  0.00    -0.137 C  
HETATM    4  CA  UNL     1     -10.178   7.619  70.617  1.00  0.00    -0.199 C  
HETATM    5  C   UNL     1      -7.803   6.557  70.887  1.00  0.00    -0.106 C  
HETATM    6  C   UNL     1      -8.058   9.005  71.010  1.00  0.00    -0.199 C  
HETATM    7  N   UNL     1     -10.840   8.438  69.579  1.00  0.00    -0.173 N  
HETATM    8  C   UNL     1     -10.762   6.196  70.545  1.00  0.00    -0.278 C  
HETATM    9  OXT UNL     1     -10.357   5.242  71.191  1.00  0.00    -0.217 OA 
HETATM   10  O   UNL     1     -11.859   6.095  69.749  1.00  0.00    -0.219 OA 
HETATM   11  C   UNL     1     -10.884   9.804  69.707  1.00  0.00    -0.257 C  
HETATM   12  CA  UNL     1     -10.398  10.020  68.255  1.00  0.00    -0.193 C  
HETATM   13  O   UNL     1     -11.054  10.489  70.690  1.00  0.00    -0.292 OA 
ENDROOT
BRANCH  12  14
HETATM   14  N   UNL     1      -9.185  10.865  68.076  1.00  0.00    -0.152 N  
HETATM   15  C   UNL     1      -9.289  12.242  68.037  1.00  0.00    -0.195 C  
HETATM   16  H   UNL     1      -8.270  10.424  67.982  1.00  0.00     0.000 HD 
HETATM   17  O   UNL     1     -10.366  12.794  68.231  1.00  0.00    -0.231 OA 
BRANCH  15  18
HETATM   18  C   UNL     1      -8.067  12.956  67.718  1.00  0.00    -0.166 A  
HETATM   19  C   UNL     1      -6.803  12.408  67.568  1.00  0.00    -0.143 A  
HETATM   20  C   UNL     1      -6.201  11.061  67.659  1.00  0.00    -0.052 C  
HETATM   21  O   UNL     1      -5.915  13.395  67.307  1.00  0.00    -0.341 OA 
HETATM   22  N   UNL     1      -6.553  14.604  67.296  1.00  0.00    -0.252 NA 
HETATM   23  C   UNL     1      -7.854  14.370  67.547  1.00  0.00    -0.190 A  
BRANCH  23  24
HETATM   24  C   UNL     1      -8.786  15.508  67.579  1.00  0.00    -0.191 A  
HETATM   25  C   UNL     1      -9.262  16.054  68.777  1.00  0.00    -0.224 A  
HETATM   26  C   UNL     1     -10.180  17.112  68.770  1.00  0.00    -0.332 A  
HETATM   27  C   UNL     1     -10.651  17.625  67.564  1.00  0.00    -0.345 A  
HETATM   28  C   UNL     1     -10.200  17.089  66.363  1.00  0.00    -0.330 A  
HETATM   29  C   UNL     1      -9.274  16.042  66.371  1.00  0.00    -0.339 A  
ENDBRANCH  23  24
ENDBRANCH  15  18
ENDBRANCH  12  14
TORSDOF 3
ENDMDL
MODEL      108
REMARK 921   NORMALIZED FREE ENERGY PREDICTED BY IDOCK:   -4.73 KCAL/MOL
REMARK 922        TOTAL FREE ENERGY PREDICTED BY IDOCK:   -6.46 KCAL/MOL
REMARK 923 INTER-LIGAND FREE ENERGY PREDICTED BY IDOCK:   -5.68 KCAL/MOL
REMARK 924 INTRA-LIGAND FREE ENERGY PREDICTED BY IDOCK:   -0.78 KCAL/MOL
REMARK 927      BINDING AFFINITY PREDICTED BY RF-SCORE:    0.00 PKD
ROOT
HETATM    1  C   UNL     1      -9.577  12.661  67.899  1.00  0.00    -0.211 C  
HETATM    2  S   UNL     1      -9.696  13.488  66.260  1.00  0.00    -0.248 SA 
HETATM    3  C   UNL     1     -11.479  13.947  66.444  1.00  0.00    -0.344 C  
HETATM    4  CA  UNL     1     -11.743  13.929  67.972  1.00  0.00    -0.352 C  
HETATM    5  C   UNL     1     -11.746  15.276  65.729  1.00  0.00     0.083 C  
HETATM    6  C   UNL     1     -12.308  12.877  65.704  1.00  0.00    -0.482 C  
HETATM    7  N   UNL     1     -10.889  12.870  68.549  1.00  0.00    -0.250 N  
HETATM    8  C   UNL     1     -11.439  15.244  68.714  1.00  0.00    -0.331 C  
HETATM    9  OXT UNL     1     -11.893  16.337  68.412  1.00  0.00    -0.202 OA 
HETATM   10  O   UNL     1     -10.673  15.080  69.824  1.00  0.00    -0.256 OA 
HETATM   11  C   UNL     1     -11.258  11.552  68.436  1.00  0.00    -0.255 C  
HETATM   12  CA  UNL     1      -9.852  11.134  67.945  1.00  0.00    -0.174 C  
HETATM   13  O   UNL     1     -12.351  11.041  68.516  1.00  0.00    -0.536 OA 
ENDROOT
BRANCH  12  14
HETATM   14  N   UNL     1      -9.788  10.409  66.647  1.00  0.00    -0.194 N  
HETATM   15  C   UNL     1      -8.569  10.114  66.067  1.00  0.00    -0.141 C  
HETATM   16  H   UNL     1     -10.650  10.126  66.182  1.00  0.00     0.000 HD 
HETATM   17  O   UNL     1      -7.521  10.369  66.650  1.00  0.00    -0.105 OA 
BRANCH  15  18
HETATM   18  C   UNL     1      -8.628   9.532  64.740  1.00  0.00    -0.196 A  
HETATM   19  C   UNL     1      -9.170  10.113  63.605  1.00  0.00    -0.282 A  
HETATM   20  C   UNL     1      -9.844  11.386  63.269  1.00  0.00    -0.428 C  
HETATM   21  O   UNL     1      -9.070   9.250  62.567  1.00  0.00    -0.239 OA 
HETATM   22  N   UNL     1      -8.486   8.087  62.985  1.00  0.00     0.007 NA 
HETATM   23  C   UNL     1      -8.214   8.227  64.295  1.00  0.00    -0.113 A  
BRANCH  23  24
HETATM   24  C   UNL     1      -7.560   7.116  65.007  1.00  0.00    -0.104 A  
HETATM   25  C   UNL     1      -6.196   7.126  65.319  1.00  0.00    -0.037 A  
HETATM   26  C   UNL     1      -5.598   6.035  65.962  1.00  0.00    -0.016 A  
HETATM   27  C   UNL     1      -6.352   4.909  66.284  1.00  0.00    -0.036 A  
HETATM   28  C   UNL     1      -7.707   4.874  65.972  1.00  0.00    -0.091 A  
HETATM   29  C   UNL     1      -8.306   5.970  65.342  1.00  0.00    -0.150 A  
ENDBRANCH  23  24
ENDBRANCH  15  18
ENDBRANCH  12  14
TORSDOF 3
ENDMDL
MODEL      109
REMARK 921   NORMALIZED FREE ENERGY PREDICTED BY IDOCK:   -4.72 KCAL/MOL
REMARK 922        TOTAL FREE ENERGY PREDICTED BY IDOCK:   -6.46 KCAL/MOL
REMARK 923 INTER-LIGAND FREE ENERGY PREDICTED BY IDOCK:   -5.18 KCAL/MOL
REMARK 924 INTRA-LIGAND FREE ENERGY PREDICTED BY IDOCK:   -1.27 KCAL/MOL
REMARK 927      BINDING AFFINITY PREDICTED BY RF-SCORE:    0.00 PKD
ROOT
HETATM    1  C   UNL     1     -10.208   9.183  66.470  1.00  0.00    -0.252 C  
HETATM    2  S   UNL     1      -9.181  10.438  67.337  1.00  0.00    -0.141 SA 
HETATM    3  C   UNL     1      -7.563   9.685  66.846  1.00  0.00    -0.095 C  
HETATM    4  CA  UNL     1      -7.881   8.832  65.591  1.00  0.00    -0.097 C  
HETATM    5  C   UNL     1      -6.515  10.789  66.663  1.00  0.00    -0.108 C  
HETATM    6  C   UNL     1      -7.083   8.816  68.027  1.00  0.00    -0.079 C  
HETATM    7  N   UNL     1      -9.252   8.305  65.759  1.00  0.00    -0.131 N  
HETATM    8  C   UNL     1      -7.819   9.580  64.246  1.00  0.00    -0.129 C  
HETATM    9  OXT UNL     1      -6.862  10.227  63.851  1.00  0.00    -0.124 OA 
HETATM   10  O   UNL     1      -8.912   9.386  63.463  1.00  0.00    -0.220 OA 
HETATM   11  C   UNL     1      -9.480   7.233  66.586  1.00  0.00    -0.177 C  
HETATM   12  CA  UNL     1     -10.659   7.945  67.289  1.00  0.00    -0.295 C  
HETATM   13  O   UNL     1      -8.821   6.234  66.763  1.00  0.00    -0.120 OA 
ENDROOT
BRANCH  12  14
HETATM   14  N   UNL     1     -10.578   8.064  68.771  1.00  0.00    -0.351 N  
HETATM   15  C   UNL     1     -11.004   7.032  69.583  1.00  0.00    -0.236 C  
HETATM   16  H   UNL     1     -10.206   8.917  69.190  1.00  0.00     0.000 HD 
HETATM   17  O   UNL     1     -11.376   5.968  69.100  1.00  0.00    -0.364 OA 
BRANCH  15  18
HETATM   18  C   UNL     1     -11.011   7.312  71.006  1.00  0.00    -0.272 A  
HETATM   19  C   UNL     1     -12.120   7.586  71.791  1.00  0.00    -0.308 A  
HETATM   20  C   UNL     1     -13.577   7.712  71.579  1.00  0.00    -0.422 C  
HETATM   21  O   UNL     1     -11.721   7.829  73.061  1.00  0.00    -0.277 OA 
HETATM   22  N   UNL     1     -10.359   7.744  73.146  1.00  0.00    -0.340 NA 
HETATM   23  C   UNL     1      -9.903   7.439  71.918  1.00  0.00    -0.162 A  
BRANCH  23  24
HETATM   24  C   UNL     1      -8.454   7.269  71.721  1.00  0.00    -0.116 A  
HETATM   25  C   UNL     1      -7.857   6.008  71.601  1.00  0.00    -0.102 A  
HETATM   26  C   UNL     1      -6.470   5.882  71.455  1.00  0.00    -0.049 A  
HETATM   27  C   UNL     1      -5.657   7.013  71.447  1.00  0.00    -0.035 A  
HETATM   28  C   UNL     1      -6.230   8.273  71.576  1.00  0.00    -0.041 A  
HETATM   29  C   UNL     1      -7.616   8.400  71.709  1.00  0.00    -0.139 A  
ENDBRANCH  23  24
ENDBRANCH  15  18
ENDBRANCH  12  14
TORSDOF 3
ENDMDL
MODEL      110
REMARK 921   NORMALIZED FREE ENERGY PREDICTED BY IDOCK:   -4.70 KCAL/MOL
REMARK 922        TOTAL FREE ENERGY PREDICTED BY IDOCK:   -6.43 KCAL/MOL
REMARK 923 INTER-LIGAND FREE ENERGY PREDICTED BY IDOCK:   -5.50 KCAL/MOL
REMARK 924 INTRA-LIGAND FREE ENERGY PREDICTED BY IDOCK:   -0.93 KCAL/MOL
REMARK 927      BINDING AFFINITY PREDICTED BY RF-SCORE:    0.00 PKD
ROOT
HETATM    1  C   UNL     1      -8.005  15.703  66.720  1.00  0.00    -0.211 C  
HETATM    2  S   UNL     1      -9.646  14.947  67.069  1.00  0.00    -0.247 SA 
HETATM    3  C   UNL     1     -10.116  16.181  68.365  1.00  0.00    -0.236 C  
HETATM    4  CA  UNL     1      -9.234  17.423  68.077  1.00  0.00    -0.266 C  
HETATM    5  C   UNL     1     -11.631  16.410  68.335  1.00  0.00    -0.071 C  
HETATM    6  C   UNL     1      -9.795  15.552  69.737  1.00  0.00    -0.268 C  
HETATM    7  N   UNL     1      -7.945  16.928  67.547  1.00  0.00    -0.167 N  
HETATM    8  C   UNL     1      -9.811  18.428  67.063  1.00  0.00    -0.326 C  
HETATM    9  OXT UNL     1     -10.916  18.942  67.142  1.00  0.00    -0.410 OA 
HETATM   10  O   UNL     1      -8.935  18.785  66.088  1.00  0.00    -0.449 OA 
HETATM   11  C   UNL     1      -7.002  16.415  68.402  1.00  0.00    -0.144 C  
HETATM   12  CA  UNL     1      -6.791  15.162  67.520  1.00  0.00    -0.174 C  
HETATM   13  O   UNL     1      -6.676  16.778  69.510  1.00  0.00    -0.234 OA 
ENDROOT
BRANCH  12  14
HETATM   14  N   UNL     1      -6.967  13.841  68.184  1.00  0.00    -0.103 N  
HETATM   15  C   UNL     1      -6.194  12.760  67.811  1.00  0.00    -0.138 C  
HETATM   16  H   UNL     1      -7.666  13.734  68.920  1.00  0.00     0.000 HD 
HETATM   17  O   UNL     1      -5.294  12.888  66.989  1.00  0.00    -0.336 OA 
BRANCH  15  18
HETATM   18  C   UNL     1      -6.548  11.493  68.422  1.00  0.00    -0.060 A  
HETATM   19  C   UNL     1      -6.144  11.032  69.665  1.00  0.00    -0.084 A  
HETATM   20  C   UNL     1      -5.292  11.527  70.767  1.00  0.00    -0.138 C  
HETATM   21  O   UNL     1      -6.650   9.793  69.870  1.00  0.00    -0.054 OA 
HETATM   22  N   UNL     1      -7.375   9.401  68.780  1.00  0.00    -0.074 NA 
HETATM   23  C   UNL     1      -7.325  10.405  67.886  1.00  0.00    -0.086 A  
BRANCH  23  24
HETATM   24  C   UNL     1      -8.042  10.256  66.610  1.00  0.00    -0.119 A  
HETATM   25  C   UNL     1      -9.375  10.653  66.447  1.00  0.00    -0.195 A  
HETATM   26  C   UNL     1     -10.038  10.460  65.230  1.00  0.00    -0.370 A  
HETATM   27  C   UNL     1      -9.386   9.847  64.162  1.00  0.00    -0.295 A  
HETATM   28  C   UNL     1      -8.066   9.435  64.307  1.00  0.00    -0.140 A  
HETATM   29  C   UNL     1      -7.399   9.640  65.519  1.00  0.00    -0.106 A  
ENDBRANCH  23  24
ENDBRANCH  15  18
ENDBRANCH  12  14
TORSDOF 3
ENDMDL
MODEL      111
REMARK 921   NORMALIZED FREE ENERGY PREDICTED BY IDOCK:   -4.70 KCAL/MOL
REMARK 922        TOTAL FREE ENERGY PREDICTED BY IDOCK:   -6.43 KCAL/MOL
REMARK 923 INTER-LIGAND FREE ENERGY PREDICTED BY IDOCK:   -5.71 KCAL/MOL
REMARK 924 INTRA-LIGAND FREE ENERGY PREDICTED BY IDOCK:   -0.72 KCAL/MOL
REMARK 927      BINDING AFFINITY PREDICTED BY RF-SCORE:    0.00 PKD
ROOT
HETATM    1  C   UNL     1      -9.462   9.900  69.978  1.00  0.00    -0.202 C  
HETATM    2  S   UNL     1     -11.132   9.298  69.496  1.00  0.00    -0.001 SA 
HETATM    3  C   UNL     1     -10.601   7.542  69.251  1.00  0.00    -0.210 C  
HETATM    4  CA  UNL     1      -9.299   7.395  70.079  1.00  0.00    -0.151 C  
HETATM    5  C   UNL     1     -11.749   6.599  69.629  1.00  0.00    -0.216 C  
HETATM    6  C   UNL     1     -10.350   7.343  67.742  1.00  0.00    -0.273 C  
HETATM    7  N   UNL     1      -8.601   8.698  70.025  1.00  0.00    -0.127 N  
HETATM    8  C   UNL     1      -9.491   7.018  71.560  1.00  0.00    -0.154 C  
HETATM    9  OXT UNL     1     -10.128   6.055  71.957  1.00  0.00    -0.183 OA 
HETATM   10  O   UNL     1      -8.800   7.811  72.419  1.00  0.00    -0.122 OA 
HETATM   11  C   UNL     1      -7.889   9.051  68.906  1.00  0.00    -0.095 C  
HETATM   12  CA  UNL     1      -8.551  10.447  68.847  1.00  0.00    -0.149 C  
HETATM   13  O   UNL     1      -7.185   8.378  68.187  1.00  0.00    -0.086 OA 
ENDROOT
BRANCH  12  14
HETATM   14  N   UNL     1      -9.224  10.814  67.571  1.00  0.00    -0.143 N  
HETATM   15  C   UNL     1      -8.878  11.971  66.902  1.00  0.00    -0.197 C  
HETATM   16  H   UNL     1      -9.947  10.204  67.188  1.00  0.00     0.000 HD 
HETATM   17  O   UNL     1      -7.956  12.672  67.300  1.00  0.00    -0.173 OA 
BRANCH  15  18
HETATM   18  C   UNL     1      -9.695  12.299  65.748  1.00  0.00    -0.228 A  
HETATM   19  C   UNL     1     -10.041  11.448  64.710  1.00  0.00    -0.277 A  
HETATM   20  C   UNL     1      -9.774  10.042  64.343  1.00  0.00    -0.277 C  
HETATM   21  O   UNL     1     -10.782  12.127  63.803  1.00  0.00    -0.357 OA 
HETATM   22  N   UNL     1     -10.929  13.426  64.201  1.00  0.00    -0.358 NA 
HETATM   23  C   UNL     1     -10.277  13.561  65.370  1.00  0.00    -0.302 A  
BRANCH  23  24
HETATM   24  C   UNL     1     -10.284  14.871  66.040  1.00  0.00    -0.317 A  
HETATM   25  C   UNL     1     -11.184  15.184  67.066  1.00  0.00    -0.308 A  
HETATM   26  C   UNL     1     -11.189  16.454  67.655  1.00  0.00    -0.072 A  
HETATM   27  C   UNL     1     -10.308  17.438  67.212  1.00  0.00    -0.336 A  
HETATM   28  C   UNL     1      -9.414  17.151  66.187  1.00  0.00    -0.228 A  
HETATM   29  C   UNL     1      -9.400  15.878  65.608  1.00  0.00    -0.165 A  
ENDBRANCH  23  24
ENDBRANCH  15  18
ENDBRANCH  12  14
TORSDOF 3
ENDMDL
MODEL      112
REMARK 921   NORMALIZED FREE ENERGY PREDICTED BY IDOCK:   -4.66 KCAL/MOL
REMARK 922        TOTAL FREE ENERGY PREDICTED BY IDOCK:   -6.38 KCAL/MOL
REMARK 923 INTER-LIGAND FREE ENERGY PREDICTED BY IDOCK:   -5.39 KCAL/MOL
REMARK 924 INTRA-LIGAND FREE ENERGY PREDICTED BY IDOCK:   -1.00 KCAL/MOL
REMARK 927      BINDING AFFINITY PREDICTED BY RF-SCORE:    0.00 PKD
ROOT
HETATM    1  C   UNL     1     -10.634   8.841  67.633  1.00  0.00    -0.213 C  
HETATM    2  S   UNL     1      -9.611   8.786  66.105  1.00  0.00    -0.230 SA 
HETATM    3  C   UNL     1      -8.069   8.235  66.967  1.00  0.00    -0.104 C  
HETATM    4  CA  UNL     1      -8.556   7.592  68.291  1.00  0.00    -0.124 C  
HETATM    5  C   UNL     1      -7.255   7.329  66.037  1.00  0.00    -0.074 C  
HETATM    6  C   UNL     1      -7.209   9.491  67.219  1.00  0.00    -0.087 C  
HETATM    7  N   UNL     1      -9.763   8.332  68.716  1.00  0.00    -0.154 N  
HETATM    8  C   UNL     1      -8.918   6.097  68.210  1.00  0.00    -0.114 C  
HETATM    9  OXT UNL     1      -8.179   5.223  67.785  1.00  0.00    -0.099 OA 
HETATM   10  O   UNL     1     -10.128   5.798  68.750  1.00  0.00    -0.150 OA 
HETATM   11  C   UNL     1      -9.640   9.559  69.318  1.00  0.00    -0.175 C  
HETATM   12  CA  UNL     1     -10.705  10.192  68.392  1.00  0.00    -0.230 C  
HETATM   13  O   UNL     1      -8.829   9.952  70.125  1.00  0.00    -0.206 OA 
ENDROOT
BRANCH  12  14
HETATM   14  N   UNL     1     -10.293  11.403  67.631  1.00  0.00    -0.179 N  
HETATM   15  C   UNL     1     -11.187  12.432  67.410  1.00  0.00    -0.297 C  
HETATM   16  H   UNL     1      -9.341  11.474  67.270  1.00  0.00     0.000 HD 
HETATM   17  O   UNL     1     -12.308  12.404  67.907  1.00  0.00    -0.261 OA 
BRANCH  15  18
HETATM   18  C   UNL     1     -10.721  13.494  66.540  1.00  0.00    -0.287 A  
HETATM   19  C   UNL     1     -11.340  13.951  65.387  1.00  0.00    -0.309 A  
HETATM   20  C   UNL     1     -12.559  13.618  64.620  1.00  0.00    -0.289 C  
HETATM   21  O   UNL     1     -10.586  14.927  64.830  1.00  0.00    -0.414 OA 
HETATM   22  N   UNL     1      -9.458  15.127  65.577  1.00  0.00    -0.188 NA 
HETATM   23  C   UNL     1      -9.510  14.270  66.612  1.00  0.00    -0.286 A  
BRANCH  23  24
HETATM   24  C   UNL     1      -8.416  14.280  67.597  1.00  0.00    -0.185 A  
HETATM   25  C   UNL     1      -7.354  13.368  67.548  1.00  0.00    -0.165 A  
HETATM   26  C   UNL     1      -6.351  13.381  68.524  1.00  0.00    -0.087 A  
HETATM   27  C   UNL     1      -6.405  14.292  69.576  1.00  0.00    -0.127 A  
HETATM   28  C   UNL     1      -7.457  15.199  69.650  1.00  0.00    -0.181 A  
HETATM   29  C   UNL     1      -8.452  15.194  68.667  1.00  0.00    -0.170 A  
ENDBRANCH  23  24
ENDBRANCH  15  18
ENDBRANCH  12  14
TORSDOF 3
ENDMDL
MODEL      113
REMARK 921   NORMALIZED FREE ENERGY PREDICTED BY IDOCK:   -4.65 KCAL/MOL
REMARK 922        TOTAL FREE ENERGY PREDICTED BY IDOCK:   -6.37 KCAL/MOL
REMARK 923 INTER-LIGAND FREE ENERGY PREDICTED BY IDOCK:   -5.70 KCAL/MOL
REMARK 924 INTRA-LIGAND FREE ENERGY PREDICTED BY IDOCK:   -0.67 KCAL/MOL
REMARK 927      BINDING AFFINITY PREDICTED BY RF-SCORE:    0.00 PKD
ROOT
HETATM    1  C   UNL     1     -10.751   6.384  70.549  1.00  0.00    -0.257 C  
HETATM    2  S   UNL     1      -8.962   6.213  70.945  1.00  0.00    -0.143 SA 
HETATM    3  C   UNL     1      -9.128   6.810  72.688  1.00  0.00    -0.132 C  
HETATM    4  CA  UNL     1     -10.619   6.586  73.050  1.00  0.00    -0.250 C  
HETATM    5  C   UNL     1      -8.105   6.094  73.578  1.00  0.00    -0.108 C  
HETATM    6  C   UNL     1      -8.750   8.305  72.702  1.00  0.00    -0.291 C  
HETATM    7  N   UNL     1     -11.402   6.794  71.813  1.00  0.00    -0.257 N  
HETATM    8  C   UNL     1     -10.967   5.193  73.606  1.00  0.00    -0.288 C  
HETATM    9  OXT UNL     1     -10.416   4.665  74.559  1.00  0.00    -0.262 OA 
HETATM   10  O   UNL     1     -12.032   4.611  72.995  1.00  0.00    -0.125 OA 
HETATM   11  C   UNL     1     -11.665   8.066  71.371  1.00  0.00    -0.287 C  
HETATM   12  CA  UNL     1     -11.216   7.728  69.930  1.00  0.00    -0.062 C  
HETATM   13  O   UNL     1     -11.945   9.064  71.995  1.00  0.00    -0.356 OA 
ENDROOT
BRANCH  12  14
HETATM   14  N   UNL     1     -10.154   8.591  69.342  1.00  0.00    -0.199 N  
HETATM   15  C   UNL     1     -10.080   8.780  67.976  1.00  0.00    -0.196 C  
HETATM   16  H   UNL     1      -9.476   9.046  69.954  1.00  0.00     0.000 HD 
HETATM   17  O   UNL     1     -10.934   8.311  67.233  1.00  0.00    -0.135 OA 
BRANCH  15  18
HETATM   18  C   UNL     1      -8.926   9.522  67.506  1.00  0.00    -0.133 A  
HETATM   19  C   UNL     1      -7.673   9.007  67.216  1.00  0.00    -0.096 A  
HETATM   20  C   UNL     1      -7.024   7.679  67.255  1.00  0.00    -0.084 C  
HETATM   21  O   UNL     1      -6.851  10.014  66.839  1.00  0.00    -0.084 OA 
HETATM   22  N   UNL     1      -7.521  11.204  66.886  1.00  0.00    -0.131 NA 
HETATM   23  C   UNL     1      -8.776  10.938  67.292  1.00  0.00    -0.131 A  
BRANCH  23  24
HETATM   24  C   UNL     1      -9.731  12.050  67.417  1.00  0.00    -0.185 A  
HETATM   25  C   UNL     1     -11.093  11.844  67.669  1.00  0.00    -0.314 A  
HETATM   26  C   UNL     1     -11.981  12.924  67.743  1.00  0.00    -0.336 A  
HETATM   27  C   UNL     1     -11.525  14.225  67.546  1.00  0.00    -0.368 A  
HETATM   28  C   UNL     1     -10.178  14.451  67.284  1.00  0.00    -0.252 A  
HETATM   29  C   UNL     1      -9.289  13.373  67.223  1.00  0.00    -0.233 A  
ENDBRANCH  23  24
ENDBRANCH  15  18
ENDBRANCH  12  14
TORSDOF 3
ENDMDL
MODEL      114
REMARK 921   NORMALIZED FREE ENERGY PREDICTED BY IDOCK:   -4.62 KCAL/MOL
REMARK 922        TOTAL FREE ENERGY PREDICTED BY IDOCK:   -6.33 KCAL/MOL
REMARK 923 INTER-LIGAND FREE ENERGY PREDICTED BY IDOCK:   -5.41 KCAL/MOL
REMARK 924 INTRA-LIGAND FREE ENERGY PREDICTED BY IDOCK:   -0.92 KCAL/MOL
REMARK 927      BINDING AFFINITY PREDICTED BY RF-SCORE:    0.00 PKD
ROOT
HETATM    1  C   UNL     1      -9.871   8.546  69.783  1.00  0.00    -0.186 C  
HETATM    2  S   UNL     1     -11.136   7.210  69.746  1.00  0.00    -0.170 SA 
HETATM    3  C   UNL     1     -11.782   7.557  71.445  1.00  0.00    -0.283 C  
HETATM    4  CA  UNL     1     -11.374   9.023  71.739  1.00  0.00    -0.377 C  
HETATM    5  C   UNL     1     -13.284   7.252  71.497  1.00  0.00    -0.434 C  
HETATM    6  C   UNL     1     -11.100   6.564  72.408  1.00  0.00    -0.293 C  
HETATM    7  N   UNL     1     -10.081   9.258  71.063  1.00  0.00    -0.294 N  
HETATM    8  C   UNL     1     -12.366  10.099  71.258  1.00  0.00    -0.400 C  
HETATM    9  OXT UNL     1     -13.554  10.127  71.538  1.00  0.00    -0.281 OA 
HETATM   10  O   UNL     1     -11.784  11.100  70.547  1.00  0.00    -0.333 OA 
HETATM   11  C   UNL     1      -8.918   8.788  71.621  1.00  0.00    -0.231 C  
HETATM   12  CA  UNL     1      -8.452   8.167  70.283  1.00  0.00    -0.126 C  
HETATM   13  O   UNL     1      -8.573   8.746  72.780  1.00  0.00    -0.412 OA 
ENDROOT
BRANCH  12  14
HETATM   14  N   UNL     1      -8.121   6.716  70.301  1.00  0.00    -0.119 N  
HETATM   15  C   UNL     1      -7.365   6.156  69.290  1.00  0.00    -0.088 C  
HETATM   16  H   UNL     1      -8.455   6.130  71.067  1.00  0.00     0.000 HD 
HETATM   17  O   UNL     1      -6.884   6.857  68.407  1.00  0.00    -0.068 OA 
BRANCH  15  18
HETATM   18  C   UNL     1      -7.223   4.713  69.336  1.00  0.00    -0.052 A  
HETATM   19  C   UNL     1      -6.521   3.979  70.278  1.00  0.00    -0.032 A  
HETATM   20  C   UNL     1      -5.708   4.273  71.477  1.00  0.00    -0.012 C  
HETATM   21  O   UNL     1      -6.591   2.664  69.965  1.00  0.00    -0.032 OA 
HETATM   22  N   UNL     1      -7.314   2.497  68.817  1.00  0.00    -0.047 NA 
HETATM   23  C   UNL     1      -7.703   3.719  68.410  1.00  0.00    -0.061 A  
BRANCH  23  24
HETATM   24  C   UNL     1      -8.519   3.834  67.191  1.00  0.00    -0.102 A  
HETATM   25  C   UNL     1      -8.122   3.281  65.968  1.00  0.00    -0.093 A  
HETATM   26  C   UNL     1      -8.905   3.444  64.819  1.00  0.00    -0.121 A  
HETATM   27  C   UNL     1     -10.086   4.180  64.870  1.00  0.00    -0.213 A  
HETATM   28  C   UNL     1     -10.492   4.748  66.073  1.00  0.00    -0.332 A  
HETATM   29  C   UNL     1      -9.717   4.574  67.223  1.00  0.00    -0.221 A  
ENDBRANCH  23  24
ENDBRANCH  15  18
ENDBRANCH  12  14
TORSDOF 3
ENDMDL
MODEL      115
REMARK 921   NORMALIZED FREE ENERGY PREDICTED BY IDOCK:   -4.61 KCAL/MOL
REMARK 922        TOTAL FREE ENERGY PREDICTED BY IDOCK:   -6.33 KCAL/MOL
REMARK 923 INTER-LIGAND FREE ENERGY PREDICTED BY IDOCK:   -5.72 KCAL/MOL
REMARK 924 INTRA-LIGAND FREE ENERGY PREDICTED BY IDOCK:   -0.60 KCAL/MOL
REMARK 927      BINDING AFFINITY PREDICTED BY RF-SCORE:    0.00 PKD
ROOT
HETATM    1  C   UNL     1     -10.598   9.660  67.331  1.00  0.00    -0.268 C  
HETATM    2  S   UNL     1      -9.545   9.981  68.805  1.00  0.00    -0.176 SA 
HETATM    3  C   UNL     1      -8.221  10.866  67.864  1.00  0.00    -0.114 C  
HETATM    4  CA  UNL     1      -8.909  11.354  66.563  1.00  0.00    -0.187 C  
HETATM    5  C   UNL     1      -7.601  11.955  68.747  1.00  0.00    -0.090 C  
HETATM    6  C   UNL     1      -7.100   9.846  67.576  1.00  0.00    -0.088 C  
HETATM    7  N   UNL     1      -9.925  10.342  66.203  1.00  0.00    -0.226 N  
HETATM    8  C   UNL     1      -9.610  12.722  66.654  1.00  0.00    -0.255 C  
HETATM    9  OXT UNL     1      -9.080  13.753  67.037  1.00  0.00    -0.228 OA 
HETATM   10  O   UNL     1     -10.881  12.717  66.175  1.00  0.00    -0.273 OA 
HETATM   11  C   UNL     1      -9.544   9.169  65.602  1.00  0.00    -0.217 C  
HETATM   12  CA  UNL     1     -10.383   8.318  66.583  1.00  0.00    -0.223 C  
HETATM   13  O   UNL     1      -8.702   8.965  64.757  1.00  0.00    -0.179 OA 
ENDROOT
BRANCH  12  14
HETATM   14  N   UNL     1      -9.659   7.252  67.329  1.00  0.00    -0.145 N  
HETATM   15  C   UNL     1      -9.903   5.919  67.062  1.00  0.00    -0.149 C  
HETATM   16  H   UNL     1      -8.977   7.508  68.043  1.00  0.00     0.000 HD 
HETATM   17  O   UNL     1     -10.655   5.591  66.151  1.00  0.00    -0.182 OA 
BRANCH  15  18
HETATM   18  C   UNL     1      -9.248   4.971  67.943  1.00  0.00    -0.135 A  
HETATM   19  C   UNL     1      -8.295   4.030  67.586  1.00  0.00    -0.094 A  
HETATM   20  C   UNL     1      -7.617   3.611  66.341  1.00  0.00    -0.084 C  
HETATM   21  O   UNL     1      -7.949   3.307  68.676  1.00  0.00    -0.058 OA 
HETATM   22  N   UNL     1      -8.665   3.729  69.761  1.00  0.00    -0.072 NA 
HETATM   23  C   UNL     1      -9.463   4.730  69.346  1.00  0.00    -0.161 A  
BRANCH  23  24
HETATM   24  C   UNL     1     -10.343   5.388  70.326  1.00  0.00    -0.357 A  
HETATM   25  C   UNL     1     -11.362   6.269  69.945  1.00  0.00    -0.504 A  
HETATM   26  C   UNL     1     -12.155   6.908  70.905  1.00  0.00    -0.424 A  
HETATM   27  C   UNL     1     -11.927   6.692  72.262  1.00  0.00    -0.259 A  
HETATM   28  C   UNL     1     -10.912   5.830  72.662  1.00  0.00    -0.311 A  
HETATM   29  C   UNL     1     -10.129   5.182  71.702  1.00  0.00    -0.262 A  
ENDBRANCH  23  24
ENDBRANCH  15  18
ENDBRANCH  12  14
TORSDOF 3
ENDMDL
MODEL      116
REMARK 921   NORMALIZED FREE ENERGY PREDICTED BY IDOCK:   -4.61 KCAL/MOL
REMARK 922        TOTAL FREE ENERGY PREDICTED BY IDOCK:   -6.32 KCAL/MOL
REMARK 923 INTER-LIGAND FREE ENERGY PREDICTED BY IDOCK:   -4.84 KCAL/MOL
REMARK 924 INTRA-LIGAND FREE ENERGY PREDICTED BY IDOCK:   -1.48 KCAL/MOL
REMARK 927      BINDING AFFINITY PREDICTED BY RF-SCORE:    0.00 PKD
ROOT
HETATM    1  C   UNL     1     -10.418   9.328  68.575  1.00  0.00    -0.206 C  
HETATM    2  S   UNL     1     -10.165   7.507  68.647  1.00  0.00    -0.199 SA 
HETATM    3  C   UNL     1      -9.211   7.542  70.232  1.00  0.00    -0.157 C  
HETATM    4  CA  UNL     1      -9.607   8.879  70.910  1.00  0.00    -0.238 C  
HETATM    5  C   UNL     1      -9.499   6.269  71.036  1.00  0.00    -0.187 C  
HETATM    6  C   UNL     1      -7.713   7.502  69.869  1.00  0.00    -0.098 C  
HETATM    7  N   UNL     1      -9.844   9.861  69.830  1.00  0.00    -0.241 N  
HETATM    8  C   UNL     1     -10.867   8.830  71.794  1.00  0.00    -0.345 C  
HETATM    9  OXT UNL     1     -11.046   8.043  72.710  1.00  0.00    -0.373 OA 
HETATM   10  O   UNL     1     -11.760   9.819  71.529  1.00  0.00    -0.379 OA 
HETATM   11  C   UNL     1      -8.781  10.457  69.198  1.00  0.00    -0.166 C  
HETATM   12  CA  UNL     1      -9.365  10.161  67.798  1.00  0.00    -0.141 C  
HETATM   13  O   UNL     1      -7.730  10.854  69.649  1.00  0.00    -0.083 OA 
ENDROOT
BRANCH  12  14
HETATM   14  N   UNL     1      -8.491   9.411  66.855  1.00  0.00    -0.126 N  
HETATM   15  C   UNL     1      -8.854   9.257  65.531  1.00  0.00    -0.187 C  
HETATM   16  H   UNL     1      -7.615   9.007  67.189  1.00  0.00     0.000 HD 
HETATM   17  O   UNL     1      -9.859   9.804  65.091  1.00  0.00    -0.315 OA 
BRANCH  15  18
HETATM   18  C   UNL     1      -8.000   8.391  64.741  1.00  0.00    -0.138 A  
HETATM   19  C   UNL     1      -7.226   8.762  63.653  1.00  0.00    -0.094 A  
HETATM   20  C   UNL     1      -6.958  10.006  62.901  1.00  0.00    -0.128 C  
HETATM   21  O   UNL     1      -6.597   7.670  63.158  1.00  0.00    -0.061 OA 
HETATM   22  N   UNL     1      -6.947   6.564  63.881  1.00  0.00    -0.045 NA 
HETATM   23  C   UNL     1      -7.799   6.969  64.840  1.00  0.00    -0.126 A  
BRANCH  23  24
HETATM   24  C   UNL     1      -8.329   5.972  65.785  1.00  0.00    -0.142 A  
HETATM   25  C   UNL     1      -7.571   5.472  66.851  1.00  0.00    -0.092 A  
HETATM   26  C   UNL     1      -8.093   4.496  67.707  1.00  0.00    -0.099 A  
HETATM   27  C   UNL     1      -9.374   3.989  67.498  1.00  0.00    -0.219 A  
HETATM   28  C   UNL     1     -10.139   4.464  66.438  1.00  0.00    -0.235 A  
HETATM   29  C   UNL     1      -9.622   5.449  65.591  1.00  0.00    -0.021 A  
ENDBRANCH  23  24
ENDBRANCH  15  18
ENDBRANCH  12  14
TORSDOF 3
ENDMDL
MODEL      117
REMARK 921   NORMALIZED FREE ENERGY PREDICTED BY IDOCK:   -4.61 KCAL/MOL
REMARK 922        TOTAL FREE ENERGY PREDICTED BY IDOCK:   -6.32 KCAL/MOL
REMARK 923 INTER-LIGAND FREE ENERGY PREDICTED BY IDOCK:   -5.42 KCAL/MOL
REMARK 924 INTRA-LIGAND FREE ENERGY PREDICTED BY IDOCK:   -0.90 KCAL/MOL
REMARK 927      BINDING AFFINITY PREDICTED BY RF-SCORE:    0.00 PKD
ROOT
HETATM    1  C   UNL     1     -11.087   9.752  67.151  1.00  0.00     0.118 C  
HETATM    2  S   UNL     1     -11.085  11.139  68.360  1.00  0.00    -0.273 SA 
HETATM    3  C   UNL     1      -9.521  11.899  67.727  1.00  0.00    -0.184 C  
HETATM    4  CA  UNL     1      -9.376  11.370  66.277  1.00  0.00    -0.212 C  
HETATM    5  C   UNL     1      -9.588  13.422  67.885  1.00  0.00    -0.216 C  
HETATM    6  C   UNL     1      -8.373  11.414  68.635  1.00  0.00    -0.136 C  
HETATM    7  N   UNL     1      -9.937  10.003  66.254  1.00  0.00    -0.232 N  
HETATM    8  C   UNL     1     -10.091  12.197  65.192  1.00  0.00    -0.261 C  
HETATM    9  OXT UNL     1      -9.942  13.397  65.018  1.00  0.00    -0.253 OA 
HETATM   10  O   UNL     1     -10.859  11.453  64.355  1.00  0.00    -0.335 OA 
HETATM   11  C   UNL     1      -9.206   8.951  66.747  1.00  0.00    -0.159 C  
HETATM   12  CA  UNL     1     -10.397   8.432  67.585  1.00  0.00    -0.252 C  
HETATM   13  O   UNL     1      -8.021   8.719  66.661  1.00  0.00    -0.098 OA 
ENDROOT
BRANCH  12  14
HETATM   14  N   UNL     1     -10.160   8.255  69.044  1.00  0.00    -0.197 N  
HETATM   15  C   UNL     1     -10.790   7.243  69.740  1.00  0.00    -0.235 C  
HETATM   16  H   UNL     1      -9.526   8.887  69.534  1.00  0.00     0.000 HD 
HETATM   17  O   UNL     1     -11.489   6.423  69.156  1.00  0.00    -0.364 OA 
BRANCH  15  18
HETATM   18  C   UNL     1     -10.596   7.253  71.178  1.00  0.00    -0.236 A  
HETATM   19  C   UNL     1     -11.314   7.991  72.106  1.00  0.00    -0.328 A  
HETATM   20  C   UNL     1     -12.424   8.966  72.072  1.00  0.00    -0.461 C  
HETATM   21  O   UNL     1     -10.816   7.760  73.343  1.00  0.00    -0.341 OA 
HETATM   22  N   UNL     1      -9.763   6.893  73.267  1.00  0.00    -0.171 NA 
HETATM   23  C   UNL     1      -9.603   6.574  71.970  1.00  0.00    -0.149 A  
BRANCH  23  24
HETATM   24  C   UNL     1      -8.535   5.632  71.597  1.00  0.00    -0.131 A  
HETATM   25  C   UNL     1      -8.698   4.244  71.680  1.00  0.00    -0.136 A  
HETATM   26  C   UNL     1      -7.648   3.377  71.355  1.00  0.00    -0.051 A  
HETATM   27  C   UNL     1      -6.412   3.885  70.962  1.00  0.00    -0.026 A  
HETATM   28  C   UNL     1      -6.226   5.261  70.884  1.00  0.00    -0.023 A  
HETATM   29  C   UNL     1      -7.280   6.126  71.196  1.00  0.00    -0.079 A  
ENDBRANCH  23  24
ENDBRANCH  15  18
ENDBRANCH  12  14
TORSDOF 3
ENDMDL
MODEL      118
REMARK 921   NORMALIZED FREE ENERGY PREDICTED BY IDOCK:   -4.59 KCAL/MOL
REMARK 922        TOTAL FREE ENERGY PREDICTED BY IDOCK:   -6.30 KCAL/MOL
REMARK 923 INTER-LIGAND FREE ENERGY PREDICTED BY IDOCK:   -4.89 KCAL/MOL
REMARK 924 INTRA-LIGAND FREE ENERGY PREDICTED BY IDOCK:   -1.40 KCAL/MOL
REMARK 927      BINDING AFFINITY PREDICTED BY RF-SCORE:    0.00 PKD
ROOT
HETATM    1  C   UNL     1     -10.418   8.618  67.596  1.00  0.00    -0.244 C  
HETATM    2  S   UNL     1     -10.556   7.805  69.241  1.00  0.00    -0.152 SA 
HETATM    3  C   UNL     1     -10.003   9.289  70.198  1.00  0.00    -0.215 C  
HETATM    4  CA  UNL     1     -10.268  10.494  69.260  1.00  0.00    -0.225 C  
HETATM    5  C   UNL     1     -10.714   9.321  71.555  1.00  0.00    -0.425 C  
HETATM    6  C   UNL     1      -8.500   9.110  70.496  1.00  0.00    -0.236 C  
HETATM    7  N   UNL     1     -10.052  10.024  67.875  1.00  0.00    -0.161 N  
HETATM    8  C   UNL     1     -11.681  11.102  69.342  1.00  0.00    -0.332 C  
HETATM    9  OXT UNL     1     -12.218  11.484  70.370  1.00  0.00    -0.343 OA 
HETATM   10  O   UNL     1     -12.274  11.270  68.131  1.00  0.00    -0.622 OA 
HETATM   11  C   UNL     1      -8.776   9.884  67.389  1.00  0.00    -0.128 C  
HETATM   12  CA  UNL     1      -9.071   8.469  66.841  1.00  0.00    -0.146 C  
HETATM   13  O   UNL     1      -7.799  10.578  67.556  1.00  0.00    -0.104 OA 
ENDROOT
BRANCH  12  14
HETATM   14  N   UNL     1      -8.172   7.374  67.299  1.00  0.00    -0.114 N  
HETATM   15  C   UNL     1      -8.360   6.080  66.857  1.00  0.00    -0.105 C  
HETATM   16  H   UNL     1      -7.409   7.583  67.944  1.00  0.00     0.000 HD 
HETATM   17  O   UNL     1      -9.216   5.823  66.018  1.00  0.00    -0.161 OA 
BRANCH  15  18
HETATM   18  C   UNL     1      -7.516   5.075  67.476  1.00  0.00    -0.083 A  
HETATM   19  C   UNL     1      -6.506   4.351  66.864  1.00  0.00    -0.041 A  
HETATM   20  C   UNL     1      -5.917   4.266  65.510  1.00  0.00    -0.023 C  
HETATM   21  O   UNL     1      -5.971   3.485  67.756  1.00  0.00    -0.026 OA 
HETATM   22  N   UNL     1      -6.613   3.599  68.957  1.00  0.00    -0.039 NA 
HETATM   23  C   UNL     1      -7.557   4.547  68.815  1.00  0.00    -0.064 A  
BRANCH  23  24
HETATM   24  C   UNL     1      -8.399   4.889  69.973  1.00  0.00    -0.073 A  
HETATM   25  C   UNL     1      -7.918   5.635  71.056  1.00  0.00    -0.111 A  
HETATM   26  C   UNL     1      -8.736   5.908  72.159  1.00  0.00    -0.136 A  
HETATM   27  C   UNL     1     -10.040   5.421  72.206  1.00  0.00    -0.231 A  
HETATM   28  C   UNL     1     -10.533   4.669  71.146  1.00  0.00    -0.065 A  
HETATM   29  C   UNL     1      -9.721   4.407  70.038  1.00  0.00    -0.286 A  
ENDBRANCH  23  24
ENDBRANCH  15  18
ENDBRANCH  12  14
TORSDOF 3
ENDMDL
MODEL      119
REMARK 921   NORMALIZED FREE ENERGY PREDICTED BY IDOCK:   -4.58 KCAL/MOL
REMARK 922        TOTAL FREE ENERGY PREDICTED BY IDOCK:   -6.29 KCAL/MOL
REMARK 923 INTER-LIGAND FREE ENERGY PREDICTED BY IDOCK:   -5.13 KCAL/MOL
REMARK 924 INTRA-LIGAND FREE ENERGY PREDICTED BY IDOCK:   -1.16 KCAL/MOL
REMARK 927      BINDING AFFINITY PREDICTED BY RF-SCORE:    0.00 PKD
ROOT
HETATM    1  C   UNL     1      -9.910   8.110  70.055  1.00  0.00    -0.182 C  
HETATM    2  S   UNL     1     -11.297   6.915  69.871  1.00  0.00    -0.241 SA 
HETATM    3  C   UNL     1     -12.026   7.261  71.536  1.00  0.00    -0.316 C  
HETATM    4  CA  UNL     1     -11.494   8.664  71.924  1.00  0.00    -0.348 C  
HETATM    5  C   UNL     1     -13.550   7.111  71.472  1.00  0.00    -0.408 C  
HETATM    6  C   UNL     1     -11.518   6.166  72.497  1.00  0.00    -0.318 C  
HETATM    7  N   UNL     1     -10.138   8.790  71.349  1.00  0.00    -0.255 N  
HETATM    8  C   UNL     1     -12.335   9.855  71.427  1.00  0.00    -0.404 C  
HETATM    9  OXT UNL     1     -13.532   9.996  71.627  1.00  0.00    -0.359 OA 
HETATM   10  O   UNL     1     -11.606  10.817  70.804  1.00  0.00    -0.322 OA 
HETATM   11  C   UNL     1      -9.072   8.181  71.962  1.00  0.00    -0.180 C  
HETATM   12  CA  UNL     1      -8.576   7.567  70.632  1.00  0.00    -0.137 C  
HETATM   13  O   UNL     1      -8.817   8.058  73.139  1.00  0.00    -0.201 OA 
ENDROOT
BRANCH  12  14
HETATM   14  N   UNL     1      -8.395   6.089  70.606  1.00  0.00    -0.123 N  
HETATM   15  C   UNL     1      -7.133   5.539  70.495  1.00  0.00    -0.062 C  
HETATM   16  H   UNL     1      -9.209   5.478  70.670  1.00  0.00     0.000 HD 
HETATM   17  O   UNL     1      -6.137   6.252  70.501  1.00  0.00    -0.032 OA 
BRANCH  15  18
HETATM   18  C   UNL     1      -7.087   4.098  70.337  1.00  0.00    -0.041 A  
HETATM   19  C   UNL     1      -6.380   3.392  69.377  1.00  0.00    -0.029 A  
HETATM   20  C   UNL     1      -5.495   3.722  68.240  1.00  0.00    -0.013 C  
HETATM   21  O   UNL     1      -6.615   2.068  69.530  1.00  0.00    -0.029 OA 
HETATM   22  N   UNL     1      -7.483   1.866  70.566  1.00  0.00    -0.033 NA 
HETATM   23  C   UNL     1      -7.791   3.076  71.069  1.00  0.00    -0.047 A  
BRANCH  23  24
HETATM   24  C   UNL     1      -8.707   3.155  72.218  1.00  0.00    -0.101 A  
HETATM   25  C   UNL     1      -8.385   3.854  73.387  1.00  0.00    -0.088 A  
HETATM   26  C   UNL     1      -9.264   3.875  74.477  1.00  0.00    -0.115 A  
HETATM   27  C   UNL     1     -10.470   3.180  74.421  1.00  0.00    -0.237 A  
HETATM   28  C   UNL     1     -10.804   2.470  73.273  1.00  0.00    -0.280 A  
HETATM   29  C   UNL     1      -9.931   2.460  72.180  1.00  0.00    -0.230 A  
ENDBRANCH  23  24
ENDBRANCH  15  18
ENDBRANCH  12  14
TORSDOF 3
ENDMDL
MODEL      120
REMARK 921   NORMALIZED FREE ENERGY PREDICTED BY IDOCK:   -4.57 KCAL/MOL
REMARK 922        TOTAL FREE ENERGY PREDICTED BY IDOCK:   -6.28 KCAL/MOL
REMARK 923 INTER-LIGAND FREE ENERGY PREDICTED BY IDOCK:   -5.49 KCAL/MOL
REMARK 924 INTRA-LIGAND FREE ENERGY PREDICTED BY IDOCK:   -0.79 KCAL/MOL
REMARK 927      BINDING AFFINITY PREDICTED BY RF-SCORE:    0.00 PKD
ROOT
HETATM    1  C   UNL     1      -9.622  10.685  66.942  1.00  0.00    -0.171 C  
HETATM    2  S   UNL     1      -7.809  10.794  66.648  1.00  0.00    -0.146 SA 
HETATM    3  C   UNL     1      -7.794   9.535  65.292  1.00  0.00    -0.111 C  
HETATM    4  CA  UNL     1      -9.249   9.499  64.759  1.00  0.00    -0.205 C  
HETATM    5  C   UNL     1      -6.710   9.893  64.268  1.00  0.00    -0.126 C  
HETATM    6  C   UNL     1      -7.376   8.188  65.918  1.00  0.00    -0.076 C  
HETATM    7  N   UNL     1     -10.139   9.760  65.910  1.00  0.00    -0.273 N  
HETATM    8  C   UNL     1      -9.580  10.524  63.658  1.00  0.00    -0.320 C  
HETATM    9  OXT UNL     1      -8.955  10.656  62.618  1.00  0.00    -0.221 OA 
HETATM   10  O   UNL     1     -10.713  11.235  63.897  1.00  0.00    -0.363 OA 
HETATM   11  C   UNL     1     -10.409   8.760  66.811  1.00  0.00    -0.258 C  
HETATM   12  CA  UNL     1     -10.108   9.679  68.018  1.00  0.00    -0.178 C  
HETATM   13  O   UNL     1     -10.602   7.580  66.629  1.00  0.00    -0.268 OA 
ENDROOT
BRANCH  12  14
HETATM   14  N   UNL     1      -9.084   9.196  68.985  1.00  0.00    -0.142 N  
HETATM   15  C   UNL     1      -9.281   9.337  70.345  1.00  0.00    -0.247 C  
HETATM   16  H   UNL     1      -8.230   8.757  68.641  1.00  0.00     0.000 HD 
HETATM   17  O   UNL     1     -10.335   9.785  70.781  1.00  0.00    -0.294 OA 
BRANCH  15  18
HETATM   18  C   UNL     1      -8.160   8.961  71.185  1.00  0.00    -0.201 A  
HETATM   19  C   UNL     1      -6.884   9.501  71.154  1.00  0.00     0.022 A  
HETATM   20  C   UNL     1      -6.177  10.535  70.370  1.00  0.00    -0.128 C  
HETATM   21  O   UNL     1      -6.107   8.867  72.063  1.00  0.00    -0.073 OA 
HETATM   22  N   UNL     1      -6.830   7.896  72.697  1.00  0.00    -0.071 NA 
HETATM   23  C   UNL     1      -8.073   7.925  72.182  1.00  0.00    -0.124 A  
BRANCH  23  24
HETATM   24  C   UNL     1      -9.078   6.983  72.700  1.00  0.00    -0.153 A  
HETATM   25  C   UNL     1      -9.342   6.846  74.068  1.00  0.00    -0.257 A  
HETATM   26  C   UNL     1     -10.277   5.911  74.528  1.00  0.00    -0.293 A  
HETATM   27  C   UNL     1     -10.947   5.085  73.629  1.00  0.00    -0.379 A  
HETATM   28  C   UNL     1     -10.691   5.198  72.267  1.00  0.00    -0.266 A  
HETATM   29  C   UNL     1      -9.767   6.140  71.807  1.00  0.00    -0.171 A  
ENDBRANCH  23  24
ENDBRANCH  15  18
ENDBRANCH  12  14
TORSDOF 3
ENDMDL
MODEL      121
REMARK 921   NORMALIZED FREE ENERGY PREDICTED BY IDOCK:   -4.57 KCAL/MOL
REMARK 922        TOTAL FREE ENERGY PREDICTED BY IDOCK:   -6.27 KCAL/MOL
REMARK 923 INTER-LIGAND FREE ENERGY PREDICTED BY IDOCK:   -4.79 KCAL/MOL
REMARK 924 INTRA-LIGAND FREE ENERGY PREDICTED BY IDOCK:   -1.48 KCAL/MOL
REMARK 927      BINDING AFFINITY PREDICTED BY RF-SCORE:    0.00 PKD
ROOT
HETATM    1  C   UNL     1     -10.969   7.862  70.305  1.00  0.00    -0.248 C  
HETATM    2  S   UNL     1      -9.354   8.340  71.045  1.00  0.00    -0.172 SA 
HETATM    3  C   UNL     1      -8.457   8.420  69.428  1.00  0.00    -0.125 C  
HETATM    4  CA  UNL     1      -9.566   8.616  68.362  1.00  0.00    -0.147 C  
HETATM    5  C   UNL     1      -7.381   9.510  69.489  1.00  0.00    -0.077 C  
HETATM    6  C   UNL     1      -7.713   7.081  69.247  1.00  0.00    -0.109 C  
HETATM    7  N   UNL     1     -10.761   7.889  68.840  1.00  0.00    -0.134 N  
HETATM    8  C   UNL     1      -9.974  10.075  68.087  1.00  0.00    -0.153 C  
HETATM    9  OXT UNL     1      -9.200  10.970  67.784  1.00  0.00    -0.150 OA 
HETATM   10  O   UNL     1     -11.316  10.282  68.118  1.00  0.00    -0.268 OA 
HETATM   11  C   UNL     1     -10.833   6.524  68.712  1.00  0.00    -0.299 C  
HETATM   12  CA  UNL     1     -11.274   6.345  70.184  1.00  0.00    -0.390 C  
HETATM   13  O   UNL     1     -10.469   5.807  67.808  1.00  0.00    -0.196 OA 
ENDROOT
BRANCH  12  14
HETATM   14  N   UNL     1     -10.447   5.433  71.022  1.00  0.00    -0.241 N  
HETATM   15  C   UNL     1     -10.836   5.117  72.309  1.00  0.00    -0.176 C  
HETATM   16  H   UNL     1      -9.587   5.038  70.642  1.00  0.00     0.000 HD 
HETATM   17  O   UNL     1     -11.908   5.513  72.753  1.00  0.00    -0.271 OA 
BRANCH  15  18
HETATM   18  C   UNL     1      -9.887   4.337  73.079  1.00  0.00    -0.177 A  
HETATM   19  C   UNL     1      -9.987   2.992  73.399  1.00  0.00    -0.108 A  
HETATM   20  C   UNL     1     -10.955   1.902  73.157  1.00  0.00    -0.261 C  
HETATM   21  O   UNL     1      -8.926   2.633  74.159  1.00  0.00    -0.074 OA 
HETATM   22  N   UNL     1      -8.119   3.715  74.374  1.00  0.00    -0.080 NA 
HETATM   23  C   UNL     1      -8.678   4.760  73.738  1.00  0.00    -0.106 A  
BRANCH  23  24
HETATM   24  C   UNL     1      -8.003   6.067  73.791  1.00  0.00    -0.101 A  
HETATM   25  C   UNL     1      -8.486   7.130  74.563  1.00  0.00    -0.224 A  
HETATM   26  C   UNL     1      -7.840   8.372  74.559  1.00  0.00    -0.259 A  
HETATM   27  C   UNL     1      -6.712   8.576  73.767  1.00  0.00    -0.107 A  
HETATM   28  C   UNL     1      -6.223   7.536  72.984  1.00  0.00    -0.059 A  
HETATM   29  C   UNL     1      -6.861   6.292  72.998  1.00  0.00    -0.074 A  
ENDBRANCH  23  24
ENDBRANCH  15  18
ENDBRANCH  12  14
TORSDOF 3
ENDMDL
MODEL      122
REMARK 921   NORMALIZED FREE ENERGY PREDICTED BY IDOCK:   -4.55 KCAL/MOL
REMARK 922        TOTAL FREE ENERGY PREDICTED BY IDOCK:   -6.26 KCAL/MOL
REMARK 923 INTER-LIGAND FREE ENERGY PREDICTED BY IDOCK:   -4.83 KCAL/MOL
REMARK 924 INTRA-LIGAND FREE ENERGY PREDICTED BY IDOCK:   -1.42 KCAL/MOL
REMARK 927      BINDING AFFINITY PREDICTED BY RF-SCORE:    0.00 PKD
ROOT
HETATM    1  C   UNL     1     -10.948   6.312  70.494  1.00  0.00    -0.312 C  
HETATM    2  S   UNL     1      -9.120   6.227  70.692  1.00  0.00    -0.151 SA 
HETATM    3  C   UNL     1      -9.116   6.914  72.410  1.00  0.00    -0.133 C  
HETATM    4  CA  UNL     1     -10.546   6.658  72.950  1.00  0.00    -0.245 C  
HETATM    5  C   UNL     1      -7.971   6.285  73.213  1.00  0.00    -0.105 C  
HETATM    6  C   UNL     1      -8.800   8.420  72.303  1.00  0.00    -0.289 C  
HETATM    7  N   UNL     1     -11.470   6.769  71.801  1.00  0.00    -0.267 N  
HETATM    8  C   UNL     1     -10.772   5.287  73.613  1.00  0.00    -0.294 C  
HETATM    9  OXT UNL     1     -10.097   4.832  74.523  1.00  0.00    -0.188 OA 
HETATM   10  O   UNL     1     -11.873   4.634  73.157  1.00  0.00    -0.227 OA 
HETATM   11  C   UNL     1     -11.834   8.004  71.327  1.00  0.00    -0.294 C  
HETATM   12  CA  UNL     1     -11.534   7.602  69.864  1.00  0.00     0.081 C  
HETATM   13  O   UNL     1     -12.083   9.025  71.927  1.00  0.00    -0.336 OA 
ENDROOT
BRANCH  12  14
HETATM   14  N   UNL     1     -10.582   8.468  69.116  1.00  0.00    -0.323 N  
HETATM   15  C   UNL     1     -10.372   8.276  67.764  1.00  0.00    -0.234 C  
HETATM   16  H   UNL     1     -10.080   9.209  69.605  1.00  0.00     0.000 HD 
HETATM   17  O   UNL     1     -11.027   7.448  67.141  1.00  0.00    -0.312 OA 
BRANCH  15  18
HETATM   18  C   UNL     1      -9.322   9.081  67.170  1.00  0.00    -0.184 A  
HETATM   19  C   UNL     1      -9.489  10.188  66.353  1.00  0.00    -0.176 A  
HETATM   20  C   UNL     1     -10.629  10.939  65.785  1.00  0.00    -0.230 C  
HETATM   21  O   UNL     1      -8.275  10.648  65.968  1.00  0.00    -0.148 OA 
HETATM   22  N   UNL     1      -7.291   9.861  66.496  1.00  0.00    -0.097 NA 
HETATM   23  C   UNL     1      -7.894   8.902  67.222  1.00  0.00    -0.096 A  
BRANCH  23  24
HETATM   24  C   UNL     1      -7.060   7.912  67.923  1.00  0.00    -0.086 A  
HETATM   25  C   UNL     1      -6.263   8.248  69.023  1.00  0.00    -0.043 A  
HETATM   26  C   UNL     1      -5.452   7.290  69.642  1.00  0.00    -0.022 A  
HETATM   27  C   UNL     1      -5.409   5.985  69.157  1.00  0.00    -0.004 A  
HETATM   28  C   UNL     1      -6.185   5.633  68.058  1.00  0.00    -0.037 A  
HETATM   29  C   UNL     1      -7.005   6.588  67.448  1.00  0.00    -0.078 A  
ENDBRANCH  23  24
ENDBRANCH  15  18
ENDBRANCH  12  14
TORSDOF 3
ENDMDL
MODEL      123
REMARK 921   NORMALIZED FREE ENERGY PREDICTED BY IDOCK:   -4.53 KCAL/MOL
REMARK 922        TOTAL FREE ENERGY PREDICTED BY IDOCK:   -6.23 KCAL/MOL
REMARK 923 INTER-LIGAND FREE ENERGY PREDICTED BY IDOCK:   -4.91 KCAL/MOL
REMARK 924 INTRA-LIGAND FREE ENERGY PREDICTED BY IDOCK:   -1.32 KCAL/MOL
REMARK 927      BINDING AFFINITY PREDICTED BY RF-SCORE:    0.00 PKD
ROOT
HETATM    1  C   UNL     1     -10.357   8.922  71.786  1.00  0.00    -0.356 C  
HETATM    2  S   UNL     1      -9.056   9.281  70.535  1.00  0.00    -0.261 SA 
HETATM    3  C   UNL     1     -10.223   9.315  69.099  1.00  0.00    -0.206 C  
HETATM    4  CA  UNL     1     -11.616   9.597  69.719  1.00  0.00     0.025 C  
HETATM    5  C   UNL     1      -9.731  10.328  68.059  1.00  0.00    -0.167 C  
HETATM    6  C   UNL     1     -10.162   7.930  68.423  1.00  0.00    -0.232 C  
HETATM    7  N   UNL     1     -11.639   8.949  71.048  1.00  0.00    -0.284 N  
HETATM    8  C   UNL     1     -11.972  11.084  69.907  1.00  0.00    -0.351 C  
HETATM    9  OXT UNL     1     -11.936  11.926  69.024  1.00  0.00    -0.299 OA 
HETATM   10  O   UNL     1     -12.432  11.382  71.149  1.00  0.00    -0.382 OA 
HETATM   11  C   UNL     1     -11.831   7.594  71.149  1.00  0.00    -0.293 C  
HETATM   12  CA  UNL     1     -10.634   7.432  72.114  1.00  0.00    -0.220 C  
HETATM   13  O   UNL     1     -12.561   6.863  70.519  1.00  0.00    -0.216 OA 
ENDROOT
BRANCH  12  14
HETATM   14  N   UNL     1      -9.582   6.457  71.715  1.00  0.00    -0.154 N  
HETATM   15  C   UNL     1      -9.745   5.108  71.961  1.00  0.00    -0.159 C  
HETATM   16  H   UNL     1      -8.734   6.788  71.255  1.00  0.00     0.000 HD 
HETATM   17  O   UNL     1     -10.792   4.680  72.435  1.00  0.00    -0.162 OA 
BRANCH  15  18
HETATM   18  C   UNL     1      -8.600   4.271  71.658  1.00  0.00    -0.124 A  
HETATM   19  C   UNL     1      -7.817   3.579  72.569  1.00  0.00    -0.068 A  
HETATM   20  C   UNL     1      -7.778   3.407  74.036  1.00  0.00    -0.066 C  
HETATM   21  O   UNL     1      -6.822   2.940  71.909  1.00  0.00    -0.022 OA 
HETATM   22  N   UNL     1      -6.908   3.201  70.571  1.00  0.00    -0.033 NA 
HETATM   23  C   UNL     1      -7.969   4.008  70.390  1.00  0.00    -0.051 A  
BRANCH  23  24
HETATM   24  C   UNL     1      -8.308   4.440  69.025  1.00  0.00    -0.087 A  
HETATM   25  C   UNL     1      -9.471   4.015  68.371  1.00  0.00    -0.211 A  
HETATM   26  C   UNL     1      -9.742   4.414  67.057  1.00  0.00    -0.232 A  
HETATM   27  C   UNL     1      -8.845   5.228  66.369  1.00  0.00    -0.123 A  
HETATM   28  C   UNL     1      -7.679   5.653  66.997  1.00  0.00    -0.101 A  
HETATM   29  C   UNL     1      -7.415   5.264  68.314  1.00  0.00    -0.076 A  
ENDBRANCH  23  24
ENDBRANCH  15  18
ENDBRANCH  12  14
TORSDOF 3
ENDMDL
MODEL      124
REMARK 921   NORMALIZED FREE ENERGY PREDICTED BY IDOCK:   -4.53 KCAL/MOL
REMARK 922        TOTAL FREE ENERGY PREDICTED BY IDOCK:   -6.23 KCAL/MOL
REMARK 923 INTER-LIGAND FREE ENERGY PREDICTED BY IDOCK:   -4.74 KCAL/MOL
REMARK 924 INTRA-LIGAND FREE ENERGY PREDICTED BY IDOCK:   -1.48 KCAL/MOL
REMARK 927      BINDING AFFINITY PREDICTED BY RF-SCORE:    0.00 PKD
ROOT
HETATM    1  C   UNL     1     -11.220   8.949  72.322  1.00  0.00    -0.199 C  
HETATM    2  S   UNL     1      -9.752   8.864  71.216  1.00  0.00    -0.303 SA 
HETATM    3  C   UNL     1     -10.710   9.154  69.660  1.00  0.00    -0.225 C  
HETATM    4  CA  UNL     1     -12.019   9.847  70.116  1.00  0.00    -0.077 C  
HETATM    5  C   UNL     1      -9.847   9.934  68.662  1.00  0.00    -0.168 C  
HETATM    6  C   UNL     1     -10.979   7.775  69.022  1.00  0.00     0.056 C  
HETATM    7  N   UNL     1     -12.360   9.299  71.447  1.00  0.00    -0.326 N  
HETATM    8  C   UNL     1     -11.953  11.381  70.235  1.00  0.00    -0.373 C  
HETATM    9  OXT UNL     1     -11.590  12.134  69.345  1.00  0.00    -0.282 OA 
HETATM   10  O   UNL     1     -12.432  11.859  71.413  1.00  0.00    -0.272 OA 
HETATM   11  C   UNL     1     -12.940   8.060  71.552  1.00  0.00    -0.303 C  
HETATM   12  CA  UNL     1     -11.943   7.616  72.647  1.00  0.00    -0.159 C  
HETATM   13  O   UNL     1     -13.781   7.533  70.860  1.00  0.00    -0.110 OA 
ENDROOT
BRANCH  12  14
HETATM   14  N   UNL     1     -11.178   6.365  72.385  1.00  0.00    -0.265 N  
HETATM   15  C   UNL     1     -10.335   5.843  73.347  1.00  0.00    -0.231 C  
HETATM   16  H   UNL     1     -11.277   5.890  71.488  1.00  0.00     0.000 HD 
HETATM   17  O   UNL     1     -10.266   6.351  74.460  1.00  0.00    -0.342 OA 
BRANCH  15  18
HETATM   18  C   UNL     1      -9.536   4.706  72.933  1.00  0.00    -0.157 A  
HETATM   19  C   UNL     1      -9.638   3.407  73.404  1.00  0.00    -0.107 A  
HETATM   20  C   UNL     1     -10.466   2.688  74.396  1.00  0.00    -0.210 C  
HETATM   21  O   UNL     1      -8.700   2.637  72.804  1.00  0.00    -0.070 OA 
HETATM   22  N   UNL     1      -7.953   3.397  71.949  1.00  0.00    -0.061 NA 
HETATM   23  C   UNL     1      -8.431   4.653  72.011  1.00  0.00    -0.118 A  
BRANCH  23  24
HETATM   24  C   UNL     1      -7.814   5.690  71.168  1.00  0.00    -0.110 A  
HETATM   25  C   UNL     1      -8.071   5.793  69.796  1.00  0.00    -0.104 A  
HETATM   26  C   UNL     1      -7.436   6.768  69.018  1.00  0.00    -0.096 A  
HETATM   27  C   UNL     1      -6.517   7.641  69.595  1.00  0.00    -0.031 A  
HETATM   28  C   UNL     1      -6.238   7.548  70.954  1.00  0.00    -0.035 A  
HETATM   29  C   UNL     1      -6.883   6.582  71.734  1.00  0.00    -0.064 A  
ENDBRANCH  23  24
ENDBRANCH  15  18
ENDBRANCH  12  14
TORSDOF 3
ENDMDL
MODEL      125
REMARK 921   NORMALIZED FREE ENERGY PREDICTED BY IDOCK:   -4.52 KCAL/MOL
REMARK 922        TOTAL FREE ENERGY PREDICTED BY IDOCK:   -6.22 KCAL/MOL
REMARK 923 INTER-LIGAND FREE ENERGY PREDICTED BY IDOCK:   -5.43 KCAL/MOL
REMARK 924 INTRA-LIGAND FREE ENERGY PREDICTED BY IDOCK:   -0.79 KCAL/MOL
REMARK 927      BINDING AFFINITY PREDICTED BY RF-SCORE:    0.00 PKD
ROOT
HETATM    1  C   UNL     1      -9.053   7.988  70.201  1.00  0.00    -0.151 C  
HETATM    2  S   UNL     1      -9.068   9.793  69.847  1.00  0.00    -0.214 SA 
HETATM    3  C   UNL     1     -10.898   9.889  69.594  1.00  0.00    -0.253 C  
HETATM    4  CA  UNL     1     -11.472   8.652  70.332  1.00  0.00    -0.136 C  
HETATM    5  C   UNL     1     -11.413  11.254  70.066  1.00  0.00    -0.359 C  
HETATM    6  C   UNL     1     -11.157   9.826  68.075  1.00  0.00    -0.168 C  
HETATM    7  N   UNL     1     -10.472   7.570  70.208  1.00  0.00    -0.218 N  
HETATM    8  C   UNL     1     -11.776   8.852  71.828  1.00  0.00    -0.362 C  
HETATM    9  OXT UNL     1     -12.478   9.741  72.285  1.00  0.00    -0.287 OA 
HETATM   10  O   UNL     1     -11.262   7.879  72.625  1.00  0.00    -0.344 OA 
HETATM   11  C   UNL     1     -10.366   6.863  69.037  1.00  0.00    -0.192 C  
HETATM   12  CA  UNL     1      -8.829   7.030  69.001  1.00  0.00    -0.134 C  
HETATM   13  O   UNL     1     -11.227   6.473  68.282  1.00  0.00    -0.277 OA 
ENDROOT
BRANCH  12  14
HETATM   14  N   UNL     1      -8.251   7.635  67.769  1.00  0.00    -0.118 N  
HETATM   15  C   UNL     1      -8.337   6.977  66.558  1.00  0.00    -0.121 C  
HETATM   16  H   UNL     1      -7.788   8.542  67.820  1.00  0.00     0.000 HD 
HETATM   17  O   UNL     1      -8.961   5.927  66.459  1.00  0.00    -0.123 OA 
BRANCH  15  18
HETATM   18  C   UNL     1      -7.619   7.590  65.457  1.00  0.00    -0.093 A  
HETATM   19  C   UNL     1      -6.618   7.008  64.695  1.00  0.00    -0.043 A  
HETATM   20  C   UNL     1      -5.918   5.707  64.658  1.00  0.00    -0.022 C  
HETATM   21  O   UNL     1      -6.169   7.905  63.786  1.00  0.00    -0.060 OA 
HETATM   22  N   UNL     1      -6.835   9.090  63.932  1.00  0.00    -0.088 NA 
HETATM   23  C   UNL     1      -7.713   8.931  64.939  1.00  0.00    -0.112 A  
BRANCH  23  24
HETATM   24  C   UNL     1      -8.584  10.059  65.305  1.00  0.00    -0.166 A  
HETATM   25  C   UNL     1      -9.809  10.297  64.671  1.00  0.00    -0.396 A  
HETATM   26  C   UNL     1     -10.594  11.403  65.018  1.00  0.00    -0.359 A  
HETATM   27  C   UNL     1     -10.157  12.300  65.990  1.00  0.00    -0.269 A  
HETATM   28  C   UNL     1      -8.938  12.087  66.624  1.00  0.00    -0.204 A  
HETATM   29  C   UNL     1      -8.160  10.975  66.287  1.00  0.00    -0.159 A  
ENDBRANCH  23  24
ENDBRANCH  15  18
ENDBRANCH  12  14
TORSDOF 3
ENDMDL
MODEL      126
REMARK 921   NORMALIZED FREE ENERGY PREDICTED BY IDOCK:   -4.48 KCAL/MOL
REMARK 922        TOTAL FREE ENERGY PREDICTED BY IDOCK:   -6.17 KCAL/MOL
REMARK 923 INTER-LIGAND FREE ENERGY PREDICTED BY IDOCK:   -5.30 KCAL/MOL
REMARK 924 INTRA-LIGAND FREE ENERGY PREDICTED BY IDOCK:   -0.87 KCAL/MOL
REMARK 927      BINDING AFFINITY PREDICTED BY RF-SCORE:    0.00 PKD
ROOT
HETATM    1  C   UNL     1      -7.903   7.081  66.465  1.00  0.00    -0.106 C  
HETATM    2  S   UNL     1      -6.949   7.468  67.990  1.00  0.00    -0.074 SA 
HETATM    3  C   UNL     1      -7.974   6.394  69.094  1.00  0.00    -0.111 C  
HETATM    4  CA  UNL     1      -8.650   5.370  68.146  1.00  0.00    -0.096 C  
HETATM    5  C   UNL     1      -7.094   5.806  70.203  1.00  0.00    -0.067 C  
HETATM    6  C   UNL     1      -9.007   7.303  69.791  1.00  0.00    -0.142 C  
HETATM    7  N   UNL     1      -8.900   6.064  66.865  1.00  0.00    -0.115 N  
HETATM    8  C   UNL     1      -7.832   4.099  67.848  1.00  0.00    -0.079 C  
HETATM    9  OXT UNL     1      -7.363   3.356  68.696  1.00  0.00    -0.050 OA 
HETATM   10  O   UNL     1      -7.743   3.805  66.525  1.00  0.00    -0.086 OA 
HETATM   11  C   UNL     1      -9.963   6.925  66.746  1.00  0.00    -0.182 C  
HETATM   12  CA  UNL     1      -9.082   8.024  66.107  1.00  0.00    -0.176 C  
HETATM   13  O   UNL     1     -11.085   6.842  67.192  1.00  0.00    -0.370 OA 
ENDROOT
BRANCH  12  14
HETATM   14  N   UNL     1      -9.092   9.356  66.772  1.00  0.00    -0.137 N  
HETATM   15  C   UNL     1      -8.430  10.428  66.205  1.00  0.00    -0.144 C  
HETATM   16  H   UNL     1      -9.591   9.479  67.653  1.00  0.00     0.000 HD 
HETATM   17  O   UNL     1      -7.895  10.323  65.107  1.00  0.00    -0.138 OA 
BRANCH  15  18
HETATM   18  C   UNL     1      -8.387  11.636  67.007  1.00  0.00    -0.169 A  
HETATM   19  C   UNL     1      -7.565  11.878  68.097  1.00  0.00    -0.121 A  
HETATM   20  C   UNL     1      -6.526  11.136  68.841  1.00  0.00    -0.056 C  
HETATM   21  O   UNL     1      -7.842  13.103  68.603  1.00  0.00    -0.126 OA 
HETATM   22  N   UNL     1      -8.848  13.686  67.886  1.00  0.00    -0.177 NA 
HETATM   23  C   UNL     1      -9.202  12.820  66.919  1.00  0.00    -0.229 A  
BRANCH  23  24
HETATM   24  C   UNL     1     -10.267  13.203  65.978  1.00  0.00    -0.287 A  
HETATM   25  C   UNL     1     -10.300  14.454  65.351  1.00  0.00    -0.400 A  
HETATM   26  C   UNL     1     -11.349  14.800  64.492  1.00  0.00    -0.309 A  
HETATM   27  C   UNL     1     -12.394  13.907  64.262  1.00  0.00    -0.390 A  
HETATM   28  C   UNL     1     -12.386  12.664  64.884  1.00  0.00    -0.563 A  
HETATM   29  C   UNL     1     -11.331  12.314  65.732  1.00  0.00    -0.400 A  
ENDBRANCH  23  24
ENDBRANCH  15  18
ENDBRANCH  12  14
TORSDOF 3
ENDMDL
MODEL      127
REMARK 921   NORMALIZED FREE ENERGY PREDICTED BY IDOCK:   -4.48 KCAL/MOL
REMARK 922        TOTAL FREE ENERGY PREDICTED BY IDOCK:   -6.17 KCAL/MOL
REMARK 923 INTER-LIGAND FREE ENERGY PREDICTED BY IDOCK:   -5.59 KCAL/MOL
REMARK 924 INTRA-LIGAND FREE ENERGY PREDICTED BY IDOCK:   -0.58 KCAL/MOL
REMARK 927      BINDING AFFINITY PREDICTED BY RF-SCORE:    0.00 PKD
ROOT
HETATM    1  C   UNL     1      -9.299  16.496  68.991  1.00  0.00    -0.239 C  
HETATM    2  S   UNL     1      -8.463  16.643  67.359  1.00  0.00    -0.192 SA 
HETATM    3  C   UNL     1      -9.916  17.410  66.507  1.00  0.00    -0.311 C  
HETATM    4  CA  UNL     1     -10.774  18.019  67.645  1.00  0.00    -0.344 C  
HETATM    5  C   UNL     1      -9.425  18.390  65.435  1.00  0.00     1.291 C  
HETATM    6  C   UNL     1     -10.661  16.284  65.762  1.00  0.00    -0.336 C  
HETATM    7  N   UNL     1     -10.620  17.140  68.824  1.00  0.00    -0.349 N  
HETATM    8  C   UNL     1     -10.400  19.453  68.067  1.00  0.00    -0.425 C  
HETATM    9  OXT UNL     1     -10.315  20.404  67.306  1.00  0.00    -0.358 OA 
HETATM   10  O   UNL     1     -10.254  19.607  69.409  1.00  0.00    -0.328 OA 
HETATM   11  C   UNL     1     -11.309  15.956  68.892  1.00  0.00    -0.377 C  
HETATM   12  CA  UNL     1     -10.041  15.167  69.292  1.00  0.00    -0.246 C  
HETATM   13  O   UNL     1     -12.440  15.692  68.550  1.00  0.00     0.173 OA 
ENDROOT
BRANCH  12  14
HETATM   14  N   UNL     1      -9.684  14.000  68.439  1.00  0.00    -0.222 N  
HETATM   15  C   UNL     1     -10.484  12.875  68.419  1.00  0.00    -0.251 C  
HETATM   16  H   UNL     1      -8.841  14.032  67.865  1.00  0.00     0.000 HD 
HETATM   17  O   UNL     1     -11.543  12.849  69.035  1.00  0.00    -0.282 OA 
BRANCH  15  18
HETATM   18  C   UNL     1      -9.967  11.749  67.664  1.00  0.00    -0.204 A  
HETATM   19  C   UNL     1      -9.771  11.690  66.294  1.00  0.00    -0.218 A  
HETATM   20  C   UNL     1      -9.975  12.595  65.142  1.00  0.00    -0.194 C  
HETATM   21  O   UNL     1      -9.308  10.463  65.959  1.00  0.00    -0.166 OA 
HETATM   22  N   UNL     1      -9.205   9.684  67.077  1.00  0.00    -0.140 NA 
HETATM   23  C   UNL     1      -9.603  10.433  68.122  1.00  0.00    -0.144 A  
BRANCH  23  24
HETATM   24  C   UNL     1      -9.577   9.841  69.470  1.00  0.00    -0.225 A  
HETATM   25  C   UNL     1      -8.388   9.444  70.092  1.00  0.00    -0.197 A  
HETATM   26  C   UNL     1      -8.405   8.848  71.359  1.00  0.00    -0.195 A  
HETATM   27  C   UNL     1      -9.613   8.621  72.014  1.00  0.00    -0.385 A  
HETATM   28  C   UNL     1     -10.807   8.998  71.408  1.00  0.00    -0.400 A  
HETATM   29  C   UNL     1     -10.788   9.605  70.148  1.00  0.00    -0.325 A  
ENDBRANCH  23  24
ENDBRANCH  15  18
ENDBRANCH  12  14
TORSDOF 3
ENDMDL
MODEL      128
REMARK 921   NORMALIZED FREE ENERGY PREDICTED BY IDOCK:   -4.47 KCAL/MOL
REMARK 922        TOTAL FREE ENERGY PREDICTED BY IDOCK:   -6.16 KCAL/MOL
REMARK 923 INTER-LIGAND FREE ENERGY PREDICTED BY IDOCK:   -5.52 KCAL/MOL
REMARK 924 INTRA-LIGAND FREE ENERGY PREDICTED BY IDOCK:   -0.64 KCAL/MOL
REMARK 927      BINDING AFFINITY PREDICTED BY RF-SCORE:    0.00 PKD
ROOT
HETATM    1  C   UNL     1     -10.140  12.908  67.704  1.00  0.00    -0.221 C  
HETATM    2  S   UNL     1      -9.209  12.295  66.240  1.00  0.00    -0.117 SA 
HETATM    3  C   UNL     1     -10.686  11.541  65.418  1.00  0.00    -0.278 C  
HETATM    4  CA  UNL     1     -11.906  12.273  66.034  1.00  0.00    -0.341 C  
HETATM    5  C   UNL     1     -10.537  11.644  63.896  1.00  0.00    -0.446 C  
HETATM    6  C   UNL     1     -10.684  10.037  65.758  1.00  0.00     0.204 C  
HETATM    7  N   UNL     1     -11.560  12.592  67.436  1.00  0.00    -0.349 N  
HETATM    8  C   UNL     1     -12.319  13.582  65.335  1.00  0.00    -0.478 C  
HETATM    9  OXT UNL     1     -12.560  13.691  64.143  1.00  0.00    -0.655 OA 
HETATM   10  O   UNL     1     -12.489  14.626  66.188  1.00  0.00    -0.222 OA 
HETATM   11  C   UNL     1     -11.619  11.614  68.397  1.00  0.00    -0.312 C  
HETATM   12  CA  UNL     1     -10.216  11.974  68.940  1.00  0.00    -0.058 C  
HETATM   13  O   UNL     1     -12.421  10.721  68.551  1.00  0.00    -0.289 OA 
ENDROOT
BRANCH  12  14
HETATM   14  N   UNL     1      -9.220  10.869  68.999  1.00  0.00    -0.324 N  
HETATM   15  C   UNL     1      -9.354   9.851  69.922  1.00  0.00    -0.216 C  
HETATM   16  H   UNL     1      -8.431  10.864  68.351  1.00  0.00     0.000 HD 
HETATM   17  O   UNL     1     -10.338   9.794  70.651  1.00  0.00    -0.289 OA 
BRANCH  15  18
HETATM   18  C   UNL     1      -8.254   8.908  69.983  1.00  0.00    -0.122 A  
HETATM   19  C   UNL     1      -7.672   8.388  71.128  1.00  0.00    -0.100 A  
HETATM   20  C   UNL     1      -7.859   8.535  72.587  1.00  0.00    -0.080 C  
HETATM   21  O   UNL     1      -6.652   7.569  70.780  1.00  0.00    -0.042 OA 
HETATM   22  N   UNL     1      -6.522   7.540  69.420  1.00  0.00    -0.035 NA 
HETATM   23  C   UNL     1      -7.473   8.344  68.912  1.00  0.00    -0.091 A  
BRANCH  23  24
HETATM   24  C   UNL     1      -7.575   8.489  67.451  1.00  0.00    -0.097 A  
HETATM   25  C   UNL     1      -8.200   7.531  66.644  1.00  0.00    -0.125 A  
HETATM   26  C   UNL     1      -8.244   7.681  65.253  1.00  0.00    -0.136 A  
HETATM   27  C   UNL     1      -7.644   8.782  64.645  1.00  0.00    -0.109 A  
HETATM   28  C   UNL     1      -7.008   9.739  65.428  1.00  0.00    -0.105 A  
HETATM   29  C   UNL     1      -6.976   9.595  66.818  1.00  0.00    -0.085 A  
ENDBRANCH  23  24
ENDBRANCH  15  18
ENDBRANCH  12  14
TORSDOF 3
ENDMDL
MODEL      129
REMARK 921   NORMALIZED FREE ENERGY PREDICTED BY IDOCK:   -4.38 KCAL/MOL
REMARK 922        TOTAL FREE ENERGY PREDICTED BY IDOCK:   -6.05 KCAL/MOL
REMARK 923 INTER-LIGAND FREE ENERGY PREDICTED BY IDOCK:   -5.11 KCAL/MOL
REMARK 924 INTRA-LIGAND FREE ENERGY PREDICTED BY IDOCK:   -0.94 KCAL/MOL
REMARK 927      BINDING AFFINITY PREDICTED BY RF-SCORE:    0.00 PKD
ROOT
HETATM    1  C   UNL     1     -10.925  10.000  67.721  1.00  0.00    -0.249 C  
HETATM    2  S   UNL     1      -9.932  10.945  68.949  1.00  0.00    -0.179 SA 
HETATM    3  C   UNL     1      -8.726  11.599  67.707  1.00  0.00    -0.152 C  
HETATM    4  CA  UNL     1      -9.462  11.510  66.345  1.00  0.00    -0.213 C  
HETATM    5  C   UNL     1      -8.257  12.996  68.130  1.00  0.00    -0.157 C  
HETATM    6  C   UNL     1      -7.482  10.688  67.749  1.00  0.00    -0.091 C  
HETATM    7  N   UNL     1     -10.337  10.320  66.401  1.00  0.00    -0.218 N  
HETATM    8  C   UNL     1     -10.334  12.726  65.980  1.00  0.00    -0.276 C  
HETATM    9  OXT UNL     1      -9.944  13.883  65.958  1.00  0.00    -0.298 OA 
HETATM   10  O   UNL     1     -11.591  12.397  65.583  1.00  0.00    -0.357 OA 
HETATM   11  C   UNL     1      -9.804   9.066  66.232  1.00  0.00    -0.291 C  
HETATM   12  CA  UNL     1     -10.533   8.518  67.481  1.00  0.00    -0.258 C  
HETATM   13  O   UNL     1      -8.937   8.685  65.480  1.00  0.00    -0.192 OA 
ENDROOT
BRANCH  12  14
HETATM   14  N   UNL     1      -9.684   7.879  68.523  1.00  0.00    -0.157 N  
HETATM   15  C   UNL     1     -10.259   7.203  69.581  1.00  0.00    -0.208 C  
HETATM   16  H   UNL     1      -8.668   7.940  68.455  1.00  0.00     0.000 HD 
HETATM   17  O   UNL     1     -11.473   7.046  69.636  1.00  0.00    -0.180 OA 
BRANCH  15  18
HETATM   18  C   UNL     1      -9.343   6.744  70.607  1.00  0.00    -0.162 A  
HETATM   19  C   UNL     1      -9.028   7.396  71.788  1.00  0.00    -0.122 A  
HETATM   20  C   UNL     1      -9.406   8.666  72.445  1.00  0.00    -0.284 C  
HETATM   21  O   UNL     1      -8.109   6.672  72.469  1.00  0.00    -0.103 OA 
HETATM   22  N   UNL     1      -7.784   5.549  71.761  1.00  0.00    -0.105 NA 
HETATM   23  C   UNL     1      -8.509   5.570  70.628  1.00  0.00    -0.121 A  
BRANCH  23  24
HETATM   24  C   UNL     1      -8.366   4.458  69.674  1.00  0.00    -0.074 A  
HETATM   25  C   UNL     1      -9.436   3.622  69.332  1.00  0.00    -0.249 A  
HETATM   26  C   UNL     1      -9.255   2.549  68.451  1.00  0.00    -0.253 A  
HETATM   27  C   UNL     1      -7.997   2.283  67.915  1.00  0.00    -0.062 A  
HETATM   28  C   UNL     1      -6.919   3.094  68.252  1.00  0.00    -0.049 A  
HETATM   29  C   UNL     1      -7.103   4.174  69.121  1.00  0.00    -0.050 A  
ENDBRANCH  23  24
ENDBRANCH  15  18
ENDBRANCH  12  14
TORSDOF 3
ENDMDL
MODEL      130
REMARK 921   NORMALIZED FREE ENERGY PREDICTED BY IDOCK:   -4.37 KCAL/MOL
REMARK 922        TOTAL FREE ENERGY PREDICTED BY IDOCK:   -6.04 KCAL/MOL
REMARK 923 INTER-LIGAND FREE ENERGY PREDICTED BY IDOCK:   -4.57 KCAL/MOL
REMARK 924 INTRA-LIGAND FREE ENERGY PREDICTED BY IDOCK:   -1.47 KCAL/MOL
REMARK 927      BINDING AFFINITY PREDICTED BY RF-SCORE:    0.00 PKD
ROOT
HETATM    1  C   UNL     1     -11.150   6.514  69.391  1.00  0.00    -0.348 C  
HETATM    2  S   UNL     1     -10.188   5.216  70.272  1.00  0.00    -0.257 SA 
HETATM    3  C   UNL     1      -9.258   6.407  71.341  1.00  0.00    -0.149 C  
HETATM    4  CA  UNL     1     -10.124   7.693  71.359  1.00  0.00    -0.182 C  
HETATM    5  C   UNL     1      -8.977   5.765  72.704  1.00  0.00    -0.131 C  
HETATM    6  C   UNL     1      -7.886   6.646  70.678  1.00  0.00    -0.106 C  
HETATM    7  N   UNL     1     -10.781   7.793  70.038  1.00  0.00    -0.243 N  
HETATM    8  C   UNL     1     -11.220   7.742  72.440  1.00  0.00    -0.337 C  
HETATM    9  OXT UNL     1     -11.028   7.574  73.635  1.00  0.00    -0.322 OA 
HETATM   10  O   UNL     1     -12.444   8.087  71.963  1.00  0.00    -0.308 OA 
HETATM   11  C   UNL     1     -10.074   8.244  68.951  1.00  0.00    -0.199 C  
HETATM   12  CA  UNL     1     -10.553   7.067  68.070  1.00  0.00    -0.207 C  
HETATM   13  O   UNL     1      -9.251   9.127  68.871  1.00  0.00    -0.138 OA 
ENDROOT
BRANCH  12  14
HETATM   14  N   UNL     1      -9.494   6.243  67.424  1.00  0.00    -0.114 N  
HETATM   15  C   UNL     1      -9.824   5.289  66.482  1.00  0.00    -0.185 C  
HETATM   16  H   UNL     1      -8.517   6.384  67.680  1.00  0.00     0.000 HD 
HETATM   17  O   UNL     1     -10.982   5.161  66.100  1.00  0.00    -0.237 OA 
BRANCH  15  18
HETATM   18  C   UNL     1      -8.731   4.452  66.025  1.00  0.00    -0.114 A  
HETATM   19  C   UNL     1      -8.187   4.423  64.751  1.00  0.00    -0.105 A  
HETATM   20  C   UNL     1      -8.431   5.110  63.465  1.00  0.00    -0.111 C  
HETATM   21  O   UNL     1      -7.209   3.489  64.703  1.00  0.00    -0.063 OA 
HETATM   22  N   UNL     1      -7.094   2.872  65.917  1.00  0.00    -0.060 NA 
HETATM   23  C   UNL     1      -8.006   3.429  66.734  1.00  0.00    -0.080 A  
BRANCH  23  24
HETATM   24  C   UNL     1      -8.093   2.959  68.126  1.00  0.00    -0.070 A  
HETATM   25  C   UNL     1      -7.213   3.399  69.122  1.00  0.00    -0.049 A  
HETATM   26  C   UNL     1      -7.300   2.901  70.428  1.00  0.00    -0.040 A  
HETATM   27  C   UNL     1      -8.254   1.940  70.752  1.00  0.00    -0.064 A  
HETATM   28  C   UNL     1      -9.131   1.481  69.775  1.00  0.00    -0.144 A  
HETATM   29  C   UNL     1      -9.052   1.989  68.474  1.00  0.00    -0.204 A  
ENDBRANCH  23  24
ENDBRANCH  15  18
ENDBRANCH  12  14
TORSDOF 3
ENDMDL
MODEL      131
REMARK 921   NORMALIZED FREE ENERGY PREDICTED BY IDOCK:   -4.36 KCAL/MOL
REMARK 922        TOTAL FREE ENERGY PREDICTED BY IDOCK:   -6.03 KCAL/MOL
REMARK 923 INTER-LIGAND FREE ENERGY PREDICTED BY IDOCK:   -5.39 KCAL/MOL
REMARK 924 INTRA-LIGAND FREE ENERGY PREDICTED BY IDOCK:   -0.64 KCAL/MOL
REMARK 927      BINDING AFFINITY PREDICTED BY RF-SCORE:    0.00 PKD
ROOT
HETATM    1  C   UNL     1     -10.444   8.084  68.943  1.00  0.00    -0.191 C  
HETATM    2  S   UNL     1      -8.610   8.194  69.020  1.00  0.00    -0.133 SA 
HETATM    3  C   UNL     1      -8.486   7.552  70.751  1.00  0.00    -0.126 C  
HETATM    4  CA  UNL     1      -9.803   6.770  70.986  1.00  0.00    -0.182 C  
HETATM    5  C   UNL     1      -7.189   6.751  70.912  1.00  0.00    -0.073 C  
HETATM    6  C   UNL     1      -8.365   8.773  71.687  1.00  0.00    -0.190 C  
HETATM    7  N   UNL     1     -10.861   7.461  70.219  1.00  0.00    -0.242 N  
HETATM    8  C   UNL     1      -9.787   5.293  70.551  1.00  0.00    -0.207 C  
HETATM    9  OXT UNL     1      -8.961   4.469  70.911  1.00  0.00    -0.112 OA 
HETATM   10  O   UNL     1     -10.848   4.938  69.781  1.00  0.00     0.142 OA 
HETATM   11  C   UNL     1     -11.421   8.616  70.706  1.00  0.00    -0.259 C  
HETATM   12  CA  UNL     1     -11.249   9.346  69.353  1.00  0.00     0.008 C  
HETATM   13  O   UNL     1     -11.718   8.919  71.839  1.00  0.00    -0.327 OA 
ENDROOT
BRANCH  12  14
HETATM   14  N   UNL     1     -10.499  10.632  69.379  1.00  0.00    -0.244 N  
HETATM   15  C   UNL     1     -10.575  11.510  68.316  1.00  0.00    -0.200 C  
HETATM   16  H   UNL     1      -9.925  10.866  70.189  1.00  0.00     0.000 HD 
HETATM   17  O   UNL     1     -11.323  11.286  67.372  1.00  0.00    -0.352 OA 
BRANCH  15  18
HETATM   18  C   UNL     1      -9.695  12.661  68.388  1.00  0.00    -0.187 A  
HETATM   19  C   UNL     1      -8.462  12.801  67.772  1.00  0.00    -0.177 A  
HETATM   20  C   UNL     1      -7.598  11.973  66.904  1.00  0.00    -0.060 C  
HETATM   21  O   UNL     1      -7.929  14.000  68.103  1.00  0.00    -0.128 OA 
HETATM   22  N   UNL     1      -8.771  14.667  68.947  1.00  0.00    -0.167 NA 
HETATM   23  C   UNL     1      -9.845  13.879  69.142  1.00  0.00     0.174 A  
BRANCH  23  24
HETATM   24  C   UNL     1     -10.932  14.363  70.009  1.00  0.00    -0.045 A  
HETATM   25  C   UNL     1     -12.071  13.595  70.281  1.00  0.00    -0.427 A  
HETATM   26  C   UNL     1     -13.104  14.102  71.078  1.00  0.00    -0.370 A  
HETATM   27  C   UNL     1     -13.024  15.392  71.598  1.00  0.00    -0.513 A  
HETATM   28  C   UNL     1     -11.906  16.175  71.330  1.00  0.00    -0.458 A  
HETATM   29  C   UNL     1     -10.868  15.663  70.544  1.00  0.00    -0.347 A  
ENDBRANCH  23  24
ENDBRANCH  15  18
ENDBRANCH  12  14
TORSDOF 3
ENDMDL
MODEL      132
REMARK 921   NORMALIZED FREE ENERGY PREDICTED BY IDOCK:   -4.35 KCAL/MOL
REMARK 922        TOTAL FREE ENERGY PREDICTED BY IDOCK:   -6.01 KCAL/MOL
REMARK 923 INTER-LIGAND FREE ENERGY PREDICTED BY IDOCK:   -4.79 KCAL/MOL
REMARK 924 INTRA-LIGAND FREE ENERGY PREDICTED BY IDOCK:   -1.22 KCAL/MOL
REMARK 927      BINDING AFFINITY PREDICTED BY RF-SCORE:    0.00 PKD
ROOT
HETATM    1  C   UNL     1      -9.733   9.295  67.903  1.00  0.00    -0.153 C  
HETATM    2  S   UNL     1      -7.910   9.052  67.969  1.00  0.00    -0.101 SA 
HETATM    3  C   UNL     1      -7.821   8.096  66.387  1.00  0.00    -0.093 C  
HETATM    4  CA  UNL     1      -9.105   8.484  65.610  1.00  0.00    -0.132 C  
HETATM    5  C   UNL     1      -6.492   8.390  65.682  1.00  0.00    -0.052 C  
HETATM    6  C   UNL     1      -7.800   6.598  66.754  1.00  0.00    -0.107 C  
HETATM    7  N   UNL     1     -10.167   8.717  66.612  1.00  0.00    -0.289 N  
HETATM    8  C   UNL     1      -8.996   9.744  64.731  1.00  0.00    -0.225 C  
HETATM    9  OXT UNL     1      -8.143   9.926  63.876  1.00  0.00    -0.136 OA 
HETATM   10  O   UNL     1     -10.007  10.631  64.919  1.00  0.00    -0.271 OA 
HETATM   11  C   UNL     1     -10.803   7.651  67.199  1.00  0.00    -0.188 C  
HETATM   12  CA  UNL     1     -10.617   8.239  68.617  1.00  0.00    -0.108 C  
HETATM   13  O   UNL     1     -11.159   6.598  66.721  1.00  0.00    -0.354 OA 
ENDROOT
BRANCH  12  14
HETATM   14  N   UNL     1      -9.936   7.369  69.615  1.00  0.00    -0.179 N  
HETATM   15  C   UNL     1     -10.657   6.456  70.359  1.00  0.00    -0.241 C  
HETATM   16  H   UNL     1      -8.927   7.448  69.750  1.00  0.00     0.000 HD 
HETATM   17  O   UNL     1     -11.853   6.287  70.153  1.00  0.00    -0.349 OA 
BRANCH  15  18
HETATM   18  C   UNL     1      -9.916   5.765  71.397  1.00  0.00    -0.234 A  
HETATM   19  C   UNL     1      -9.887   6.083  72.746  1.00  0.00    -0.163 A  
HETATM   20  C   UNL     1     -10.489   7.114  73.617  1.00  0.00    -0.412 C  
HETATM   21  O   UNL     1      -9.056   5.230  73.389  1.00  0.00    -0.128 OA 
HETATM   22  N   UNL     1      -8.508   4.352  72.497  1.00  0.00    -0.108 NA 
HETATM   23  C   UNL     1      -9.004   4.656  71.284  1.00  0.00    -0.127 A  
BRANCH  23  24
HETATM   24  C   UNL     1      -8.589   3.849  70.125  1.00  0.00    -0.105 A  
HETATM   25  C   UNL     1      -7.375   4.059  69.462  1.00  0.00    -0.053 A  
HETATM   26  C   UNL     1      -7.029   3.299  68.338  1.00  0.00    -0.049 A  
HETATM   27  C   UNL     1      -7.903   2.330  67.848  1.00  0.00    -0.059 A  
HETATM   28  C   UNL     1      -9.119   2.114  68.486  1.00  0.00    -0.207 A  
HETATM   29  C   UNL     1      -9.458   2.865  69.616  1.00  0.00    -0.164 A  
ENDBRANCH  23  24
ENDBRANCH  15  18
ENDBRANCH  12  14
TORSDOF 3
ENDMDL
MODEL      133
REMARK 921   NORMALIZED FREE ENERGY PREDICTED BY IDOCK:   -4.32 KCAL/MOL
REMARK 922        TOTAL FREE ENERGY PREDICTED BY IDOCK:   -5.99 KCAL/MOL
REMARK 923 INTER-LIGAND FREE ENERGY PREDICTED BY IDOCK:   -5.02 KCAL/MOL
REMARK 924 INTRA-LIGAND FREE ENERGY PREDICTED BY IDOCK:   -0.97 KCAL/MOL
REMARK 927      BINDING AFFINITY PREDICTED BY RF-SCORE:    0.00 PKD
ROOT
HETATM    1  C   UNL     1     -10.597  10.346  67.665  1.00  0.00    -0.257 C  
HETATM    2  S   UNL     1      -9.104  10.335  68.740  1.00  0.00    -0.168 SA 
HETATM    3  C   UNL     1      -8.208  11.638  67.779  1.00  0.00    -0.141 C  
HETATM    4  CA  UNL     1      -9.316  12.406  67.012  1.00  0.00    -0.204 C  
HETATM    5  C   UNL     1      -7.343  12.474  68.728  1.00  0.00    -0.070 C  
HETATM    6  C   UNL     1      -7.238  10.918  66.820  1.00  0.00    -0.134 C  
HETATM    7  N   UNL     1     -10.373  11.427  66.680  1.00  0.00    -0.225 N  
HETATM    8  C   UNL     1      -9.969  13.571  67.778  1.00  0.00    -0.232 C  
HETATM    9  OXT UNL     1      -9.361  14.495  68.294  1.00  0.00    -0.190 OA 
HETATM   10  O   UNL     1     -11.328  13.543  67.761  1.00  0.00    -0.269 OA 
HETATM   11  C   UNL     1     -10.201  10.560  65.630  1.00  0.00    -0.246 C  
HETATM   12  CA  UNL     1     -10.628   9.342  66.482  1.00  0.00    -0.047 C  
HETATM   13  O   UNL     1      -9.701  10.743  64.543  1.00  0.00    -0.242 OA 
ENDROOT
BRANCH  12  14
HETATM   14  N   UNL     1      -9.669   8.206  66.551  1.00  0.00    -0.279 N  
HETATM   15  C   UNL     1     -10.111   6.929  66.837  1.00  0.00    -0.218 C  
HETATM   16  H   UNL     1      -8.676   8.371  66.384  1.00  0.00     0.000 HD 
HETATM   17  O   UNL     1     -11.309   6.695  66.957  1.00  0.00    -0.348 OA 
BRANCH  15  18
HETATM   18  C   UNL     1      -9.076   5.930  67.018  1.00  0.00    -0.116 A  
HETATM   19  C   UNL     1      -8.385   5.264  66.018  1.00  0.00    -0.118 A  
HETATM   20  C   UNL     1      -8.385   5.251  64.540  1.00  0.00    -0.138 C  
HETATM   21  O   UNL     1      -7.524   4.383  66.579  1.00  0.00    -0.079 OA 
HETATM   22  N   UNL     1      -7.634   4.428  67.941  1.00  0.00    -0.076 NA 
HETATM   23  C   UNL     1      -8.569   5.349  68.234  1.00  0.00    -0.096 A  
BRANCH  23  24
HETATM   24  C   UNL     1      -8.882   5.618  69.647  1.00  0.00    -0.121 A  
HETATM   25  C   UNL     1      -8.033   6.361  70.475  1.00  0.00    -0.112 A  
HETATM   26  C   UNL     1      -8.343   6.563  71.826  1.00  0.00    -0.116 A  
HETATM   27  C   UNL     1      -9.497   6.008  72.373  1.00  0.00    -0.153 A  
HETATM   28  C   UNL     1     -10.348   5.257  71.571  1.00  0.00    -0.287 A  
HETATM   29  C   UNL     1     -10.044   5.066  70.219  1.00  0.00    -0.339 A  
ENDBRANCH  23  24
ENDBRANCH  15  18
ENDBRANCH  12  14
TORSDOF 3
ENDMDL
MODEL      134
REMARK 921   NORMALIZED FREE ENERGY PREDICTED BY IDOCK:   -4.30 KCAL/MOL
REMARK 922        TOTAL FREE ENERGY PREDICTED BY IDOCK:   -5.96 KCAL/MOL
REMARK 923 INTER-LIGAND FREE ENERGY PREDICTED BY IDOCK:   -4.73 KCAL/MOL
REMARK 924 INTRA-LIGAND FREE ENERGY PREDICTED BY IDOCK:   -1.23 KCAL/MOL
REMARK 927      BINDING AFFINITY PREDICTED BY RF-SCORE:    0.00 PKD
ROOT
HETATM    1  C   UNL     1     -10.388  12.889  65.965  1.00  0.00    -0.283 C  
HETATM    2  S   UNL     1     -11.707  12.106  66.980  1.00  0.00    -0.233 SA 
HETATM    3  C   UNL     1     -11.115  12.815  68.583  1.00  0.00    -0.266 C  
HETATM    4  CA  UNL     1     -10.270  14.053  68.188  1.00  0.00    -0.243 C  
HETATM    5  C   UNL     1     -12.313  13.082  69.502  1.00  0.00    -0.067 C  
HETATM    6  C   UNL     1     -10.263  11.733  69.278  1.00  0.00     0.153 C  
HETATM    7  N   UNL     1      -9.618  13.741  66.899  1.00  0.00    -0.253 N  
HETATM    8  C   UNL     1     -11.055  15.368  68.020  1.00  0.00    -0.312 C  
HETATM    9  OXT UNL     1     -11.795  15.851  68.862  1.00  0.00    -0.397 OA 
HETATM   10  O   UNL     1     -10.784  16.021  66.860  1.00  0.00    -0.314 OA 
HETATM   11  C   UNL     1      -8.509  12.932  66.867  1.00  0.00    -0.086 C  
HETATM   12  CA  UNL     1      -9.093  12.067  65.726  1.00  0.00     0.011 C  
HETATM   13  O   UNL     1      -7.569  12.872  67.626  1.00  0.00    -0.129 OA 
ENDROOT
BRANCH  12  14
HETATM   14  N   UNL     1      -9.182  10.602  65.978  1.00  0.00    -0.176 N  
HETATM   15  C   UNL     1      -8.043   9.821  65.984  1.00  0.00    -0.114 C  
HETATM   16  H   UNL     1     -10.091  10.172  66.148  1.00  0.00     0.000 HD 
HETATM   17  O   UNL     1      -6.934  10.330  65.866  1.00  0.00    -0.112 OA 
BRANCH  15  18
HETATM   18  C   UNL     1      -8.261   8.392  66.098  1.00  0.00    -0.113 A  
HETATM   19  C   UNL     1      -8.140   7.452  65.087  1.00  0.00    -0.129 A  
HETATM   20  C   UNL     1      -7.799   7.463  63.649  1.00  0.00    -0.108 C  
HETATM   21  O   UNL     1      -8.458   6.229  65.571  1.00  0.00    -0.147 OA 
HETATM   22  N   UNL     1      -8.811   6.327  66.888  1.00  0.00    -0.113 NA 
HETATM   23  C   UNL     1      -8.707   7.624  67.232  1.00  0.00    -0.124 A  
BRANCH  23  24
HETATM   24  C   UNL     1      -9.016   8.017  68.616  1.00  0.00    -0.134 A  
HETATM   25  C   UNL     1      -8.035   8.483  69.500  1.00  0.00    -0.106 A  
HETATM   26  C   UNL     1      -8.357   8.811  70.822  1.00  0.00    -0.185 A  
HETATM   27  C   UNL     1      -9.662   8.660  71.287  1.00  0.00    -0.305 A  
HETATM   28  C   UNL     1     -10.649   8.189  70.428  1.00  0.00    -0.226 A  
HETATM   29  C   UNL     1     -10.329   7.873  69.104  1.00  0.00    -0.225 A  
ENDBRANCH  23  24
ENDBRANCH  15  18
ENDBRANCH  12  14
TORSDOF 3
ENDMDL
MODEL      135
REMARK 921   NORMALIZED FREE ENERGY PREDICTED BY IDOCK:   -4.29 KCAL/MOL
REMARK 922        TOTAL FREE ENERGY PREDICTED BY IDOCK:   -5.94 KCAL/MOL
REMARK 923 INTER-LIGAND FREE ENERGY PREDICTED BY IDOCK:   -5.28 KCAL/MOL
REMARK 924 INTRA-LIGAND FREE ENERGY PREDICTED BY IDOCK:   -0.66 KCAL/MOL
REMARK 927      BINDING AFFINITY PREDICTED BY RF-SCORE:    0.00 PKD
ROOT
HETATM    1  C   UNL     1      -9.683   9.371  66.583  1.00  0.00    -0.219 C  
HETATM    2  S   UNL     1      -9.582   9.612  64.762  1.00  0.00    -0.001 SA 
HETATM    3  C   UNL     1      -7.861   8.950  64.609  1.00  0.00    -0.124 C  
HETATM    4  CA  UNL     1      -7.655   8.070  65.869  1.00  0.00    -0.086 C  
HETATM    5  C   UNL     1      -7.699   8.241  63.260  1.00  0.00    -0.142 C  
HETATM    6  C   UNL     1      -6.903  10.158  64.587  1.00  0.00    -0.117 C  
HETATM    7  N   UNL     1      -8.423   8.697  66.967  1.00  0.00    -0.109 N  
HETATM    8  C   UNL     1      -8.116   6.606  65.741  1.00  0.00    -0.122 C  
HETATM    9  OXT UNL     1      -7.761   5.838  64.861  1.00  0.00    -0.083 OA 
HETATM   10  O   UNL     1      -8.904   6.189  66.766  1.00  0.00    -0.117 OA 
HETATM   11  C   UNL     1      -7.922   9.799  67.614  1.00  0.00    -0.105 C  
HETATM   12  CA  UNL     1      -9.260  10.563  67.481  1.00  0.00    -0.142 C  
HETATM   13  O   UNL     1      -6.788  10.059  67.943  1.00  0.00    -0.073 OA 
ENDROOT
BRANCH  12  14
HETATM   14  N   UNL     1      -9.203  11.900  66.827  1.00  0.00    -0.189 N  
HETATM   15  C   UNL     1      -9.772  13.003  67.433  1.00  0.00    -0.213 C  
HETATM   16  H   UNL     1      -8.739  12.002  65.924  1.00  0.00     0.000 HD 
HETATM   17  O   UNL     1     -10.260  12.919  68.554  1.00  0.00    -0.234 OA 
BRANCH  15  18
HETATM   18  C   UNL     1      -9.781  14.219  66.643  1.00  0.00    -0.297 A  
HETATM   19  C   UNL     1     -10.523  14.458  65.497  1.00  0.00    -0.350 A  
HETATM   20  C   UNL     1     -11.488  13.704  64.669  1.00  0.00    -0.383 C  
HETATM   21  O   UNL     1     -10.237  15.694  65.027  1.00  0.00    -0.413 OA 
HETATM   22  N   UNL     1      -9.299  16.289  65.823  1.00  0.00    -0.474 NA 
HETATM   23  C   UNL     1      -9.000  15.419  66.805  1.00  0.00    -0.259 A  
BRANCH  23  24
HETATM   24  C   UNL     1      -8.017  15.812  67.827  1.00  0.00    -0.155 A  
HETATM   25  C   UNL     1      -7.321  14.873  68.598  1.00  0.00    -0.120 A  
HETATM   26  C   UNL     1      -6.422  15.284  69.589  1.00  0.00    -0.162 A  
HETATM   27  C   UNL     1      -6.220  16.639  69.839  1.00  0.00    -0.155 A  
HETATM   28  C   UNL     1      -6.910  17.588  69.091  1.00  0.00    -0.232 A  
HETATM   29  C   UNL     1      -7.798  17.177  68.092  1.00  0.00    -0.206 A  
ENDBRANCH  23  24
ENDBRANCH  15  18
ENDBRANCH  12  14
TORSDOF 3
ENDMDL
MODEL      136
REMARK 921   NORMALIZED FREE ENERGY PREDICTED BY IDOCK:   -4.29 KCAL/MOL
REMARK 922        TOTAL FREE ENERGY PREDICTED BY IDOCK:   -5.94 KCAL/MOL
REMARK 923 INTER-LIGAND FREE ENERGY PREDICTED BY IDOCK:   -4.49 KCAL/MOL
REMARK 924 INTRA-LIGAND FREE ENERGY PREDICTED BY IDOCK:   -1.46 KCAL/MOL
REMARK 927      BINDING AFFINITY PREDICTED BY RF-SCORE:    0.00 PKD
ROOT
HETATM    1  C   UNL     1     -10.478   5.265  66.740  1.00  0.00    -0.273 C  
HETATM    2  S   UNL     1      -9.578   6.802  66.281  1.00  0.00     0.044 SA 
HETATM    3  C   UNL     1      -8.095   5.922  65.608  1.00  0.00    -0.124 C  
HETATM    4  CA  UNL     1      -8.595   4.495  65.265  1.00  0.00    -0.128 C  
HETATM    5  C   UNL     1      -7.503   6.726  64.445  1.00  0.00    -0.100 C  
HETATM    6  C   UNL     1      -7.026   5.907  66.720  1.00  0.00    -0.068 C  
HETATM    7  N   UNL     1      -9.634   4.149  66.258  1.00  0.00    -0.186 N  
HETATM    8  C   UNL     1      -9.202   4.323  63.860  1.00  0.00    -0.143 C  
HETATM    9  OXT UNL     1      -8.646   4.631  62.818  1.00  0.00    -0.103 OA 
HETATM   10  O   UNL     1     -10.408   3.697  63.859  1.00  0.00    -0.213 OA 
HETATM   11  C   UNL     1      -9.273   3.754  67.522  1.00  0.00    -0.182 C  
HETATM   12  CA  UNL     1     -10.276   4.728  68.182  1.00  0.00     0.013 C  
HETATM   13  O   UNL     1      -8.357   3.052  67.886  1.00  0.00    -0.077 OA 
ENDROOT
BRANCH  12  14
HETATM   14  N   UNL     1      -9.720   5.688  69.176  1.00  0.00    -0.137 N  
HETATM   15  C   UNL     1     -10.560   6.468  69.946  1.00  0.00    -0.233 C  
HETATM   16  H   UNL     1      -8.709   5.770  69.289  1.00  0.00     0.000 HD 
HETATM   17  O   UNL     1     -11.776   6.324  69.885  1.00  0.00    -0.408 OA 
BRANCH  15  18
HETATM   18  C   UNL     1      -9.910   7.464  70.775  1.00  0.00    -0.178 A  
HETATM   19  C   UNL     1      -9.857   7.482  72.160  1.00  0.00    -0.169 A  
HETATM   20  C   UNL     1     -10.365   6.639  73.263  1.00  0.00    -0.275 C  
HETATM   21  O   UNL     1      -9.193   8.588  72.568  1.00  0.00    -0.259 OA 
HETATM   22  N   UNL     1      -8.811   9.329  71.485  1.00  0.00    -0.285 NA 
HETATM   23  C   UNL     1      -9.237   8.677  70.387  1.00  0.00    -0.170 A  
BRANCH  23  24
HETATM   24  C   UNL     1      -8.945   9.250  69.063  1.00  0.00    -0.140 A  
HETATM   25  C   UNL     1      -7.650   9.286  68.531  1.00  0.00    -0.085 A  
HETATM   26  C   UNL     1      -7.403   9.874  67.285  1.00  0.00    -0.087 A  
HETATM   27  C   UNL     1      -8.442  10.454  66.562  1.00  0.00    -0.132 A  
HETATM   28  C   UNL     1      -9.733  10.439  67.078  1.00  0.00    -0.216 A  
HETATM   29  C   UNL     1      -9.982   9.840  68.317  1.00  0.00    -0.175 A  
ENDBRANCH  23  24
ENDBRANCH  15  18
ENDBRANCH  12  14
TORSDOF 3
ENDMDL
MODEL      137
REMARK 921   NORMALIZED FREE ENERGY PREDICTED BY IDOCK:   -4.27 KCAL/MOL
REMARK 922        TOTAL FREE ENERGY PREDICTED BY IDOCK:   -5.92 KCAL/MOL
REMARK 923 INTER-LIGAND FREE ENERGY PREDICTED BY IDOCK:   -5.30 KCAL/MOL
REMARK 924 INTRA-LIGAND FREE ENERGY PREDICTED BY IDOCK:   -0.62 KCAL/MOL
REMARK 927      BINDING AFFINITY PREDICTED BY RF-SCORE:    0.00 PKD
ROOT
HETATM    1  C   UNL     1      -8.633  10.039  69.268  1.00  0.00    -0.168 C  
HETATM    2  S   UNL     1      -8.284   9.090  67.730  1.00  0.00    -0.109 SA 
HETATM    3  C   UNL     1      -9.828   9.624  66.861  1.00  0.00    -0.200 C  
HETATM    4  CA  UNL     1     -10.259  10.932  67.573  1.00  0.00    -0.190 C  
HETATM    5  C   UNL     1      -9.560   9.734  65.356  1.00  0.00    -0.359 C  
HETATM    6  C   UNL     1     -10.869   8.501  67.040  1.00  0.00    -0.030 C  
HETATM    7  N   UNL     1      -9.871  10.801  68.994  1.00  0.00    -0.203 N  
HETATM    8  C   UNL     1      -9.629  12.227  67.025  1.00  0.00    -0.208 C  
HETATM    9  OXT UNL     1      -9.662  12.577  65.856  1.00  0.00    -0.256 OA 
HETATM   10  O   UNL     1      -9.094  13.023  67.986  1.00  0.00    -0.196 OA 
HETATM   11  C   UNL     1     -10.635  10.045  69.848  1.00  0.00    -0.282 C  
HETATM   12  CA  UNL     1      -9.397   9.301  70.399  1.00  0.00    -0.250 C  
HETATM   13  O   UNL     1     -11.837   9.930  69.922  1.00  0.00    -0.146 OA 
ENDROOT
BRANCH  12  14
HETATM   14  N   UNL     1      -9.423   7.814  70.322  1.00  0.00    -0.160 N  
HETATM   15  C   UNL     1     -10.308   7.087  71.094  1.00  0.00    -0.206 C  
HETATM   16  H   UNL     1      -8.782   7.329  69.695  1.00  0.00     0.000 HD 
HETATM   17  O   UNL     1     -11.142   7.653  71.791  1.00  0.00    -0.235 OA 
BRANCH  15  18
HETATM   18  C   UNL     1     -10.149   5.646  71.043  1.00  0.00    -0.266 A  
HETATM   19  C   UNL     1     -10.481   4.741  72.039  1.00  0.00    -0.155 A  
HETATM   20  C   UNL     1     -11.050   4.807  73.401  1.00  0.00    -0.422 C  
HETATM   21  O   UNL     1     -10.153   3.491  71.636  1.00  0.00    -0.153 OA 
HETATM   22  N   UNL     1      -9.587   3.537  70.393  1.00  0.00    -0.186 NA 
HETATM   23  C   UNL     1      -9.565   4.827  70.012  1.00  0.00    -0.190 A  
BRANCH  23  24
HETATM   24  C   UNL     1      -9.016   5.168  68.690  1.00  0.00    -0.122 A  
HETATM   25  C   UNL     1      -9.814   5.241  67.542  1.00  0.00    -0.183 A  
HETATM   26  C   UNL     1      -9.251   5.530  66.293  1.00  0.00    -0.161 A  
HETATM   27  C   UNL     1      -7.878   5.728  66.169  1.00  0.00    -0.101 A  
HETATM   28  C   UNL     1      -7.066   5.648  67.295  1.00  0.00    -0.074 A  
HETATM   29  C   UNL     1      -7.630   5.373  68.545  1.00  0.00    -0.083 A  
ENDBRANCH  23  24
ENDBRANCH  15  18
ENDBRANCH  12  14
TORSDOF 3
ENDMDL
MODEL      138
REMARK 921   NORMALIZED FREE ENERGY PREDICTED BY IDOCK:   -4.24 KCAL/MOL
REMARK 922        TOTAL FREE ENERGY PREDICTED BY IDOCK:   -5.89 KCAL/MOL
REMARK 923 INTER-LIGAND FREE ENERGY PREDICTED BY IDOCK:   -5.30 KCAL/MOL
REMARK 924 INTRA-LIGAND FREE ENERGY PREDICTED BY IDOCK:   -0.59 KCAL/MOL
REMARK 927      BINDING AFFINITY PREDICTED BY RF-SCORE:    0.00 PKD
ROOT
HETATM    1  C   UNL     1      -8.948  15.977  69.189  1.00  0.00    -0.252 C  
HETATM    2  S   UNL     1      -7.155  16.297  69.450  1.00  0.00    -0.148 SA 
HETATM    3  C   UNL     1      -6.878  17.024  67.771  1.00  0.00    -0.148 C  
HETATM    4  CA  UNL     1      -8.279  17.490  67.298  1.00  0.00    -0.208 C  
HETATM    5  C   UNL     1      -5.799  18.109  67.851  1.00  0.00    -0.159 C  
HETATM    6  C   UNL     1      -6.310  15.906  66.873  1.00  0.00     0.236 C  
HETATM    7  N   UNL     1      -9.265  16.541  67.859  1.00  0.00    -0.209 N  
HETATM    8  C   UNL     1      -8.688  18.912  67.729  1.00  0.00    -0.292 C  
HETATM    9  OXT UNL     1      -8.027  19.918  67.526  1.00  0.00    -0.278 OA 
HETATM   10  O   UNL     1      -9.923  18.979  68.291  1.00  0.00    -0.350 OA 
HETATM   11  C   UNL     1      -9.442  15.311  67.277  1.00  0.00    -0.208 C  
HETATM   12  CA  UNL     1      -9.348  14.583  68.638  1.00  0.00    -0.199 C  
HETATM   13  O   UNL     1      -9.452  14.997  66.109  1.00  0.00    -0.286 OA 
ENDROOT
BRANCH  12  14
HETATM   14  N   UNL     1      -8.325  13.507  68.751  1.00  0.00    -0.347 N  
HETATM   15  C   UNL     1      -8.529  12.279  68.154  1.00  0.00    -0.176 C  
HETATM   16  H   UNL     1      -7.465  13.679  69.273  1.00  0.00     0.000 HD 
HETATM   17  O   UNL     1      -9.515  12.080  67.453  1.00  0.00    -0.173 OA 
BRANCH  15  18
HETATM   18  C   UNL     1      -7.536  11.264  68.446  1.00  0.00    -0.108 A  
HETATM   19  C   UNL     1      -6.288  11.133  67.857  1.00  0.00    -0.054 A  
HETATM   20  C   UNL     1      -5.514  11.842  66.817  1.00  0.00    -0.099 C  
HETATM   21  O   UNL     1      -5.664  10.045  68.367  1.00  0.00    -0.042 OA 
HETATM   22  N   UNL     1      -6.475   9.427  69.277  1.00  0.00    -0.044 NA 
HETATM   23  C   UNL     1      -7.616  10.138  69.340  1.00  0.00    -0.133 A  
BRANCH  23  24
HETATM   24  C   UNL     1      -8.674   9.700  70.265  1.00  0.00    -0.248 A  
HETATM   25  C   UNL     1     -10.028   9.972  70.037  1.00  0.00    -0.273 A  
HETATM   26  C   UNL     1     -11.005   9.575  70.958  1.00  0.00    -0.424 A  
HETATM   27  C   UNL     1     -10.641   8.918  72.131  1.00  0.00    -0.323 A  
HETATM   28  C   UNL     1      -9.300   8.648  72.382  1.00  0.00    -0.284 A  
HETATM   29  C   UNL     1      -8.326   9.034  71.455  1.00  0.00    -0.070 A  
ENDBRANCH  23  24
ENDBRANCH  15  18
ENDBRANCH  12  14
TORSDOF 3
ENDMDL
MODEL      139
REMARK 921   NORMALIZED FREE ENERGY PREDICTED BY IDOCK:   -4.19 KCAL/MOL
REMARK 922        TOTAL FREE ENERGY PREDICTED BY IDOCK:   -5.83 KCAL/MOL
REMARK 923 INTER-LIGAND FREE ENERGY PREDICTED BY IDOCK:   -4.84 KCAL/MOL
REMARK 924 INTRA-LIGAND FREE ENERGY PREDICTED BY IDOCK:   -0.99 KCAL/MOL
REMARK 927      BINDING AFFINITY PREDICTED BY RF-SCORE:    0.00 PKD
ROOT
HETATM    1  C   UNL     1     -10.776   9.637  67.041  1.00  0.00    -0.155 C  
HETATM    2  S   UNL     1      -9.830   8.435  68.063  1.00  0.00    -0.177 SA 
HETATM    3  C   UNL     1      -9.303   9.681  69.325  1.00  0.00    -0.180 C  
HETATM    4  CA  UNL     1     -10.328  10.837  69.202  1.00  0.00    -0.217 C  
HETATM    5  C   UNL     1      -9.205   9.011  70.701  1.00  0.00    -0.279 C  
HETATM    6  C   UNL     1      -7.876  10.135  68.956  1.00  0.00    -0.107 C  
HETATM    7  N   UNL     1     -10.724  10.918  67.780  1.00  0.00    -0.216 N  
HETATM    8  C   UNL     1     -11.609  10.683  70.045  1.00  0.00    -0.325 C  
HETATM    9  OXT UNL     1     -11.631  10.480  71.249  1.00  0.00    -0.263 OA 
HETATM   10  O   UNL     1     -12.753  10.887  69.342  1.00  0.00    -0.284 OA 
HETATM   11  C   UNL     1      -9.891  11.516  66.868  1.00  0.00    -0.197 C  
HETATM   12  CA  UNL     1     -10.018  10.333  65.880  1.00  0.00    -0.256 C  
HETATM   13  O   UNL     1      -9.200  12.504  66.976  1.00  0.00    -0.200 OA 
ENDROOT
BRANCH  12  14
HETATM   14  N   UNL     1      -8.749   9.693  65.438  1.00  0.00    -0.148 N  
HETATM   15  C   UNL     1      -8.542   9.392  64.106  1.00  0.00    -0.198 C  
HETATM   16  H   UNL     1      -8.027   9.475  66.124  1.00  0.00     0.000 HD 
HETATM   17  O   UNL     1      -9.360   9.721  63.255  1.00  0.00    -0.259 OA 
BRANCH  15  18
HETATM   18  C   UNL     1      -7.334   8.644  63.811  1.00  0.00    -0.101 A  
HETATM   19  C   UNL     1      -6.143   9.154  63.320  1.00  0.00    -0.089 A  
HETATM   20  C   UNL     1      -5.630  10.482  62.920  1.00  0.00    -0.158 C  
HETATM   21  O   UNL     1      -5.262   8.142  63.141  1.00  0.00    -0.049 OA 
HETATM   22  N   UNL     1      -5.842   6.954  63.485  1.00  0.00    -0.035 NA 
HETATM   23  C   UNL     1      -7.097   7.225  63.887  1.00  0.00    -0.068 A  
BRANCH  23  24
HETATM   24  C   UNL     1      -7.955   6.116  64.334  1.00  0.00    -0.121 A  
HETATM   25  C   UNL     1      -8.453   5.150  63.451  1.00  0.00    -0.112 A  
HETATM   26  C   UNL     1      -9.298   4.131  63.904  1.00  0.00    -0.152 A  
HETATM   27  C   UNL     1      -9.676   4.073  65.244  1.00  0.00    -0.197 A  
HETATM   28  C   UNL     1      -9.201   5.029  66.135  1.00  0.00    -0.149 A  
HETATM   29  C   UNL     1      -8.346   6.039  65.685  1.00  0.00    -0.145 A  
ENDBRANCH  23  24
ENDBRANCH  15  18
ENDBRANCH  12  14
TORSDOF 3
ENDMDL
MODEL      140
REMARK 921   NORMALIZED FREE ENERGY PREDICTED BY IDOCK:   -4.16 KCAL/MOL
REMARK 922        TOTAL FREE ENERGY PREDICTED BY IDOCK:   -5.79 KCAL/MOL
REMARK 923 INTER-LIGAND FREE ENERGY PREDICTED BY IDOCK:   -5.25 KCAL/MOL
REMARK 924 INTRA-LIGAND FREE ENERGY PREDICTED BY IDOCK:   -0.55 KCAL/MOL
REMARK 927      BINDING AFFINITY PREDICTED BY RF-SCORE:    0.00 PKD
ROOT
HETATM    1  C   UNL     1      -7.784   9.336  66.667  1.00  0.00    -0.093 C  
HETATM    2  S   UNL     1      -8.222   7.817  67.609  1.00  0.00    -0.125 SA 
HETATM    3  C   UNL     1      -8.862   6.898  66.136  1.00  0.00    -0.147 C  
HETATM    4  CA  UNL     1      -8.203   7.586  64.914  1.00  0.00    -0.083 C  
HETATM    5  C   UNL     1      -8.578   5.400  66.300  1.00  0.00    -0.122 C  
HETATM    6  C   UNL     1     -10.397   7.053  66.127  1.00  0.00     0.502 C  
HETATM    7  N   UNL     1      -8.058   9.019  65.248  1.00  0.00    -0.120 N  
HETATM    8  C   UNL     1      -6.817   7.047  64.514  1.00  0.00    -0.050 C  
HETATM    9  OXT UNL     1      -6.564   5.875  64.284  1.00  0.00    -0.036 OA 
HETATM   10  O   UNL     1      -5.882   8.018  64.341  1.00  0.00    -0.050 OA 
HETATM   11  C   UNL     1      -9.144   9.855  65.176  1.00  0.00    -0.211 C  
HETATM   12  CA  UNL     1      -8.861  10.450  66.575  1.00  0.00    -0.138 C  
HETATM   13  O   UNL     1     -10.044   9.893  64.368  1.00  0.00    -0.092 OA 
ENDROOT
BRANCH  12  14
HETATM   14  N   UNL     1      -9.970  10.383  67.565  1.00  0.00    -0.175 N  
HETATM   15  C   UNL     1      -9.752  10.717  68.887  1.00  0.00    -0.202 C  
HETATM   16  H   UNL     1     -10.900  10.089  67.265  1.00  0.00     0.000 HD 
HETATM   17  O   UNL     1      -8.666  11.152  69.252  1.00  0.00    -0.005 OA 
BRANCH  15  18
HETATM   18  C   UNL     1     -10.865  10.481  69.788  1.00  0.00    -0.335 A  
HETATM   19  C   UNL     1     -11.283   9.256  70.283  1.00  0.00    -0.231 A  
HETATM   20  C   UNL     1     -10.869   7.844  70.142  1.00  0.00    -0.243 C  
HETATM   21  O   UNL     1     -12.374   9.438  71.064  1.00  0.00    -0.297 OA 
HETATM   22  N   UNL     1     -12.712  10.762  71.090  1.00  0.00    -0.398 NA 
HETATM   23  C   UNL     1     -11.821  11.416  70.322  1.00  0.00    -0.350 A  
BRANCH  23  24
HETATM   24  C   UNL     1     -11.940  12.876  70.184  1.00  0.00    -0.373 A  
HETATM   25  C   UNL     1     -12.600  13.668  71.131  1.00  0.00    -0.452 A  
HETATM   26  C   UNL     1     -12.728  15.050  70.948  1.00  0.00    -0.437 A  
HETATM   27  C   UNL     1     -12.218  15.658  69.803  1.00  0.00    -0.293 A  
HETATM   28  C   UNL     1     -11.569  14.888  68.845  1.00  0.00    -0.339 A  
HETATM   29  C   UNL     1     -11.429  13.509  69.035  1.00  0.00    -0.349 A  
ENDBRANCH  23  24
ENDBRANCH  15  18
ENDBRANCH  12  14
TORSDOF 3
ENDMDL
MODEL      141
REMARK 921   NORMALIZED FREE ENERGY PREDICTED BY IDOCK:   -4.15 KCAL/MOL
REMARK 922        TOTAL FREE ENERGY PREDICTED BY IDOCK:   -5.78 KCAL/MOL
REMARK 923 INTER-LIGAND FREE ENERGY PREDICTED BY IDOCK:   -4.83 KCAL/MOL
REMARK 924 INTRA-LIGAND FREE ENERGY PREDICTED BY IDOCK:   -0.95 KCAL/MOL
REMARK 927      BINDING AFFINITY PREDICTED BY RF-SCORE:    0.00 PKD
ROOT
HETATM    1  C   UNL     1      -9.604   7.708  66.874  1.00  0.00    -0.193 C  
HETATM    2  S   UNL     1      -8.775   8.105  65.280  1.00  0.00     0.012 SA 
HETATM    3  C   UNL     1      -7.273   7.081  65.625  1.00  0.00    -0.073 C  
HETATM    4  CA  UNL     1      -7.723   6.053  66.694  1.00  0.00    -0.103 C  
HETATM    5  C   UNL     1      -6.736   6.497  64.313  1.00  0.00    -0.038 C  
HETATM    6  C   UNL     1      -6.181   8.029  66.161  1.00  0.00    -0.045 C  
HETATM    7  N   UNL     1      -8.727   6.724  67.546  1.00  0.00    -0.119 N  
HETATM    8  C   UNL     1      -8.351   4.757  66.148  1.00  0.00    -0.111 C  
HETATM    9  OXT UNL     1      -7.829   4.022  65.325  1.00  0.00    -0.087 OA 
HETATM   10  O   UNL     1      -9.531   4.431  66.737  1.00  0.00    -0.152 OA 
HETATM   11  C   UNL     1      -8.325   7.607  68.517  1.00  0.00    -0.129 C  
HETATM   12  CA  UNL     1      -9.352   8.671  68.065  1.00  0.00    -0.136 C  
HETATM   13  O   UNL     1      -7.376   7.561  69.265  1.00  0.00    -0.084 OA 
ENDROOT
BRANCH  12  14
HETATM   14  N   UNL     1      -8.814  10.017  67.727  1.00  0.00    -0.125 N  
HETATM   15  C   UNL     1      -9.001  11.084  68.585  1.00  0.00    -0.167 C  
HETATM   16  H   UNL     1      -8.303  10.154  66.855  1.00  0.00     0.000 HD 
HETATM   17  O   UNL     1      -9.539  10.923  69.674  1.00  0.00     0.032 OA 
BRANCH  15  18
HETATM   18  C   UNL     1      -8.559  12.374  68.090  1.00  0.00    -0.185 A  
HETATM   19  C   UNL     1      -7.466  13.100  68.534  1.00  0.00    -0.117 A  
HETATM   20  C   UNL     1      -6.414  12.936  69.560  1.00  0.00    -0.075 C  
HETATM   21  O   UNL     1      -7.399  14.269  67.854  1.00  0.00    -0.121 OA 
HETATM   22  N   UNL     1      -8.438  14.354  66.971  1.00  0.00    -0.206 NA 
HETATM   23  C   UNL     1      -9.160  13.225  67.096  1.00  0.00    -0.231 A  
BRANCH  23  24
HETATM   24  C   UNL     1     -10.344  13.042  66.242  1.00  0.00    -0.291 A  
HETATM   25  C   UNL     1     -10.283  12.387  65.006  1.00  0.00    -0.306 A  
HETATM   26  C   UNL     1     -11.422  12.265  64.201  1.00  0.00    -0.453 A  
HETATM   27  C   UNL     1     -12.635  12.815  64.609  1.00  0.00    -0.491 A  
HETATM   28  C   UNL     1     -12.714  13.480  65.828  1.00  0.00    -0.433 A  
HETATM   29  C   UNL     1     -11.579  13.590  66.638  1.00  0.00    -0.396 A  
ENDBRANCH  23  24
ENDBRANCH  15  18
ENDBRANCH  12  14
TORSDOF 3
ENDMDL
MODEL      142
REMARK 921   NORMALIZED FREE ENERGY PREDICTED BY IDOCK:   -4.14 KCAL/MOL
REMARK 922        TOTAL FREE ENERGY PREDICTED BY IDOCK:   -5.76 KCAL/MOL
REMARK 923 INTER-LIGAND FREE ENERGY PREDICTED BY IDOCK:   -4.61 KCAL/MOL
REMARK 924 INTRA-LIGAND FREE ENERGY PREDICTED BY IDOCK:   -1.15 KCAL/MOL
REMARK 927      BINDING AFFINITY PREDICTED BY RF-SCORE:    0.00 PKD
ROOT
HETATM    1  C   UNL     1      -8.419  11.088  66.038  1.00  0.00    -0.158 C  
HETATM    2  S   UNL     1     -10.251  11.019  66.196  1.00  0.00    -0.253 SA 
HETATM    3  C   UNL     1     -10.267  11.403  68.006  1.00  0.00    -0.185 C  
HETATM    4  CA  UNL     1      -8.912  12.105  68.281  1.00  0.00    -0.186 C  
HETATM    5  C   UNL     1     -11.525  12.208  68.351  1.00  0.00    -0.356 C  
HETATM    6  C   UNL     1     -10.385  10.063  68.760  1.00  0.00    -0.216 C  
HETATM    7  N   UNL     1      -7.918  11.505  67.366  1.00  0.00    -0.136 N  
HETATM    8  C   UNL     1      -8.898  13.630  68.066  1.00  0.00    -0.187 C  
HETATM    9  OXT UNL     1      -9.676  14.415  68.586  1.00  0.00    -0.217 OA 
HETATM   10  O   UNL     1      -7.863  14.065  67.301  1.00  0.00    -0.179 OA 
HETATM   11  C   UNL     1      -7.377  10.276  67.650  1.00  0.00    -0.088 C  
HETATM   12  CA  UNL     1      -7.640   9.758  66.217  1.00  0.00    -0.100 C  
HETATM   13  O   UNL     1      -7.036   9.802  68.709  1.00  0.00    -0.064 OA 
ENDROOT
BRANCH  12  14
HETATM   14  N   UNL     1      -8.433   8.504  66.096  1.00  0.00    -0.124 N  
HETATM   15  C   UNL     1      -7.804   7.294  65.875  1.00  0.00    -0.106 C  
HETATM   16  H   UNL     1      -9.449   8.538  66.177  1.00  0.00     0.000 HD 
HETATM   17  O   UNL     1      -6.581   7.219  65.858  1.00  0.00    -0.050 OA 
BRANCH  15  18
HETATM   18  C   UNL     1      -8.680   6.164  65.633  1.00  0.00    -0.133 A  
HETATM   19  C   UNL     1      -8.909   5.538  64.418  1.00  0.00     0.130 A  
HETATM   20  C   UNL     1      -8.452   5.707  63.023  1.00  0.00    -0.011 C  
HETATM   21  O   UNL     1      -9.815   4.547  64.588  1.00  0.00    -0.116 OA 
HETATM   22  N   UNL     1     -10.218   4.504  65.893  1.00  0.00    -0.263 NA 
HETATM   23  C   UNL     1      -9.553   5.474  66.547  1.00  0.00    -0.155 A  
BRANCH  23  24
HETATM   24  C   UNL     1      -9.786   5.644  67.991  1.00  0.00    -0.162 A  
HETATM   25  C   UNL     1     -10.804   6.464  68.494  1.00  0.00    -0.382 A  
HETATM   26  C   UNL     1     -10.972   6.634  69.874  1.00  0.00    -0.373 A  
HETATM   27  C   UNL     1     -10.112   6.004  70.770  1.00  0.00    -0.248 A  
HETATM   28  C   UNL     1      -9.088   5.195  70.290  1.00  0.00    -0.164 A  
HETATM   29  C   UNL     1      -8.928   5.015  68.913  1.00  0.00    -0.127 A  
ENDBRANCH  23  24
ENDBRANCH  15  18
ENDBRANCH  12  14
TORSDOF 3
ENDMDL
MODEL      143
REMARK 921   NORMALIZED FREE ENERGY PREDICTED BY IDOCK:   -4.13 KCAL/MOL
REMARK 922        TOTAL FREE ENERGY PREDICTED BY IDOCK:   -5.76 KCAL/MOL
REMARK 923 INTER-LIGAND FREE ENERGY PREDICTED BY IDOCK:   -4.99 KCAL/MOL
REMARK 924 INTRA-LIGAND FREE ENERGY PREDICTED BY IDOCK:   -0.77 KCAL/MOL
REMARK 927      BINDING AFFINITY PREDICTED BY RF-SCORE:    0.00 PKD
ROOT
HETATM    1  C   UNL     1     -10.039  11.951  65.773  1.00  0.00    -0.241 C  
HETATM    2  S   UNL     1     -11.704  12.092  66.544  1.00  0.00    -0.240 SA 
HETATM    3  C   UNL     1     -11.175  13.299  67.842  1.00  0.00    -0.272 C  
HETATM    4  CA  UNL     1      -9.885  13.953  67.283  1.00  0.00    -0.244 C  
HETATM    5  C   UNL     1     -12.331  14.255  68.159  1.00  0.00    -0.005 C  
HETATM    6  C   UNL     1     -10.902  12.499  69.132  1.00  0.00    -0.134 C  
HETATM    7  N   UNL     1      -9.183  12.920  66.491  1.00  0.00    -0.218 N  
HETATM    8  C   UNL     1     -10.099  15.181  66.379  1.00  0.00    -0.273 C  
HETATM    9  OXT UNL     1     -10.745  16.171  66.689  1.00  0.00    -0.306 OA 
HETATM   10  O   UNL     1      -9.419  15.122  65.205  1.00  0.00    -0.128 OA 
HETATM   11  C   UNL     1      -8.454  11.945  67.126  1.00  0.00    -0.173 C  
HETATM   12  CA  UNL     1      -9.110  10.821  66.292  1.00  0.00    -0.175 C  
HETATM   13  O   UNL     1      -7.742  12.017  68.101  1.00  0.00    -0.117 OA 
ENDROOT
BRANCH  12  14
HETATM   14  N   UNL     1      -9.765   9.721  67.052  1.00  0.00    -0.175 N  
HETATM   15  C   UNL     1      -9.021   8.662  67.535  1.00  0.00    -0.134 C  
HETATM   16  H   UNL     1     -10.771   9.749  67.218  1.00  0.00     0.000 HD 
HETATM   17  O   UNL     1      -7.800   8.651  67.419  1.00  0.00    -0.097 OA 
BRANCH  15  18
HETATM   18  C   UNL     1      -9.780   7.582  68.135  1.00  0.00    -0.167 A  
HETATM   19  C   UNL     1     -10.567   7.656  69.273  1.00  0.00    -0.201 A  
HETATM   20  C   UNL     1     -10.935   8.696  70.256  1.00  0.00    -0.251 C  
HETATM   21  O   UNL     1     -11.086   6.434  69.539  1.00  0.00    -0.325 OA 
HETATM   22  N   UNL     1     -10.648   5.531  68.611  1.00  0.00    -0.179 NA 
HETATM   23  C   UNL     1      -9.852   6.195  67.754  1.00  0.00    -0.123 A  
BRANCH  23  24
HETATM   24  C   UNL     1      -9.248   5.459  66.631  1.00  0.00    -0.132 A  
HETATM   25  C   UNL     1      -7.873   5.487  66.370  1.00  0.00    -0.100 A  
HETATM   26  C   UNL     1      -7.338   4.807  65.270  1.00  0.00    -0.072 A  
HETATM   27  C   UNL     1      -8.172   4.106  64.402  1.00  0.00    -0.096 A  
HETATM   28  C   UNL     1      -9.542   4.075  64.637  1.00  0.00    -0.175 A  
HETATM   29  C   UNL     1     -10.075   4.744  65.744  1.00  0.00    -0.236 A  
ENDBRANCH  23  24
ENDBRANCH  15  18
ENDBRANCH  12  14
TORSDOF 3
ENDMDL
MODEL      144
REMARK 921   NORMALIZED FREE ENERGY PREDICTED BY IDOCK:   -4.13 KCAL/MOL
REMARK 922        TOTAL FREE ENERGY PREDICTED BY IDOCK:   -5.75 KCAL/MOL
REMARK 923 INTER-LIGAND FREE ENERGY PREDICTED BY IDOCK:   -4.25 KCAL/MOL
REMARK 924 INTRA-LIGAND FREE ENERGY PREDICTED BY IDOCK:   -1.50 KCAL/MOL
REMARK 927      BINDING AFFINITY PREDICTED BY RF-SCORE:    0.00 PKD
ROOT
HETATM    1  C   UNL     1     -11.270   8.043  69.338  1.00  0.00     0.222 C  
HETATM    2  S   UNL     1     -10.673   6.863  70.617  1.00  0.00    -0.246 SA 
HETATM    3  C   UNL     1     -10.413   8.155  71.915  1.00  0.00    -0.248 C  
HETATM    4  CA  UNL     1     -11.313   9.343  71.487  1.00  0.00    -0.394 C  
HETATM    5  C   UNL     1     -10.695   7.560  73.299  1.00  0.00    -0.437 C  
HETATM    6  C   UNL     1      -8.917   8.531  71.897  1.00  0.00    -0.301 C  
HETATM    7  N   UNL     1     -11.337   9.359  70.009  1.00  0.00    -0.192 N  
HETATM    8  C   UNL     1     -12.769   9.286  71.986  1.00  0.00    -0.401 C  
HETATM    9  OXT UNL     1     -13.102   9.152  73.153  1.00  0.00    -0.128 OA 
HETATM   10  O   UNL     1     -13.690   9.496  71.010  1.00  0.00    -0.265 OA 
HETATM   11  C   UNL     1     -10.273   9.872  69.310  1.00  0.00    -0.209 C  
HETATM   12  CA  UNL     1     -10.212   8.642  68.375  1.00  0.00    -0.200 C  
HETATM   13  O   UNL     1      -9.580  10.836  69.545  1.00  0.00    -0.110 OA 
ENDROOT
BRANCH  12  14
HETATM   14  N   UNL     1      -8.908   7.928  68.295  1.00  0.00    -0.130 N  
HETATM   15  C   UNL     1      -8.714   6.923  67.369  1.00  0.00    -0.119 C  
HETATM   16  H   UNL     1      -8.151   8.184  68.929  1.00  0.00     0.000 HD 
HETATM   17  O   UNL     1      -9.580   6.657  66.543  1.00  0.00    -0.168 OA 
BRANCH  15  18
HETATM   18  C   UNL     1      -7.459   6.203  67.475  1.00  0.00    -0.082 A  
HETATM   19  C   UNL     1      -6.428   6.196  66.549  1.00  0.00    -0.046 A  
HETATM   20  C   UNL     1      -6.169   6.808  65.228  1.00  0.00    -0.039 C  
HETATM   21  O   UNL     1      -5.439   5.381  66.985  1.00  0.00    -0.011 OA 
HETATM   22  N   UNL     1      -5.791   4.822  68.182  1.00  0.00    -0.021 NA 
HETATM   23  C   UNL     1      -7.010   5.296  68.499  1.00  0.00    -0.057 A  
BRANCH  23  24
HETATM   24  C   UNL     1      -7.632   4.865  69.761  1.00  0.00    -0.056 A  
HETATM   25  C   UNL     1      -7.220   5.357  71.006  1.00  0.00    -0.074 A  
HETATM   26  C   UNL     1      -7.808   4.895  72.190  1.00  0.00    -0.109 A  
HETATM   27  C   UNL     1      -8.802   3.920  72.149  1.00  0.00    -0.130 A  
HETATM   28  C   UNL     1      -9.217   3.410  70.924  1.00  0.00    -0.200 A  
HETATM   29  C   UNL     1      -8.639   3.881  69.740  1.00  0.00    -0.104 A  
ENDBRANCH  23  24
ENDBRANCH  15  18
ENDBRANCH  12  14
TORSDOF 3
ENDMDL
MODEL      145
REMARK 921   NORMALIZED FREE ENERGY PREDICTED BY IDOCK:   -4.06 KCAL/MOL
REMARK 922        TOTAL FREE ENERGY PREDICTED BY IDOCK:   -5.68 KCAL/MOL
REMARK 923 INTER-LIGAND FREE ENERGY PREDICTED BY IDOCK:   -4.92 KCAL/MOL
REMARK 924 INTRA-LIGAND FREE ENERGY PREDICTED BY IDOCK:   -0.76 KCAL/MOL
REMARK 927      BINDING AFFINITY PREDICTED BY RF-SCORE:    0.00 PKD
ROOT
HETATM    1  C   UNL     1      -7.681   8.419  67.897  1.00  0.00    -0.103 C  
HETATM    2  S   UNL     1      -8.517   8.525  69.533  1.00  0.00    -0.128 SA 
HETATM    3  C   UNL     1     -10.192   8.084  68.881  1.00  0.00    -0.209 C  
HETATM    4  CA  UNL     1      -9.924   7.343  67.547  1.00  0.00    -0.173 C  
HETATM    5  C   UNL     1     -10.968   7.298  69.944  1.00  0.00    -0.262 C  
HETATM    6  C   UNL     1     -10.963   9.403  68.663  1.00  0.00    -0.075 C  
HETATM    7  N   UNL     1      -8.714   7.949  66.949  1.00  0.00    -0.127 N  
HETATM    8  C   UNL     1      -9.688   5.825  67.664  1.00  0.00    -0.119 C  
HETATM    9  OXT UNL     1     -10.445   5.043  68.216  1.00  0.00    -0.072 OA 
HETATM   10  O   UNL     1      -8.580   5.392  67.007  1.00  0.00    -0.110 OA 
HETATM   11  C   UNL     1      -8.799   9.155  66.300  1.00  0.00    -0.148 C  
HETATM   12  CA  UNL     1      -7.582   9.725  67.065  1.00  0.00    -0.092 C  
HETATM   13  O   UNL     1      -9.663   9.588  65.571  1.00  0.00    -0.283 OA 
ENDROOT
BRANCH  12  14
HETATM   14  N   UNL     1      -7.794  11.000  67.803  1.00  0.00    -0.108 N  
HETATM   15  C   UNL     1      -7.106  12.142  67.443  1.00  0.00    -0.146 C  
HETATM   16  H   UNL     1      -8.452  11.031  68.581  1.00  0.00     0.000 HD 
HETATM   17  O   UNL     1      -6.374  12.148  66.460  1.00  0.00    -0.042 OA 
BRANCH  15  18
HETATM   18  C   UNL     1      -7.284  13.286  68.317  1.00  0.00    -0.108 A  
HETATM   19  C   UNL     1      -6.649  13.510  69.528  1.00  0.00    -0.054 A  
HETATM   20  C   UNL     1      -5.661  12.799  70.367  1.00  0.00    -0.165 C  
HETATM   21  O   UNL     1      -7.102  14.667  70.065  1.00  0.00    -0.134 OA 
HETATM   22  N   UNL     1      -8.047  15.220  69.247  1.00  0.00    -0.223 NA 
HETATM   23  C   UNL     1      -8.182  14.404  68.186  1.00  0.00    -0.149 A  
BRANCH  23  24
HETATM   24  C   UNL     1      -9.136  14.771  67.126  1.00  0.00    -0.231 A  
HETATM   25  C   UNL     1      -9.413  16.103  66.795  1.00  0.00    -0.256 A  
HETATM   26  C   UNL     1     -10.355  16.416  65.808  1.00  0.00    -0.388 A  
HETATM   27  C   UNL     1     -11.049  15.402  65.151  1.00  0.00    -0.402 A  
HETATM   28  C   UNL     1     -10.797  14.074  65.474  1.00  0.00    -0.311 A  
HETATM   29  C   UNL     1      -9.847  13.761  66.451  1.00  0.00    -0.305 A  
ENDBRANCH  23  24
ENDBRANCH  15  18
ENDBRANCH  12  14
TORSDOF 3
ENDMDL
MODEL      146
REMARK 921   NORMALIZED FREE ENERGY PREDICTED BY IDOCK:   -3.96 KCAL/MOL
REMARK 922        TOTAL FREE ENERGY PREDICTED BY IDOCK:   -5.56 KCAL/MOL
REMARK 923 INTER-LIGAND FREE ENERGY PREDICTED BY IDOCK:   -4.12 KCAL/MOL
REMARK 924 INTRA-LIGAND FREE ENERGY PREDICTED BY IDOCK:   -1.45 KCAL/MOL
REMARK 927      BINDING AFFINITY PREDICTED BY RF-SCORE:    0.00 PKD
ROOT
HETATM    1  C   UNL     1      -9.407   7.654  66.712  1.00  0.00    -0.172 C  
HETATM    2  S   UNL     1     -10.003   8.034  68.411  1.00  0.00    -0.190 SA 
HETATM    3  C   UNL     1      -9.068   9.625  68.553  1.00  0.00    -0.131 C  
HETATM    4  CA  UNL     1      -8.787  10.058  67.091  1.00  0.00    -0.135 C  
HETATM    5  C   UNL     1      -9.866  10.617  69.407  1.00  0.00    -0.164 C  
HETATM    6  C   UNL     1      -7.768   9.328  69.327  1.00  0.00    -0.081 C  
HETATM    7  N   UNL     1      -8.600   8.823  66.300  1.00  0.00    -0.125 N  
HETATM    8  C   UNL     1      -9.894  10.892  66.419  1.00  0.00    -0.207 C  
HETATM    9  OXT UNL     1     -10.369  11.919  66.878  1.00  0.00    -0.206 OA 
HETATM   10  O   UNL     1     -10.252  10.435  65.191  1.00  0.00    -0.304 OA 
HETATM   11  C   UNL     1      -7.411   8.140  66.363  1.00  0.00    -0.087 C  
HETATM   12  CA  UNL     1      -8.126   6.787  66.587  1.00  0.00    -0.110 C  
HETATM   13  O   UNL     1      -6.276   8.557  66.417  1.00  0.00    -0.055 OA 
ENDROOT
BRANCH  12  14
HETATM   14  N   UNL     1      -7.727   6.014  67.794  1.00  0.00    -0.099 N  
HETATM   15  C   UNL     1      -8.355   4.823  68.104  1.00  0.00    -0.098 C  
HETATM   16  H   UNL     1      -6.984   6.365  68.398  1.00  0.00     0.000 HD 
HETATM   17  O   UNL     1      -9.191   4.342  67.349  1.00  0.00    -0.129 OA 
BRANCH  15  18
HETATM   18  C   UNL     1      -7.984   4.229  69.375  1.00  0.00    -0.060 A  
HETATM   19  C   UNL     1      -7.175   3.121  69.566  1.00  0.00    -0.045 A  
HETATM   20  C   UNL     1      -6.437   2.171  68.706  1.00  0.00    -0.029 C  
HETATM   21  O   UNL     1      -7.091   2.850  70.889  1.00  0.00    -0.033 OA 
HETATM   22  N   UNL     1      -7.845   3.744  71.596  1.00  0.00    -0.061 NA 
HETATM   23  C   UNL     1      -8.402   4.586  70.706  1.00  0.00    -0.087 A  
BRANCH  23  24
HETATM   24  C   UNL     1      -9.263   5.673  71.200  1.00  0.00    -0.169 A  
HETATM   25  C   UNL     1      -8.752   6.780  71.888  1.00  0.00    -0.123 A  
HETATM   26  C   UNL     1      -9.605   7.776  72.378  1.00  0.00    -0.238 A  
HETATM   27  C   UNL     1     -10.983   7.670  72.206  1.00  0.00    -0.328 A  
HETATM   28  C   UNL     1     -11.511   6.573  71.536  1.00  0.00    -0.351 A  
HETATM   29  C   UNL     1     -10.658   5.584  71.035  1.00  0.00    -0.300 A  
ENDBRANCH  23  24
ENDBRANCH  15  18
ENDBRANCH  12  14
TORSDOF 3
ENDMDL
MODEL      147
REMARK 921   NORMALIZED FREE ENERGY PREDICTED BY IDOCK:   -3.96 KCAL/MOL
REMARK 922        TOTAL FREE ENERGY PREDICTED BY IDOCK:   -5.55 KCAL/MOL
REMARK 923 INTER-LIGAND FREE ENERGY PREDICTED BY IDOCK:   -4.60 KCAL/MOL
REMARK 924 INTRA-LIGAND FREE ENERGY PREDICTED BY IDOCK:   -0.96 KCAL/MOL
REMARK 927      BINDING AFFINITY PREDICTED BY RF-SCORE:    0.00 PKD
ROOT
HETATM    1  C   UNL     1     -11.119   6.191  69.418  1.00  0.00    -0.409 C  
HETATM    2  S   UNL     1     -10.008   5.073  70.366  1.00  0.00    -0.259 SA 
HETATM    3  C   UNL     1      -9.182   6.434  71.309  1.00  0.00    -0.156 C  
HETATM    4  CA  UNL     1     -10.175   7.623  71.254  1.00  0.00    -0.187 C  
HETATM    5  C   UNL     1      -8.804   5.936  72.709  1.00  0.00    -0.124 C  
HETATM    6  C   UNL     1      -7.857   6.757  70.587  1.00  0.00    -0.105 C  
HETATM    7  N   UNL     1     -10.870   7.549  69.951  1.00  0.00    -0.250 N  
HETATM    8  C   UNL     1     -11.244   7.648  72.362  1.00  0.00    -0.320 C  
HETATM    9  OXT UNL     1     -11.009   7.598  73.560  1.00  0.00    -0.326 OA 
HETATM   10  O   UNL     1     -12.509   7.828  71.898  1.00  0.00    -0.304 OA 
HETATM   11  C   UNL     1     -10.239   7.980  68.810  1.00  0.00    -0.206 C  
HETATM   12  CA  UNL     1     -10.614   6.693  68.039  1.00  0.00    -0.245 C  
HETATM   13  O   UNL     1      -9.513   8.932  68.636  1.00  0.00    -0.149 OA 
ENDROOT
BRANCH  12  14
HETATM   14  N   UNL     1      -9.491   5.931  67.427  1.00  0.00    -0.111 N  
HETATM   15  C   UNL     1      -9.733   4.995  66.441  1.00  0.00    -0.182 C  
HETATM   16  H   UNL     1      -8.534   6.103  67.737  1.00  0.00     0.000 HD 
HETATM   17  O   UNL     1     -10.864   4.834  65.996  1.00  0.00    -0.287 OA 
BRANCH  15  18
HETATM   18  C   UNL     1      -8.586   4.215  66.019  1.00  0.00    -0.113 A  
HETATM   19  C   UNL     1      -8.304   2.902  66.363  1.00  0.00    -0.096 A  
HETATM   20  C   UNL     1      -8.931   1.855  67.196  1.00  0.00    -0.150 C  
HETATM   21  O   UNL     1      -7.128   2.534  65.803  1.00  0.00    -0.060 OA 
HETATM   22  N   UNL     1      -6.600   3.581  65.100  1.00  0.00    -0.039 NA 
HETATM   23  C   UNL     1      -7.456   4.612  65.218  1.00  0.00    -0.077 A  
BRANCH  23  24
HETATM   24  C   UNL     1      -7.139   5.879  64.539  1.00  0.00    -0.053 A  
HETATM   25  C   UNL     1      -6.115   6.727  64.974  1.00  0.00    -0.035 A  
HETATM   26  C   UNL     1      -5.867   7.944  64.328  1.00  0.00    -0.052 A  
HETATM   27  C   UNL     1      -6.653   8.341  63.249  1.00  0.00    -0.085 A  
HETATM   28  C   UNL     1      -7.683   7.517  62.808  1.00  0.00    -0.123 A  
HETATM   29  C   UNL     1      -7.922   6.296  63.445  1.00  0.00    -0.095 A  
ENDBRANCH  23  24
ENDBRANCH  15  18
ENDBRANCH  12  14
TORSDOF 3
ENDMDL
MODEL      148
REMARK 921   NORMALIZED FREE ENERGY PREDICTED BY IDOCK:   -3.92 KCAL/MOL
REMARK 922        TOTAL FREE ENERGY PREDICTED BY IDOCK:   -5.51 KCAL/MOL
REMARK 923 INTER-LIGAND FREE ENERGY PREDICTED BY IDOCK:   -5.11 KCAL/MOL
REMARK 924 INTRA-LIGAND FREE ENERGY PREDICTED BY IDOCK:   -0.40 KCAL/MOL
REMARK 927      BINDING AFFINITY PREDICTED BY RF-SCORE:    0.00 PKD
ROOT
HETATM    1  C   UNL     1      -9.108   7.486  66.021  1.00  0.00    -0.094 C  
HETATM    2  S   UNL     1      -7.386   6.981  66.428  1.00  0.00    -0.081 SA 
HETATM    3  C   UNL     1      -7.823   6.235  68.064  1.00  0.00    -0.104 C  
HETATM    4  CA  UNL     1      -9.338   5.918  67.970  1.00  0.00    -0.111 C  
HETATM    5  C   UNL     1      -6.902   5.043  68.349  1.00  0.00    -0.056 C  
HETATM    6  C   UNL     1      -7.522   7.290  69.147  1.00  0.00    -0.093 C  
HETATM    7  N   UNL     1      -9.949   6.962  67.120  1.00  0.00    -0.168 N  
HETATM    8  C   UNL     1      -9.694   4.545  67.368  1.00  0.00    -0.178 C  
HETATM    9  OXT UNL     1      -9.257   3.476  67.764  1.00  0.00    -0.151 OA 
HETATM   10  O   UNL     1     -10.633   4.605  66.388  1.00  0.00    -0.252 OA 
HETATM   11  C   UNL     1     -10.207   8.206  67.639  1.00  0.00    -0.234 C  
HETATM   12  CA  UNL     1      -9.545   8.916  66.435  1.00  0.00    -0.238 C  
HETATM   13  O   UNL     1     -10.619   8.523  68.732  1.00  0.00    -0.208 OA 
ENDROOT
BRANCH  12  14
HETATM   14  N   UNL     1      -8.454   9.880  66.747  1.00  0.00    -0.124 N  
HETATM   15  C   UNL     1      -8.735  11.217  66.948  1.00  0.00    -0.157 C  
HETATM   16  H   UNL     1      -7.491   9.550  66.812  1.00  0.00     0.000 HD 
HETATM   17  O   UNL     1      -9.893  11.619  66.956  1.00  0.00    -0.190 OA 
BRANCH  15  18
HETATM   18  C   UNL     1      -7.583  12.085  67.104  1.00  0.00    -0.146 A  
HETATM   19  C   UNL     1      -6.252  11.701  67.111  1.00  0.00    -0.133 A  
HETATM   20  C   UNL     1      -5.501  10.433  66.994  1.00  0.00    -0.042 C  
HETATM   21  O   UNL     1      -5.473  12.789  67.315  1.00  0.00    -0.299 OA 
HETATM   22  N   UNL     1      -6.255  13.900  67.465  1.00  0.00    -0.335 NA 
HETATM   23  C   UNL     1      -7.535  13.503  67.348  1.00  0.00    -0.122 A  
BRANCH  23  24
HETATM   24  C   UNL     1      -8.602  14.512  67.454  1.00  0.00    -0.213 A  
HETATM   25  C   UNL     1      -8.944  15.355  66.390  1.00  0.00    -0.351 A  
HETATM   26  C   UNL     1      -9.938  16.330  66.538  1.00  0.00    -0.290 A  
HETATM   27  C   UNL     1     -10.591  16.490  67.758  1.00  0.00    -0.332 A  
HETATM   28  C   UNL     1     -10.258  15.670  68.831  1.00  0.00    -0.214 A  
HETATM   29  C   UNL     1      -9.274  14.688  68.678  1.00  0.00    -0.194 A  
ENDBRANCH  23  24
ENDBRANCH  15  18
ENDBRANCH  12  14
TORSDOF 3
ENDMDL
MODEL      149
REMARK 921   NORMALIZED FREE ENERGY PREDICTED BY IDOCK:   -3.88 KCAL/MOL
REMARK 922        TOTAL FREE ENERGY PREDICTED BY IDOCK:   -5.47 KCAL/MOL
REMARK 923 INTER-LIGAND FREE ENERGY PREDICTED BY IDOCK:   -4.03 KCAL/MOL
REMARK 924 INTRA-LIGAND FREE ENERGY PREDICTED BY IDOCK:   -1.44 KCAL/MOL
REMARK 927      BINDING AFFINITY PREDICTED BY RF-SCORE:    0.00 PKD
ROOT
HETATM    1  C   UNL     1      -9.147   8.833  67.062  1.00  0.00    -0.133 C  
HETATM    2  S   UNL     1      -9.080   8.665  68.893  1.00  0.00    -0.145 SA 
HETATM    3  C   UNL     1      -7.384   9.389  69.055  1.00  0.00    -0.072 C  
HETATM    4  CA  UNL     1      -7.179  10.226  67.767  1.00  0.00    -0.086 C  
HETATM    5  C   UNL     1      -7.275  10.152  70.380  1.00  0.00    -0.063 C  
HETATM    6  C   UNL     1      -6.388   8.214  69.144  1.00  0.00    -0.039 C  
HETATM    7  N   UNL     1      -7.902   9.534  66.679  1.00  0.00    -0.101 N  
HETATM    8  C   UNL     1      -7.689  11.678  67.830  1.00  0.00    -0.126 C  
HETATM    9  OXT UNL     1      -7.379  12.490  68.687  1.00  0.00    -0.105 OA 
HETATM   10  O   UNL     1      -8.468  12.030  66.773  1.00  0.00    -0.183 OA 
HETATM   11  C   UNL     1      -7.352   8.426  66.085  1.00  0.00    -0.084 C  
HETATM   12  CA  UNL     1      -8.667   7.623  66.219  1.00  0.00    -0.152 C  
HETATM   13  O   UNL     1      -6.202   8.191  65.790  1.00  0.00    -0.044 OA 
ENDROOT
BRANCH  12  14
HETATM   14  N   UNL     1      -8.581   6.315  66.925  1.00  0.00    -0.112 N  
HETATM   15  C   UNL     1      -9.721   5.575  67.174  1.00  0.00    -0.142 C  
HETATM   16  H   UNL     1      -7.673   5.961  67.227  1.00  0.00     0.000 HD 
HETATM   17  O   UNL     1     -10.809   5.941  66.746  1.00  0.00    -0.308 OA 
BRANCH  15  18
HETATM   18  C   UNL     1      -9.536   4.390  67.990  1.00  0.00    -0.204 A  
HETATM   19  C   UNL     1      -9.368   3.091  67.537  1.00  0.00    -0.185 A  
HETATM   20  C   UNL     1      -9.319   2.411  66.226  1.00  0.00     0.056 C  
HETATM   21  O   UNL     1      -9.262   2.258  68.598  1.00  0.00    -0.137 OA 
HETATM   22  N   UNL     1      -9.374   2.967  69.761  1.00  0.00    -0.152 NA 
HETATM   23  C   UNL     1      -9.546   4.258  69.424  1.00  0.00    -0.197 A  
BRANCH  23  24
HETATM   24  C   UNL     1      -9.681   5.259  70.495  1.00  0.00    -0.254 A  
HETATM   25  C   UNL     1     -10.905   5.863  70.807  1.00  0.00    -0.352 A  
HETATM   26  C   UNL     1     -10.989   6.841  71.806  1.00  0.00    -0.266 A  
HETATM   27  C   UNL     1      -9.847   7.244  72.493  1.00  0.00    -0.195 A  
HETATM   28  C   UNL     1      -8.619   6.665  72.190  1.00  0.00    -0.118 A  
HETATM   29  C   UNL     1      -8.538   5.679  71.202  1.00  0.00    -0.127 A  
ENDBRANCH  23  24
ENDBRANCH  15  18
ENDBRANCH  12  14
TORSDOF 3
ENDMDL
MODEL      150
REMARK 921   NORMALIZED FREE ENERGY PREDICTED BY IDOCK:   -3.88 KCAL/MOL
REMARK 922        TOTAL FREE ENERGY PREDICTED BY IDOCK:   -5.47 KCAL/MOL
REMARK 923 INTER-LIGAND FREE ENERGY PREDICTED BY IDOCK:   -4.69 KCAL/MOL
REMARK 924 INTRA-LIGAND FREE ENERGY PREDICTED BY IDOCK:   -0.78 KCAL/MOL
REMARK 927      BINDING AFFINITY PREDICTED BY RF-SCORE:    0.00 PKD
ROOT
HETATM    1  C   UNL     1     -10.546   7.137  69.685  1.00  0.00    -0.234 C  
HETATM    2  S   UNL     1      -8.878   6.511  70.142  1.00  0.00    -0.144 SA 
HETATM    3  C   UNL     1      -8.914   7.204  71.857  1.00  0.00    -0.127 C  
HETATM    4  CA  UNL     1     -10.417   7.405  72.179  1.00  0.00    -0.209 C  
HETATM    5  C   UNL     1      -8.140   6.279  72.803  1.00  0.00    -0.105 C  
HETATM    6  C   UNL     1      -8.147   8.543  71.829  1.00  0.00    -0.191 C  
HETATM    7  N   UNL     1     -11.089   7.761  70.911  1.00  0.00    -0.255 N  
HETATM    8  C   UNL     1     -11.139   6.181  72.774  1.00  0.00    -0.259 C  
HETATM    9  OXT UNL     1     -10.770   5.566  73.762  1.00  0.00    -0.270 OA 
HETATM   10  O   UNL     1     -12.308   5.880  72.150  1.00  0.00    -0.182 OA 
HETATM   11  C   UNL     1     -10.991   9.037  70.416  1.00  0.00    -0.247 C  
HETATM   12  CA  UNL     1     -10.620   8.530  69.004  1.00  0.00    -0.154 C  
HETATM   13  O   UNL     1     -11.005  10.100  70.995  1.00  0.00    -0.291 OA 
ENDROOT
BRANCH  12  14
HETATM   14  N   UNL     1      -9.353   9.050  68.419  1.00  0.00    -0.139 N  
HETATM   15  C   UNL     1      -9.366  10.145  67.577  1.00  0.00    -0.151 C  
HETATM   16  H   UNL     1      -8.468   8.594  68.642  1.00  0.00     0.000 HD 
HETATM   17  O   UNL     1     -10.406  10.757  67.363  1.00  0.00    -0.191 OA 
BRANCH  15  18
HETATM   18  C   UNL     1      -8.098  10.476  66.956  1.00  0.00    -0.118 A  
HETATM   19  C   UNL     1      -7.377   9.687  66.074  1.00  0.00    -0.099 A  
HETATM   20  C   UNL     1      -7.529   8.351  65.461  1.00  0.00    -0.085 C  
HETATM   21  O   UNL     1      -6.229  10.322  65.741  1.00  0.00    -0.090 OA 
HETATM   22  N   UNL     1      -6.152  11.519  66.396  1.00  0.00    -0.091 NA 
HETATM   23  C   UNL     1      -7.265  11.636  67.143  1.00  0.00    -0.145 A  
BRANCH  23  24
HETATM   24  C   UNL     1      -7.453  12.852  67.951  1.00  0.00    -0.131 A  
HETATM   25  C   UNL     1      -6.485  13.310  68.852  1.00  0.00    -0.100 A  
HETATM   26  C   UNL     1      -6.714  14.450  69.634  1.00  0.00    -0.137 A  
HETATM   27  C   UNL     1      -7.923  15.136  69.540  1.00  0.00    -0.175 A  
HETATM   28  C   UNL     1      -8.902  14.690  68.659  1.00  0.00    -0.183 A  
HETATM   29  C   UNL     1      -8.668  13.560  67.869  1.00  0.00    -0.183 A  
ENDBRANCH  23  24
ENDBRANCH  15  18
ENDBRANCH  12  14
TORSDOF 3
ENDMDL
MODEL      151
REMARK 921   NORMALIZED FREE ENERGY PREDICTED BY IDOCK:   -3.88 KCAL/MOL
REMARK 922        TOTAL FREE ENERGY PREDICTED BY IDOCK:   -5.46 KCAL/MOL
REMARK 923 INTER-LIGAND FREE ENERGY PREDICTED BY IDOCK:   -4.56 KCAL/MOL
REMARK 924 INTRA-LIGAND FREE ENERGY PREDICTED BY IDOCK:   -0.90 KCAL/MOL
REMARK 927      BINDING AFFINITY PREDICTED BY RF-SCORE:    0.00 PKD
ROOT
HETATM    1  C   UNL     1     -10.859   8.590  69.466  1.00  0.00    -0.125 C  
HETATM    2  S   UNL     1      -9.299   9.280  70.155  1.00  0.00    -0.245 SA 
HETATM    3  C   UNL     1      -8.561   9.677  68.505  1.00  0.00    -0.119 C  
HETATM    4  CA  UNL     1      -9.767   9.769  67.536  1.00  0.00    -0.157 C  
HETATM    5  C   UNL     1      -7.690  10.934  68.619  1.00  0.00    -0.122 C  
HETATM    6  C   UNL     1      -7.611   8.519  68.134  1.00  0.00    -0.098 C  
HETATM    7  N   UNL     1     -10.776   8.795  68.004  1.00  0.00    -0.148 N  
HETATM    8  C   UNL     1     -10.444  11.150  67.446  1.00  0.00    -0.220 C  
HETATM    9  OXT UNL     1      -9.865  12.196  67.197  1.00  0.00    -0.195 OA 
HETATM   10  O   UNL     1     -11.795  11.106  67.581  1.00  0.00    -0.612 OA 
HETATM   11  C   UNL     1     -10.618   7.459  67.733  1.00  0.00    -0.210 C  
HETATM   12  CA  UNL     1     -10.903   7.062  69.200  1.00  0.00    -0.195 C  
HETATM   13  O   UNL     1     -10.207   6.910  66.735  1.00  0.00    -0.219 OA 
ENDROOT
BRANCH  12  14
HETATM   14  N   UNL     1      -9.866   6.239  69.882  1.00  0.00    -0.165 N  
HETATM   15  C   UNL     1     -10.091   5.734  71.147  1.00  0.00    -0.203 C  
HETATM   16  H   UNL     1      -8.982   6.046  69.410  1.00  0.00     0.000 HD 
HETATM   17  O   UNL     1     -11.177   5.883  71.696  1.00  0.00    -0.272 OA 
BRANCH  15  18
HETATM   18  C   UNL     1      -8.963   5.069  71.769  1.00  0.00    -0.149 A  
HETATM   19  C   UNL     1      -8.395   5.374  72.996  1.00  0.00    -0.112 A  
HETATM   20  C   UNL     1      -8.626   6.366  74.067  1.00  0.00    -0.130 C  
HETATM   21  O   UNL     1      -7.339   4.556  73.217  1.00  0.00    -0.077 OA 
HETATM   22  N   UNL     1      -7.172   3.715  72.153  1.00  0.00    -0.049 NA 
HETATM   23  C   UNL     1      -8.135   4.006  71.260  1.00  0.00    -0.072 A  
BRANCH  23  24
HETATM   24  C   UNL     1      -8.201   3.232  70.010  1.00  0.00    -0.066 A  
HETATM   25  C   UNL     1      -7.210   3.314  69.024  1.00  0.00    -0.049 A  
HETATM   26  C   UNL     1      -7.325   2.594  67.829  1.00  0.00    -0.053 A  
HETATM   27  C   UNL     1      -8.442   1.796  67.593  1.00  0.00    -0.093 A  
HETATM   28  C   UNL     1      -9.443   1.710  68.555  1.00  0.00    -0.234 A  
HETATM   29  C   UNL     1      -9.321   2.419  69.754  1.00  0.00    -0.168 A  
ENDBRANCH  23  24
ENDBRANCH  15  18
ENDBRANCH  12  14
TORSDOF 3
ENDMDL
MODEL      152
REMARK 921   NORMALIZED FREE ENERGY PREDICTED BY IDOCK:   -3.85 KCAL/MOL
REMARK 922        TOTAL FREE ENERGY PREDICTED BY IDOCK:   -5.43 KCAL/MOL
REMARK 923 INTER-LIGAND FREE ENERGY PREDICTED BY IDOCK:   -4.50 KCAL/MOL
REMARK 924 INTRA-LIGAND FREE ENERGY PREDICTED BY IDOCK:   -0.92 KCAL/MOL
REMARK 927      BINDING AFFINITY PREDICTED BY RF-SCORE:    0.00 PKD
ROOT
HETATM    1  C   UNL     1      -8.857   6.360  65.841  1.00  0.00    -0.131 C  
HETATM    2  S   UNL     1      -7.366   5.455  66.427  1.00  0.00    -0.083 SA 
HETATM    3  C   UNL     1      -8.313   4.022  67.117  1.00  0.00    -0.099 C  
HETATM    4  CA  UNL     1      -9.675   4.046  66.377  1.00  0.00    -0.188 C  
HETATM    5  C   UNL     1      -7.487   2.739  66.967  1.00  0.00    -0.069 C  
HETATM    6  C   UNL     1      -8.476   4.264  68.632  1.00  0.00    -0.096 C  
HETATM    7  N   UNL     1     -10.002   5.463  66.114  1.00  0.00    -0.155 N  
HETATM    8  C   UNL     1      -9.717   3.290  65.035  1.00  0.00    -0.084 C  
HETATM    9  OXT UNL     1      -9.389   2.124  64.881  1.00  0.00    -0.138 OA 
HETATM   10  O   UNL     1     -10.249   4.014  64.017  1.00  0.00    -0.191 OA 
HETATM   11  C   UNL     1     -10.498   6.253  67.121  1.00  0.00    -0.263 C  
HETATM   12  CA  UNL     1      -9.493   7.387  66.814  1.00  0.00    -0.176 C  
HETATM   13  O   UNL     1     -11.288   5.989  67.999  1.00  0.00    -0.134 OA 
ENDROOT
BRANCH  12  14
HETATM   14  N   UNL     1      -8.639   7.847  67.944  1.00  0.00    -0.125 N  
HETATM   15  C   UNL     1      -9.136   8.724  68.888  1.00  0.00    -0.141 C  
HETATM   16  H   UNL     1      -7.679   7.511  68.022  1.00  0.00     0.000 HD 
HETATM   17  O   UNL     1     -10.311   9.073  68.859  1.00  0.00    -0.207 OA 
BRANCH  15  18
HETATM   18  C   UNL     1      -8.177   9.213  69.860  1.00  0.00    -0.137 A  
HETATM   19  C   UNL     1      -7.217  10.191  69.656  1.00  0.00    -0.127 A  
HETATM   20  C   UNL     1      -6.782  11.048  68.533  1.00  0.00    -0.061 C  
HETATM   21  O   UNL     1      -6.489  10.347  70.786  1.00  0.00    -0.302 OA 
HETATM   22  N   UNL     1      -6.928   9.478  71.746  1.00  0.00    -0.237 NA 
HETATM   23  C   UNL     1      -7.943   8.775  71.212  1.00  0.00    -0.139 A  
BRANCH  23  24
HETATM   24  C   UNL     1      -8.620   7.765  72.041  1.00  0.00    -0.149 A  
HETATM   25  C   UNL     1      -8.733   7.890  73.431  1.00  0.00    -0.309 A  
HETATM   26  C   UNL     1      -9.350   6.891  74.193  1.00  0.00    -0.267 A  
HETATM   27  C   UNL     1      -9.845   5.742  73.580  1.00  0.00    -0.172 A  
HETATM   28  C   UNL     1      -9.732   5.594  72.202  1.00  0.00    -0.178 A  
HETATM   29  C   UNL     1      -9.128   6.598  71.439  1.00  0.00    -0.143 A  
ENDBRANCH  23  24
ENDBRANCH  15  18
ENDBRANCH  12  14
TORSDOF 3
ENDMDL
MODEL      153
REMARK 921   NORMALIZED FREE ENERGY PREDICTED BY IDOCK:   -3.84 KCAL/MOL
REMARK 922        TOTAL FREE ENERGY PREDICTED BY IDOCK:   -5.42 KCAL/MOL
REMARK 923 INTER-LIGAND FREE ENERGY PREDICTED BY IDOCK:   -4.73 KCAL/MOL
REMARK 924 INTRA-LIGAND FREE ENERGY PREDICTED BY IDOCK:   -0.69 KCAL/MOL
REMARK 927      BINDING AFFINITY PREDICTED BY RF-SCORE:    0.00 PKD
ROOT
HETATM    1  C   UNL     1     -10.951   7.102  70.113  1.00  0.00    -0.267 C  
HETATM    2  S   UNL     1     -10.384   5.387  70.458  1.00  0.00    -0.268 SA 
HETATM    3  C   UNL     1      -9.108   5.889  71.701  1.00  0.00    -0.143 C  
HETATM    4  CA  UNL     1      -9.556   7.289  72.194  1.00  0.00    -0.138 C  
HETATM    5  C   UNL     1      -8.982   4.804  72.776  1.00  0.00    -0.127 C  
HETATM    6  C   UNL     1      -7.750   5.943  70.971  1.00  0.00    -0.101 C  
HETATM    7  N   UNL     1     -10.200   7.967  71.049  1.00  0.00    -0.190 N  
HETATM    8  C   UNL     1     -10.550   7.292  73.371  1.00  0.00    -0.389 C  
HETATM    9  OXT UNL     1     -10.375   6.717  74.433  1.00  0.00    -0.357 OA 
HETATM   10  O   UNL     1     -11.634   8.086  73.168  1.00  0.00    -0.289 OA 
HETATM   11  C   UNL     1      -9.430   8.526  70.060  1.00  0.00    -0.164 C  
HETATM   12  CA  UNL     1     -10.265   7.856  68.944  1.00  0.00    -0.205 C  
HETATM   13  O   UNL     1      -8.386   9.134  70.136  1.00  0.00    -0.129 OA 
ENDROOT
BRANCH  12  14
HETATM   14  N   UNL     1      -9.519   7.021  67.963  1.00  0.00    -0.126 N  
HETATM   15  C   UNL     1      -9.503   7.356  66.623  1.00  0.00    -0.187 C  
HETATM   16  H   UNL     1      -9.014   6.194  68.283  1.00  0.00     0.000 HD 
HETATM   17  O   UNL     1     -10.032   8.390  66.231  1.00  0.00    -0.245 OA 
BRANCH  15  18
HETATM   18  C   UNL     1      -8.866   6.397  65.742  1.00  0.00    -0.111 A  
HETATM   19  C   UNL     1      -8.994   5.018  65.788  1.00  0.00    -0.145 A  
HETATM   20  C   UNL     1      -9.712   4.035  66.626  1.00  0.00    -0.215 C  
HETATM   21  O   UNL     1      -8.219   4.464  64.826  1.00  0.00    -0.100 OA 
HETATM   22  N   UNL     1      -7.555   5.443  64.142  1.00  0.00    -0.071 NA 
HETATM   23  C   UNL     1      -7.921   6.621  64.678  1.00  0.00    -0.113 A  
BRANCH  23  24
HETATM   24  C   UNL     1      -7.362   7.861  64.116  1.00  0.00    -0.097 A  
HETATM   25  C   UNL     1      -8.080   8.674  63.231  1.00  0.00    -0.169 A  
HETATM   26  C   UNL     1      -7.502   9.826  62.684  1.00  0.00    -0.118 A  
HETATM   27  C   UNL     1      -6.190  10.172  62.998  1.00  0.00    -0.138 A  
HETATM   28  C   UNL     1      -5.455   9.372  63.866  1.00  0.00    -0.063 A  
HETATM   29  C   UNL     1      -6.038   8.228  64.422  1.00  0.00    -0.065 A  
ENDBRANCH  23  24
ENDBRANCH  15  18
ENDBRANCH  12  14
TORSDOF 3
ENDMDL
MODEL      154
REMARK 921   NORMALIZED FREE ENERGY PREDICTED BY IDOCK:   -3.83 KCAL/MOL
REMARK 922        TOTAL FREE ENERGY PREDICTED BY IDOCK:   -5.40 KCAL/MOL
REMARK 923 INTER-LIGAND FREE ENERGY PREDICTED BY IDOCK:   -4.33 KCAL/MOL
REMARK 924 INTRA-LIGAND FREE ENERGY PREDICTED BY IDOCK:   -1.07 KCAL/MOL
REMARK 927      BINDING AFFINITY PREDICTED BY RF-SCORE:    0.00 PKD
ROOT
HETATM    1  C   UNL     1     -10.763   8.467  69.567  1.00  0.00    -0.174 C  
HETATM    2  S   UNL     1      -9.220   9.198  70.253  1.00  0.00    -0.237 SA 
HETATM    3  C   UNL     1      -8.684   9.963  68.655  1.00  0.00    -0.124 C  
HETATM    4  CA  UNL     1      -9.981  10.087  67.814  1.00  0.00    -0.170 C  
HETATM    5  C   UNL     1      -7.935  11.271  68.936  1.00  0.00    -0.104 C  
HETATM    6  C   UNL     1      -7.665   9.005  68.005  1.00  0.00    -0.097 C  
HETATM    7  N   UNL     1     -10.840   8.937  68.166  1.00  0.00    -0.077 N  
HETATM    8  C   UNL     1     -10.795  11.376  68.034  1.00  0.00    -0.217 C  
HETATM    9  OXT UNL     1     -10.349  12.508  67.941  1.00  0.00    -0.206 OA 
HETATM   10  O   UNL     1     -12.117  11.154  68.259  1.00  0.00    -0.620 OA 
HETATM   11  C   UNL     1     -10.577   7.697  67.640  1.00  0.00    -0.224 C  
HETATM   12  CA  UNL     1     -10.682   7.016  69.025  1.00  0.00    -0.210 C  
HETATM   13  O   UNL     1     -10.211   7.384  66.530  1.00  0.00    -0.194 OA 
ENDROOT
BRANCH  12  14
HETATM   14  N   UNL     1      -9.509   6.209  69.462  1.00  0.00    -0.139 N  
HETATM   15  C   UNL     1      -9.664   5.184  70.374  1.00  0.00    -0.202 C  
HETATM   16  H   UNL     1      -8.584   6.416  69.085  1.00  0.00     0.000 HD 
HETATM   17  O   UNL     1     -10.777   4.866  70.775  1.00  0.00    -0.086 OA 
BRANCH  15  18
HETATM   18  C   UNL     1      -8.437   4.560  70.833  1.00  0.00    -0.103 A  
HETATM   19  C   UNL     1      -7.883   3.379  70.365  1.00  0.00    -0.043 A  
HETATM   20  C   UNL     1      -8.230   2.360  69.352  1.00  0.00    -0.065 C  
HETATM   21  O   UNL     1      -6.757   3.105  71.063  1.00  0.00    -0.030 OA 
HETATM   22  N   UNL     1      -6.549   4.070  72.008  1.00  0.00    -0.021 NA 
HETATM   23  C   UNL     1      -7.552   4.959  71.896  1.00  0.00    -0.097 A  
BRANCH  23  24
HETATM   24  C   UNL     1      -7.570   6.126  72.794  1.00  0.00    -0.101 A  
HETATM   25  C   UNL     1      -8.612   6.360  73.698  1.00  0.00    -0.129 A  
HETATM   26  C   UNL     1      -8.616   7.501  74.509  1.00  0.00    -0.204 A  
HETATM   27  C   UNL     1      -7.588   8.437  74.413  1.00  0.00    -0.260 A  
HETATM   28  C   UNL     1      -6.549   8.228  73.513  1.00  0.00    -0.139 A  
HETATM   29  C   UNL     1      -6.539   7.082  72.712  1.00  0.00    -0.061 A  
ENDBRANCH  23  24
ENDBRANCH  15  18
ENDBRANCH  12  14
TORSDOF 3
ENDMDL
MODEL      155
REMARK 921   NORMALIZED FREE ENERGY PREDICTED BY IDOCK:   -3.78 KCAL/MOL
REMARK 922        TOTAL FREE ENERGY PREDICTED BY IDOCK:   -5.35 KCAL/MOL
REMARK 923 INTER-LIGAND FREE ENERGY PREDICTED BY IDOCK:   -3.89 KCAL/MOL
REMARK 924 INTRA-LIGAND FREE ENERGY PREDICTED BY IDOCK:   -1.46 KCAL/MOL
REMARK 927      BINDING AFFINITY PREDICTED BY RF-SCORE:    0.00 PKD
ROOT
HETATM    1  C   UNL     1     -10.735   6.770  69.661  1.00  0.00    -0.251 C  
HETATM    2  S   UNL     1     -10.563   5.741  71.177  1.00  0.00    -0.250 SA 
HETATM    3  C   UNL     1     -10.069   7.152  72.269  1.00  0.00    -0.181 C  
HETATM    4  CA  UNL     1     -10.594   8.421  71.549  1.00  0.00    -0.241 C  
HETATM    5  C   UNL     1     -10.599   6.914  73.688  1.00  0.00    -0.371 C  
HETATM    6  C   UNL     1      -8.530   7.140  72.368  1.00  0.00    -0.124 C  
HETATM    7  N   UNL     1     -10.504   8.165  70.096  1.00  0.00    -0.221 N  
HETATM    8  C   UNL     1     -12.047   8.817  71.874  1.00  0.00    -0.363 C  
HETATM    9  OXT UNL     1     -12.487   8.989  73.000  1.00  0.00    -0.097 OA 
HETATM   10  O   UNL     1     -12.807   9.058  70.774  1.00  0.00    -0.027 OA 
HETATM   11  C   UNL     1      -9.295   8.261  69.455  1.00  0.00    -0.155 C  
HETATM   12  CA  UNL     1      -9.489   6.900  68.746  1.00  0.00    -0.135 C  
HETATM   13  O   UNL     1      -8.393   9.053  69.610  1.00  0.00    -0.114 OA 
ENDROOT
BRANCH  12  14
HETATM   14  N   UNL     1      -8.415   5.888  68.939  1.00  0.00    -0.105 N  
HETATM   15  C   UNL     1      -8.551   4.614  68.424  1.00  0.00    -0.097 C  
HETATM   16  H   UNL     1      -7.572   6.137  69.456  1.00  0.00     0.000 HD 
HETATM   17  O   UNL     1      -9.517   4.319  67.730  1.00  0.00    -0.150 OA 
BRANCH  15  18
HETATM   18  C   UNL     1      -7.511   3.672  68.793  1.00  0.00    -0.053 A  
HETATM   19  C   UNL     1      -6.409   3.315  68.031  1.00  0.00    -0.036 A  
HETATM   20  C   UNL     1      -5.870   3.660  66.699  1.00  0.00    -0.023 C  
HETATM   21  O   UNL     1      -5.687   2.385  68.698  1.00  0.00    -0.021 OA 
HETATM   22  N   UNL     1      -6.290   2.092  69.888  1.00  0.00    -0.024 NA 
HETATM   23  C   UNL     1      -7.398   2.850  69.970  1.00  0.00    -0.044 A  
BRANCH  23  24
HETATM   24  C   UNL     1      -8.242   2.747  71.172  1.00  0.00    -0.073 A  
HETATM   25  C   UNL     1      -9.482   2.098  71.164  1.00  0.00    -0.212 A  
HETATM   26  C   UNL     1     -10.276   2.053  72.316  1.00  0.00    -0.226 A  
HETATM   27  C   UNL     1      -9.852   2.675  73.488  1.00  0.00    -0.154 A  
HETATM   28  C   UNL     1      -8.628   3.335  73.514  1.00  0.00    -0.074 A  
HETATM   29  C   UNL     1      -7.829   3.368  72.366  1.00  0.00    -0.063 A  
ENDBRANCH  23  24
ENDBRANCH  15  18
ENDBRANCH  12  14
TORSDOF 3
ENDMDL
MODEL      156
REMARK 921   NORMALIZED FREE ENERGY PREDICTED BY IDOCK:   -3.77 KCAL/MOL
REMARK 922        TOTAL FREE ENERGY PREDICTED BY IDOCK:   -5.34 KCAL/MOL
REMARK 923 INTER-LIGAND FREE ENERGY PREDICTED BY IDOCK:   -4.60 KCAL/MOL
REMARK 924 INTRA-LIGAND FREE ENERGY PREDICTED BY IDOCK:   -0.74 KCAL/MOL
REMARK 927      BINDING AFFINITY PREDICTED BY RF-SCORE:    0.00 PKD
ROOT
HETATM    1  C   UNL     1      -9.826   9.242  68.389  1.00  0.00    -0.155 C  
HETATM    2  S   UNL     1      -8.065   9.516  67.932  1.00  0.00    -0.106 SA 
HETATM    3  C   UNL     1      -8.322   9.213  66.125  1.00  0.00    -0.119 C  
HETATM    4  CA  UNL     1      -9.834   9.460  65.887  1.00  0.00    -0.291 C  
HETATM    5  C   UNL     1      -7.361  10.089  65.314  1.00  0.00    -0.137 C  
HETATM    6  C   UNL     1      -7.926   7.750  65.842  1.00  0.00    -0.107 C  
HETATM    7  N   UNL     1     -10.543   9.033  67.112  1.00  0.00    -0.261 N  
HETATM    8  C   UNL     1     -10.231  10.918  65.591  1.00  0.00    -0.263 C  
HETATM    9  OXT UNL     1      -9.742  11.610  64.711  1.00  0.00    -0.238 OA 
HETATM   10  O   UNL     1     -11.267  11.367  66.347  1.00  0.00    -0.283 OA 
HETATM   11  C   UNL     1     -10.764   7.699  67.349  1.00  0.00    -0.248 C  
HETATM   12  CA  UNL     1     -10.238   7.803  68.799  1.00  0.00    -0.201 C  
HETATM   13  O   UNL     1     -11.066   6.813  66.582  1.00  0.00    -0.243 OA 
ENDROOT
BRANCH  12  14
HETATM   14  N   UNL     1      -9.134   6.879  69.177  1.00  0.00    -0.136 N  
HETATM   15  C   UNL     1      -9.389   5.544  69.423  1.00  0.00    -0.118 C  
HETATM   16  H   UNL     1      -8.181   7.234  69.254  1.00  0.00     0.000 HD 
HETATM   17  O   UNL     1     -10.510   5.080  69.254  1.00  0.00    -0.190 OA 
BRANCH  15  18
HETATM   18  C   UNL     1      -8.267   4.770  69.919  1.00  0.00    -0.068 A  
HETATM   19  C   UNL     1      -7.011   4.669  69.341  1.00  0.00    -0.050 A  
HETATM   20  C   UNL     1      -6.338   5.203  68.139  1.00  0.00    -0.036 C  
HETATM   21  O   UNL     1      -6.246   3.828  70.077  1.00  0.00    -0.025 OA 
HETATM   22  N   UNL     1      -6.969   3.344  71.131  1.00  0.00    -0.032 NA 
HETATM   23  C   UNL     1      -8.195   3.892  71.058  1.00  0.00    -0.067 A  
BRANCH  23  24
HETATM   24  C   UNL     1      -9.187   3.552  72.091  1.00  0.00    -0.165 A  
HETATM   25  C   UNL     1      -9.926   2.364  72.060  1.00  0.00    -0.231 A  
HETATM   26  C   UNL     1     -10.889   2.091  73.039  1.00  0.00    -0.243 A  
HETATM   27  C   UNL     1     -11.144   3.013  74.052  1.00  0.00    -0.157 A  
HETATM   28  C   UNL     1     -10.429   4.205  74.094  1.00  0.00    -0.292 A  
HETATM   29  C   UNL     1      -9.457   4.471  73.124  1.00  0.00    -0.138 A  
ENDBRANCH  23  24
ENDBRANCH  15  18
ENDBRANCH  12  14
TORSDOF 3
ENDMDL
MODEL      157
REMARK 921   NORMALIZED FREE ENERGY PREDICTED BY IDOCK:   -3.73 KCAL/MOL
REMARK 922        TOTAL FREE ENERGY PREDICTED BY IDOCK:   -5.29 KCAL/MOL
REMARK 923 INTER-LIGAND FREE ENERGY PREDICTED BY IDOCK:   -4.40 KCAL/MOL
REMARK 924 INTRA-LIGAND FREE ENERGY PREDICTED BY IDOCK:   -0.89 KCAL/MOL
REMARK 927      BINDING AFFINITY PREDICTED BY RF-SCORE:    0.00 PKD
ROOT
HETATM    1  C   UNL     1      -7.057   8.785  68.236  1.00  0.00    -0.078 C  
HETATM    2  S   UNL     1      -8.832   8.604  67.785  1.00  0.00    -0.136 SA 
HETATM    3  C   UNL     1      -9.342  10.235  68.496  1.00  0.00    -0.155 C  
HETATM    4  CA  UNL     1      -8.040  11.075  68.550  1.00  0.00    -0.140 C  
HETATM    5  C   UNL     1     -10.489  10.823  67.666  1.00  0.00    -0.252 C  
HETATM    6  C   UNL     1      -9.913   9.965  69.903  1.00  0.00    -0.292 C  
HETATM    7  N   UNL     1      -6.929  10.138  68.820  1.00  0.00    -0.064 N  
HETATM    8  C   UNL     1      -7.701  11.860  67.269  1.00  0.00    -0.164 C  
HETATM    9  OXT UNL     1      -8.456  12.638  66.707  1.00  0.00    -0.154 OA 
HETATM   10  O   UNL     1      -6.422  11.687  66.844  1.00  0.00    -0.133 OA 
HETATM   11  C   UNL     1      -6.719   9.669  70.092  1.00  0.00    -0.089 C  
HETATM   12  CA  UNL     1      -6.610   8.206  69.604  1.00  0.00    -0.037 C  
HETATM   13  O   UNL     1      -6.808  10.239  71.156  1.00  0.00    -0.272 OA 
ENDROOT
BRANCH  12  14
HETATM   14  N   UNL     1      -7.528   7.220  70.239  1.00  0.00    -0.082 N  
HETATM   15  C   UNL     1      -7.064   5.980  70.631  1.00  0.00    -0.075 C  
HETATM   16  H   UNL     1      -8.507   7.463  70.387  1.00  0.00     0.000 HD 
HETATM   17  O   UNL     1      -5.874   5.700  70.539  1.00  0.00    -0.022 OA 
BRANCH  15  18
HETATM   18  C   UNL     1      -8.072   5.052  71.107  1.00  0.00    -0.109 A  
HETATM   19  C   UNL     1      -8.149   4.489  72.371  1.00  0.00    -0.098 A  
HETATM   20  C   UNL     1      -7.361   4.549  73.620  1.00  0.00    -0.081 C  
HETATM   21  O   UNL     1      -9.208   3.648  72.423  1.00  0.00    -0.109 OA 
HETATM   22  N   UNL     1      -9.839   3.618  71.211  1.00  0.00    -0.170 NA 
HETATM   23  C   UNL     1      -9.170   4.452  70.394  1.00  0.00    -0.115 A  
BRANCH  23  24
HETATM   24  C   UNL     1      -9.648   4.627  69.013  1.00  0.00    -0.242 A  
HETATM   25  C   UNL     1      -9.173   3.849  67.951  1.00  0.00    -0.209 A  
HETATM   26  C   UNL     1      -9.621   4.069  66.643  1.00  0.00    -0.228 A  
HETATM   27  C   UNL     1     -10.536   5.084  66.374  1.00  0.00    -0.349 A  
HETATM   28  C   UNL     1     -11.012   5.875  67.413  1.00  0.00    -0.258 A  
HETATM   29  C   UNL     1     -10.574   5.647  68.721  1.00  0.00    -0.286 A  
ENDBRANCH  23  24
ENDBRANCH  15  18
ENDBRANCH  12  14
TORSDOF 3
ENDMDL
MODEL      158
REMARK 921   NORMALIZED FREE ENERGY PREDICTED BY IDOCK:   -3.70 KCAL/MOL
REMARK 922        TOTAL FREE ENERGY PREDICTED BY IDOCK:   -5.25 KCAL/MOL
REMARK 923 INTER-LIGAND FREE ENERGY PREDICTED BY IDOCK:   -4.11 KCAL/MOL
REMARK 924 INTRA-LIGAND FREE ENERGY PREDICTED BY IDOCK:   -1.14 KCAL/MOL
REMARK 927      BINDING AFFINITY PREDICTED BY RF-SCORE:    0.00 PKD
ROOT
HETATM    1  C   UNL     1      -8.036  11.493  66.669  1.00  0.00    -0.139 C  
HETATM    2  S   UNL     1      -9.727  10.815  66.410  1.00  0.00    -0.206 SA 
HETATM    3  C   UNL     1     -10.363  11.343  68.065  1.00  0.00    -0.184 C  
HETATM    4  CA  UNL     1      -9.422  12.491  68.511  1.00  0.00    -0.097 C  
HETATM    5  C   UNL     1     -11.851  11.697  67.956  1.00  0.00    -0.295 C  
HETATM    6  C   UNL     1     -10.271  10.124  69.005  1.00  0.00    -0.221 C  
HETATM    7  N   UNL     1      -8.078  12.183  67.976  1.00  0.00    -0.145 N  
HETATM    8  C   UNL     1      -9.815  13.900  68.028  1.00  0.00    -0.234 C  
HETATM    9  OXT UNL     1     -10.908  14.416  68.201  1.00  0.00    -0.236 OA 
HETATM   10  O   UNL     1      -8.792  14.587  67.455  1.00  0.00    -0.171 OA 
HETATM   11  C   UNL     1      -7.288  11.249  68.599  1.00  0.00    -0.109 C  
HETATM   12  CA  UNL     1      -6.970  10.535  67.264  1.00  0.00    -0.087 C  
HETATM   13  O   UNL     1      -7.128  11.026  69.777  1.00  0.00    -0.129 OA 
ENDROOT
BRANCH  12  14
HETATM   14  N   UNL     1      -7.275   9.079  67.197  1.00  0.00    -0.082 N  
HETATM   15  C   UNL     1      -6.483   8.165  67.863  1.00  0.00    -0.053 C  
HETATM   16  H   UNL     1      -8.075   8.754  66.654  1.00  0.00     0.000 HD 
HETATM   17  O   UNL     1      -5.568   8.540  68.588  1.00  0.00    -0.036 OA 
BRANCH  15  18
HETATM   18  C   UNL     1      -6.787   6.769  67.613  1.00  0.00    -0.080 A  
HETATM   19  C   UNL     1      -6.185   5.945  66.675  1.00  0.00    -0.033 A  
HETATM   20  C   UNL     1      -5.130   6.082  65.649  1.00  0.00    -0.013 C  
HETATM   21  O   UNL     1      -6.762   4.722  66.717  1.00  0.00    -0.049 OA 
HETATM   22  N   UNL     1      -7.757   4.709  67.654  1.00  0.00    -0.085 NA 
HETATM   23  C   UNL     1      -7.799   5.934  68.207  1.00  0.00    -0.105 A  
BRANCH  23  24
HETATM   24  C   UNL     1      -8.781   6.199  69.271  1.00  0.00    -0.122 A  
HETATM   25  C   UNL     1     -10.154   5.986  69.094  1.00  0.00    -0.229 A  
HETATM   26  C   UNL     1     -11.064   6.286  70.115  1.00  0.00    -0.443 A  
HETATM   27  C   UNL     1     -10.618   6.824  71.320  1.00  0.00    -0.246 A  
HETATM   28  C   UNL     1      -9.260   7.054  71.511  1.00  0.00    -0.153 A  
HETATM   29  C   UNL     1      -8.350   6.742  70.496  1.00  0.00    -0.129 A  
ENDBRANCH  23  24
ENDBRANCH  15  18
ENDBRANCH  12  14
TORSDOF 3
ENDMDL
MODEL      159
REMARK 921   NORMALIZED FREE ENERGY PREDICTED BY IDOCK:   -3.63 KCAL/MOL
REMARK 922        TOTAL FREE ENERGY PREDICTED BY IDOCK:   -5.17 KCAL/MOL
REMARK 923 INTER-LIGAND FREE ENERGY PREDICTED BY IDOCK:   -4.26 KCAL/MOL
REMARK 924 INTRA-LIGAND FREE ENERGY PREDICTED BY IDOCK:   -0.92 KCAL/MOL
REMARK 927      BINDING AFFINITY PREDICTED BY RF-SCORE:    0.00 PKD
ROOT
HETATM    1  C   UNL     1      -9.571   8.618  68.846  1.00  0.00    -0.159 C  
HETATM    2  S   UNL     1      -7.744   8.432  68.725  1.00  0.00    -0.104 SA 
HETATM    3  C   UNL     1      -7.799   7.297  67.264  1.00  0.00    -0.111 C  
HETATM    4  CA  UNL     1      -9.177   7.556  66.604  1.00  0.00    -0.162 C  
HETATM    5  C   UNL     1      -6.572   7.539  66.378  1.00  0.00    -0.053 C  
HETATM    6  C   UNL     1      -7.676   5.855  67.797  1.00  0.00    -0.097 C  
HETATM    7  N   UNL     1     -10.126   7.879  67.692  1.00  0.00    -0.187 N  
HETATM    8  C   UNL     1      -9.219   8.704  65.579  1.00  0.00    -0.091 C  
HETATM    9  OXT UNL     1      -8.478   8.805  64.614  1.00  0.00    -0.169 OA 
HETATM   10  O   UNL     1     -10.237   9.581  65.782  1.00  0.00    -0.255 OA 
HETATM   11  C   UNL     1     -10.648   6.875  68.468  1.00  0.00    -0.212 C  
HETATM   12  CA  UNL     1     -10.324   7.632  69.777  1.00  0.00    -0.223 C  
HETATM   13  O   UNL     1     -11.014   5.763  68.161  1.00  0.00    -0.230 OA 
ENDROOT
BRANCH  12  14
HETATM   14  N   UNL     1      -9.500   6.906  70.782  1.00  0.00    -0.165 N  
HETATM   15  C   UNL     1      -9.871   6.884  72.112  1.00  0.00    -0.147 C  
HETATM   16  H   UNL     1      -8.653   6.420  70.485  1.00  0.00     0.000 HD 
HETATM   17  O   UNL     1     -10.927   7.389  72.475  1.00  0.00    -0.254 OA 
BRANCH  15  18
HETATM   18  C   UNL     1      -8.922   6.269  73.020  1.00  0.00    -0.130 A  
HETATM   19  C   UNL     1      -7.865   6.894  73.662  1.00  0.00    -0.096 A  
HETATM   20  C   UNL     1      -7.294   8.257  73.707  1.00  0.00    -0.185 C  
HETATM   21  O   UNL     1      -7.186   5.984  74.398  1.00  0.00    -0.087 OA 
HETATM   22  N   UNL     1      -7.754   4.749  74.251  1.00  0.00    -0.092 NA 
HETATM   23  C   UNL     1      -8.801   4.890  73.418  1.00  0.00    -0.106 A  
BRANCH  23  24
HETATM   24  C   UNL     1      -9.612   3.706  73.093  1.00  0.00    -0.150 A  
HETATM   25  C   UNL     1      -9.453   2.993  71.899  1.00  0.00    -0.207 A  
HETATM   26  C   UNL     1     -10.269   1.894  71.604  1.00  0.00    -0.045 A  
HETATM   27  C   UNL     1     -11.272   1.505  72.489  1.00  0.00     0.036 A  
HETATM   28  C   UNL     1     -11.454   2.207  73.675  1.00  0.00    -0.307 A  
HETATM   29  C   UNL     1     -10.630   3.296  73.975  1.00  0.00    -0.271 A  
ENDBRANCH  23  24
ENDBRANCH  15  18
ENDBRANCH  12  14
TORSDOF 3
ENDMDL
MODEL      160
REMARK 921   NORMALIZED FREE ENERGY PREDICTED BY IDOCK:   -3.59 KCAL/MOL
REMARK 922        TOTAL FREE ENERGY PREDICTED BY IDOCK:   -5.12 KCAL/MOL
REMARK 923 INTER-LIGAND FREE ENERGY PREDICTED BY IDOCK:   -4.40 KCAL/MOL
REMARK 924 INTRA-LIGAND FREE ENERGY PREDICTED BY IDOCK:   -0.72 KCAL/MOL
REMARK 927      BINDING AFFINITY PREDICTED BY RF-SCORE:    0.00 PKD
ROOT
HETATM    1  C   UNL     1      -7.098   5.543  65.132  1.00  0.00    -0.065 C  
HETATM    2  S   UNL     1      -6.018   5.875  66.585  1.00  0.00    -0.022 SA 
HETATM    3  C   UNL     1      -6.875   4.669  67.697  1.00  0.00    -0.059 C  
HETATM    4  CA  UNL     1      -7.589   3.678  66.742  1.00  0.00    -0.080 C  
HETATM    5  C   UNL     1      -5.861   4.056  68.669  1.00  0.00    -0.022 C  
HETATM    6  C   UNL     1      -7.878   5.466  68.555  1.00  0.00    -0.088 C  
HETATM    7  N   UNL     1      -7.999   4.445  65.546  1.00  0.00    -0.094 N  
HETATM    8  C   UNL     1      -6.742   2.480  66.272  1.00  0.00    -0.043 C  
HETATM    9  OXT UNL     1      -6.156   1.707  67.013  1.00  0.00    -0.019 OA 
HETATM   10  O   UNL     1      -6.770   2.286  64.928  1.00  0.00    -0.033 OA 
HETATM   11  C   UNL     1      -9.109   5.251  65.594  1.00  0.00    -0.153 C  
HETATM   12  CA  UNL     1      -8.352   6.441  64.960  1.00  0.00    -0.087 C  
HETATM   13  O   UNL     1     -10.177   5.073  66.137  1.00  0.00    -0.220 OA 
ENDROOT
BRANCH  12  14
HETATM   14  N   UNL     1      -8.362   7.720  65.722  1.00  0.00    -0.131 N  
HETATM   15  C   UNL     1      -7.870   8.879  65.154  1.00  0.00    -0.106 C  
HETATM   16  H   UNL     1      -8.736   7.741  66.671  1.00  0.00     0.000 HD 
HETATM   17  O   UNL     1      -7.495   8.893  63.988  1.00  0.00    -0.105 OA 
BRANCH  15  18
HETATM   18  C   UNL     1      -7.800  10.030  66.034  1.00  0.00    -0.119 A  
HETATM   19  C   UNL     1      -6.868  10.251  67.036  1.00  0.00    -0.084 A  
HETATM   20  C   UNL     1      -5.705   9.530  67.595  1.00  0.00    -0.040 C  
HETATM   21  O   UNL     1      -7.150  11.417  67.661  1.00  0.00    -0.083 OA 
HETATM   22  N   UNL     1      -8.268  11.980  67.113  1.00  0.00    -0.175 NA 
HETATM   23  C   UNL     1      -8.686  11.161  66.131  1.00  0.00    -0.186 A  
BRANCH  23  24
HETATM   24  C   UNL     1      -9.878  11.536  65.353  1.00  0.00    -0.271 A  
HETATM   25  C   UNL     1     -10.987  12.161  65.935  1.00  0.00    -0.332 A  
HETATM   26  C   UNL     1     -12.120  12.469  65.172  1.00  0.00    -0.503 A  
HETATM   27  C   UNL     1     -12.170  12.136  63.820  1.00  0.00    -0.630 A  
HETATM   28  C   UNL     1     -11.083  11.504  63.226  1.00  0.00    -0.273 A  
HETATM   29  C   UNL     1      -9.946  11.209  63.985  1.00  0.00    -0.376 A  
ENDBRANCH  23  24
ENDBRANCH  15  18
ENDBRANCH  12  14
TORSDOF 3
ENDMDL
MODEL      161
REMARK 921   NORMALIZED FREE ENERGY PREDICTED BY IDOCK:   -3.57 KCAL/MOL
REMARK 922        TOTAL FREE ENERGY PREDICTED BY IDOCK:   -5.10 KCAL/MOL
REMARK 923 INTER-LIGAND FREE ENERGY PREDICTED BY IDOCK:   -4.17 KCAL/MOL
REMARK 924 INTRA-LIGAND FREE ENERGY PREDICTED BY IDOCK:   -0.94 KCAL/MOL
REMARK 927      BINDING AFFINITY PREDICTED BY RF-SCORE:    0.00 PKD
ROOT
HETATM    1  C   UNL     1      -7.575   9.354  68.181  1.00  0.00    -0.083 C  
HETATM    2  S   UNL     1      -8.251   7.962  67.186  1.00  0.00    -0.118 SA 
HETATM    3  C   UNL     1      -8.973   9.046  65.870  1.00  0.00    -0.190 C  
HETATM    4  CA  UNL     1      -8.187  10.378  65.971  1.00  0.00    -0.144 C  
HETATM    5  C   UNL     1      -8.909   8.326  64.518  1.00  0.00     0.257 C  
HETATM    6  C   UNL     1     -10.469   9.233  66.197  1.00  0.00     0.042 C  
HETATM    7  N   UNL     1      -7.849  10.577  67.396  1.00  0.00    -0.106 N  
HETATM    8  C   UNL     1      -6.881  10.443  65.158  1.00  0.00    -0.085 C  
HETATM    9  OXT UNL     1      -6.791  10.210  63.963  1.00  0.00    -0.128 OA 
HETATM   10  O   UNL     1      -5.813  10.882  65.874  1.00  0.00    -0.133 OA 
HETATM   11  C   UNL     1      -8.803  11.035  68.271  1.00  0.00    -0.144 C  
HETATM   12  CA  UNL     1      -8.479   9.930  69.303  1.00  0.00    -0.158 C  
HETATM   13  O   UNL     1      -9.665  11.870  68.116  1.00  0.00    -0.183 OA 
ENDROOT
BRANCH  12  14
HETATM   14  N   UNL     1      -9.615   9.075  69.744  1.00  0.00    -0.169 N  
HETATM   15  C   UNL     1      -9.891   8.914  71.088  1.00  0.00    -0.275 C  
HETATM   16  H   UNL     1     -10.194   8.604  69.049  1.00  0.00     0.000 HD 
HETATM   17  O   UNL     1      -9.261   9.536  71.935  1.00  0.00     0.007 OA 
BRANCH  15  18
HETATM   18  C   UNL     1     -10.928   7.950  71.405  1.00  0.00    -0.264 A  
HETATM   19  C   UNL     1     -12.187   8.226  71.915  1.00  0.00    -0.337 A  
HETATM   20  C   UNL     1     -12.938   9.433  72.321  1.00  0.00    -0.479 C  
HETATM   21  O   UNL     1     -12.855   7.065  72.112  1.00  0.00    -0.194 OA 
HETATM   22  N   UNL     1     -12.063   6.008  71.761  1.00  0.00    -0.104 NA 
HETATM   23  C   UNL     1     -10.890   6.512  71.337  1.00  0.00    -0.245 A  
BRANCH  23  24
HETATM   24  C   UNL     1      -9.843   5.585  70.878  1.00  0.00    -0.241 A  
HETATM   25  C   UNL     1      -8.548   5.594  71.409  1.00  0.00    -0.132 A  
HETATM   26  C   UNL     1      -7.566   4.724  70.921  1.00  0.00    -0.069 A  
HETATM   27  C   UNL     1      -7.858   3.846  69.880  1.00  0.00    -0.051 A  
HETATM   28  C   UNL     1      -9.136   3.828  69.331  1.00  0.00    -0.197 A  
HETATM   29  C   UNL     1     -10.120   4.688  69.828  1.00  0.00    -0.243 A  
ENDBRANCH  23  24
ENDBRANCH  15  18
ENDBRANCH  12  14
TORSDOF 3
ENDMDL
MODEL      162
REMARK 921   NORMALIZED FREE ENERGY PREDICTED BY IDOCK:   -3.55 KCAL/MOL
REMARK 922        TOTAL FREE ENERGY PREDICTED BY IDOCK:   -5.08 KCAL/MOL
REMARK 923 INTER-LIGAND FREE ENERGY PREDICTED BY IDOCK:   -4.56 KCAL/MOL
REMARK 924 INTRA-LIGAND FREE ENERGY PREDICTED BY IDOCK:   -0.52 KCAL/MOL
REMARK 927      BINDING AFFINITY PREDICTED BY RF-SCORE:    0.00 PKD
ROOT
HETATM    1  C   UNL     1      -9.375   4.354  69.429  1.00  0.00    -0.156 C  
HETATM    2  S   UNL     1     -10.395   5.828  69.019  1.00  0.00    -0.265 SA 
HETATM    3  C   UNL     1      -9.388   6.312  67.543  1.00  0.00    -0.113 C  
HETATM    4  CA  UNL     1      -8.654   5.015  67.115  1.00  0.00    -0.104 C  
HETATM    5  C   UNL     1     -10.296   6.952  66.487  1.00  0.00    -0.115 C  
HETATM    6  C   UNL     1      -8.403   7.409  67.997  1.00  0.00    -0.124 C  
HETATM    7  N   UNL     1      -8.370   4.249  68.347  1.00  0.00    -0.091 N  
HETATM    8  C   UNL     1      -9.430   4.098  66.151  1.00  0.00    -0.183 C  
HETATM    9  OXT UNL     1      -9.913   4.454  65.088  1.00  0.00    -0.190 OA 
HETATM   10  O   UNL     1      -9.462   2.798  66.542  1.00  0.00    -0.070 OA 
HETATM   11  C   UNL     1      -7.325   4.613  69.158  1.00  0.00    -0.053 C  
HETATM   12  CA  UNL     1      -8.205   4.555  70.428  1.00  0.00    -0.070 C  
HETATM   13  O   UNL     1      -6.219   5.011  68.870  1.00  0.00    -0.028 OA 
ENDROOT
BRANCH  12  14
HETATM   14  N   UNL     1      -8.251   5.785  71.265  1.00  0.00    -0.121 N  
HETATM   15  C   UNL     1      -7.218   6.085  72.130  1.00  0.00    -0.089 C  
HETATM   16  H   UNL     1      -9.053   6.412  71.199  1.00  0.00     0.000 HD 
HETATM   17  O   UNL     1      -6.209   5.390  72.164  1.00  0.00    -0.032 OA 
BRANCH  15  18
HETATM   18  C   UNL     1      -7.434   7.229  72.996  1.00  0.00    -0.081 A  
HETATM   19  C   UNL     1      -6.526   7.774  73.889  1.00  0.00    -0.087 A  
HETATM   20  C   UNL     1      -5.141   7.487  74.320  1.00  0.00    -0.050 C  
HETATM   21  O   UNL     1      -7.105   8.810  74.541  1.00  0.00    -0.327 OA 
HETATM   22  N   UNL     1      -8.395   8.963  74.117  1.00  0.00    -0.033 NA 
HETATM   23  C   UNL     1      -8.624   8.017  73.188  1.00  0.00    -0.220 A  
BRANCH  23  24
HETATM   24  C   UNL     1      -9.946   7.960  72.544  1.00  0.00    -0.312 A  
HETATM   25  C   UNL     1     -10.390   8.945  71.654  1.00  0.00    -0.416 A  
HETATM   26  C   UNL     1     -11.669   8.880  71.089  1.00  0.00    -0.356 A  
HETATM   27  C   UNL     1     -12.533   7.839  71.423  1.00  0.00    -0.342 A  
HETATM   28  C   UNL     1     -12.116   6.856  72.313  1.00  0.00    -0.212 A  
HETATM   29  C   UNL     1     -10.832   6.915  72.867  1.00  0.00    -0.318 A  
ENDBRANCH  23  24
ENDBRANCH  15  18
ENDBRANCH  12  14
TORSDOF 3
ENDMDL
MODEL      163
REMARK 921   NORMALIZED FREE ENERGY PREDICTED BY IDOCK:   -3.54 KCAL/MOL
REMARK 922        TOTAL FREE ENERGY PREDICTED BY IDOCK:   -5.06 KCAL/MOL
REMARK 923 INTER-LIGAND FREE ENERGY PREDICTED BY IDOCK:   -4.83 KCAL/MOL
REMARK 924 INTRA-LIGAND FREE ENERGY PREDICTED BY IDOCK:   -0.24 KCAL/MOL
REMARK 927      BINDING AFFINITY PREDICTED BY RF-SCORE:    0.00 PKD
ROOT
HETATM    1  C   UNL     1     -10.050   7.216  71.141  1.00  0.00    -0.187 C  
HETATM    2  S   UNL     1     -10.235   8.985  71.612  1.00  0.00    -0.304 SA 
HETATM    3  C   UNL     1     -11.893   9.188  70.814  1.00  0.00    -0.227 C  
HETATM    4  CA  UNL     1     -12.466   7.751  70.706  1.00  0.00     0.043 C  
HETATM    5  C   UNL     1     -12.732  10.189  71.617  1.00  0.00    -0.549 C  
HETATM    6  C   UNL     1     -11.662   9.823  69.428  1.00  0.00     0.169 C  
HETATM    7  N   UNL     1     -11.321   6.843  70.482  1.00  0.00    -0.307 N  
HETATM    8  C   UNL     1     -13.239   7.249  71.939  1.00  0.00    -0.233 C  
HETATM    9  OXT UNL     1     -14.176   7.833  72.461  1.00  0.00    -0.019 OA 
HETATM   10  O   UNL     1     -12.849   6.019  72.365  1.00  0.00    -0.010 OA 
HETATM   11  C   UNL     1     -10.753   6.746  69.236  1.00  0.00    -0.253 C  
HETATM   12  CA  UNL     1      -9.324   6.909  69.805  1.00  0.00    -0.146 C  
HETATM   13  O   UNL     1     -11.272   6.744  68.143  1.00  0.00    -0.182 OA 
ENDROOT
BRANCH  12  14
HETATM   14  N   UNL     1      -8.499   8.008  69.231  1.00  0.00    -0.134 N  
HETATM   15  C   UNL     1      -8.254   8.065  67.873  1.00  0.00    -0.129 C  
HETATM   16  H   UNL     1      -8.111   8.724  69.845  1.00  0.00     0.000 HD 
HETATM   17  O   UNL     1      -8.778   7.264  67.108  1.00  0.00    -0.119 OA 
BRANCH  15  18
HETATM   18  C   UNL     1      -7.324   9.093  67.444  1.00  0.00    -0.084 A  
HETATM   19  C   UNL     1      -6.039   9.297  67.920  1.00  0.00    -0.050 A  
HETATM   20  C   UNL     1      -5.158   8.674  68.930  1.00  0.00    -0.033 C  
HETATM   21  O   UNL     1      -5.498  10.374  67.302  1.00  0.00    -0.041 OA 
HETATM   22  N   UNL     1      -6.402  10.913  66.430  1.00  0.00    -0.121 NA 
HETATM   23  C   UNL     1      -7.517  10.163  66.500  1.00  0.00    -0.109 A  
BRANCH  23  24
HETATM   24  C   UNL     1      -8.662  10.513  65.644  1.00  0.00    -0.191 A  
HETATM   25  C   UNL     1      -8.689  10.227  64.274  1.00  0.00    -0.217 A  
HETATM   26  C   UNL     1      -9.778  10.609  63.481  1.00  0.00    -0.389 A  
HETATM   27  C   UNL     1     -10.847  11.303  64.042  1.00  0.00    -0.414 A  
HETATM   28  C   UNL     1     -10.835  11.608  65.399  1.00  0.00    -0.336 A  
HETATM   29  C   UNL     1      -9.753  11.214  66.193  1.00  0.00    -0.253 A  
ENDBRANCH  23  24
ENDBRANCH  15  18
ENDBRANCH  12  14
TORSDOF 3
ENDMDL
MODEL      164
REMARK 921   NORMALIZED FREE ENERGY PREDICTED BY IDOCK:   -3.53 KCAL/MOL
REMARK 922        TOTAL FREE ENERGY PREDICTED BY IDOCK:   -5.06 KCAL/MOL
REMARK 923 INTER-LIGAND FREE ENERGY PREDICTED BY IDOCK:   -4.28 KCAL/MOL
REMARK 924 INTRA-LIGAND FREE ENERGY PREDICTED BY IDOCK:   -0.77 KCAL/MOL
REMARK 927      BINDING AFFINITY PREDICTED BY RF-SCORE:    0.00 PKD
ROOT
HETATM    1  C   UNL     1      -8.772   7.272  67.088  1.00  0.00    -0.121 C  
HETATM    2  S   UNL     1      -7.735   6.394  68.327  1.00  0.00    -0.106 SA 
HETATM    3  C   UNL     1      -7.933   4.728  67.546  1.00  0.00    -0.094 C  
HETATM    4  CA  UNL     1      -8.325   5.017  66.075  1.00  0.00    -0.114 C  
HETATM    5  C   UNL     1      -6.655   3.907  67.754  1.00  0.00    -0.042 C  
HETATM    6  C   UNL     1      -9.054   3.992  68.308  1.00  0.00    -0.183 C  
HETATM    7  N   UNL     1      -9.134   6.255  66.076  1.00  0.00    -0.142 N  
HETATM    8  C   UNL     1      -7.150   5.217  65.100  1.00  0.00    -0.063 C  
HETATM    9  OXT UNL     1      -6.231   4.428  64.944  1.00  0.00    -0.031 OA 
HETATM   10  O   UNL     1      -7.260   6.332  64.332  1.00  0.00    -0.054 OA 
HETATM   11  C   UNL     1     -10.452   6.214  66.455  1.00  0.00    -0.128 C  
HETATM   12  CA  UNL     1     -10.284   7.422  67.405  1.00  0.00    -0.246 C  
HETATM   13  O   UNL     1     -11.301   5.380  66.232  1.00  0.00     0.115 OA 
ENDROOT
BRANCH  12  14
HETATM   14  N   UNL     1     -10.687   7.218  68.823  1.00  0.00    -0.344 N  
HETATM   15  C   UNL     1     -10.979   8.298  69.633  1.00  0.00    -0.086 C  
HETATM   16  H   UNL     1     -10.749   6.272  69.200  1.00  0.00     0.000 HD 
HETATM   17  O   UNL     1     -10.992   9.436  69.177  1.00  0.00    -0.192 OA 
BRANCH  15  18
HETATM   18  C   UNL     1     -11.222   7.990  71.029  1.00  0.00    -0.287 A  
HETATM   19  C   UNL     1     -12.444   7.688  71.610  1.00  0.00    -0.335 A  
HETATM   20  C   UNL     1     -13.846   7.569  71.157  1.00  0.00    -0.258 C  
HETATM   21  O   UNL     1     -12.272   7.495  72.939  1.00  0.00     0.039 OA 
HETATM   22  N   UNL     1     -10.959   7.678  73.270  1.00  0.00    -0.368 NA 
HETATM   23  C   UNL     1     -10.302   7.985  72.137  1.00  0.00    -0.254 A  
BRANCH  23  24
HETATM   24  C   UNL     1      -8.851   8.222  72.201  1.00  0.00    -0.265 A  
HETATM   25  C   UNL     1      -8.087   7.900  73.329  1.00  0.00    -0.218 A  
HETATM   26  C   UNL     1      -6.715   8.176  73.370  1.00  0.00    -0.129 A  
HETATM   27  C   UNL     1      -6.090   8.797  72.291  1.00  0.00    -0.072 A  
HETATM   28  C   UNL     1      -6.832   9.135  71.165  1.00  0.00    -0.088 A  
HETATM   29  C   UNL     1      -8.200   8.847  71.120  1.00  0.00    -0.218 A  
ENDBRANCH  23  24
ENDBRANCH  15  18
ENDBRANCH  12  14
TORSDOF 3
ENDMDL
MODEL      165
REMARK 921   NORMALIZED FREE ENERGY PREDICTED BY IDOCK:   -3.52 KCAL/MOL
REMARK 922        TOTAL FREE ENERGY PREDICTED BY IDOCK:   -5.04 KCAL/MOL
REMARK 923 INTER-LIGAND FREE ENERGY PREDICTED BY IDOCK:   -4.26 KCAL/MOL
REMARK 924 INTRA-LIGAND FREE ENERGY PREDICTED BY IDOCK:   -0.78 KCAL/MOL
REMARK 927      BINDING AFFINITY PREDICTED BY RF-SCORE:    0.00 PKD
ROOT
HETATM    1  C   UNL     1     -10.577   8.410  68.844  1.00  0.00    -0.140 C  
HETATM    2  S   UNL     1     -11.204   7.192  70.072  1.00  0.00    -0.203 SA 
HETATM    3  C   UNL     1     -10.798   8.232  71.548  1.00  0.00    -0.249 C  
HETATM    4  CA  UNL     1     -10.710   9.682  71.006  1.00  0.00    -0.323 C  
HETATM    5  C   UNL     1     -11.832   7.987  72.652  1.00  0.00    -0.380 C  
HETATM    6  C   UNL     1      -9.444   7.740  72.099  1.00  0.00    -0.216 C  
HETATM    7  N   UNL     1     -10.180   9.600  69.628  1.00  0.00    -0.206 N  
HETATM    8  C   UNL     1     -12.041  10.456  70.960  1.00  0.00    -0.385 C  
HETATM    9  OXT UNL     1     -12.793  10.608  71.910  1.00  0.00    -0.445 OA 
HETATM   10  O   UNL     1     -12.283  11.056  69.765  1.00  0.00    -0.326 OA 
HETATM   11  C   UNL     1      -8.838   9.405  69.418  1.00  0.00    -0.159 C  
HETATM   12  CA  UNL     1      -9.097   8.271  68.399  1.00  0.00    -0.136 C  
HETATM   13  O   UNL     1      -7.884   9.858  70.009  1.00  0.00    -0.159 OA 
ENDROOT
BRANCH  12  14
HETATM   14  N   UNL     1      -8.440   6.964  68.675  1.00  0.00    -0.121 N  
HETATM   15  C   UNL     1      -8.614   5.896  67.816  1.00  0.00    -0.105 C  
HETATM   16  H   UNL     1      -7.857   6.855  69.505  1.00  0.00     0.000 HD 
HETATM   17  O   UNL     1      -9.241   6.029  66.771  1.00  0.00    -0.128 OA 
BRANCH  15  18
HETATM   18  C   UNL     1      -8.046   4.636  68.255  1.00  0.00    -0.084 A  
HETATM   19  C   UNL     1      -8.245   4.021  69.481  1.00  0.00    -0.057 A  
HETATM   20  C   UNL     1      -8.996   4.316  70.719  1.00  0.00    -0.154 C  
HETATM   21  O   UNL     1      -7.521   2.879  69.532  1.00  0.00    -0.044 OA 
HETATM   22  N   UNL     1      -6.821   2.719  68.369  1.00  0.00    -0.047 NA 
HETATM   23  C   UNL     1      -7.114   3.770  67.581  1.00  0.00    -0.055 A  
BRANCH  23  24
HETATM   24  C   UNL     1      -6.502   3.847  66.244  1.00  0.00    -0.037 A  
HETATM   25  C   UNL     1      -5.686   4.915  65.854  1.00  0.00    -0.018 A  
HETATM   26  C   UNL     1      -5.153   4.976  64.561  1.00  0.00    -0.009 A  
HETATM   27  C   UNL     1      -5.444   3.980  63.632  1.00  0.00    -0.013 A  
HETATM   28  C   UNL     1      -6.262   2.916  63.996  1.00  0.00    -0.022 A  
HETATM   29  C   UNL     1      -6.784   2.849  65.292  1.00  0.00    -0.040 A  
ENDBRANCH  23  24
ENDBRANCH  15  18
ENDBRANCH  12  14
TORSDOF 3
ENDMDL
MODEL      166
REMARK 921   NORMALIZED FREE ENERGY PREDICTED BY IDOCK:   -3.50 KCAL/MOL
REMARK 922        TOTAL FREE ENERGY PREDICTED BY IDOCK:   -5.02 KCAL/MOL
REMARK 923 INTER-LIGAND FREE ENERGY PREDICTED BY IDOCK:   -4.10 KCAL/MOL
REMARK 924 INTRA-LIGAND FREE ENERGY PREDICTED BY IDOCK:   -0.92 KCAL/MOL
REMARK 927      BINDING AFFINITY PREDICTED BY RF-SCORE:    0.00 PKD
ROOT
HETATM    1  C   UNL     1      -9.437   4.736  67.465  1.00  0.00    -0.146 C  
HETATM    2  S   UNL     1      -7.797   5.487  67.105  1.00  0.00    -0.101 SA 
HETATM    3  C   UNL     1      -6.903   4.561  68.434  1.00  0.00    -0.051 C  
HETATM    4  CA  UNL     1      -7.786   3.321  68.724  1.00  0.00    -0.054 C  
HETATM    5  C   UNL     1      -5.466   4.275  67.985  1.00  0.00    -0.016 C  
HETATM    6  C   UNL     1      -6.801   5.495  69.658  1.00  0.00    -0.060 C  
HETATM    7  N   UNL     1      -9.192   3.732  68.525  1.00  0.00    -0.144 N  
HETATM    8  C   UNL     1      -7.519   2.091  67.836  1.00  0.00    -0.055 C  
HETATM    9  OXT UNL     1      -6.427   1.568  67.680  1.00  0.00    -0.024 OA 
HETATM   10  O   UNL     1      -8.642   1.557  67.289  1.00  0.00    -0.082 OA 
HETATM   11  C   UNL     1      -9.839   4.460  69.492  1.00  0.00    -0.188 C  
HETATM   12  CA  UNL     1     -10.360   5.488  68.460  1.00  0.00    -0.178 C  
HETATM   13  O   UNL     1      -9.790   4.369  70.697  1.00  0.00    -0.197 OA 
ENDROOT
BRANCH  12  14
HETATM   14  N   UNL     1     -10.032   6.917  68.718  1.00  0.00    -0.150 N  
HETATM   15  C   UNL     1     -10.505   7.908  67.881  1.00  0.00    -0.198 C  
HETATM   16  H   UNL     1      -9.453   7.166  69.521  1.00  0.00     0.000 HD 
HETATM   17  O   UNL     1     -11.269   7.638  66.962  1.00  0.00    -0.000 OA 
BRANCH  15  18
HETATM   18  C   UNL     1     -10.008   9.245  68.145  1.00  0.00    -0.206 A  
HETATM   19  C   UNL     1     -10.155   9.966  69.320  1.00  0.00    -0.203 A  
HETATM   20  C   UNL     1     -10.793   9.752  70.636  1.00  0.00    -0.396 C  
HETATM   21  O   UNL     1      -9.588  11.185  69.171  1.00  0.00    -0.132 OA 
HETATM   22  N   UNL     1      -9.075  11.309  67.910  1.00  0.00    -0.146 NA 
HETATM   23  C   UNL     1      -9.320  10.154  67.266  1.00  0.00    -0.152 A  
BRANCH  23  24
HETATM   24  C   UNL     1      -8.857  10.005  65.877  1.00  0.00    -0.164 A  
HETATM   25  C   UNL     1      -9.698  10.218  64.778  1.00  0.00    -0.397 A  
HETATM   26  C   UNL     1      -9.235  10.028  63.471  1.00  0.00    -0.315 A  
HETATM   27  C   UNL     1      -7.928   9.602  63.243  1.00  0.00    -0.143 A  
HETATM   28  C   UNL     1      -7.080   9.374  64.320  1.00  0.00    -0.102 A  
HETATM   29  C   UNL     1      -7.539   9.576  65.626  1.00  0.00    -0.101 A  
ENDBRANCH  23  24
ENDBRANCH  15  18
ENDBRANCH  12  14
TORSDOF 3
ENDMDL
MODEL      167
REMARK 921   NORMALIZED FREE ENERGY PREDICTED BY IDOCK:   -3.42 KCAL/MOL
REMARK 922        TOTAL FREE ENERGY PREDICTED BY IDOCK:   -4.92 KCAL/MOL
REMARK 923 INTER-LIGAND FREE ENERGY PREDICTED BY IDOCK:   -3.76 KCAL/MOL
REMARK 924 INTRA-LIGAND FREE ENERGY PREDICTED BY IDOCK:   -1.16 KCAL/MOL
REMARK 927      BINDING AFFINITY PREDICTED BY RF-SCORE:    0.00 PKD
ROOT
HETATM    1  C   UNL     1      -8.149  10.197  69.156  1.00  0.00    -0.134 C  
HETATM    2  S   UNL     1      -6.714   9.304  68.430  1.00  0.00    -0.059 SA 
HETATM    3  C   UNL     1      -7.720   8.371  67.189  1.00  0.00    -0.097 C  
HETATM    4  CA  UNL     1      -9.022   9.196  67.023  1.00  0.00    -0.123 C  
HETATM    5  C   UNL     1      -6.895   8.152  65.916  1.00  0.00    -0.060 C  
HETATM    6  C   UNL     1      -7.996   6.972  67.777  1.00  0.00    -0.114 C  
HETATM    7  N   UNL     1      -9.318   9.808  68.336  1.00  0.00    -0.133 N  
HETATM    8  C   UNL     1      -8.967  10.322  65.974  1.00  0.00    -0.152 C  
HETATM    9  OXT UNL     1      -8.637  10.173  64.808  1.00  0.00    -0.160 OA 
HETATM   10  O   UNL     1      -9.415  11.519  66.433  1.00  0.00    -0.200 OA 
HETATM   11  C   UNL     1      -9.883   9.055  69.335  1.00  0.00    -0.183 C  
HETATM   12  CA  UNL     1      -8.850   9.543  70.376  1.00  0.00    -0.234 C  
HETATM   13  O   UNL     1     -10.739   8.201  69.276  1.00  0.00    -0.211 OA 
ENDROOT
BRANCH  12  14
HETATM   14  N   UNL     1      -8.081   8.492  71.097  1.00  0.00    -0.120 N  
HETATM   15  C   UNL     1      -8.500   8.039  72.333  1.00  0.00    -0.156 C  
HETATM   16  H   UNL     1      -7.238   8.102  70.675  1.00  0.00     0.000 HD 
HETATM   17  O   UNL     1      -9.554   8.432  72.819  1.00  0.00    -0.275 OA 
BRANCH  15  18
HETATM   18  C   UNL     1      -7.601   7.119  73.004  1.00  0.00    -0.087 A  
HETATM   19  C   UNL     1      -6.625   7.445  73.932  1.00  0.00    -0.077 A  
HETATM   20  C   UNL     1      -6.115   8.681  74.562  1.00  0.00    -0.147 C  
HETATM   21  O   UNL     1      -5.968   6.322  74.305  1.00  0.00    -0.061 OA 
HETATM   22  N   UNL     1      -6.471   5.244  73.632  1.00  0.00    -0.068 NA 
HETATM   23  C   UNL     1      -7.455   5.697  72.833  1.00  0.00    -0.096 A  
BRANCH  23  24
HETATM   24  C   UNL     1      -8.189   4.734  71.996  1.00  0.00    -0.110 A  
HETATM   25  C   UNL     1      -9.195   3.907  72.510  1.00  0.00    -0.149 A  
HETATM   26  C   UNL     1      -9.846   2.975  71.693  1.00  0.00    -0.214 A  
HETATM   27  C   UNL     1      -9.486   2.841  70.354  1.00  0.00    -0.193 A  
HETATM   28  C   UNL     1      -8.481   3.644  69.827  1.00  0.00    -0.087 A  
HETATM   29  C   UNL     1      -7.841   4.585  70.640  1.00  0.00    -0.057 A  
ENDBRANCH  23  24
ENDBRANCH  15  18
ENDBRANCH  12  14
TORSDOF 3
ENDMDL
MODEL      168
REMARK 921   NORMALIZED FREE ENERGY PREDICTED BY IDOCK:   -3.38 KCAL/MOL
REMARK 922        TOTAL FREE ENERGY PREDICTED BY IDOCK:   -4.87 KCAL/MOL
REMARK 923 INTER-LIGAND FREE ENERGY PREDICTED BY IDOCK:   -4.24 KCAL/MOL
REMARK 924 INTRA-LIGAND FREE ENERGY PREDICTED BY IDOCK:   -0.63 KCAL/MOL
REMARK 927      BINDING AFFINITY PREDICTED BY RF-SCORE:    0.00 PKD
ROOT
HETATM    1  C   UNL     1     -10.602   9.939  67.430  1.00  0.00    -0.277 C  
HETATM    2  S   UNL     1      -9.449  10.918  68.477  1.00  0.00    -0.190 SA 
HETATM    3  C   UNL     1      -8.859  11.997  67.094  1.00  0.00    -0.188 C  
HETATM    4  CA  UNL     1      -9.973  11.920  66.019  1.00  0.00    -0.232 C  
HETATM    5  C   UNL     1      -8.538  13.396  67.633  1.00  0.00    -0.193 C  
HETATM    6  C   UNL     1      -7.527  11.407  66.586  1.00  0.00    -0.110 C  
HETATM    7  N   UNL     1     -10.551  10.560  66.089  1.00  0.00    -0.162 N  
HETATM    8  C   UNL     1     -11.122  12.934  66.178  1.00  0.00    -0.286 C  
HETATM    9  OXT UNL     1     -10.977  14.142  66.276  1.00  0.00    -0.297 OA 
HETATM   10  O   UNL     1     -12.358  12.375  66.108  1.00  0.00    -0.606 OA 
HETATM   11  C   UNL     1      -9.886   9.502  65.522  1.00  0.00    -0.234 C  
HETATM   12  CA  UNL     1     -10.051   8.636  66.793  1.00  0.00    -0.296 C  
HETATM   13  O   UNL     1      -9.261   9.439  64.488  1.00  0.00    -0.216 OA 
ENDROOT
BRANCH  12  14
HETATM   14  N   UNL     1      -8.805   8.082  67.390  1.00  0.00    -0.130 N  
HETATM   15  C   UNL     1      -8.127   7.050  66.769  1.00  0.00    -0.109 C  
HETATM   16  H   UNL     1      -8.447   8.467  68.264  1.00  0.00     0.000 HD 
HETATM   17  O   UNL     1      -8.493   6.630  65.677  1.00  0.00    -0.146 OA 
BRANCH  15  18
HETATM   18  C   UNL     1      -7.010   6.496  67.509  1.00  0.00    -0.078 A  
HETATM   19  C   UNL     1      -6.583   5.178  67.501  1.00  0.00    -0.054 A  
HETATM   20  C   UNL     1      -7.004   3.919  66.851  1.00  0.00    -0.059 C  
HETATM   21  O   UNL     1      -5.533   5.042  68.344  1.00  0.00    -0.010 OA 
HETATM   22  N   UNL     1      -5.252   6.241  68.936  1.00  0.00    -0.004 NA 
HETATM   23  C   UNL     1      -6.133   7.138  68.455  1.00  0.00    -0.030 A  
BRANCH  23  24
HETATM   24  C   UNL     1      -6.050   8.533  68.917  1.00  0.00    -0.044 A  
HETATM   25  C   UNL     1      -5.222   9.478  68.301  1.00  0.00    -0.033 A  
HETATM   26  C   UNL     1      -5.138  10.787  68.791  1.00  0.00    -0.041 A  
HETATM   27  C   UNL     1      -5.864  11.164  69.918  1.00  0.00    -0.099 A  
HETATM   28  C   UNL     1      -6.683  10.236  70.553  1.00  0.00    -0.075 A  
HETATM   29  C   UNL     1      -6.777   8.933  70.054  1.00  0.00    -0.043 A  
ENDBRANCH  23  24
ENDBRANCH  15  18
ENDBRANCH  12  14
TORSDOF 3
ENDMDL
MODEL      169
REMARK 921   NORMALIZED FREE ENERGY PREDICTED BY IDOCK:   -3.33 KCAL/MOL
REMARK 922        TOTAL FREE ENERGY PREDICTED BY IDOCK:   -4.82 KCAL/MOL
REMARK 923 INTER-LIGAND FREE ENERGY PREDICTED BY IDOCK:   -3.88 KCAL/MOL
REMARK 924 INTRA-LIGAND FREE ENERGY PREDICTED BY IDOCK:   -0.94 KCAL/MOL
REMARK 927      BINDING AFFINITY PREDICTED BY RF-SCORE:    0.00 PKD
ROOT
HETATM    1  C   UNL     1      -7.450   9.491  67.423  1.00  0.00    -0.091 C  
HETATM    2  S   UNL     1      -9.045   9.308  66.525  1.00  0.00    -0.164 SA 
HETATM    3  C   UNL     1      -9.960  10.524  67.579  1.00  0.00    -0.172 C  
HETATM    4  CA  UNL     1      -8.861  11.415  68.212  1.00  0.00    -0.167 C  
HETATM    5  C   UNL     1     -11.011  11.251  66.732  1.00  0.00    -0.339 C  
HETATM    6  C   UNL     1     -10.735   9.720  68.643  1.00  0.00    -0.247 C  
HETATM    7  N   UNL     1      -7.675  10.557  68.425  1.00  0.00    -0.099 N  
HETATM    8  C   UNL     1      -8.424  12.631  67.374  1.00  0.00    -0.186 C  
HETATM    9  OXT UNL     1      -9.182  13.479  66.929  1.00  0.00    -0.237 OA 
HETATM   10  O   UNL     1      -7.078  12.746  67.237  1.00  0.00    -0.148 OA 
HETATM   11  C   UNL     1      -7.635   9.692  69.490  1.00  0.00    -0.104 C  
HETATM   12  CA  UNL     1      -7.180   8.514  68.597  1.00  0.00    -0.080 C  
HETATM   13  O   UNL     1      -8.025   9.837  70.626  1.00  0.00    -0.272 OA 
ENDROOT
BRANCH  12  14
HETATM   14  N   UNL     1      -8.015   7.282  68.641  1.00  0.00    -0.122 N  
HETATM   15  C   UNL     1      -7.441   6.054  68.904  1.00  0.00    -0.086 C  
HETATM   16  H   UNL     1      -9.019   7.346  68.475  1.00  0.00     0.000 HD 
HETATM   17  O   UNL     1      -6.252   5.966  69.188  1.00  0.00    -0.029 OA 
BRANCH  15  18
HETATM   18  C   UNL     1      -8.323   4.908  68.782  1.00  0.00    -0.083 A  
HETATM   19  C   UNL     1      -9.052   4.313  69.798  1.00  0.00    -0.117 A  
HETATM   20  C   UNL     1      -9.236   4.522  71.250  1.00  0.00    -0.195 C  
HETATM   21  O   UNL     1      -9.728   3.250  69.302  1.00  0.00    -0.107 OA 
HETATM   22  N   UNL     1      -9.454   3.105  67.971  1.00  0.00    -0.192 NA 
HETATM   23  C   UNL     1      -8.603   4.090  67.630  1.00  0.00    -0.100 A  
BRANCH  23  24
HETATM   24  C   UNL     1      -8.148   4.183  66.233  1.00  0.00    -0.098 A  
HETATM   25  C   UNL     1      -8.505   5.248  65.398  1.00  0.00    -0.145 A  
HETATM   26  C   UNL     1      -8.087   5.285  64.063  1.00  0.00    -0.121 A  
HETATM   27  C   UNL     1      -7.323   4.247  63.536  1.00  0.00    -0.054 A  
HETATM   28  C   UNL     1      -6.966   3.174  64.346  1.00  0.00    -0.052 A  
HETATM   29  C   UNL     1      -7.373   3.144  65.683  1.00  0.00    -0.072 A  
ENDBRANCH  23  24
ENDBRANCH  15  18
ENDBRANCH  12  14
TORSDOF 3
ENDMDL
MODEL      170
REMARK 921   NORMALIZED FREE ENERGY PREDICTED BY IDOCK:   -3.32 KCAL/MOL
REMARK 922        TOTAL FREE ENERGY PREDICTED BY IDOCK:   -4.81 KCAL/MOL
REMARK 923 INTER-LIGAND FREE ENERGY PREDICTED BY IDOCK:   -3.62 KCAL/MOL
REMARK 924 INTRA-LIGAND FREE ENERGY PREDICTED BY IDOCK:   -1.18 KCAL/MOL
REMARK 927      BINDING AFFINITY PREDICTED BY RF-SCORE:    0.00 PKD
ROOT
HETATM    1  C   UNL     1     -11.077  10.856  66.464  1.00  0.00    -0.048 C  
HETATM    2  S   UNL     1     -11.911  10.627  68.088  1.00  0.00     0.434 SA 
HETATM    3  C   UNL     1     -10.790  11.780  69.004  1.00  0.00    -0.195 C  
HETATM    4  CA  UNL     1     -10.183  12.701  67.916  1.00  0.00    -0.220 C  
HETATM    5  C   UNL     1     -11.574  12.482  70.120  1.00  0.00    -0.150 C  
HETATM    6  C   UNL     1      -9.714  10.921  69.699  1.00  0.00     0.206 C  
HETATM    7  N   UNL     1     -10.042  11.889  66.688  1.00  0.00    -0.198 N  
HETATM    8  C   UNL     1     -11.009  13.953  67.566  1.00  0.00    -0.276 C  
HETATM    9  OXT UNL     1     -11.401  14.778  68.376  1.00  0.00    -0.272 OA 
HETATM   10  O   UNL     1     -11.201  14.126  66.232  1.00  0.00    -0.317 OA 
HETATM   11  C   UNL     1      -9.001  11.002  66.567  1.00  0.00    -0.173 C  
HETATM   12  CA  UNL     1      -9.940   9.864  66.104  1.00  0.00    -0.263 C  
HETATM   13  O   UNL     1      -7.846  11.106  66.913  1.00  0.00    -0.137 OA 
ENDROOT
BRANCH  12  14
HETATM   14  N   UNL     1      -9.891   8.599  66.886  1.00  0.00    -0.214 N  
HETATM   15  C   UNL     1      -9.119   7.537  66.456  1.00  0.00    -0.166 C  
HETATM   16  H   UNL     1     -10.431   8.515  67.747  1.00  0.00     0.000 HD 
HETATM   17  O   UNL     1      -8.399   7.646  65.470  1.00  0.00    -0.129 OA 
BRANCH  15  18
HETATM   18  C   UNL     1      -9.257   6.310  67.217  1.00  0.00    -0.119 A  
HETATM   19  C   UNL     1      -9.893   5.148  66.807  1.00  0.00    -0.185 A  
HETATM   20  C   UNL     1     -10.621   4.692  65.605  1.00  0.00    -0.241 C  
HETATM   21  O   UNL     1      -9.845   4.235  67.805  1.00  0.00    -0.151 OA 
HETATM   22  N   UNL     1      -9.203   4.765  68.890  1.00  0.00    -0.116 NA 
HETATM   23  C   UNL     1      -8.843   6.020  68.565  1.00  0.00    -0.112 A  
BRANCH  23  24
HETATM   24  C   UNL     1      -8.112   6.827  69.556  1.00  0.00    -0.126 A  
HETATM   25  C   UNL     1      -6.715   6.906  69.575  1.00  0.00    -0.050 A  
HETATM   26  C   UNL     1      -6.051   7.653  70.556  1.00  0.00    -0.030 A  
HETATM   27  C   UNL     1      -6.774   8.314  71.546  1.00  0.00    -0.063 A  
HETATM   28  C   UNL     1      -8.162   8.239  71.552  1.00  0.00    -0.164 A  
HETATM   29  C   UNL     1      -8.825   7.504  70.563  1.00  0.00    -0.147 A  
ENDBRANCH  23  24
ENDBRANCH  15  18
ENDBRANCH  12  14
TORSDOF 3
ENDMDL
MODEL      171
REMARK 921   NORMALIZED FREE ENERGY PREDICTED BY IDOCK:   -3.32 KCAL/MOL
REMARK 922        TOTAL FREE ENERGY PREDICTED BY IDOCK:   -4.81 KCAL/MOL
REMARK 923 INTER-LIGAND FREE ENERGY PREDICTED BY IDOCK:   -3.93 KCAL/MOL
REMARK 924 INTRA-LIGAND FREE ENERGY PREDICTED BY IDOCK:   -0.87 KCAL/MOL
REMARK 927      BINDING AFFINITY PREDICTED BY RF-SCORE:    0.00 PKD
ROOT
HETATM    1  C   UNL     1      -6.716   7.655  66.140  1.00  0.00    -0.053 C  
HETATM    2  S   UNL     1      -7.501   6.745  67.533  1.00  0.00    -0.099 SA 
HETATM    3  C   UNL     1      -8.371   5.521  66.451  1.00  0.00    -0.111 C  
HETATM    4  CA  UNL     1      -7.580   5.529  65.118  1.00  0.00    -0.080 C  
HETATM    5  C   UNL     1      -8.463   4.171  67.172  1.00  0.00    -0.100 C  
HETATM    6  C   UNL     1      -9.819   6.018  66.266  1.00  0.00    -0.102 C  
HETATM    7  N   UNL     1      -7.081   6.907  64.917  1.00  0.00    -0.058 N  
HETATM    8  C   UNL     1      -6.376   4.571  65.053  1.00  0.00    -0.035 C  
HETATM    9  OXT UNL     1      -6.424   3.374  65.286  1.00  0.00    -0.034 OA 
HETATM   10  O   UNL     1      -5.233   5.159  64.612  1.00  0.00    -0.009 OA 
HETATM   11  C   UNL     1      -7.927   7.885  64.460  1.00  0.00    -0.140 C  
HETATM   12  CA  UNL     1      -7.485   8.873  65.564  1.00  0.00    -0.086 C  
HETATM   13  O   UNL     1      -8.802   7.829  63.626  1.00  0.00     0.476 OA 
ENDROOT
BRANCH  12  14
HETATM   14  N   UNL     1      -8.562   9.443  66.420  1.00  0.00    -0.132 N  
HETATM   15  C   UNL     1      -8.310  10.528  67.237  1.00  0.00    -0.122 C  
HETATM   16  H   UNL     1      -9.494   9.029  66.403  1.00  0.00     0.000 HD 
HETATM   17  O   UNL     1      -7.221  11.091  67.210  1.00  0.00    -0.091 OA 
BRANCH  15  18
HETATM   18  C   UNL     1      -9.388  10.909  68.128  1.00  0.00    -0.165 A  
HETATM   19  C   UNL     1      -9.514  10.573  69.467  1.00  0.00    -0.080 A  
HETATM   20  C   UNL     1      -8.742   9.787  70.452  1.00  0.00    -0.106 C  
HETATM   21  O   UNL     1     -10.671  11.083  69.950  1.00  0.00    -0.164 OA 
HETATM   22  N   UNL     1     -11.339  11.743  68.957  1.00  0.00    -0.255 NA 
HETATM   23  C   UNL     1     -10.591  11.649  67.843  1.00  0.00    -0.193 A  
BRANCH  23  24
HETATM   24  C   UNL     1     -11.070  12.292  66.609  1.00  0.00    -0.344 A  
HETATM   25  C   UNL     1     -11.437  13.642  66.561  1.00  0.00    -0.357 A  
HETATM   26  C   UNL     1     -11.926  14.212  65.380  1.00  0.00    -0.382 A  
HETATM   27  C   UNL     1     -12.077  13.435  64.234  1.00  0.00    -0.479 A  
HETATM   28  C   UNL     1     -11.730  12.089  64.263  1.00  0.00    -0.425 A  
HETATM   29  C   UNL     1     -11.228  11.523  65.440  1.00  0.00    -0.207 A  
ENDBRANCH  23  24
ENDBRANCH  15  18
ENDBRANCH  12  14
TORSDOF 3
ENDMDL
MODEL      172
REMARK 921   NORMALIZED FREE ENERGY PREDICTED BY IDOCK:   -3.32 KCAL/MOL
REMARK 922        TOTAL FREE ENERGY PREDICTED BY IDOCK:   -4.80 KCAL/MOL
REMARK 923 INTER-LIGAND FREE ENERGY PREDICTED BY IDOCK:   -4.08 KCAL/MOL
REMARK 924 INTRA-LIGAND FREE ENERGY PREDICTED BY IDOCK:   -0.72 KCAL/MOL
REMARK 927      BINDING AFFINITY PREDICTED BY RF-SCORE:    0.00 PKD
ROOT
HETATM    1  C   UNL     1     -10.122   6.436  70.210  1.00  0.00    -0.181 C  
HETATM    2  S   UNL     1      -8.289   6.493  70.354  1.00  0.00    -0.127 SA 
HETATM    3  C   UNL     1      -8.284   6.782  72.182  1.00  0.00    -0.104 C  
HETATM    4  CA  UNL     1      -9.663   6.272  72.674  1.00  0.00    -0.158 C  
HETATM    5  C   UNL     1      -7.055   6.110  72.806  1.00  0.00    -0.076 C  
HETATM    6  C   UNL     1      -8.116   8.298  72.408  1.00  0.00    -0.204 C  
HETATM    7  N   UNL     1     -10.636   6.539  71.593  1.00  0.00    -0.214 N  
HETATM    8  C   UNL     1      -9.733   4.772  73.018  1.00  0.00    -0.140 C  
HETATM    9  OXT UNL     1      -8.983   4.199  73.793  1.00  0.00    -0.093 OA 
HETATM   10  O   UNL     1     -10.784   4.129  72.447  1.00  0.00    -0.107 OA 
HETATM   11  C   UNL     1     -11.132   7.806  71.413  1.00  0.00    -0.238 C  
HETATM   12  CA  UNL     1     -10.852   7.768  69.893  1.00  0.00    -0.226 C  
HETATM   13  O   UNL     1     -11.453   8.639  72.229  1.00  0.00    -0.365 OA 
ENDROOT
BRANCH  12  14
HETATM   14  N   UNL     1     -10.014   8.868  69.341  1.00  0.00    -0.187 N  
HETATM   15  C   UNL     1     -10.129   9.241  68.016  1.00  0.00    -0.193 C  
HETATM   16  H   UNL     1      -9.350   9.351  69.946  1.00  0.00     0.000 HD 
HETATM   17  O   UNL     1     -10.979   8.732  67.294  1.00  0.00    -0.115 OA 
BRANCH  15  18
HETATM   18  C   UNL     1      -9.168  10.224  67.553  1.00  0.00    -0.153 A  
HETATM   19  C   UNL     1      -9.198  11.588  67.793  1.00  0.00    -0.165 A  
HETATM   20  C   UNL     1     -10.084  12.532  68.507  1.00  0.00    -0.186 C  
HETATM   21  O   UNL     1      -8.151  12.176  67.168  1.00  0.00    -0.167 OA 
HETATM   22  N   UNL     1      -7.424  11.236  66.494  1.00  0.00    -0.133 NA 
HETATM   23  C   UNL     1      -8.019  10.047  66.703  1.00  0.00    -0.115 A  
BRANCH  23  24
HETATM   24  C   UNL     1      -7.429   8.842  66.098  1.00  0.00    -0.090 A  
HETATM   25  C   UNL     1      -8.201   7.735  65.727  1.00  0.00    -0.132 A  
HETATM   26  C   UNL     1      -7.601   6.589  65.190  1.00  0.00    -0.090 A  
HETATM   27  C   UNL     1      -6.219   6.525  65.036  1.00  0.00    -0.038 A  
HETATM   28  C   UNL     1      -5.433   7.610  65.408  1.00  0.00    -0.033 A  
HETATM   29  C   UNL     1      -6.033   8.759  65.932  1.00  0.00    -0.051 A  
ENDBRANCH  23  24
ENDBRANCH  15  18
ENDBRANCH  12  14
TORSDOF 3
ENDMDL
MODEL      173
REMARK 921   NORMALIZED FREE ENERGY PREDICTED BY IDOCK:   -3.21 KCAL/MOL
REMARK 922        TOTAL FREE ENERGY PREDICTED BY IDOCK:   -4.67 KCAL/MOL
REMARK 923 INTER-LIGAND FREE ENERGY PREDICTED BY IDOCK:   -4.40 KCAL/MOL
REMARK 924 INTRA-LIGAND FREE ENERGY PREDICTED BY IDOCK:   -0.27 KCAL/MOL
REMARK 927      BINDING AFFINITY PREDICTED BY RF-SCORE:    0.00 PKD
ROOT
HETATM    1  C   UNL     1     -10.014   9.482  67.919  1.00  0.00    -0.172 C  
HETATM    2  S   UNL     1      -8.186   9.526  68.125  1.00  0.00    -0.114 SA 
HETATM    3  C   UNL     1      -7.835   8.464  66.651  1.00  0.00    -0.093 C  
HETATM    4  CA  UNL     1      -9.097   8.583  65.759  1.00  0.00    -0.167 C  
HETATM    5  C   UNL     1      -6.513   8.896  66.008  1.00  0.00    -0.061 C  
HETATM    6  C   UNL     1      -7.624   7.023  67.161  1.00  0.00    -0.107 C  
HETATM    7  N   UNL     1     -10.256   8.735  66.665  1.00  0.00    -0.284 N  
HETATM    8  C   UNL     1      -9.105   9.765  64.772  1.00  0.00    -0.241 C  
HETATM    9  OXT UNL     1      -8.224  10.002  63.960  1.00  0.00    -0.141 OA 
HETATM   10  O   UNL     1     -10.247  10.501  64.809  1.00  0.00    -0.341 OA 
HETATM   11  C   UNL     1     -10.774   7.640  67.309  1.00  0.00    -0.274 C  
HETATM   12  CA  UNL     1     -10.786   8.367  68.673  1.00  0.00     0.073 C  
HETATM   13  O   UNL     1     -10.934   6.508  66.912  1.00  0.00    -0.373 OA 
ENDROOT
BRANCH  12  14
HETATM   14  N   UNL     1     -10.065   7.700  69.792  1.00  0.00    -0.192 N  
HETATM   15  C   UNL     1     -10.645   6.647  70.472  1.00  0.00    -0.229 C  
HETATM   16  H   UNL     1      -9.135   8.024  70.058  1.00  0.00     0.000 HD 
HETATM   17  O   UNL     1     -11.724   6.190  70.114  1.00  0.00    -0.330 OA 
BRANCH  15  18
HETATM   18  C   UNL     1      -9.914   6.168  71.630  1.00  0.00    -0.203 A  
HETATM   19  C   UNL     1     -10.411   5.376  72.653  1.00  0.00    -0.217 A  
HETATM   20  C   UNL     1     -11.710   4.758  72.995  1.00  0.00    -0.190 C  
HETATM   21  O   UNL     1      -9.439   5.168  73.571  1.00  0.00    -0.132 OA 
HETATM   22  N   UNL     1      -8.298   5.820  73.196  1.00  0.00    -0.117 NA 
HETATM   23  C   UNL     1      -8.558   6.438  72.030  1.00  0.00    -0.126 A  
BRANCH  23  24
HETATM   24  C   UNL     1      -7.486   7.213  71.383  1.00  0.00    -0.080 A  
HETATM   25  C   UNL     1      -7.284   8.574  71.641  1.00  0.00    -0.110 A  
HETATM   26  C   UNL     1      -6.279   9.289  70.978  1.00  0.00    -0.072 A  
HETATM   27  C   UNL     1      -5.475   8.658  70.031  1.00  0.00    -0.028 A  
HETATM   28  C   UNL     1      -5.666   7.310  69.753  1.00  0.00    -0.023 A  
HETATM   29  C   UNL     1      -6.661   6.593  70.425  1.00  0.00    -0.057 A  
ENDBRANCH  23  24
ENDBRANCH  15  18
ENDBRANCH  12  14
TORSDOF 3
ENDMDL
MODEL      174
REMARK 921   NORMALIZED FREE ENERGY PREDICTED BY IDOCK:   -2.99 KCAL/MOL
REMARK 922        TOTAL FREE ENERGY PREDICTED BY IDOCK:   -4.42 KCAL/MOL
REMARK 923 INTER-LIGAND FREE ENERGY PREDICTED BY IDOCK:   -4.20 KCAL/MOL
REMARK 924 INTRA-LIGAND FREE ENERGY PREDICTED BY IDOCK:   -0.22 KCAL/MOL
REMARK 927      BINDING AFFINITY PREDICTED BY RF-SCORE:    0.00 PKD
ROOT
HETATM    1  C   UNL     1      -9.741   8.889  66.527  1.00  0.00    -0.254 C  
HETATM    2  S   UNL     1      -8.844   9.314  64.978  1.00  0.00    -0.185 SA 
HETATM    3  C   UNL     1      -7.440   8.148  65.284  1.00  0.00    -0.080 C  
HETATM    4  CA  UNL     1      -7.998   7.097  66.277  1.00  0.00    -0.110 C  
HETATM    5  C   UNL     1      -6.921   7.605  63.948  1.00  0.00    -0.062 C  
HETATM    6  C   UNL     1      -6.287   8.968  65.901  1.00  0.00    -0.056 C  
HETATM    7  N   UNL     1      -8.965   7.795  67.151  1.00  0.00    -0.123 N  
HETATM    8  C   UNL     1      -8.717   5.894  65.637  1.00  0.00    -0.146 C  
HETATM    9  OXT UNL     1      -8.237   5.171  64.778  1.00  0.00    -0.117 OA 
HETATM   10  O   UNL     1      -9.934   5.632  66.181  1.00  0.00    -0.138 OA 
HETATM   11  C   UNL     1      -8.515   8.579  68.184  1.00  0.00    -0.134 C  
HETATM   12  CA  UNL     1      -9.440   9.751  67.782  1.00  0.00    -0.133 C  
HETATM   13  O   UNL     1      -7.590   8.408  68.946  1.00  0.00    -0.092 OA 
ENDROOT
BRANCH  12  14
HETATM   14  N   UNL     1      -8.785  11.066  67.541  1.00  0.00    -0.127 N  
HETATM   15  C   UNL     1      -8.103  11.707  68.557  1.00  0.00    -0.145 C  
HETATM   16  H   UNL     1      -8.840  11.498  66.619  1.00  0.00     0.000 HD 
HETATM   17  O   UNL     1      -7.954  11.168  69.648  1.00  0.00     0.109 OA 
BRANCH  15  18
HETATM   18  C   UNL     1      -7.628  13.043  68.251  1.00  0.00    -0.135 A  
HETATM   19  C   UNL     1      -6.400  13.380  67.704  1.00  0.00    -0.155 A  
HETATM   20  C   UNL     1      -5.190  12.657  67.260  1.00  0.00     0.019 C  
HETATM   21  O   UNL     1      -6.311  14.726  67.599  1.00  0.00    -0.194 OA 
HETATM   22  N   UNL     1      -7.449  15.307  68.082  1.00  0.00    -0.107 NA 
HETATM   23  C   UNL     1      -8.261  14.315  68.489  1.00  0.00    -0.145 A  
BRANCH  23  24
HETATM   24  C   UNL     1      -9.580  14.659  69.045  1.00  0.00    -0.145 A  
HETATM   25  C   UNL     1     -10.656  13.763  69.032  1.00  0.00    -0.161 A  
HETATM   26  C   UNL     1     -11.908  14.138  69.535  1.00  0.00    -0.373 A  
HETATM   27  C   UNL     1     -12.108  15.421  70.039  1.00  0.00    -0.388 A  
HETATM   28  C   UNL     1     -11.055  16.329  70.051  1.00  0.00    -0.351 A  
HETATM   29  C   UNL     1      -9.801  15.950  69.561  1.00  0.00    -0.268 A  
ENDBRANCH  23  24
ENDBRANCH  15  18
ENDBRANCH  12  14
TORSDOF 3
ENDMDL
MODEL      175
REMARK 921   NORMALIZED FREE ENERGY PREDICTED BY IDOCK:   -2.94 KCAL/MOL
REMARK 922        TOTAL FREE ENERGY PREDICTED BY IDOCK:   -4.36 KCAL/MOL
REMARK 923 INTER-LIGAND FREE ENERGY PREDICTED BY IDOCK:   -3.94 KCAL/MOL
REMARK 924 INTRA-LIGAND FREE ENERGY PREDICTED BY IDOCK:   -0.43 KCAL/MOL
REMARK 927      BINDING AFFINITY PREDICTED BY RF-SCORE:    0.00 PKD
ROOT
HETATM    1  C   UNL     1     -10.287  10.424  67.731  1.00  0.00    -0.206 C  
HETATM    2  S   UNL     1      -8.841  10.821  68.796  1.00  0.00    -0.154 SA 
HETATM    3  C   UNL     1      -8.326  12.304  67.817  1.00  0.00    -0.162 C  
HETATM    4  CA  UNL     1      -9.600  12.742  67.050  1.00  0.00    -0.229 C  
HETATM    5  C   UNL     1      -7.709  13.350  68.752  1.00  0.00    -0.037 C  
HETATM    6  C   UNL     1      -7.202  11.856  66.859  1.00  0.00    -0.074 C  
HETATM    7  N   UNL     1     -10.361  11.515  66.734  1.00  0.00    -0.219 N  
HETATM    8  C   UNL     1     -10.536  13.701  67.809  1.00  0.00    -0.240 C  
HETATM    9  OXT UNL     1     -10.191  14.760  68.312  1.00  0.00    -0.220 OA 
HETATM   10  O   UNL     1     -11.838  13.315  67.801  1.00  0.00    -0.342 OA 
HETATM   11  C   UNL     1      -9.969  10.713  65.692  1.00  0.00    -0.268 C  
HETATM   12  CA  UNL     1     -10.056   9.435  66.558  1.00  0.00    -0.262 C  
HETATM   13  O   UNL     1      -9.540  11.009  64.600  1.00  0.00    -0.227 OA 
ENDROOT
BRANCH  12  14
HETATM   14  N   UNL     1      -8.829   8.594  66.632  1.00  0.00    -0.128 N  
HETATM   15  C   UNL     1      -8.352   7.949  65.508  1.00  0.00    -0.147 C  
HETATM   16  H   UNL     1      -8.337   8.493  67.520  1.00  0.00     0.000 HD 
HETATM   17  O   UNL     1      -8.879   8.124  64.415  1.00  0.00     0.151 OA 
BRANCH  15  18
HETATM   18  C   UNL     1      -7.237   7.047  65.726  1.00  0.00    -0.073 A  
HETATM   19  C   UNL     1      -6.073   6.973  64.978  1.00  0.00    -0.037 A  
HETATM   20  C   UNL     1      -5.516   7.657  63.791  1.00  0.00    -0.041 C  
HETATM   21  O   UNL     1      -5.287   5.986  65.468  1.00  0.00    -0.012 OA 
HETATM   22  N   UNL     1      -5.907   5.379  66.524  1.00  0.00    -0.018 NA 
HETATM   23  C   UNL     1      -7.090   5.995  66.699  1.00  0.00    -0.072 A  
BRANCH  23  24
HETATM   24  C   UNL     1      -7.968   5.548  67.792  1.00  0.00    -0.101 A  
HETATM   25  C   UNL     1      -7.948   6.140  69.060  1.00  0.00    -0.108 A  
HETATM   26  C   UNL     1      -8.770   5.663  70.089  1.00  0.00    -0.140 A  
HETATM   27  C   UNL     1      -9.609   4.573  69.871  1.00  0.00    -0.269 A  
HETATM   28  C   UNL     1      -9.635   3.963  68.621  1.00  0.00    -0.181 A  
HETATM   29  C   UNL     1      -8.824   4.448  67.590  1.00  0.00    -0.121 A  
ENDBRANCH  23  24
ENDBRANCH  15  18
ENDBRANCH  12  14
TORSDOF 3
ENDMDL
MODEL      176
REMARK 921   NORMALIZED FREE ENERGY PREDICTED BY IDOCK:   -2.88 KCAL/MOL
REMARK 922        TOTAL FREE ENERGY PREDICTED BY IDOCK:   -4.29 KCAL/MOL
REMARK 923 INTER-LIGAND FREE ENERGY PREDICTED BY IDOCK:   -2.83 KCAL/MOL
REMARK 924 INTRA-LIGAND FREE ENERGY PREDICTED BY IDOCK:   -1.46 KCAL/MOL
REMARK 927      BINDING AFFINITY PREDICTED BY RF-SCORE:    0.00 PKD
ROOT
HETATM    1  C   UNL     1      -9.437   5.798  68.596  1.00  0.00    -0.123 C  
HETATM    2  S   UNL     1      -9.480   4.248  67.606  1.00  0.00    -0.171 SA 
HETATM    3  C   UNL     1      -8.355   3.309  68.735  1.00  0.00    -0.065 C  
HETATM    4  CA  UNL     1      -8.443   4.045  70.096  1.00  0.00    -0.064 C  
HETATM    5  C   UNL     1      -8.752   1.828  68.743  1.00  0.00    -0.111 C  
HETATM    6  C   UNL     1      -6.936   3.378  68.133  1.00  0.00    -0.050 C  
HETATM    7  N   UNL     1      -8.640   5.481  69.801  1.00  0.00    -0.111 N  
HETATM    8  C   UNL     1      -9.583   3.589  71.026  1.00  0.00    -0.173 C  
HETATM    9  OXT UNL     1      -9.780   2.436  71.374  1.00  0.00    -0.148 OA 
HETATM   10  O   UNL     1     -10.325   4.613  71.523  1.00  0.00    -0.182 OA 
HETATM   11  C   UNL     1      -7.575   6.255  69.413  1.00  0.00    -0.098 C  
HETATM   12  CA  UNL     1      -8.360   6.850  68.221  1.00  0.00    -0.123 C  
HETATM   13  O   UNL     1      -6.428   6.250  69.799  1.00  0.00    -0.039 OA 
ENDROOT
BRANCH  12  14
HETATM   14  N   UNL     1      -7.737   6.712  66.876  1.00  0.00    -0.104 N  
HETATM   15  C   UNL     1      -8.409   7.130  65.745  1.00  0.00    -0.143 C  
HETATM   16  H   UNL     1      -6.805   6.306  66.790  1.00  0.00     0.000 HD 
HETATM   17  O   UNL     1      -9.492   7.697  65.834  1.00  0.00    -0.035 OA 
BRANCH  15  18
HETATM   18  C   UNL     1      -7.768   6.818  64.481  1.00  0.00    -0.113 A  
HETATM   19  C   UNL     1      -7.089   7.701  63.657  1.00  0.00    -0.070 A  
HETATM   20  C   UNL     1      -6.761   9.143  63.670  1.00  0.00    -0.090 C  
HETATM   21  O   UNL     1      -6.663   7.046  62.552  1.00  0.00    -0.050 OA 
HETATM   22  N   UNL     1      -7.058   5.739  62.606  1.00  0.00    -0.046 NA 
HETATM   23  C   UNL     1      -7.734   5.574  63.757  1.00  0.00    -0.086 A  
BRANCH  23  24
HETATM   24  C   UNL     1      -8.267   4.241  64.083  1.00  0.00    -0.099 A  
HETATM   25  C   UNL     1      -7.461   3.214  64.588  1.00  0.00    -0.075 A  
HETATM   26  C   UNL     1      -7.993   1.946  64.850  1.00  0.00    -0.073 A  
HETATM   27  C   UNL     1      -9.335   1.679  64.590  1.00  0.00    -0.118 A  
HETATM   28  C   UNL     1     -10.151   2.682  64.077  1.00  0.00    -0.111 A  
HETATM   29  C   UNL     1      -9.621   3.953  63.828  1.00  0.00    -0.157 A  
ENDBRANCH  23  24
ENDBRANCH  15  18
ENDBRANCH  12  14
TORSDOF 3
ENDMDL
MODEL      177
REMARK 921   NORMALIZED FREE ENERGY PREDICTED BY IDOCK:   -2.88 KCAL/MOL
REMARK 922        TOTAL FREE ENERGY PREDICTED BY IDOCK:   -4.29 KCAL/MOL
REMARK 923 INTER-LIGAND FREE ENERGY PREDICTED BY IDOCK:   -2.93 KCAL/MOL
REMARK 924 INTRA-LIGAND FREE ENERGY PREDICTED BY IDOCK:   -1.35 KCAL/MOL
REMARK 927      BINDING AFFINITY PREDICTED BY RF-SCORE:    0.00 PKD
ROOT
HETATM    1  C   UNL     1      -8.711  12.874  66.732  1.00  0.00    -0.106 C  
HETATM    2  S   UNL     1      -9.804  11.413  66.490  1.00  0.00    -0.215 SA 
HETATM    3  C   UNL     1     -11.359  12.301  66.956  1.00  0.00    -0.334 C  
HETATM    4  CA  UNL     1     -11.045  13.804  66.740  1.00  0.00    -0.308 C  
HETATM    5  C   UNL     1     -12.535  11.736  66.152  1.00  0.00     1.669 C  
HETATM    6  C   UNL     1     -11.647  11.979  68.437  1.00  0.00    -0.368 C  
HETATM    7  N   UNL     1      -9.615  13.999  67.059  1.00  0.00    -0.244 N  
HETATM    8  C   UNL     1     -11.293  14.337  65.317  1.00  0.00    -0.336 C  
HETATM    9  OXT UNL     1     -12.345  14.229  64.705  1.00  0.00    -0.493 OA 
HETATM   10  O   UNL     1     -10.249  15.041  64.807  1.00  0.00    -0.308 OA 
HETATM   11  C   UNL     1      -9.205  14.067  68.367  1.00  0.00    -0.196 C  
HETATM   12  CA  UNL     1      -8.063  13.053  68.130  1.00  0.00    -0.155 C  
HETATM   13  O   UNL     1      -9.732  14.594  69.321  1.00  0.00    -0.156 OA 
ENDROOT
BRANCH  12  14
HETATM   14  N   UNL     1      -8.042  11.853  69.010  1.00  0.00    -0.358 N  
HETATM   15  C   UNL     1      -6.859  11.185  69.260  1.00  0.00    -0.110 C  
HETATM   16  H   UNL     1      -8.909  11.520  69.433  1.00  0.00     0.000 HD 
HETATM   17  O   UNL     1      -5.795  11.616  68.830  1.00  0.00    -0.047 OA 
BRANCH  15  18
HETATM   18  C   UNL     1      -6.980   9.952  70.013  1.00  0.00    -0.119 A  
HETATM   19  C   UNL     1      -6.371   9.658  71.223  1.00  0.00     0.021 A  
HETATM   20  C   UNL     1      -5.454  10.345  72.156  1.00  0.00     0.281 C  
HETATM   21  O   UNL     1      -6.696   8.397  71.594  1.00  0.00    -0.060 OA 
HETATM   22  N   UNL     1      -7.499   7.826  70.646  1.00  0.00    -0.069 NA 
HETATM   23  C   UNL     1      -7.682   8.740  69.677  1.00  0.00    -0.088 A  
BRANCH  23  24
HETATM   24  C   UNL     1      -8.530   8.393  68.525  1.00  0.00    -0.132 A  
HETATM   25  C   UNL     1      -9.925   8.315  68.617  1.00  0.00    -0.203 A  
HETATM   26  C   UNL     1     -10.698   7.944  67.511  1.00  0.00    -0.252 A  
HETATM   27  C   UNL     1     -10.087   7.623  66.301  1.00  0.00     0.050 A  
HETATM   28  C   UNL     1      -8.702   7.683  66.192  1.00  0.00    -0.176 A  
HETATM   29  C   UNL     1      -7.931   8.067  67.293  1.00  0.00    -0.121 A  
ENDBRANCH  23  24
ENDBRANCH  15  18
ENDBRANCH  12  14
TORSDOF 3
ENDMDL
MODEL      178
REMARK 921   NORMALIZED FREE ENERGY PREDICTED BY IDOCK:   -2.84 KCAL/MOL
REMARK 922        TOTAL FREE ENERGY PREDICTED BY IDOCK:   -4.24 KCAL/MOL
REMARK 923 INTER-LIGAND FREE ENERGY PREDICTED BY IDOCK:   -4.08 KCAL/MOL
REMARK 924 INTRA-LIGAND FREE ENERGY PREDICTED BY IDOCK:   -0.16 KCAL/MOL
REMARK 927      BINDING AFFINITY PREDICTED BY RF-SCORE:    0.00 PKD
ROOT
HETATM    1  C   UNL     1      -6.829   8.097  67.364  1.00  0.00    -0.074 C  
HETATM    2  S   UNL     1      -7.272   8.314  69.136  1.00  0.00    -0.073 SA 
HETATM    3  C   UNL     1      -8.115   6.674  69.290  1.00  0.00    -0.116 C  
HETATM    4  CA  UNL     1      -7.536   5.814  68.138  1.00  0.00    -0.078 C  
HETATM    5  C   UNL     1      -7.917   6.124  70.707  1.00  0.00    -0.115 C  
HETATM    6  C   UNL     1      -9.629   6.917  69.122  1.00  0.00    -0.144 C  
HETATM    7  N   UNL     1      -7.262   6.728  67.008  1.00  0.00    -0.079 N  
HETATM    8  C   UNL     1      -6.235   5.056  68.463  1.00  0.00    -0.031 C  
HETATM    9  OXT UNL     1      -6.085   4.303  69.412  1.00  0.00    -0.025 OA 
HETATM   10  O   UNL     1      -5.259   5.221  67.532  1.00  0.00    -0.004 OA 
HETATM   11  C   UNL     1      -8.292   7.162  66.211  1.00  0.00    -0.129 C  
HETATM   12  CA  UNL     1      -7.832   8.635  66.310  1.00  0.00    -0.102 C  
HETATM   13  O   UNL     1      -9.263   6.568  65.801  1.00  0.00    -0.062 OA 
ENDROOT
BRANCH  12  14
HETATM   14  N   UNL     1      -8.840   9.618  66.794  1.00  0.00    -0.134 N  
HETATM   15  C   UNL     1      -9.907   9.981  65.996  1.00  0.00    -0.257 C  
HETATM   16  H   UNL     1      -8.742  10.027  67.724  1.00  0.00     0.000 HD 
HETATM   17  O   UNL     1     -10.089   9.440  64.911  1.00  0.00     0.204 OA 
BRANCH  15  18
HETATM   18  C   UNL     1     -10.744  11.047  66.511  1.00  0.00    -0.298 A  
HETATM   19  C   UNL     1     -11.180  12.166  65.819  1.00  0.00    -0.339 A  
HETATM   20  C   UNL     1     -11.015  12.715  64.457  1.00  0.00    -0.365 C  
HETATM   21  O   UNL     1     -11.912  12.948  66.647  1.00  0.00    -0.397 OA 
HETATM   22  N   UNL     1     -11.963  12.387  67.892  1.00  0.00    -0.440 NA 
HETATM   23  C   UNL     1     -11.261  11.241  67.842  1.00  0.00    -0.290 A  
BRANCH  23  24
HETATM   24  C   UNL     1     -11.162  10.415  69.056  1.00  0.00    -0.289 A  
HETATM   25  C   UNL     1     -12.258   9.721  69.582  1.00  0.00     0.439 A  
HETATM   26  C   UNL     1     -12.138   8.977  70.761  1.00  0.00    -0.169 A  
HETATM   27  C   UNL     1     -10.925   8.931  71.444  1.00  0.00    -0.380 A  
HETATM   28  C   UNL     1      -9.826   9.622  70.944  1.00  0.00    -0.168 A  
HETATM   29  C   UNL     1      -9.944  10.355  69.759  1.00  0.00    -0.167 A  
ENDBRANCH  23  24
ENDBRANCH  15  18
ENDBRANCH  12  14
TORSDOF 3
ENDMDL
MODEL      179
REMARK 921   NORMALIZED FREE ENERGY PREDICTED BY IDOCK:   -2.77 KCAL/MOL
REMARK 922        TOTAL FREE ENERGY PREDICTED BY IDOCK:   -4.15 KCAL/MOL
REMARK 923 INTER-LIGAND FREE ENERGY PREDICTED BY IDOCK:   -3.85 KCAL/MOL
REMARK 924 INTRA-LIGAND FREE ENERGY PREDICTED BY IDOCK:   -0.30 KCAL/MOL
REMARK 927      BINDING AFFINITY PREDICTED BY RF-SCORE:    0.00 PKD
ROOT
HETATM    1  C   UNL     1      -7.105   8.300  69.773  1.00  0.00    -0.056 C  
HETATM    2  S   UNL     1      -7.612   7.884  68.054  1.00  0.00    -0.115 SA 
HETATM    3  C   UNL     1      -9.086   9.004  68.049  1.00  0.00    -0.136 C  
HETATM    4  CA  UNL     1      -8.801  10.048  69.159  1.00  0.00    -0.168 C  
HETATM    5  C   UNL     1      -9.304   9.562  66.638  1.00  0.00    -0.207 C  
HETATM    6  C   UNL     1     -10.322   8.140  68.374  1.00  0.00    -0.236 C  
HETATM    7  N   UNL     1      -8.038   9.358  70.220  1.00  0.00    -0.148 N  
HETATM    8  C   UNL     1      -7.994  11.284  68.718  1.00  0.00    -0.137 C  
HETATM    9  OXT UNL     1      -8.289  12.013  67.784  1.00  0.00    -0.139 OA 
HETATM   10  O   UNL     1      -6.942  11.568  69.530  1.00  0.00    -0.107 OA 
HETATM   11  C   UNL     1      -8.685   8.539  71.111  1.00  0.00    -0.174 C  
HETATM   12  CA  UNL     1      -7.656   7.402  70.912  1.00  0.00    -0.083 C  
HETATM   13  O   UNL     1      -9.764   8.668  71.644  1.00  0.00    -0.223 OA 
ENDROOT
BRANCH  12  14
HETATM   14  N   UNL     1      -8.197   6.075  70.509  1.00  0.00    -0.111 N  
HETATM   15  C   UNL     1      -8.951   5.327  71.391  1.00  0.00    -0.141 C  
HETATM   16  H   UNL     1      -8.009   5.715  69.573  1.00  0.00     0.000 HD 
HETATM   17  O   UNL     1      -9.258   5.777  72.489  1.00  0.00    -0.143 OA 
BRANCH  15  18
HETATM   18  C   UNL     1      -9.305   3.993  70.943  1.00  0.00    -0.221 A  
HETATM   19  C   UNL     1      -9.508   2.878  71.740  1.00  0.00    -0.136 A  
HETATM   20  C   UNL     1      -9.458   2.570  73.184  1.00  0.00    -0.122 C  
HETATM   21  O   UNL     1      -9.788   1.812  70.955  1.00  0.00    -0.105 OA 
HETATM   22  N   UNL     1      -9.759   2.181  69.639  1.00  0.00     0.050 NA 
HETATM   23  C   UNL     1      -9.463   3.493  69.601  1.00  0.00    -0.165 A  
BRANCH  23  24
HETATM   24  C   UNL     1      -9.382   4.165  68.294  1.00  0.00    -0.214 A  
HETATM   25  C   UNL     1      -8.192   4.231  67.558  1.00  0.00    -0.099 A  
HETATM   26  C   UNL     1      -8.141   4.912  66.336  1.00  0.00    -0.107 A  
HETATM   27  C   UNL     1      -9.273   5.555  65.841  1.00  0.00    -0.158 A  
HETATM   28  C   UNL     1     -10.462   5.510  66.562  1.00  0.00    -0.331 A  
HETATM   29  C   UNL     1     -10.516   4.819  67.776  1.00  0.00     0.081 A  
ENDBRANCH  23  24
ENDBRANCH  15  18
ENDBRANCH  12  14
TORSDOF 3
ENDMDL
MODEL      180
REMARK 921   NORMALIZED FREE ENERGY PREDICTED BY IDOCK:   -2.09 KCAL/MOL
REMARK 922        TOTAL FREE ENERGY PREDICTED BY IDOCK:   -3.36 KCAL/MOL
REMARK 923 INTER-LIGAND FREE ENERGY PREDICTED BY IDOCK:   -2.99 KCAL/MOL
REMARK 924 INTRA-LIGAND FREE ENERGY PREDICTED BY IDOCK:   -0.37 KCAL/MOL
REMARK 927      BINDING AFFINITY PREDICTED BY RF-SCORE:    0.00 PKD
ROOT
HETATM    1  C   UNL     1     -12.033   9.642  68.846  1.00  0.00     1.038 C  
HETATM    2  S   UNL     1     -10.709   8.375  69.008  1.00  0.00    -0.005 SA 
HETATM    3  C   UNL     1     -10.720   8.373  70.859  1.00  0.00    -0.222 C  
HETATM    4  CA  UNL     1     -12.111   8.932  71.254  1.00  0.00    -0.306 C  
HETATM    5  C   UNL     1     -10.388   6.967  71.374  1.00  0.00    -0.211 C  
HETATM    6  C   UNL     1      -9.574   9.293  71.328  1.00  0.00    -0.272 C  
HETATM    7  N   UNL     1     -12.489   9.924  70.225  1.00  0.00    -0.044 N  
HETATM    8  C   UNL     1     -13.243   7.892  71.352  1.00  0.00    -0.245 C  
HETATM    9  OXT UNL     1     -13.200   6.876  72.028  1.00  0.00    -0.236 OA 
HETATM   10  O   UNL     1     -14.368   8.244  70.677  1.00  0.00     0.260 OA 
HETATM   11  C   UNL     1     -11.940  11.181  70.248  1.00  0.00    -0.373 C  
HETATM   12  CA  UNL     1     -11.588  11.125  68.743  1.00  0.00    -0.322 C  
HETATM   13  O   UNL     1     -11.685  11.902  71.186  1.00  0.00     0.364 OA 
ENDROOT
BRANCH  12  14
HETATM   14  N   UNL     1     -10.165  11.368  68.380  1.00  0.00    -0.192 N  
HETATM   15  C   UNL     1      -9.645  12.647  68.392  1.00  0.00    -0.173 C  
HETATM   16  H   UNL     1      -9.568  10.582  68.121  1.00  0.00     0.000 HD 
HETATM   17  O   UNL     1     -10.321  13.593  68.781  1.00  0.00    -0.231 OA 
BRANCH  15  18
HETATM   18  C   UNL     1      -8.293  12.781  67.887  1.00  0.00    -0.172 A  
HETATM   19  C   UNL     1      -7.517  13.930  67.892  1.00  0.00    -0.152 A  
HETATM   20  C   UNL     1      -7.681  15.332  68.331  1.00  0.00    -0.124 C  
HETATM   21  O   UNL     1      -6.327  13.669  67.303  1.00  0.00    -0.300 OA 
HETATM   22  N   UNL     1      -6.290  12.369  66.883  1.00  0.00    -0.152 NA 
HETATM   23  C   UNL     1      -7.467  11.810  67.217  1.00  0.00    -0.151 A  
BRANCH  23  24
HETATM   24  C   UNL     1      -7.697  10.392  66.893  1.00  0.00    -0.111 A  
HETATM   25  C   UNL     1      -8.665   9.981  65.970  1.00  0.00    -0.152 A  
HETATM   26  C   UNL     1      -8.884   8.622  65.715  1.00  0.00    -0.231 A  
HETATM   27  C   UNL     1      -8.151   7.652  66.396  1.00  0.00    -0.113 A  
HETATM   28  C   UNL     1      -7.192   8.039  67.325  1.00  0.00    -0.087 A  
HETATM   29  C   UNL     1      -6.965   9.397  67.569  1.00  0.00    -0.077 A  
ENDBRANCH  23  24
ENDBRANCH  15  18
ENDBRANCH  12  14
TORSDOF 3
ENDMDL
MODEL      181
REMARK 921   NORMALIZED FREE ENERGY PREDICTED BY IDOCK:   -1.13 KCAL/MOL
REMARK 922        TOTAL FREE ENERGY PREDICTED BY IDOCK:   -2.23 KCAL/MOL
REMARK 923 INTER-LIGAND FREE ENERGY PREDICTED BY IDOCK:   -3.30 KCAL/MOL
REMARK 924 INTRA-LIGAND FREE ENERGY PREDICTED BY IDOCK:    1.08 KCAL/MOL
REMARK 927      BINDING AFFINITY PREDICTED BY RF-SCORE:    0.00 PKD
ROOT
HETATM    1  C   UNL     1      -9.857  12.342  65.766  1.00  0.00    -0.244 C  
HETATM    2  S   UNL     1     -11.231  11.989  66.938  1.00  0.00    -0.335 SA 
HETATM    3  C   UNL     1     -10.720  13.271  68.171  1.00  0.00    -0.249 C  
HETATM    4  CA  UNL     1      -9.851  14.275  67.371  1.00  0.00    -0.235 C  
HETATM    5  C   UNL     1     -11.963  13.852  68.855  1.00  0.00    -0.393 C  
HETATM    6  C   UNL     1      -9.909  12.555  69.271  1.00  0.00     0.624 C  
HETATM    7  N   UNL     1      -9.134  13.500  66.335  1.00  0.00    -0.117 N  
HETATM    8  C   UNL     1     -10.621  15.409  66.669  1.00  0.00    -0.306 C  
HETATM    9  OXT UNL     1     -11.402  16.168  67.222  1.00  0.00    -0.084 OA 
HETATM   10  O   UNL     1     -10.288  15.569  65.362  1.00  0.00    -0.350 OA 
HETATM   11  C   UNL     1      -8.028  12.761  66.673  1.00  0.00     0.314 C  
HETATM   12  CA  UNL     1      -8.556  11.513  65.928  1.00  0.00     0.009 C  
HETATM   13  O   UNL     1      -7.129  13.013  67.442  1.00  0.00    -0.157 OA 
ENDROOT
BRANCH  12  14
HETATM   14  N   UNL     1      -8.663  10.257  66.720  1.00  0.00    -0.126 N  
HETATM   15  C   UNL     1      -7.807  10.020  67.778  1.00  0.00    -0.094 C  
HETATM   16  H   UNL     1      -9.374   9.566  66.481  1.00  0.00     0.000 HD 
HETATM   17  O   UNL     1      -7.002  10.872  68.135  1.00  0.00    -0.067 OA 
BRANCH  15  18
HETATM   18  C   UNL     1      -7.909   8.707  68.387  1.00  0.00    -0.105 A  
HETATM   19  C   UNL     1      -7.094   7.614  68.139  1.00  0.00    -0.081 A  
HETATM   20  C   UNL     1      -5.936   7.315  67.271  1.00  0.00    -0.041 C  
HETATM   21  O   UNL     1      -7.524   6.560  68.872  1.00  0.00    -0.090 OA 
HETATM   22  N   UNL     1      -8.626   6.916  69.597  1.00  0.00    -0.133 NA 
HETATM   23  C   UNL     1      -8.886   8.206  69.320  1.00  0.00    -0.144 A  
BRANCH  23  24
HETATM   24  C   UNL     1     -10.025   8.860  69.984  1.00  0.00    -0.204 A  
HETATM   25  C   UNL     1     -10.162   8.894  71.377  1.00  0.00    -0.375 A  
HETATM   26  C   UNL     1     -11.279   9.490  71.974  1.00  0.00     0.105 A  
HETATM   27  C   UNL     1     -12.287  10.043  71.187  1.00  0.00    -0.477 A  
HETATM   28  C   UNL     1     -12.175  10.010  69.801  1.00  0.00     0.119 A  
HETATM   29  C   UNL     1     -11.053   9.426  69.205  1.00  0.00    -0.068 A  
ENDBRANCH  23  24
ENDBRANCH  15  18
ENDBRANCH  12  14
TORSDOF 3
ENDMDL
MODEL      182
REMARK 921   NORMALIZED FREE ENERGY PREDICTED BY IDOCK:   -1.06 KCAL/MOL
REMARK 922        TOTAL FREE ENERGY PREDICTED BY IDOCK:   -2.15 KCAL/MOL
REMARK 923 INTER-LIGAND FREE ENERGY PREDICTED BY IDOCK:   -2.68 KCAL/MOL
REMARK 924 INTRA-LIGAND FREE ENERGY PREDICTED BY IDOCK:    0.53 KCAL/MOL
REMARK 927      BINDING AFFINITY PREDICTED BY RF-SCORE:    0.00 PKD
ROOT
HETATM    1  C   UNL     1     -10.533  10.320  67.913  1.00  0.00    -0.212 C  
HETATM    2  S   UNL     1      -9.042  10.602  68.953  1.00  0.00    -0.162 SA 
HETATM    3  C   UNL     1      -8.511  12.131  68.056  1.00  0.00    -0.170 C  
HETATM    4  CA  UNL     1      -9.793  12.657  67.363  1.00  0.00    -0.205 C  
HETATM    5  C   UNL     1      -7.832  13.094  69.037  1.00  0.00     0.233 C  
HETATM    6  C   UNL     1      -7.433  11.715  67.035  1.00  0.00    -0.150 C  
HETATM    7  N   UNL     1     -10.603  11.476  66.993  1.00  0.00    -0.231 N  
HETATM    8  C   UNL     1     -10.675  13.591  68.214  1.00  0.00    -0.258 C  
HETATM    9  OXT UNL     1     -10.282  14.603  68.773  1.00  0.00    -0.231 OA 
HETATM   10  O   UNL     1     -11.988  13.244  68.223  1.00  0.00    -0.342 OA 
HETATM   11  C   UNL     1     -10.269  10.734  65.887  1.00  0.00    -0.259 C  
HETATM   12  CA  UNL     1     -10.369   9.405  66.671  1.00  0.00    -0.214 C  
HETATM   13  O   UNL     1      -9.865  11.090  64.804  1.00  0.00    -0.235 OA 
ENDROOT
BRANCH  12  14
HETATM   14  N   UNL     1      -9.169   8.525  66.648  1.00  0.00    -0.165 N  
HETATM   15  C   UNL     1      -8.464   8.328  65.477  1.00  0.00    -0.161 C  
HETATM   16  H   UNL     1      -8.863   8.064  67.506  1.00  0.00     0.000 HD 
HETATM   17  O   UNL     1      -8.765   8.937  64.457  1.00  0.00    -0.168 OA 
BRANCH  15  18
HETATM   18  C   UNL     1      -7.401   7.344  65.540  1.00  0.00    -0.074 A  
HETATM   19  C   UNL     1      -6.048   7.596  65.704  1.00  0.00    -0.038 A  
HETATM   20  C   UNL     1      -5.191   8.791  65.854  1.00  0.00    -0.033 C  
HETATM   21  O   UNL     1      -5.368   6.426  65.678  1.00  0.00    -0.013 OA 
HETATM   22  N   UNL     1      -6.235   5.388  65.482  1.00  0.00    -0.033 NA 
HETATM   23  C   UNL     1      -7.470   5.913  65.388  1.00  0.00    -0.082 A  
BRANCH  23  24
HETATM   24  C   UNL     1      -8.612   5.008  65.188  1.00  0.00    -0.148 A  
HETATM   25  C   UNL     1      -8.725   4.179  64.064  1.00  0.00    -0.118 A  
HETATM   26  C   UNL     1      -9.845   3.359  63.887  1.00  0.00    -0.166 A  
HETATM   27  C   UNL     1     -10.880   3.370  64.819  1.00  0.00     0.468 A  
HETATM   28  C   UNL     1     -10.793   4.194  65.936  1.00  0.00     0.678 A  
HETATM   29  C   UNL     1      -9.668   5.003  66.119  1.00  0.00    -0.196 A  
ENDBRANCH  23  24
ENDBRANCH  15  18
ENDBRANCH  12  14
TORSDOF 3
ENDMDL
MODEL      183
REMARK 921   NORMALIZED FREE ENERGY PREDICTED BY IDOCK:   -0.05 KCAL/MOL
REMARK 922        TOTAL FREE ENERGY PREDICTED BY IDOCK:   -0.96 KCAL/MOL
REMARK 923 INTER-LIGAND FREE ENERGY PREDICTED BY IDOCK:   -0.75 KCAL/MOL
REMARK 924 INTRA-LIGAND FREE ENERGY PREDICTED BY IDOCK:   -0.21 KCAL/MOL
REMARK 927      BINDING AFFINITY PREDICTED BY RF-SCORE:    0.00 PKD
ROOT
HETATM    1  C   UNL     1      -7.329  14.116  67.076  1.00  0.00     0.402 C  
HETATM    2  S   UNL     1      -6.038  14.858  68.157  1.00  0.00    -0.150 SA 
HETATM    3  C   UNL     1      -6.724  14.157  69.726  1.00  0.00    -0.065 C  
HETATM    4  CA  UNL     1      -7.582  12.944  69.283  1.00  0.00     0.388 C  
HETATM    5  C   UNL     1      -5.578  13.852  70.698  1.00  0.00    -0.161 C  
HETATM    6  C   UNL     1      -7.579  15.257  70.387  1.00  0.00     0.708 C  
HETATM    7  N   UNL     1      -8.164  13.281  67.966  1.00  0.00    -0.150 N  
HETATM    8  C   UNL     1      -6.825  11.610  69.142  1.00  0.00    -0.111 C  
HETATM    9  OXT UNL     1      -6.139  11.102  70.015  1.00  0.00    -0.102 OA 
HETATM   10  O   UNL     1      -7.058  10.970  67.966  1.00  0.00    -0.075 OA 
HETATM   11  C   UNL     1      -9.248  14.118  67.888  1.00  0.00    -0.196 C  
HETATM   12  CA  UNL     1      -8.588  14.974  66.782  1.00  0.00    -0.244 C  
HETATM   13  O   UNL     1     -10.221  14.200  68.602  1.00  0.00    -0.234 OA 
ENDROOT
BRANCH  12  14
HETATM   14  N   UNL     1      -8.473  16.434  67.047  1.00  0.00    -0.182 N  
HETATM   15  C   UNL     1      -9.565  17.265  66.890  1.00  0.00    -0.268 C  
HETATM   16  H   UNL     1      -7.580  16.825  67.348  1.00  0.00     0.000 HD 
HETATM   17  O   UNL     1     -10.666  16.804  66.611  1.00  0.00    -0.236 OA 
BRANCH  15  18
HETATM   18  C   UNL     1      -9.303  18.684  67.038  1.00  0.00    -0.301 A  
HETATM   19  C   UNL     1      -9.942  19.718  66.373  1.00  0.00    -0.470 A  
HETATM   20  C   UNL     1     -11.008  19.841  65.357  1.00  0.00    -0.014 C  
HETATM   21  O   UNL     1      -9.398  20.898  66.751  1.00  0.00    -0.143 OA 
HETATM   22  N   UNL     1      -8.389  20.679  67.647  1.00  0.00    -0.187 NA 
HETATM   23  C   UNL     1      -8.305  19.350  67.835  1.00  0.00    -0.308 A  
BRANCH  23  24
HETATM   24  C   UNL     1      -7.299  18.828  68.774  1.00  0.00    -0.342 A  
HETATM   25  C   UNL     1      -7.420  18.978  70.161  1.00  0.00     0.885 A  
HETATM   26  C   UNL     1      -6.425  18.503  71.024  1.00  0.00     1.442 A  
HETATM   27  C   UNL     1      -5.283  17.891  70.512  1.00  0.00    -0.276 A  
HETATM   28  C   UNL     1      -5.138  17.743  69.137  1.00  0.00    -0.175 A  
HETATM   29  C   UNL     1      -6.139  18.205  68.277  1.00  0.00    -0.183 A  
ENDBRANCH  23  24
ENDBRANCH  15  18
ENDBRANCH  12  14
TORSDOF 3
ENDMDL
MODEL      184
REMARK 921   NORMALIZED FREE ENERGY PREDICTED BY IDOCK:    0.91 KCAL/MOL
REMARK 922        TOTAL FREE ENERGY PREDICTED BY IDOCK:    0.17 KCAL/MOL
REMARK 923 INTER-LIGAND FREE ENERGY PREDICTED BY IDOCK:    0.69 KCAL/MOL
REMARK 924 INTRA-LIGAND FREE ENERGY PREDICTED BY IDOCK:   -0.52 KCAL/MOL
REMARK 927      BINDING AFFINITY PREDICTED BY RF-SCORE:    0.00 PKD
ROOT
HETATM    1  C   UNL     1      -6.672  14.564  67.185  1.00  0.00     0.465 C  
HETATM    2  S   UNL     1      -6.379  15.188  68.890  1.00  0.00    -0.094 SA 
HETATM    3  C   UNL     1      -7.093  13.701  69.728  1.00  0.00     0.332 C  
HETATM    4  CA  UNL     1      -7.016  12.569  68.672  1.00  0.00    -0.091 C  
HETATM    5  C   UNL     1      -6.351  13.445  71.045  1.00  0.00     0.645 C  
HETATM    6  C   UNL     1      -8.550  14.040  70.105  1.00  0.00     2.104 C  
HETATM    7  N   UNL     1      -7.211  13.196  67.347  1.00  0.00    -0.144 N  
HETATM    8  C   UNL     1      -5.693  11.781  68.636  1.00  0.00    -0.045 C  
HETATM    9  OXT UNL     1      -5.181  11.234  69.600  1.00  0.00    -0.044 OA 
HETATM   10  O   UNL     1      -5.165  11.657  67.390  1.00  0.00    -0.051 OA 
HETATM   11  C   UNL     1      -8.472  13.545  66.930  1.00  0.00    -0.048 C  
HETATM   12  CA  UNL     1      -8.010  14.958  66.505  1.00  0.00     0.475 C  
HETATM   13  O   UNL     1      -9.526  12.968  67.074  1.00  0.00    -0.221 OA 
ENDROOT
BRANCH  12  14
HETATM   14  N   UNL     1      -8.744  16.108  67.100  1.00  0.00    -0.185 N  
HETATM   15  C   UNL     1      -8.649  17.367  66.541  1.00  0.00    -0.261 C  
HETATM   16  H   UNL     1      -9.322  15.964  67.928  1.00  0.00     0.000 HD 
HETATM   17  O   UNL     1      -8.028  17.543  65.499  1.00  0.00    -0.354 OA 
BRANCH  15  18
HETATM   18  C   UNL     1      -9.290  18.435  67.284  1.00  0.00    -0.271 A  
HETATM   19  C   UNL     1      -9.081  19.796  67.124  1.00  0.00    -0.330 A  
HETATM   20  C   UNL     1      -8.237  20.658  66.271  1.00  0.00     0.140 C  
HETATM   21  O   UNL     1      -9.835  20.473  68.022  1.00  0.00    -0.313 OA 
HETATM   22  N   UNL     1     -10.535  19.593  68.799  1.00  0.00    -0.216 NA 
HETATM   23  C   UNL     1     -10.221  18.354  68.380  1.00  0.00    -0.378 A  
BRANCH  23  24
HETATM   24  C   UNL     1     -10.853  17.200  69.040  1.00  0.00    -0.129 A  
HETATM   25  C   UNL     1     -11.760  16.363  68.380  1.00  0.00     0.068 A  
HETATM   26  C   UNL     1     -12.372  15.297  69.051  1.00  0.00    -0.049 A  
HETATM   27  C   UNL     1     -12.102  15.065  70.397  1.00  0.00    -0.384 A  
HETATM   28  C   UNL     1     -11.213  15.893  71.074  1.00  0.00    -0.371 A  
HETATM   29  C   UNL     1     -10.592  16.949  70.401  1.00  0.00     0.443 A  
ENDBRANCH  23  24
ENDBRANCH  15  18
ENDBRANCH  12  14
TORSDOF 3
ENDMDL
MODEL      185
REMARK 921   NORMALIZED FREE ENERGY PREDICTED BY IDOCK:    2.73 KCAL/MOL
REMARK 922        TOTAL FREE ENERGY PREDICTED BY IDOCK:    2.31 KCAL/MOL
REMARK 923 INTER-LIGAND FREE ENERGY PREDICTED BY IDOCK:    0.38 KCAL/MOL
REMARK 924 INTRA-LIGAND FREE ENERGY PREDICTED BY IDOCK:    1.93 KCAL/MOL
REMARK 927      BINDING AFFINITY PREDICTED BY RF-SCORE:    0.00 PKD
ROOT
HETATM    1  C   UNL     1      -6.990  12.806  67.205  1.00  0.00     0.014 C  
HETATM    2  S   UNL     1      -8.293  12.697  65.911  1.00  0.00     1.387 SA 
HETATM    3  C   UNL     1      -9.668  13.237  67.026  1.00  0.00    -0.238 C  
HETATM    4  CA  UNL     1      -8.973  14.001  68.181  1.00  0.00    -0.183 C  
HETATM    5  C   UNL     1     -10.703  14.031  66.220  1.00  0.00    -0.289 C  
HETATM    6  C   UNL     1     -10.384  11.965  67.524  1.00  0.00    -0.219 C  
HETATM    7  N   UNL     1      -7.662  13.352  68.404  1.00  0.00    -0.134 N  
HETATM    8  C   UNL     1      -8.726  15.501  67.934  1.00  0.00    -0.163 C  
HETATM    9  OXT UNL     1      -9.586  16.304  67.610  1.00  0.00    -0.224 OA 
HETATM   10  O   UNL     1      -7.454  15.897  68.202  1.00  0.00    -0.123 OA 
HETATM   11  C   UNL     1      -7.589  12.170  69.097  1.00  0.00     0.175 C  
HETATM   12  CA  UNL     1      -6.689  11.520  68.020  1.00  0.00    -0.059 C  
HETATM   13  O   UNL     1      -8.202  11.801  70.073  1.00  0.00     1.461 OA 
ENDROOT
BRANCH  12  14
HETATM   14  N   UNL     1      -7.167  10.237  67.436  1.00  0.00    -0.091 N  
HETATM   15  C   UNL     1      -8.141   9.494  68.075  1.00  0.00    -0.102 C  
HETATM   16  H   UNL     1      -6.773   9.904  66.556  1.00  0.00     0.000 HD 
HETATM   17  O   UNL     1      -8.687   9.918  69.087  1.00  0.00    -0.137 OA 
BRANCH  15  18
HETATM   18  C   UNL     1      -8.427   8.198  67.491  1.00  0.00    -0.126 A  
HETATM   19  C   UNL     1      -9.042   7.955  66.273  1.00  0.00    -0.179 A  
HETATM   20  C   UNL     1      -9.613   8.770  65.180  1.00  0.00     0.362 C  
HETATM   21  O   UNL     1      -9.165   6.620  66.091  1.00  0.00    -0.153 OA 
HETATM   22  N   UNL     1      -8.660   5.954  67.173  1.00  0.00    -0.107 NA 
HETATM   23  C   UNL     1      -8.213   6.883  68.038  1.00  0.00    -0.115 A  
BRANCH  23  24
HETATM   24  C   UNL     1      -7.598   6.439  69.300  1.00  0.00    -0.099 A  
HETATM   25  C   UNL     1      -8.012   5.282  69.970  1.00  0.00    -0.080 A  
HETATM   26  C   UNL     1      -7.431   4.911  71.188  1.00  0.00    -0.073 A  
HETATM   27  C   UNL     1      -6.441   5.703  71.766  1.00  0.00    -0.049 A  
HETATM   28  C   UNL     1      -6.024   6.863  71.122  1.00  0.00    -0.036 A  
HETATM   29  C   UNL     1      -6.595   7.226  69.898  1.00  0.00    -0.040 A  
ENDBRANCH  23  24
ENDBRANCH  15  18
ENDBRANCH  12  14
TORSDOF 3
ENDMDL
MODEL      186
REMARK 921   NORMALIZED FREE ENERGY PREDICTED BY IDOCK:    4.46 KCAL/MOL
REMARK 922        TOTAL FREE ENERGY PREDICTED BY IDOCK:    4.34 KCAL/MOL
REMARK 923 INTER-LIGAND FREE ENERGY PREDICTED BY IDOCK:    3.82 KCAL/MOL
REMARK 924 INTRA-LIGAND FREE ENERGY PREDICTED BY IDOCK:    0.52 KCAL/MOL
REMARK 927      BINDING AFFINITY PREDICTED BY RF-SCORE:    0.00 PKD
ROOT
HETATM    1  C   UNL     1      -7.640  15.710  67.068  1.00  0.00    -0.210 C  
HETATM    2  S   UNL     1      -9.111  16.042  68.123  1.00  0.00    -0.190 SA 
HETATM    3  C   UNL     1      -8.470  15.108  69.586  1.00  0.00    -0.064 C  
HETATM    4  CA  UNL     1      -6.933  15.055  69.388  1.00  0.00    -0.172 C  
HETATM    5  C   UNL     1      -8.960  15.773  70.877  1.00  0.00     2.729 C  
HETATM    6  C   UNL     1      -9.105  13.702  69.549  1.00  0.00     1.140 C  
HETATM    7  N   UNL     1      -6.685  14.983  67.932  1.00  0.00    -0.140 N  
HETATM    8  C   UNL     1      -6.149  16.257  69.946  1.00  0.00    -0.180 C  
HETATM    9  OXT UNL     1      -6.221  16.664  71.095  1.00  0.00     0.956 OA 
HETATM   10  O   UNL     1      -5.271  16.795  69.060  1.00  0.00    -0.125 OA 
HETATM   11  C   UNL     1      -6.845  13.794  67.265  1.00  0.00     0.172 C  
HETATM   12  CA  UNL     1      -7.691  14.457  66.154  1.00  0.00     2.493 C  
HETATM   13  O   UNL     1      -6.567  12.667  67.607  1.00  0.00    -0.111 OA 
ENDROOT
BRANCH  12  14
HETATM   14  N   UNL     1      -9.037  13.874  65.901  1.00  0.00    -0.400 N  
HETATM   15  C   UNL     1     -10.020  14.620  65.280  1.00  0.00    -0.294 C  
HETATM   16  H   UNL     1      -9.235  12.915  66.188  1.00  0.00     0.000 HD 
HETATM   17  O   UNL     1      -9.777  15.742  64.853  1.00  0.00    -0.170 OA 
BRANCH  15  18
HETATM   18  C   UNL     1     -11.330  14.001  65.214  1.00  0.00    -0.321 A  
HETATM   19  C   UNL     1     -12.440  14.484  64.539  1.00  0.00    -0.324 A  
HETATM   20  C   UNL     1     -12.762  15.668  63.714  1.00  0.00     1.111 C  
HETATM   21  O   UNL     1     -13.486  13.648  64.740  1.00  0.00    -0.094 OA 
HETATM   22  N   UNL     1     -13.107  12.618  65.554  1.00  0.00    -0.142 NA 
HETATM   23  C   UNL     1     -11.812  12.808  65.861  1.00  0.00    -0.437 A  
BRANCH  23  24
HETATM   24  C   UNL     1     -11.135  11.826  66.724  1.00  0.00    -0.360 A  
HETATM   25  C   UNL     1      -9.856  11.334  66.439  1.00  0.00    -0.243 A  
HETATM   26  C   UNL     1      -9.258  10.371  67.261  1.00  0.00    -0.157 A  
HETATM   27  C   UNL     1      -9.939   9.869  68.367  1.00  0.00    -0.177 A  
HETATM   28  C   UNL     1     -11.215  10.337  68.661  1.00  0.00    -0.263 A  
HETATM   29  C   UNL     1     -11.806  11.309  67.848  1.00  0.00    -0.209 A  
ENDBRANCH  23  24
ENDBRANCH  15  18
ENDBRANCH  12  14
TORSDOF 3
ENDMDL
MODEL      187
REMARK 921   NORMALIZED FREE ENERGY PREDICTED BY IDOCK:    5.76 KCAL/MOL
REMARK 922        TOTAL FREE ENERGY PREDICTED BY IDOCK:    5.87 KCAL/MOL
REMARK 923 INTER-LIGAND FREE ENERGY PREDICTED BY IDOCK:    3.33 KCAL/MOL
REMARK 924 INTRA-LIGAND FREE ENERGY PREDICTED BY IDOCK:    2.54 KCAL/MOL
REMARK 927      BINDING AFFINITY PREDICTED BY RF-SCORE:    0.00 PKD
ROOT
HETATM    1  C   UNL     1      -6.724  16.561  68.482  1.00  0.00    -0.145 C  
HETATM    2  S   UNL     1      -8.436  16.638  69.149  1.00  0.00    -0.024 SA 
HETATM    3  C   UNL     1      -8.477  14.866  69.681  1.00  0.00     0.077 C  
HETATM    4  CA  UNL     1      -6.990  14.453  69.822  1.00  0.00    -0.051 C  
HETATM    5  C   UNL     1      -9.337  14.727  70.943  1.00  0.00     2.341 C  
HETATM    6  C   UNL     1      -9.195  14.068  68.573  1.00  0.00    -0.170 C  
HETATM    7  N   UNL     1      -6.232  15.202  68.796  1.00  0.00    -0.085 N  
HETATM    8  C   UNL     1      -6.347  14.739  71.192  1.00  0.00     0.298 C  
HETATM    9  OXT UNL     1      -6.794  14.364  72.265  1.00  0.00     1.097 OA 
HETATM   10  O   UNL     1      -5.155  15.386  71.112  1.00  0.00    -0.153 OA 
HETATM   11  C   UNL     1      -6.257  14.790  67.487  1.00  0.00     0.008 C  
HETATM   12  CA  UNL     1      -6.562  16.218  66.977  1.00  0.00    -0.158 C  
HETATM   13  O   UNL     1      -6.241  13.673  67.022  1.00  0.00    -0.071 OA 
ENDROOT
BRANCH  12  14
HETATM   14  N   UNL     1      -7.774  16.378  66.126  1.00  0.00    -0.107 N  
HETATM   15  C   UNL     1      -8.730  17.324  66.438  1.00  0.00    -0.250 C  
HETATM   16  H   UNL     1      -7.898  15.784  65.306  1.00  0.00     0.000 HD 
HETATM   17  O   UNL     1      -8.560  18.102  67.369  1.00  0.00    -0.241 OA 
BRANCH  15  18
HETATM   18  C   UNL     1      -9.931  17.295  65.625  1.00  0.00     0.003 A  
HETATM   19  C   UNL     1     -10.634  18.390  65.148  1.00  0.00     0.839 A  
HETATM   20  C   UNL     1     -10.517  19.861  65.238  1.00  0.00     0.069 C  
HETATM   21  O   UNL     1     -11.717  17.962  64.458  1.00  0.00     0.839 OA 
HETATM   22  N   UNL     1     -11.769  16.596  64.476  1.00  0.00    -0.504 NA 
HETATM   23  C   UNL     1     -10.706  16.166  65.179  1.00  0.00    -0.371 A  
BRANCH  23  24
HETATM   24  C   UNL     1     -10.504  14.718  65.346  1.00  0.00    -0.401 A  
HETATM   25  C   UNL     1      -9.441  14.035  64.743  1.00  0.00     1.023 A  
HETATM   26  C   UNL     1      -9.302  12.650  64.891  1.00  0.00     0.486 A  
HETATM   27  C   UNL     1     -10.235  11.923  65.627  1.00  0.00    -0.280 A  
HETATM   28  C   UNL     1     -11.305  12.581  66.224  1.00  0.00    -0.386 A  
HETATM   29  C   UNL     1     -11.436  13.966  66.087  1.00  0.00    -0.351 A  
ENDBRANCH  23  24
ENDBRANCH  15  18
ENDBRANCH  12  14
TORSDOF 3
ENDMDL
MODEL      188
REMARK 921   NORMALIZED FREE ENERGY PREDICTED BY IDOCK:    8.85 KCAL/MOL
REMARK 922        TOTAL FREE ENERGY PREDICTED BY IDOCK:    9.50 KCAL/MOL
REMARK 923 INTER-LIGAND FREE ENERGY PREDICTED BY IDOCK:    5.55 KCAL/MOL
REMARK 924 INTRA-LIGAND FREE ENERGY PREDICTED BY IDOCK:    3.96 KCAL/MOL
REMARK 927      BINDING AFFINITY PREDICTED BY RF-SCORE:    0.00 PKD
ROOT
HETATM    1  C   UNL     1     -11.263   9.531  69.208  1.00  0.00    -0.000 C  
HETATM    2  S   UNL     1     -10.398  10.437  70.556  1.00  0.00     0.525 SA 
HETATM    3  C   UNL     1     -11.627  11.818  70.632  1.00  0.00     0.307 C  
HETATM    4  CA  UNL     1     -12.923  11.239  70.008  1.00  0.00     0.261 C  
HETATM    5  C   UNL     1     -11.743  12.326  72.074  1.00  0.00     3.216 C  
HETATM    6  C   UNL     1     -11.059  12.986  69.800  1.00  0.00     0.109 C  
HETATM    7  N   UNL     1     -12.510  10.286  68.956  1.00  0.00     0.652 N  
HETATM    8  C   UNL     1     -13.857  10.497  70.983  1.00  0.00     0.719 C  
HETATM    9  OXT UNL     1     -14.289  10.963  72.025  1.00  0.00     0.717 OA 
HETATM   10  O   UNL     1     -14.251   9.275  70.539  1.00  0.00     0.298 OA 
HETATM   11  C   UNL     1     -12.090  10.750  67.734  1.00  0.00     1.004 C  
HETATM   12  CA  UNL     1     -10.834   9.848  67.751  1.00  0.00    -0.264 C  
HETATM   13  O   UNL     1     -12.505  11.671  67.067  1.00  0.00     0.372 OA 
ENDROOT
BRANCH  12  14
HETATM   14  N   UNL     1      -9.521  10.528  67.579  1.00  0.00    -0.149 N  
HETATM   15  C   UNL     1      -8.475  10.263  68.440  1.00  0.00    -0.124 C  
HETATM   16  H   UNL     1      -9.394  11.196  66.818  1.00  0.00     0.000 HD 
HETATM   17  O   UNL     1      -8.581   9.403  69.307  1.00  0.00    -0.130 OA 
BRANCH  15  18
HETATM   18  C   UNL     1      -7.292  11.084  68.265  1.00  0.00    -0.088 A  
HETATM   19  C   UNL     1      -5.992  10.748  68.606  1.00  0.00    -0.039 A  
HETATM   20  C   UNL     1      -5.311   9.588  69.221  1.00  0.00    -0.036 C  
HETATM   21  O   UNL     1      -5.171  11.786  68.323  1.00  0.00    -0.043 OA 
HETATM   22  N   UNL     1      -5.896  12.826  67.812  1.00  0.00    -0.120 NA 
HETATM   23  C   UNL     1      -7.182  12.433  67.771  1.00  0.00    -0.119 A  
BRANCH  23  24
HETATM   24  C   UNL     1      -8.192  13.364  67.243  1.00  0.00    -0.162 A  
HETATM   25  C   UNL     1      -8.009  14.752  67.249  1.00  0.00    -0.232 A  
HETATM   26  C   UNL     1      -9.007  15.610  66.774  1.00  0.00    -0.291 A  
HETATM   27  C   UNL     1     -10.214  15.095  66.306  1.00  0.00    -0.300 A  
HETATM   28  C   UNL     1     -10.421  13.720  66.302  1.00  0.00    -0.291 A  
HETATM   29  C   UNL     1      -9.417  12.862  66.764  1.00  0.00    -0.245 A  
ENDBRANCH  23  24
ENDBRANCH  15  18
ENDBRANCH  12  14
TORSDOF 3
ENDMDL
MODEL      189
REMARK 921   NORMALIZED FREE ENERGY PREDICTED BY IDOCK:    9.92 KCAL/MOL
REMARK 922        TOTAL FREE ENERGY PREDICTED BY IDOCK:   10.76 KCAL/MOL
REMARK 923 INTER-LIGAND FREE ENERGY PREDICTED BY IDOCK:    7.21 KCAL/MOL
REMARK 924 INTRA-LIGAND FREE ENERGY PREDICTED BY IDOCK:    3.55 KCAL/MOL
REMARK 927      BINDING AFFINITY PREDICTED BY RF-SCORE:    0.00 PKD
ROOT
HETATM    1  C   UNL     1      -8.957  10.972  65.281  1.00  0.00    -0.163 C  
HETATM    2  S   UNL     1     -10.633  10.239  65.079  1.00  0.00     0.463 SA 
HETATM    3  C   UNL     1     -10.908   9.974  66.889  1.00  0.00    -0.082 C  
HETATM    4  CA  UNL     1      -9.940  10.959  67.593  1.00  0.00    -0.173 C  
HETATM    5  C   UNL     1     -12.396  10.143  67.214  1.00  0.00     4.798 C  
HETATM    6  C   UNL     1     -10.557   8.503  67.197  1.00  0.00    -0.314 C  
HETATM    7  N   UNL     1      -8.737  11.069  66.740  1.00  0.00    -0.148 N  
HETATM    8  C   UNL     1     -10.490  12.379  67.826  1.00  0.00    -0.218 C  
HETATM    9  OXT UNL     1     -11.538  12.635  68.397  1.00  0.00    -0.283 OA 
HETATM   10  O   UNL     1      -9.650  13.365  67.415  1.00  0.00    -0.212 OA 
HETATM   11  C   UNL     1      -7.790  10.076  66.757  1.00  0.00    -0.110 C  
HETATM   12  CA  UNL     1      -7.746  10.004  65.213  1.00  0.00    -0.139 C  
HETATM   13  O   UNL     1      -7.363   9.423  67.682  1.00  0.00    -0.083 OA 
ENDROOT
BRANCH  12  14
HETATM   14  N   UNL     1      -7.996   8.671  64.599  1.00  0.00    -0.133 N  
HETATM   15  C   UNL     1      -8.162   7.553  65.393  1.00  0.00    -0.135 C  
HETATM   16  H   UNL     1      -8.045   8.582  63.584  1.00  0.00     0.000 HD 
HETATM   17  O   UNL     1      -8.191   7.651  66.614  1.00  0.00    -0.118 OA 
BRANCH  15  18
HETATM   18  C   UNL     1      -8.258   6.289  64.688  1.00  0.00    -0.080 A  
HETATM   19  C   UNL     1      -9.007   6.030  63.551  1.00  0.00     0.713 A  
HETATM   20  C   UNL     1      -9.920   6.791  62.672  1.00  0.00     4.109 C  
HETATM   21  O   UNL     1      -8.868   4.727  63.210  1.00  0.00    -0.140 OA 
HETATM   22  N   UNL     1      -8.053   4.096  64.107  1.00  0.00    -0.089 NA 
HETATM   23  C   UNL     1      -7.675   5.014  65.015  1.00  0.00    -0.083 A  
BRANCH  23  24
HETATM   24  C   UNL     1      -6.770   4.605  66.102  1.00  0.00    -0.050 A  
HETATM   25  C   UNL     1      -5.984   3.449  66.029  1.00  0.00    -0.023 A  
HETATM   26  C   UNL     1      -5.164   3.070  67.098  1.00  0.00    -0.008 A  
HETATM   27  C   UNL     1      -5.133   3.829  68.266  1.00  0.00    -0.007 A  
HETATM   28  C   UNL     1      -5.916   4.974  68.363  1.00  0.00    -0.026 A  
HETATM   29  C   UNL     1      -6.725   5.360  67.290  1.00  0.00    -0.059 A  
ENDBRANCH  23  24
ENDBRANCH  15  18
ENDBRANCH  12  14
TORSDOF 3
ENDMDL
MODEL      190
REMARK 921   NORMALIZED FREE ENERGY PREDICTED BY IDOCK:   12.32 KCAL/MOL
REMARK 922        TOTAL FREE ENERGY PREDICTED BY IDOCK:   13.58 KCAL/MOL
REMARK 923 INTER-LIGAND FREE ENERGY PREDICTED BY IDOCK:   14.10 KCAL/MOL
REMARK 924 INTRA-LIGAND FREE ENERGY PREDICTED BY IDOCK:   -0.52 KCAL/MOL
REMARK 927      BINDING AFFINITY PREDICTED BY RF-SCORE:    0.00 PKD
ROOT
HETATM    1  C   UNL     1     -10.914  15.535  67.671  1.00  0.00    -0.315 C  
HETATM    2  S   UNL     1      -9.669  16.634  66.881  1.00  0.00    -0.265 SA 
HETATM    3  C   UNL     1      -9.431  15.559  65.394  1.00  0.00     0.002 C  
HETATM    4  CA  UNL     1     -10.715  14.694  65.313  1.00  0.00    -0.381 C  
HETATM    5  C   UNL     1      -9.127  16.431  64.170  1.00  0.00     8.080 C  
HETATM    6  C   UNL     1      -8.173  14.701  65.643  1.00  0.00     2.989 C  
HETATM    7  N   UNL     1     -11.160  14.446  66.701  1.00  0.00    -0.318 N  
HETATM    8  C   UNL     1     -11.891  15.320  64.539  1.00  0.00    -0.295 C  
HETATM    9  OXT UNL     1     -11.826  15.747  63.397  1.00  0.00     0.068 OA 
HETATM   10  O   UNL     1     -13.070  15.279  65.212  1.00  0.00     0.503 OA 
HETATM   11  C   UNL     1     -10.530  13.497  67.466  1.00  0.00    -0.237 C  
HETATM   12  CA  UNL     1     -10.389  14.464  68.664  1.00  0.00    -0.245 C  
HETATM   13  O   UNL     1     -10.103  12.407  67.158  1.00  0.00    -0.211 OA 
ENDROOT
BRANCH  12  14
HETATM   14  N   UNL     1      -9.014  14.671  69.196  1.00  0.00    -0.370 N  
HETATM   15  C   UNL     1      -8.738  15.734  70.034  1.00  0.00     0.532 C  
HETATM   16  H   UNL     1      -8.269  14.022  68.941  1.00  0.00     0.000 HD 
HETATM   17  O   UNL     1      -9.635  16.476  70.419  1.00  0.00     1.044 OA 
BRANCH  15  18
HETATM   18  C   UNL     1      -7.341  15.919  70.376  1.00  0.00     1.104 A  
HETATM   19  C   UNL     1      -6.579  15.114  71.208  1.00  0.00     0.936 A  
HETATM   20  C   UNL     1      -6.798  13.894  72.014  1.00  0.00     2.937 C  
HETATM   21  O   UNL     1      -5.331  15.629  71.310  1.00  0.00    -0.103 OA 
HETATM   22  N   UNL     1      -5.241  16.779  70.577  1.00  0.00    -0.213 NA 
HETATM   23  C   UNL     1      -6.443  16.983  70.007  1.00  0.00     0.176 A  
BRANCH  23  24
HETATM   24  C   UNL     1      -6.627  18.157  69.139  1.00  0.00    -0.259 A  
HETATM   25  C   UNL     1      -6.708  19.459  69.647  1.00  0.00    -0.275 A  
HETATM   26  C   UNL     1      -6.922  20.550  68.796  1.00  0.00    -0.025 A  
HETATM   27  C   UNL     1      -7.080  20.353  67.426  1.00  0.00    -0.346 A  
HETATM   28  C   UNL     1      -7.014  19.067  66.903  1.00  0.00    -0.209 A  
HETATM   29  C   UNL     1      -6.787  17.979  67.752  1.00  0.00    -0.201 A  
ENDBRANCH  23  24
ENDBRANCH  15  18
ENDBRANCH  12  14
TORSDOF 3
ENDMDL
MODEL      191
REMARK 921   NORMALIZED FREE ENERGY PREDICTED BY IDOCK:   12.78 KCAL/MOL
REMARK 922        TOTAL FREE ENERGY PREDICTED BY IDOCK:   14.11 KCAL/MOL
REMARK 923 INTER-LIGAND FREE ENERGY PREDICTED BY IDOCK:   12.77 KCAL/MOL
REMARK 924 INTRA-LIGAND FREE ENERGY PREDICTED BY IDOCK:    1.35 KCAL/MOL
REMARK 927      BINDING AFFINITY PREDICTED BY RF-SCORE:    0.00 PKD
ROOT
HETATM    1  C   UNL     1     -11.456   9.706  69.632  1.00  0.00    -0.001 C  
HETATM    2  S   UNL     1     -10.512  10.587  70.942  1.00  0.00     1.379 SA 
HETATM    3  C   UNL     1     -11.690  12.010  71.056  1.00  0.00     0.800 C  
HETATM    4  CA  UNL     1     -13.026  11.473  70.483  1.00  0.00     0.119 C  
HETATM    5  C   UNL     1     -11.734  12.528  72.498  1.00  0.00     4.818 C  
HETATM    6  C   UNL     1     -11.113  13.154  70.197  1.00  0.00     0.518 C  
HETATM    7  N   UNL     1     -12.685  10.502  69.421  1.00  0.00     0.303 N  
HETATM    8  C   UNL     1     -13.948  10.767  71.495  1.00  0.00     0.827 C  
HETATM    9  OXT UNL     1     -14.326  11.252  72.550  1.00  0.00     0.804 OA 
HETATM   10  O   UNL     1     -14.400   9.558  71.072  1.00  0.00     0.063 OA 
HETATM   11  C   UNL     1     -12.295  10.947  68.183  1.00  0.00     1.055 C  
HETATM   12  CA  UNL     1     -11.071  10.002  68.158  1.00  0.00    -0.193 C  
HETATM   13  O   UNL     1     -12.702  11.879  67.527  1.00  0.00     0.891 OA 
ENDROOT
BRANCH  12  14
HETATM   14  N   UNL     1      -9.743  10.636  67.934  1.00  0.00    -0.159 N  
HETATM   15  C   UNL     1      -9.629  11.773  67.159  1.00  0.00    -0.181 C  
HETATM   16  H   UNL     1      -8.909  10.228  68.357  1.00  0.00     0.000 HD 
HETATM   17  O   UNL     1     -10.627  12.327  66.711  1.00  0.00    -0.219 OA 
BRANCH  15  18
HETATM   18  C   UNL     1      -8.276  12.221  66.893  1.00  0.00    -0.112 A  
HETATM   19  C   UNL     1      -7.874  13.514  66.595  1.00  0.00     0.738 A  
HETATM   20  C   UNL     1      -8.531  14.827  66.423  1.00  0.00     0.167 C  
HETATM   21  O   UNL     1      -6.539  13.529  66.377  1.00  0.00     1.626 OA 
HETATM   22  N   UNL     1      -6.032  12.266  66.504  1.00  0.00     0.028 NA 
HETATM   23  C   UNL     1      -7.060  11.454  66.810  1.00  0.00    -0.132 A  
BRANCH  23  24
HETATM   24  C   UNL     1      -6.794  10.022  67.021  1.00  0.00    -0.087 A  
HETATM   25  C   UNL     1      -7.121   9.050  66.068  1.00  0.00    -0.085 A  
HETATM   26  C   UNL     1      -6.889   7.692  66.319  1.00  0.00    -0.062 A  
HETATM   27  C   UNL     1      -6.347   7.284  67.535  1.00  0.00    -0.048 A  
HETATM   28  C   UNL     1      -6.025   8.233  68.500  1.00  0.00    -0.041 A  
HETATM   29  C   UNL     1      -6.244   9.590  68.243  1.00  0.00    -0.052 A  
ENDBRANCH  23  24
ENDBRANCH  15  18
ENDBRANCH  12  14
TORSDOF 3
ENDMDL
MODEL      192
REMARK 921   NORMALIZED FREE ENERGY PREDICTED BY IDOCK:   14.22 KCAL/MOL
REMARK 922        TOTAL FREE ENERGY PREDICTED BY IDOCK:   15.81 KCAL/MOL
REMARK 923 INTER-LIGAND FREE ENERGY PREDICTED BY IDOCK:    7.86 KCAL/MOL
REMARK 924 INTRA-LIGAND FREE ENERGY PREDICTED BY IDOCK:    7.95 KCAL/MOL
REMARK 927      BINDING AFFINITY PREDICTED BY RF-SCORE:    0.00 PKD
ROOT
HETATM    1  C   UNL     1      -8.809  15.134  69.391  1.00  0.00    -0.172 C  
HETATM    2  S   UNL     1     -10.099  14.917  68.097  1.00  0.00    -0.225 SA 
HETATM    3  C   UNL     1      -8.970  14.091  66.886  1.00  0.00    -0.227 C  
HETATM    4  CA  UNL     1      -7.805  13.528  67.741  1.00  0.00    -0.167 C  
HETATM    5  C   UNL     1      -9.758  13.065  66.064  1.00  0.00    -0.223 C  
HETATM    6  C   UNL     1      -8.488  15.170  65.895  1.00  0.00     0.919 C  
HETATM    7  N   UNL     1      -7.598  14.466  68.865  1.00  0.00    -0.131 N  
HETATM    8  C   UNL     1      -8.030  12.122  68.328  1.00  0.00    -0.163 C  
HETATM    9  OXT UNL     1      -8.339  11.136  67.678  1.00  0.00    -0.119 OA 
HETATM   10  O   UNL     1      -7.763  12.036  69.657  1.00  0.00     0.486 OA 
HETATM   11  C   UNL     1      -6.924  15.644  68.662  1.00  0.00    -0.125 C  
HETATM   12  CA  UNL     1      -8.015  16.467  69.386  1.00  0.00     0.025 C  
HETATM   13  O   UNL     1      -5.951  15.876  67.981  1.00  0.00    -0.111 OA 
ENDROOT
BRANCH  12  14
HETATM   14  N   UNL     1      -8.616  17.595  68.623  1.00  0.00    -0.287 N  
HETATM   15  C   UNL     1      -8.726  17.533  67.247  1.00  0.00    -0.230 C  
HETATM   16  H   UNL     1      -8.951  18.421  69.120  1.00  0.00     0.000 HD 
HETATM   17  O   UNL     1      -8.408  16.517  66.640  1.00  0.00    -0.204 OA 
BRANCH  15  18
HETATM   18  C   UNL     1      -9.196  18.742  66.598  1.00  0.00    -0.333 A  
HETATM   19  C   UNL     1     -10.328  19.471  66.925  1.00  0.00    -0.454 A  
HETATM   20  C   UNL     1     -11.418  19.370  67.918  1.00  0.00     0.879 C  
HETATM   21  O   UNL     1     -10.452  20.513  66.071  1.00  0.00    -0.158 OA 
HETATM   22  N   UNL     1      -9.433  20.492  65.160  1.00  0.00     0.557 NA 
HETATM   23  C   UNL     1      -8.662  19.428  65.450  1.00  0.00     1.026 A  
BRANCH  23  24
HETATM   24  C   UNL     1      -7.469  19.171  64.627  1.00  0.00     2.044 A  
HETATM   25  C   UNL     1      -7.173  19.919  63.481  1.00  0.00     2.811 A  
HETATM   26  C   UNL     1      -6.051  19.621  62.699  1.00  0.00     0.487 A  
HETATM   27  C   UNL     1      -5.219  18.557  63.039  1.00  0.00     0.176 A  
HETATM   28  C   UNL     1      -5.502  17.794  64.167  1.00  0.00     1.326 A  
HETATM   29  C   UNL     1      -6.616  18.101  64.955  1.00  0.00     0.450 A  
ENDBRANCH  23  24
ENDBRANCH  15  18
ENDBRANCH  12  14
TORSDOF 3
ENDMDL
