MODEL        1
REMARK 921   NORMALIZED FREE ENERGY PREDICTED BY IDOCK:   -6.41 KCAL/MOL
REMARK 922        TOTAL FREE ENERGY PREDICTED BY IDOCK:   -8.36 KCAL/MOL
REMARK 923 INTER-LIGAND FREE ENERGY PREDICTED BY IDOCK:   -7.91 KCAL/MOL
REMARK 924 INTRA-LIGAND FREE ENERGY PREDICTED BY IDOCK:   -0.44 KCAL/MOL
REMARK 927      BINDING AFFINITY PREDICTED BY RF-SCORE:    0.00 PKD
ROOT
HETATM    1  C   UNL     1     -12.658  12.018  63.373  1.00  0.00    -0.592 C  
HETATM    2  C   UNL     1     -11.433  12.399  64.208  1.00  0.00    -0.363 C  
HETATM    3  C   UNL     1     -10.188  11.729  63.617  1.00  0.00    -0.461 C  
ENDROOT
BRANCH   2   4
HETATM    4  N   UNL     1     -11.320  13.858  64.203  1.00  0.00    -0.600 NA 
HETATM    5  H   UNL     1     -12.229  14.285  64.377  1.00  0.00     0.000 HD 
BRANCH   4   6
HETATM    6  C   UNL     1     -10.318  14.395  65.132  1.00  0.00    -0.421 C  
BRANCH   6   7
HETATM    7  C   UNL     1     -11.006  14.993  66.384  1.00  0.00    -0.336 C  
HETATM    8  C   UNL     1     -10.148  16.083  67.022  1.00  0.00    -0.271 C  
HETATM    9  C   UNL     1     -10.946  16.727  68.153  1.00  0.00    -0.309 C  
HETATM   10  C   UNL     1     -11.529  15.686  69.075  1.00  0.00    -0.369 A  
HETATM   11  C   UNL     1     -11.996  16.071  70.343  1.00  0.00    -0.245 A  
HETATM   12  C   UNL     1     -12.544  15.139  71.245  1.00  0.00    -0.421 A  
HETATM   13  C   UNL     1     -12.592  13.787  70.842  1.00  0.00    -0.356 A  
HETATM   14  H   UNL     1     -11.290  12.956  67.113  1.00  0.00     0.000 HD 
HETATM   15  N   UNL     1     -13.137  12.714  71.701  1.00  0.00    -0.378 N  
HETATM   16  N   UNL     1     -11.308  13.943  67.369  1.00  0.00    -0.311 NA 
HETATM   17  C   UNL     1     -12.131  13.406  69.567  1.00  0.00    -0.334 A  
HETATM   18  O   UNL     1     -13.090  11.552  71.272  1.00  0.00    -0.336 OA 
HETATM   19  O   UNL     1     -13.611  13.015  72.806  1.00  0.00    -0.547 OA 
HETATM   20  C   UNL     1     -11.622  14.348  68.669  1.00  0.00    -0.314 A  
BRANCH  12  21
HETATM   21  C   UNL     1     -13.046  15.669  72.564  1.00  0.00    -0.472 C  
HETATM   22  O   UNL     1     -12.115  15.370  73.589  1.00  0.00    -0.476 OA 
HETATM   23  H   UNL     1     -12.431  15.704  74.420  1.00  0.00     0.000 HD 
ENDBRANCH  12  21
ENDBRANCH   6   7
ENDBRANCH   4   6
ENDBRANCH   2   4
TORSDOF 4
ENDMDL
MODEL        2
REMARK 921   NORMALIZED FREE ENERGY PREDICTED BY IDOCK:   -6.26 KCAL/MOL
REMARK 922        TOTAL FREE ENERGY PREDICTED BY IDOCK:   -8.17 KCAL/MOL
REMARK 923 INTER-LIGAND FREE ENERGY PREDICTED BY IDOCK:   -7.98 KCAL/MOL
REMARK 924 INTRA-LIGAND FREE ENERGY PREDICTED BY IDOCK:   -0.19 KCAL/MOL
REMARK 927      BINDING AFFINITY PREDICTED BY RF-SCORE:    0.00 PKD
ROOT
HETATM    1  C   UNL     1     -14.230   8.610  72.016  1.00  0.00    -0.524 C  
HETATM    2  C   UNL     1     -13.000   9.519  71.944  1.00  0.00    -0.425 C  
HETATM    3  C   UNL     1     -11.732   8.665  72.040  1.00  0.00    -0.439 C  
ENDROOT
BRANCH   2   4
HETATM    4  N   UNL     1     -13.061  10.263  70.686  1.00  0.00    -0.544 NA 
HETATM    5  H   UNL     1     -13.566  11.139  70.817  1.00  0.00     0.000 HD 
BRANCH   4   6
HETATM    6  C   UNL     1     -11.757  10.514  70.062  1.00  0.00    -0.312 C  
BRANCH   6   7
HETATM    7  C   UNL     1     -11.910  11.474  68.857  1.00  0.00    -0.341 C  
HETATM    8  C   UNL     1     -11.169  10.948  67.630  1.00  0.00    -0.379 C  
HETATM    9  C   UNL     1     -11.483  11.861  66.446  1.00  0.00    -0.371 C  
HETATM   10  C   UNL     1     -11.276  13.311  66.802  1.00  0.00    -0.331 A  
HETATM   11  C   UNL     1     -11.180  14.266  65.776  1.00  0.00    -0.317 A  
HETATM   12  C   UNL     1     -10.981  15.633  66.052  1.00  0.00    -0.213 A  
HETATM   13  C   UNL     1     -10.859  16.017  67.405  1.00  0.00    -0.277 A  
HETATM   14  H   UNL     1     -11.282  13.103  70.166  1.00  0.00     0.000 HD 
HETATM   15  N   UNL     1     -10.642  17.418  67.823  1.00  0.00    -0.376 N  
HETATM   16  N   UNL     1     -11.434  12.824  69.196  1.00  0.00    -0.291 NA 
HETATM   17  C   UNL     1     -10.966  15.058  68.431  1.00  0.00    -0.266 A  
HETATM   18  O   UNL     1     -10.501  17.643  69.034  1.00  0.00    -0.342 OA 
HETATM   19  O   UNL     1     -10.605  18.302  66.955  1.00  0.00    -0.389 OA 
HETATM   20  C   UNL     1     -11.198  13.711  68.143  1.00  0.00    -0.275 A  
BRANCH  12  21
HETATM   21  C   UNL     1     -10.928  16.573  64.875  1.00  0.00    -0.209 C  
HETATM   22  O   UNL     1     -11.798  16.118  63.854  1.00  0.00    -1.359 OA 
HETATM   23  H   UNL     1     -11.765  16.711  63.113  1.00  0.00     0.000 HD 
ENDBRANCH  12  21
ENDBRANCH   6   7
ENDBRANCH   4   6
ENDBRANCH   2   4
TORSDOF 4
ENDMDL
MODEL        3
REMARK 921   NORMALIZED FREE ENERGY PREDICTED BY IDOCK:   -6.20 KCAL/MOL
REMARK 922        TOTAL FREE ENERGY PREDICTED BY IDOCK:   -8.09 KCAL/MOL
REMARK 923 INTER-LIGAND FREE ENERGY PREDICTED BY IDOCK:   -7.79 KCAL/MOL
REMARK 924 INTRA-LIGAND FREE ENERGY PREDICTED BY IDOCK:   -0.31 KCAL/MOL
REMARK 927      BINDING AFFINITY PREDICTED BY RF-SCORE:    0.00 PKD
ROOT
HETATM    1  C   UNL     1     -12.079  15.036  64.396  1.00  0.00    -0.373 C  
HETATM    2  C   UNL     1     -12.300  14.021  65.520  1.00  0.00    -0.483 C  
HETATM    3  C   UNL     1     -12.440  12.619  64.917  1.00  0.00    -0.564 C  
ENDROOT
BRANCH   2   4
HETATM    4  N   UNL     1     -11.164  14.108  66.437  1.00  0.00    -0.321 NA 
HETATM    5  H   UNL     1     -10.381  14.584  65.988  1.00  0.00     0.000 HD 
BRANCH   4   6
HETATM    6  C   UNL     1     -11.469  14.734  67.728  1.00  0.00    -0.345 C  
BRANCH   6   7
HETATM    7  C   UNL     1     -12.124  13.708  68.686  1.00  0.00    -0.290 C  
HETATM    8  C   UNL     1     -12.116  14.210  70.128  1.00  0.00    -0.411 C  
HETATM    9  C   UNL     1     -12.904  13.225  70.988  1.00  0.00    -0.311 C  
HETATM   10  C   UNL     1     -12.449  11.807  70.754  1.00  0.00    -0.405 A  
HETATM   11  C   UNL     1     -12.800  10.808  71.678  1.00  0.00    -0.562 A  
HETATM   12  C   UNL     1     -12.397   9.469  71.511  1.00  0.00    -0.465 A  
HETATM   13  C   UNL     1     -11.603   9.160  70.385  1.00  0.00    -0.146 A  
HETATM   14  H   UNL     1     -10.824  12.182  67.825  1.00  0.00     0.000 HD 
HETATM   15  N   UNL     1     -11.111   7.794  70.103  1.00  0.00    -0.242 N  
HETATM   16  N   UNL     1     -11.450  12.404  68.599  1.00  0.00    -0.278 NA 
HETATM   17  C   UNL     1     -11.261  10.162  69.456  1.00  0.00    -0.288 A  
HETATM   18  O   UNL     1     -10.382   7.637  69.113  1.00  0.00    -0.206 OA 
HETATM   19  O   UNL     1     -11.442   6.871  70.861  1.00  0.00    -0.286 OA 
HETATM   20  C   UNL     1     -11.698  11.479  69.617  1.00  0.00    -0.351 A  
BRANCH  12  21
HETATM   21  C   UNL     1     -12.860   8.475  72.545  1.00  0.00    -0.255 C  
HETATM   22  O   UNL     1     -13.925   9.025  73.299  1.00  0.00    -1.205 OA 
HETATM   23  H   UNL     1     -14.217   8.399  73.950  1.00  0.00     0.000 HD 
ENDBRANCH  12  21
ENDBRANCH   6   7
ENDBRANCH   4   6
ENDBRANCH   2   4
TORSDOF 4
ENDMDL
MODEL        4
REMARK 921   NORMALIZED FREE ENERGY PREDICTED BY IDOCK:   -6.19 KCAL/MOL
REMARK 922        TOTAL FREE ENERGY PREDICTED BY IDOCK:   -8.08 KCAL/MOL
REMARK 923 INTER-LIGAND FREE ENERGY PREDICTED BY IDOCK:   -7.62 KCAL/MOL
REMARK 924 INTRA-LIGAND FREE ENERGY PREDICTED BY IDOCK:   -0.46 KCAL/MOL
REMARK 927      BINDING AFFINITY PREDICTED BY RF-SCORE:    0.00 PKD
ROOT
HETATM    1  C   UNL     1     -13.499  10.176  71.986  1.00  0.00    -0.418 C  
HETATM    2  C   UNL     1     -13.075   8.718  72.178  1.00  0.00    -0.406 C  
HETATM    3  C   UNL     1     -14.099   7.800  71.503  1.00  0.00    -0.509 C  
ENDROOT
BRANCH   2   4
HETATM    4  N   UNL     1     -11.739   8.557  71.606  1.00  0.00    -0.287 NA 
HETATM    5  H   UNL     1     -11.761   7.892  70.833  1.00  0.00     0.000 HD 
BRANCH   4   6
HETATM    6  C   UNL     1     -11.102   9.809  71.182  1.00  0.00    -0.344 C  
BRANCH   6   7
HETATM    7  C   UNL     1     -10.825   9.788  69.659  1.00  0.00    -0.250 C  
HETATM    8  C   UNL     1      -9.327   9.836  69.365  1.00  0.00    -0.212 C  
HETATM    9  C   UNL     1      -9.122   9.662  67.862  1.00  0.00    -0.130 C  
HETATM   10  C   UNL     1     -10.005  10.598  67.077  1.00  0.00    -0.243 A  
HETATM   11  C   UNL     1      -9.726  10.834  65.720  1.00  0.00    -0.278 A  
HETATM   12  C   UNL     1     -10.514  11.702  64.941  1.00  0.00    -0.339 A  
HETATM   13  C   UNL     1     -11.594  12.353  65.576  1.00  0.00    -0.385 A  
HETATM   14  H   UNL     1     -12.253  11.424  69.448  1.00  0.00     0.000 HD 
HETATM   15  N   UNL     1     -12.489  13.293  64.869  1.00  0.00    -0.417 N  
HETATM   16  N   UNL     1     -11.510  10.901  68.984  1.00  0.00    -0.278 NA 
HETATM   17  C   UNL     1     -11.876  12.107  66.933  1.00  0.00    -0.295 A  
HETATM   18  O   UNL     1     -13.380  13.849  65.529  1.00  0.00    -0.662 OA 
HETATM   19  O   UNL     1     -12.315  13.490  63.658  1.00  0.00    -0.687 OA 
HETATM   20  C   UNL     1     -11.106  11.215  67.684  1.00  0.00    -0.287 A  
BRANCH  12  21
HETATM   21  C   UNL     1     -10.144  11.854  63.488  1.00  0.00    -0.441 C  
HETATM   22  O   UNL     1     -10.863  10.916  62.707  1.00  0.00    -0.750 OA 
HETATM   23  H   UNL     1     -10.630  11.011  61.791  1.00  0.00     0.000 HD 
ENDBRANCH  12  21
ENDBRANCH   6   7
ENDBRANCH   4   6
ENDBRANCH   2   4
TORSDOF 4
ENDMDL
MODEL        5
REMARK 921   NORMALIZED FREE ENERGY PREDICTED BY IDOCK:   -6.16 KCAL/MOL
REMARK 922        TOTAL FREE ENERGY PREDICTED BY IDOCK:   -8.05 KCAL/MOL
REMARK 923 INTER-LIGAND FREE ENERGY PREDICTED BY IDOCK:   -7.36 KCAL/MOL
REMARK 924 INTRA-LIGAND FREE ENERGY PREDICTED BY IDOCK:   -0.68 KCAL/MOL
REMARK 927      BINDING AFFINITY PREDICTED BY RF-SCORE:    0.00 PKD
ROOT
HETATM    1  C   UNL     1      -9.106  10.029  62.396  1.00  0.00    -0.310 C  
HETATM    2  C   UNL     1      -9.849  10.623  63.595  1.00  0.00    -0.333 C  
HETATM    3  C   UNL     1      -8.879  10.768  64.772  1.00  0.00    -0.162 C  
ENDROOT
BRANCH   2   4
HETATM    4  N   UNL     1     -10.405  11.913  63.187  1.00  0.00    -0.628 NA 
HETATM    5  H   UNL     1     -10.252  12.066  62.190  1.00  0.00     0.000 HD 
BRANCH   4   6
HETATM    6  C   UNL     1     -11.822  12.099  63.520  1.00  0.00    -0.505 C  
BRANCH   6   7
HETATM    7  C   UNL     1     -11.976  13.105  64.688  1.00  0.00    -0.388 C  
HETATM    8  C   UNL     1     -10.865  14.152  64.670  1.00  0.00    -0.401 C  
HETATM    9  C   UNL     1     -11.161  15.191  65.750  1.00  0.00    -0.330 C  
HETATM   10  C   UNL     1     -11.463  14.535  67.073  1.00  0.00    -0.383 A  
HETATM   11  C   UNL     1     -11.422  15.303  68.249  1.00  0.00    -0.359 A  
HETATM   12  C   UNL     1     -11.690  14.741  69.511  1.00  0.00    -0.358 A  
HETATM   13  C   UNL     1     -11.983  13.361  69.564  1.00  0.00    -0.319 A  
HETATM   14  H   UNL     1     -12.145  11.400  66.040  1.00  0.00     0.000 HD 
HETATM   15  N   UNL     1     -12.274  12.652  70.829  1.00  0.00    -0.331 N  
HETATM   16  N   UNL     1     -11.995  12.408  65.983  1.00  0.00    -0.602 NA 
HETATM   17  C   UNL     1     -12.032  12.596  68.383  1.00  0.00    -0.268 A  
HETATM   18  O   UNL     1     -12.473  11.430  70.773  1.00  0.00    -0.360 OA 
HETATM   19  O   UNL     1     -12.304  13.301  71.885  1.00  0.00     0.004 OA 
HETATM   20  C   UNL     1     -11.798  13.176  67.134  1.00  0.00    -0.369 A  
BRANCH  12  21
HETATM   21  C   UNL     1     -11.652  15.666  70.701  1.00  0.00    -0.367 C  
HETATM   22  O   UNL     1     -12.969  16.058  71.048  1.00  0.00    -0.594 OA 
HETATM   23  H   UNL     1     -12.945  16.640  71.798  1.00  0.00     0.000 HD 
ENDBRANCH  12  21
ENDBRANCH   6   7
ENDBRANCH   4   6
ENDBRANCH   2   4
TORSDOF 4
ENDMDL
MODEL        6
REMARK 921   NORMALIZED FREE ENERGY PREDICTED BY IDOCK:   -6.15 KCAL/MOL
REMARK 922        TOTAL FREE ENERGY PREDICTED BY IDOCK:   -8.04 KCAL/MOL
REMARK 923 INTER-LIGAND FREE ENERGY PREDICTED BY IDOCK:   -7.58 KCAL/MOL
REMARK 924 INTRA-LIGAND FREE ENERGY PREDICTED BY IDOCK:   -0.46 KCAL/MOL
REMARK 927      BINDING AFFINITY PREDICTED BY RF-SCORE:    0.00 PKD
ROOT
HETATM    1  C   UNL     1     -14.383   7.825  71.700  1.00  0.00    -0.607 C  
HETATM    2  C   UNL     1     -13.027   8.531  71.782  1.00  0.00    -0.352 C  
HETATM    3  C   UNL     1     -11.924   7.565  71.339  1.00  0.00    -0.336 C  
ENDROOT
BRANCH   2   4
HETATM    4  N   UNL     1     -13.085   9.719  70.931  1.00  0.00    -0.562 NA 
HETATM    5  H   UNL     1     -13.968   9.749  70.423  1.00  0.00     0.000 HD 
BRANCH   4   6
HETATM    6  C   UNL     1     -12.860  10.986  71.637  1.00  0.00    -0.435 C  
BRANCH   6   7
HETATM    7  C   UNL     1     -12.172  12.011  70.702  1.00  0.00    -0.316 C  
HETATM    8  C   UNL     1     -12.904  13.351  70.713  1.00  0.00    -0.221 C  
HETATM    9  C   UNL     1     -12.093  14.353  69.893  1.00  0.00    -0.398 C  
HETATM   10  C   UNL     1     -11.722  13.786  68.547  1.00  0.00    -0.391 A  
HETATM   11  C   UNL     1     -11.283  14.652  67.531  1.00  0.00    -0.343 A  
HETATM   12  C   UNL     1     -10.929  14.176  66.253  1.00  0.00    -0.303 A  
HETATM   13  C   UNL     1     -11.050  12.790  66.014  1.00  0.00    -0.285 A  
HETATM   14  H   UNL     1     -12.226  10.504  69.125  1.00  0.00     0.000 HD 
HETATM   15  N   UNL     1     -10.717  12.171  64.714  1.00  0.00    -0.288 N  
HETATM   16  N   UNL     1     -12.083  11.494  69.328  1.00  0.00    -0.309 NA 
HETATM   17  C   UNL     1     -11.481  11.924  67.037  1.00  0.00    -0.384 A  
HETATM   18  O   UNL     1     -10.901  10.951  64.592  1.00  0.00    -0.263 OA 
HETATM   19  O   UNL     1     -10.273  12.888  63.805  1.00  0.00    -0.378 OA 
HETATM   20  C   UNL     1     -11.794  12.407  68.311  1.00  0.00    -0.309 A  
BRANCH  12  21
HETATM   21  C   UNL     1     -10.439  15.190  65.251  1.00  0.00    -0.409 C  
HETATM   22  O   UNL     1     -11.444  15.437  64.284  1.00  0.00    -0.687 OA 
HETATM   23  H   UNL     1     -11.136  16.076  63.653  1.00  0.00     0.000 HD 
ENDBRANCH  12  21
ENDBRANCH   6   7
ENDBRANCH   4   6
ENDBRANCH   2   4
TORSDOF 4
ENDMDL
MODEL        7
REMARK 921   NORMALIZED FREE ENERGY PREDICTED BY IDOCK:   -6.15 KCAL/MOL
REMARK 922        TOTAL FREE ENERGY PREDICTED BY IDOCK:   -8.04 KCAL/MOL
REMARK 923 INTER-LIGAND FREE ENERGY PREDICTED BY IDOCK:   -7.54 KCAL/MOL
REMARK 924 INTRA-LIGAND FREE ENERGY PREDICTED BY IDOCK:   -0.50 KCAL/MOL
REMARK 927      BINDING AFFINITY PREDICTED BY RF-SCORE:    0.00 PKD
ROOT
HETATM    1  C   UNL     1      -9.559  20.374  67.204  1.00  0.00    -0.587 C  
HETATM    2  C   UNL     1      -9.036  19.213  66.354  1.00  0.00    -0.343 C  
HETATM    3  C   UNL     1      -7.752  18.662  66.982  1.00  0.00    -0.237 C  
ENDROOT
BRANCH   2   4
HETATM    4  N   UNL     1     -10.086  18.198  66.282  1.00  0.00    -0.420 NA 
HETATM    5  H   UNL     1      -9.712  17.325  65.909  1.00  0.00     0.000 HD 
BRANCH   4   6
HETATM    6  C   UNL     1     -10.786  17.953  67.548  1.00  0.00    -0.321 C  
BRANCH   6   7
HETATM    7  C   UNL     1     -10.581  16.488  68.005  1.00  0.00    -0.328 C  
HETATM    8  C   UNL     1     -10.683  15.519  66.829  1.00  0.00    -0.305 C  
HETATM    9  C   UNL     1     -10.326  14.119  67.323  1.00  0.00    -0.267 C  
HETATM   10  C   UNL     1     -11.093  13.765  68.571  1.00  0.00    -0.292 A  
HETATM   11  C   UNL     1     -11.165  12.422  68.979  1.00  0.00    -0.320 A  
HETATM   12  C   UNL     1     -11.873  12.035  70.133  1.00  0.00    -0.383 A  
HETATM   13  C   UNL     1     -12.534  13.045  70.865  1.00  0.00    -0.310 A  
HETATM   14  H   UNL     1     -12.084  16.834  69.549  1.00  0.00     0.000 HD 
HETATM   15  N   UNL     1     -13.316  12.765  72.088  1.00  0.00    -0.528 N  
HETATM   16  N   UNL     1     -11.551  16.122  69.049  1.00  0.00    -0.336 NA 
HETATM   17  C   UNL     1     -12.452  14.391  70.458  1.00  0.00    -0.416 A  
HETATM   18  O   UNL     1     -13.897  13.716  72.631  1.00  0.00    -0.715 OA 
HETATM   19  O   UNL     1     -13.362  11.603  72.517  1.00  0.00    -0.168 OA 
HETATM   20  C   UNL     1     -11.716  14.763  69.331  1.00  0.00    -0.323 A  
BRANCH  12  21
HETATM   21  C   UNL     1     -11.855  10.572  70.496  1.00  0.00    -0.347 C  
HETATM   22  O   UNL     1     -13.126   9.998  70.247  1.00  0.00    -0.591 OA 
HETATM   23  H   UNL     1     -13.114   9.076  70.475  1.00  0.00     0.000 HD 
ENDBRANCH  12  21
ENDBRANCH   6   7
ENDBRANCH   4   6
ENDBRANCH   2   4
TORSDOF 4
ENDMDL
MODEL        8
REMARK 921   NORMALIZED FREE ENERGY PREDICTED BY IDOCK:   -6.15 KCAL/MOL
REMARK 922        TOTAL FREE ENERGY PREDICTED BY IDOCK:   -8.03 KCAL/MOL
REMARK 923 INTER-LIGAND FREE ENERGY PREDICTED BY IDOCK:   -7.52 KCAL/MOL
REMARK 924 INTRA-LIGAND FREE ENERGY PREDICTED BY IDOCK:   -0.51 KCAL/MOL
REMARK 927      BINDING AFFINITY PREDICTED BY RF-SCORE:    0.00 PKD
ROOT
HETATM    1  C   UNL     1      -6.225  20.652  68.220  1.00  0.00    -0.363 C  
HETATM    2  C   UNL     1      -7.104  20.995  67.015  1.00  0.00    -0.281 C  
HETATM    3  C   UNL     1      -6.493  20.382  65.751  1.00  0.00    -0.269 C  
ENDROOT
BRANCH   2   4
HETATM    4  N   UNL     1      -8.448  20.481  67.275  1.00  0.00    -0.442 NA 
HETATM    5  H   UNL     1      -9.075  21.242  67.534  1.00  0.00     0.000 HD 
BRANCH   4   6
HETATM    6  C   UNL     1      -9.024  19.697  66.176  1.00  0.00    -0.334 C  
BRANCH   6   7
HETATM    7  C   UNL     1      -9.336  18.255  66.646  1.00  0.00    -0.303 C  
HETATM    8  C   UNL     1      -8.065  17.517  67.060  1.00  0.00    -0.240 C  
HETATM    9  C   UNL     1      -8.460  16.164  67.649  1.00  0.00    -0.178 C  
HETATM   10  C   UNL     1      -9.414  15.430  66.742  1.00  0.00    -0.260 A  
HETATM   11  C   UNL     1      -9.623  14.053  66.931  1.00  0.00    -0.275 A  
HETATM   12  C   UNL     1     -10.498  13.316  66.110  1.00  0.00    -0.296 A  
HETATM   13  C   UNL     1     -11.152  14.006  65.066  1.00  0.00    -0.363 A  
HETATM   14  H   UNL     1     -10.470  17.975  64.802  1.00  0.00     0.000 HD 
HETATM   15  N   UNL     1     -12.088  13.344  64.133  1.00  0.00    -0.429 N  
HETATM   16  N   UNL     1     -10.041  17.501  65.598  1.00  0.00    -0.591 NA 
HETATM   17  C   UNL     1     -10.947  15.388  64.886  1.00  0.00    -0.453 A  
HETATM   18  O   UNL     1     -12.574  14.029  63.221  1.00  0.00    -0.801 OA 
HETATM   19  O   UNL     1     -12.345  12.142  64.295  1.00  0.00    -0.403 OA 
HETATM   20  C   UNL     1     -10.103  16.111  65.731  1.00  0.00    -0.363 A  
BRANCH  12  21
HETATM   21  C   UNL     1     -10.672  11.853  66.425  1.00  0.00    -0.266 C  
HETATM   22  O   UNL     1     -11.900  11.648  67.100  1.00  0.00    -0.608 OA 
HETATM   23  H   UNL     1     -12.010  10.726  67.298  1.00  0.00     0.000 HD 
ENDBRANCH  12  21
ENDBRANCH   6   7
ENDBRANCH   4   6
ENDBRANCH   2   4
TORSDOF 4
ENDMDL
MODEL        9
REMARK 921   NORMALIZED FREE ENERGY PREDICTED BY IDOCK:   -6.05 KCAL/MOL
REMARK 922        TOTAL FREE ENERGY PREDICTED BY IDOCK:   -7.91 KCAL/MOL
REMARK 923 INTER-LIGAND FREE ENERGY PREDICTED BY IDOCK:   -7.46 KCAL/MOL
REMARK 924 INTRA-LIGAND FREE ENERGY PREDICTED BY IDOCK:   -0.45 KCAL/MOL
REMARK 927      BINDING AFFINITY PREDICTED BY RF-SCORE:    0.00 PKD
ROOT
HETATM    1  C   UNL     1     -14.256  15.668  72.500  1.00  0.00    -0.472 C  
HETATM    2  C   UNL     1     -12.822  16.113  72.798  1.00  0.00    -0.360 C  
HETATM    3  C   UNL     1     -12.173  15.119  73.767  1.00  0.00    -0.678 C  
ENDROOT
BRANCH   2   4
HETATM    4  N   UNL     1     -12.098  16.187  71.529  1.00  0.00    -0.616 NA 
HETATM    5  H   UNL     1     -11.116  15.949  71.666  1.00  0.00     0.000 HD 
BRANCH   4   6
HETATM    6  C   UNL     1     -12.674  15.375  70.451  1.00  0.00    -0.362 C  
BRANCH   6   7
HETATM    7  C   UNL     1     -11.933  14.021  70.338  1.00  0.00    -0.328 C  
HETATM    8  C   UNL     1     -11.620  13.678  68.883  1.00  0.00    -0.362 C  
HETATM    9  C   UNL     1     -10.764  12.413  68.857  1.00  0.00    -0.202 C  
HETATM   10  C   UNL     1     -11.371  11.323  69.703  1.00  0.00    -0.359 A  
HETATM   11  C   UNL     1     -10.930   9.998  69.541  1.00  0.00    -0.289 A  
HETATM   12  C   UNL     1     -11.466   8.941  70.300  1.00  0.00    -0.123 A  
HETATM   13  C   UNL     1     -12.486   9.251  71.226  1.00  0.00    -0.316 A  
HETATM   14  H   UNL     1     -13.496  13.142  71.582  1.00  0.00     0.000 HD 
HETATM   15  N   UNL     1     -13.133   8.229  72.076  1.00  0.00    -0.336 N  
HETATM   16  N   UNL     1     -12.715  12.940  70.957  1.00  0.00    -0.305 NA 
HETATM   17  C   UNL     1     -12.918  10.581  71.392  1.00  0.00    -0.542 A  
HETATM   18  O   UNL     1     -14.051   8.597  72.823  1.00  0.00    -0.382 OA 
HETATM   19  O   UNL     1     -12.739   7.056  72.006  1.00  0.00    -0.283 OA 
HETATM   20  C   UNL     1     -12.352  11.624  70.657  1.00  0.00    -0.344 A  
BRANCH  12  21
HETATM   21  C   UNL     1     -10.895   7.566  70.068  1.00  0.00    -0.249 C  
HETATM   22  O   UNL     1     -11.606   6.918  69.027  1.00  0.00    -0.548 OA 
HETATM   23  H   UNL     1     -11.246   6.052  68.881  1.00  0.00     0.000 HD 
ENDBRANCH  12  21
ENDBRANCH   6   7
ENDBRANCH   4   6
ENDBRANCH   2   4
TORSDOF 4
ENDMDL
MODEL       10
REMARK 921   NORMALIZED FREE ENERGY PREDICTED BY IDOCK:   -6.02 KCAL/MOL
REMARK 922        TOTAL FREE ENERGY PREDICTED BY IDOCK:   -7.87 KCAL/MOL
REMARK 923 INTER-LIGAND FREE ENERGY PREDICTED BY IDOCK:   -7.38 KCAL/MOL
REMARK 924 INTRA-LIGAND FREE ENERGY PREDICTED BY IDOCK:   -0.49 KCAL/MOL
REMARK 927      BINDING AFFINITY PREDICTED BY RF-SCORE:    0.00 PKD
ROOT
HETATM    1  C   UNL     1     -10.007   4.870  69.145  1.00  0.00    -0.252 C  
HETATM    2  C   UNL     1     -10.436   6.163  68.447  1.00  0.00    -0.231 C  
HETATM    3  C   UNL     1     -10.768   5.862  66.982  1.00  0.00    -0.396 C  
ENDROOT
BRANCH   2   4
HETATM    4  N   UNL     1     -11.588   6.704  69.167  1.00  0.00    -0.628 NA 
HETATM    5  H   UNL     1     -12.449   6.269  68.835  1.00  0.00     0.000 HD 
BRANCH   4   6
HETATM    6  C   UNL     1     -11.497   6.604  70.628  1.00  0.00    -0.364 C  
BRANCH   6   7
HETATM    7  C   UNL     1     -11.834   7.965  71.286  1.00  0.00    -0.296 C  
HETATM    8  C   UNL     1     -13.308   8.043  71.676  1.00  0.00    -0.364 C  
HETATM    9  C   UNL     1     -13.537   9.341  72.448  1.00  0.00    -0.527 C  
HETATM   10  C   UNL     1     -12.958  10.524  71.715  1.00  0.00    -0.582 A  
HETATM   11  C   UNL     1     -13.355  11.822  72.078  1.00  0.00    -0.417 A  
HETATM   12  C   UNL     1     -12.851  12.962  71.423  1.00  0.00    -0.377 A  
HETATM   13  C   UNL     1     -11.940  12.759  70.364  1.00  0.00    -0.249 A  
HETATM   14  H   UNL     1     -10.877   8.943  69.587  1.00  0.00     0.000 HD 
HETATM   15  N   UNL     1     -11.346  13.873  69.594  1.00  0.00    -0.233 N  
HETATM   16  N   UNL     1     -11.486   9.081  70.394  1.00  0.00    -0.220 NA 
HETATM   17  C   UNL     1     -11.538  11.457  70.008  1.00  0.00    -0.382 A  
HETATM   18  O   UNL     1     -10.593  13.586  68.652  1.00  0.00    -0.244 OA 
HETATM   19  O   UNL     1     -11.625  15.037  69.915  1.00  0.00    -0.258 OA 
HETATM   20  C   UNL     1     -12.020  10.338  70.691  1.00  0.00    -0.342 A  
BRANCH  12  21
HETATM   21  C   UNL     1     -13.319  14.306  71.919  1.00  0.00    -0.388 C  
HETATM   22  O   UNL     1     -14.255  14.856  71.009  1.00  0.00    -0.629 OA 
HETATM   23  H   UNL     1     -14.550  15.703  71.321  1.00  0.00     0.000 HD 
ENDBRANCH  12  21
ENDBRANCH   6   7
ENDBRANCH   4   6
ENDBRANCH   2   4
TORSDOF 4
ENDMDL
MODEL       11
REMARK 921   NORMALIZED FREE ENERGY PREDICTED BY IDOCK:   -6.02 KCAL/MOL
REMARK 922        TOTAL FREE ENERGY PREDICTED BY IDOCK:   -7.87 KCAL/MOL
REMARK 923 INTER-LIGAND FREE ENERGY PREDICTED BY IDOCK:   -7.70 KCAL/MOL
REMARK 924 INTRA-LIGAND FREE ENERGY PREDICTED BY IDOCK:   -0.17 KCAL/MOL
REMARK 927      BINDING AFFINITY PREDICTED BY RF-SCORE:    0.00 PKD
ROOT
HETATM    1  C   UNL     1     -10.245   8.034  72.703  1.00  0.00    -0.385 C  
HETATM    2  C   UNL     1     -11.325   8.494  71.721  1.00  0.00    -0.307 C  
HETATM    3  C   UNL     1     -12.655   8.649  72.465  1.00  0.00    -0.367 C  
ENDROOT
BRANCH   2   4
HETATM    4  N   UNL     1     -10.885   9.755  71.124  1.00  0.00    -0.319 NA 
HETATM    5  H   UNL     1     -10.232   9.578  70.361  1.00  0.00     0.000 HD 
BRANCH   4   6
HETATM    6  C   UNL     1     -11.974  10.627  70.669  1.00  0.00    -0.367 C  
BRANCH   6   7
HETATM    7  C   UNL     1     -11.439  11.692  69.681  1.00  0.00    -0.288 C  
HETATM    8  C   UNL     1     -11.697  13.107  70.194  1.00  0.00    -0.250 C  
HETATM    9  C   UNL     1     -11.016  14.096  69.251  1.00  0.00    -0.252 C  
HETATM   10  C   UNL     1     -11.369  13.814  67.813  1.00  0.00    -0.331 A  
HETATM   11  C   UNL     1     -11.129  14.797  66.838  1.00  0.00    -0.339 A  
HETATM   12  C   UNL     1     -11.444  14.589  65.482  1.00  0.00    -0.343 A  
HETATM   13  C   UNL     1     -12.036  13.356  65.129  1.00  0.00    -0.409 A  
HETATM   14  H   UNL     1     -12.521  10.659  68.092  1.00  0.00     0.000 HD 
HETATM   15  N   UNL     1     -12.420  13.021  63.741  1.00  0.00    -0.347 N  
HETATM   16  N   UNL     1     -12.036  11.520  68.348  1.00  0.00    -0.560 NA 
HETATM   17  C   UNL     1     -12.267  12.370  66.107  1.00  0.00    -0.119 A  
HETATM   18  O   UNL     1     -12.976  11.931  63.544  1.00  0.00    -0.724 OA 
HETATM   19  O   UNL     1     -12.176  13.836  62.839  1.00  0.00    -0.392 OA 
HETATM   20  C   UNL     1     -11.915  12.578  67.443  1.00  0.00    -0.213 A  
BRANCH  12  21
HETATM   21  C   UNL     1     -11.111  15.698  64.517  1.00  0.00    -0.286 C  
HETATM   22  O   UNL     1     -12.300  16.203  63.934  1.00  0.00    -1.100 OA 
HETATM   23  H   UNL     1     -12.090  16.902  63.327  1.00  0.00     0.000 HD 
ENDBRANCH  12  21
ENDBRANCH   6   7
ENDBRANCH   4   6
ENDBRANCH   2   4
TORSDOF 4
ENDMDL
MODEL       12
REMARK 921   NORMALIZED FREE ENERGY PREDICTED BY IDOCK:   -6.01 KCAL/MOL
REMARK 922        TOTAL FREE ENERGY PREDICTED BY IDOCK:   -7.86 KCAL/MOL
REMARK 923 INTER-LIGAND FREE ENERGY PREDICTED BY IDOCK:   -7.62 KCAL/MOL
REMARK 924 INTRA-LIGAND FREE ENERGY PREDICTED BY IDOCK:   -0.25 KCAL/MOL
REMARK 927      BINDING AFFINITY PREDICTED BY RF-SCORE:    0.00 PKD
ROOT
HETATM    1  C   UNL     1     -10.461  17.259  66.431  1.00  0.00    -0.263 C  
HETATM    2  C   UNL     1     -10.119  16.570  67.755  1.00  0.00    -0.264 C  
HETATM    3  C   UNL     1      -9.732  17.629  68.792  1.00  0.00    -0.311 C  
ENDROOT
BRANCH   2   4
HETATM    4  N   UNL     1     -11.287  15.796  68.176  1.00  0.00    -0.353 NA 
HETATM    5  H   UNL     1     -11.160  14.810  67.948  1.00  0.00     0.000 HD 
BRANCH   4   6
HETATM    6  C   UNL     1     -11.643  15.951  69.591  1.00  0.00    -0.336 C  
BRANCH   6   7
HETATM    7  C   UNL     1     -12.355  14.679  70.112  1.00  0.00    -0.336 C  
HETATM    8  C   UNL     1     -12.590  14.751  71.619  1.00  0.00    -0.394 C  
HETATM    9  C   UNL     1     -13.422  13.542  72.039  1.00  0.00    -0.584 C  
HETATM   10  C   UNL     1     -12.839  12.261  71.497  1.00  0.00    -0.384 A  
HETATM   11  C   UNL     1     -13.249  11.032  72.042  1.00  0.00    -0.447 A  
HETATM   12  C   UNL     1     -12.733   9.807  71.578  1.00  0.00    -0.504 A  
HETATM   13  C   UNL     1     -11.765   9.851  70.551  1.00  0.00    -0.295 A  
HETATM   14  H   UNL     1     -10.841  13.494  69.080  1.00  0.00     0.000 HD 
HETATM   15  N   UNL     1     -11.144   8.635  69.984  1.00  0.00    -0.206 N  
HETATM   16  N   UNL     1     -11.586  13.471  69.777  1.00  0.00    -0.269 NA 
HETATM   17  C   UNL     1     -11.365  11.084  70.001  1.00  0.00    -0.358 A  
HETATM   18  O   UNL     1     -10.270   8.785  69.117  1.00  0.00    -0.197 OA 
HETATM   19  O   UNL     1     -11.514   7.526  70.396  1.00  0.00    -0.269 OA 
HETATM   20  C   UNL     1     -11.912  12.289  70.448  1.00  0.00    -0.263 A  
BRANCH  12  21
HETATM   21  C   UNL     1     -13.269   8.549  72.211  1.00  0.00    -0.327 C  
HETATM   22  O   UNL     1     -14.058   8.876  73.341  1.00  0.00    -1.256 OA 
HETATM   23  H   UNL     1     -14.396   8.084  73.740  1.00  0.00     0.000 HD 
ENDBRANCH  12  21
ENDBRANCH   6   7
ENDBRANCH   4   6
ENDBRANCH   2   4
TORSDOF 4
ENDMDL
MODEL       13
REMARK 921   NORMALIZED FREE ENERGY PREDICTED BY IDOCK:   -6.01 KCAL/MOL
REMARK 922        TOTAL FREE ENERGY PREDICTED BY IDOCK:   -7.86 KCAL/MOL
REMARK 923 INTER-LIGAND FREE ENERGY PREDICTED BY IDOCK:   -7.24 KCAL/MOL
REMARK 924 INTRA-LIGAND FREE ENERGY PREDICTED BY IDOCK:   -0.61 KCAL/MOL
REMARK 927      BINDING AFFINITY PREDICTED BY RF-SCORE:    0.00 PKD
ROOT
HETATM    1  C   UNL     1     -11.376   6.072  72.437  1.00  0.00    -0.349 C  
HETATM    2  C   UNL     1     -12.013   6.604  71.152  1.00  0.00    -0.357 C  
HETATM    3  C   UNL     1     -13.380   7.214  71.477  1.00  0.00    -0.413 C  
ENDROOT
BRANCH   2   4
HETATM    4  N   UNL     1     -11.102   7.590  70.571  1.00  0.00    -0.257 NA 
HETATM    5  H   UNL     1     -11.468   7.932  69.683  1.00  0.00     0.000 HD 
BRANCH   4   6
HETATM    6  C   UNL     1     -10.777   8.715  71.456  1.00  0.00    -0.282 C  
BRANCH   6   7
HETATM    7  C   UNL     1     -10.861  10.054  70.682  1.00  0.00    -0.297 C  
HETATM    8  C   UNL     1     -12.133  10.821  71.034  1.00  0.00    -0.452 C  
HETATM    9  C   UNL     1     -12.079  12.188  70.355  1.00  0.00    -0.395 C  
HETATM   10  C   UNL     1     -11.738  12.060  68.892  1.00  0.00    -0.383 A  
HETATM   11  C   UNL     1     -11.973  13.146  68.032  1.00  0.00    -0.345 A  
HETATM   12  C   UNL     1     -11.679  13.079  66.657  1.00  0.00    -0.438 A  
HETATM   13  C   UNL     1     -11.155  11.867  66.157  1.00  0.00    -0.326 A  
HETATM   14  H   UNL     1     -10.472   8.937  68.848  1.00  0.00     0.000 HD 
HETATM   15  N   UNL     1     -10.814  11.669  64.733  1.00  0.00    -0.307 N  
HETATM   16  N   UNL     1     -10.790   9.828  69.230  1.00  0.00    -0.223 NA 
HETATM   17  C   UNL     1     -10.913  10.784  67.024  1.00  0.00    -0.292 A  
HETATM   18  O   UNL     1     -10.404  10.551  64.388  1.00  0.00    -0.341 OA 
HETATM   19  O   UNL     1     -10.952  12.618  63.947  1.00  0.00    -0.368 OA 
HETATM   20  C   UNL     1     -11.177  10.878  68.393  1.00  0.00    -0.285 A  
BRANCH  12  21
HETATM   21  C   UNL     1     -11.938  14.315  65.835  1.00  0.00    -0.391 C  
HETATM   22  O   UNL     1     -13.195  14.210  65.189  1.00  0.00    -0.743 OA 
HETATM   23  H   UNL     1     -13.358  14.989  64.671  1.00  0.00     0.000 HD 
ENDBRANCH  12  21
ENDBRANCH   6   7
ENDBRANCH   4   6
ENDBRANCH   2   4
TORSDOF 4
ENDMDL
MODEL       14
REMARK 921   NORMALIZED FREE ENERGY PREDICTED BY IDOCK:   -6.01 KCAL/MOL
REMARK 922        TOTAL FREE ENERGY PREDICTED BY IDOCK:   -7.85 KCAL/MOL
REMARK 923 INTER-LIGAND FREE ENERGY PREDICTED BY IDOCK:   -7.75 KCAL/MOL
REMARK 924 INTRA-LIGAND FREE ENERGY PREDICTED BY IDOCK:   -0.10 KCAL/MOL
REMARK 927      BINDING AFFINITY PREDICTED BY RF-SCORE:    0.00 PKD
ROOT
HETATM    1  C   UNL     1      -9.931  20.001  68.432  1.00  0.00    -0.481 C  
HETATM    2  C   UNL     1      -9.626  19.445  67.038  1.00  0.00    -0.329 C  
HETATM    3  C   UNL     1     -10.584  20.072  66.021  1.00  0.00    -0.472 C  
ENDROOT
BRANCH   2   4
HETATM    4  N   UNL     1      -8.229  19.747  66.728  1.00  0.00    -0.298 NA 
HETATM    5  H   UNL     1      -7.775  20.188  67.527  1.00  0.00     0.000 HD 
BRANCH   4   6
HETATM    6  C   UNL     1      -7.444  18.596  66.267  1.00  0.00    -0.260 C  
BRANCH   6   7
HETATM    7  C   UNL     1      -8.090  17.273  66.747  1.00  0.00    -0.246 C  
HETATM    8  C   UNL     1      -7.037  16.191  66.977  1.00  0.00    -0.248 C  
HETATM    9  C   UNL     1      -7.722  14.970  67.587  1.00  0.00    -0.186 C  
HETATM   10  C   UNL     1      -8.947  14.579  66.801  1.00  0.00    -0.270 A  
HETATM   11  C   UNL     1      -9.510  13.305  66.991  1.00  0.00    -0.243 A  
HETATM   12  C   UNL     1     -10.650  12.885  66.279  1.00  0.00    -0.281 A  
HETATM   13  C   UNL     1     -11.205  13.784  65.343  1.00  0.00    -0.302 A  
HETATM   14  H   UNL     1      -9.471  17.418  65.064  1.00  0.00     0.000 HD 
HETATM   15  N   UNL     1     -12.396  13.459  64.529  1.00  0.00    -0.379 N  
HETATM   16  N   UNL     1      -9.100  16.802  65.787  1.00  0.00    -0.503 NA 
HETATM   17  C   UNL     1     -10.644  15.063  65.162  1.00  0.00    -0.440 A  
HETATM   18  O   UNL     1     -12.777  14.300  63.702  1.00  0.00    -0.783 OA 
HETATM   19  O   UNL     1     -12.959  12.368  64.702  1.00  0.00    -0.793 OA 
HETATM   20  C   UNL     1      -9.534  15.478  65.902  1.00  0.00    -0.342 A  
BRANCH  12  21
HETATM   21  C   UNL     1     -11.189  11.512  66.587  1.00  0.00    -0.271 C  
HETATM   22  O   UNL     1     -12.106  11.585  67.664  1.00  0.00    -0.623 OA 
HETATM   23  H   UNL     1     -12.446  10.720  67.859  1.00  0.00     0.000 HD 
ENDBRANCH  12  21
ENDBRANCH   6   7
ENDBRANCH   4   6
ENDBRANCH   2   4
TORSDOF 4
ENDMDL
MODEL       15
REMARK 921   NORMALIZED FREE ENERGY PREDICTED BY IDOCK:   -5.97 KCAL/MOL
REMARK 922        TOTAL FREE ENERGY PREDICTED BY IDOCK:   -7.81 KCAL/MOL
REMARK 923 INTER-LIGAND FREE ENERGY PREDICTED BY IDOCK:   -7.23 KCAL/MOL
REMARK 924 INTRA-LIGAND FREE ENERGY PREDICTED BY IDOCK:   -0.58 KCAL/MOL
REMARK 927      BINDING AFFINITY PREDICTED BY RF-SCORE:    0.00 PKD
ROOT
HETATM    1  C   UNL     1     -14.049  14.101  72.228  1.00  0.00    -0.630 C  
HETATM    2  C   UNL     1     -13.570  15.451  71.689  1.00  0.00    -0.509 C  
HETATM    3  C   UNL     1     -12.268  15.845  72.394  1.00  0.00    -0.591 C  
ENDROOT
BRANCH   2   4
HETATM    4  N   UNL     1     -13.389  15.322  70.244  1.00  0.00    -0.632 NA 
HETATM    5  H   UNL     1     -14.074  15.892  69.748  1.00  0.00     0.000 HD 
BRANCH   4   6
HETATM    6  C   UNL     1     -12.034  15.626  69.769  1.00  0.00    -0.354 C  
BRANCH   6   7
HETATM    7  C   UNL     1     -11.441  14.414  69.010  1.00  0.00    -0.283 C  
HETATM    8  C   UNL     1     -12.134  14.206  67.666  1.00  0.00    -0.337 C  
HETATM    9  C   UNL     1     -11.406  13.096  66.912  1.00  0.00    -0.355 C  
HETATM   10  C   UNL     1     -11.214  11.878  67.779  1.00  0.00    -0.330 A  
HETATM   11  C   UNL     1     -10.882  10.650  67.182  1.00  0.00    -0.328 A  
HETATM   12  C   UNL     1     -10.698   9.481  67.943  1.00  0.00    -0.285 A  
HETATM   13  C   UNL     1     -10.880   9.574  69.340  1.00  0.00    -0.206 A  
HETATM   14  H   UNL     1     -11.722  13.232  70.823  1.00  0.00     0.000 HD 
HETATM   15  N   UNL     1     -10.722   8.417  70.247  1.00  0.00    -0.231 N  
HETATM   16  N   UNL     1     -11.532  13.190  69.822  1.00  0.00    -0.198 NA 
HETATM   17  C   UNL     1     -11.203  10.808  69.937  1.00  0.00    -0.371 A  
HETATM   18  O   UNL     1     -10.949   8.594  71.453  1.00  0.00    -0.237 OA 
HETATM   19  O   UNL     1     -10.375   7.326  69.771  1.00  0.00    -0.208 OA 
HETATM   20  C   UNL     1     -11.348  11.967  69.171  1.00  0.00    -0.281 A  
BRANCH  12  21
HETATM   21  C   UNL     1     -10.309   8.228  67.201  1.00  0.00    -0.317 C  
HETATM   22  O   UNL     1     -11.388   7.310  67.208  1.00  0.00    -0.544 OA 
HETATM   23  H   UNL     1     -11.143   6.520  66.740  1.00  0.00     0.000 HD 
ENDBRANCH  12  21
ENDBRANCH   6   7
ENDBRANCH   4   6
ENDBRANCH   2   4
TORSDOF 4
ENDMDL
MODEL       16
REMARK 921   NORMALIZED FREE ENERGY PREDICTED BY IDOCK:   -5.92 KCAL/MOL
REMARK 922        TOTAL FREE ENERGY PREDICTED BY IDOCK:   -7.75 KCAL/MOL
REMARK 923 INTER-LIGAND FREE ENERGY PREDICTED BY IDOCK:   -7.23 KCAL/MOL
REMARK 924 INTRA-LIGAND FREE ENERGY PREDICTED BY IDOCK:   -0.52 KCAL/MOL
REMARK 927      BINDING AFFINITY PREDICTED BY RF-SCORE:    0.00 PKD
ROOT
HETATM    1  C   UNL     1     -14.224   8.580  71.977  1.00  0.00    -0.535 C  
HETATM    2  C   UNL     1     -12.915   9.334  71.727  1.00  0.00    -0.396 C  
HETATM    3  C   UNL     1     -11.823   8.336  71.328  1.00  0.00    -0.319 C  
ENDROOT
BRANCH   2   4
HETATM    4  N   UNL     1     -13.158  10.324  70.678  1.00  0.00    -0.544 NA 
HETATM    5  H   UNL     1     -13.084  11.268  71.057  1.00  0.00     0.000 HD 
BRANCH   4   6
HETATM    6  C   UNL     1     -12.301  10.181  69.495  1.00  0.00     0.320 C  
BRANCH   6   7
HETATM    7  C   UNL     1     -11.649  11.537  69.132  1.00  0.00    -0.316 C  
HETATM    8  C   UNL     1     -11.952  12.600  70.185  1.00  0.00    -0.375 C  
HETATM    9  C   UNL     1     -11.161  13.861  69.843  1.00  0.00    -0.093 C  
HETATM   10  C   UNL     1     -11.350  14.252  68.400  1.00  0.00    -0.309 A  
HETATM   11  C   UNL     1     -10.993  15.546  67.984  1.00  0.00    -0.311 A  
HETATM   12  C   UNL     1     -11.154  15.967  66.650  1.00  0.00    -0.045 A  
HETATM   13  C   UNL     1     -11.711  15.046  65.736  1.00  0.00    -0.104 A  
HETATM   14  H   UNL     1     -12.551  11.361  67.153  1.00  0.00     0.000 HD 
HETATM   15  N   UNL     1     -11.937  15.370  64.311  1.00  0.00    -0.317 N  
HETATM   16  N   UNL     1     -12.092  11.996  67.806  1.00  0.00    -0.499 NA 
HETATM   17  C   UNL     1     -12.059  13.747  66.155  1.00  0.00    -0.477 A  
HETATM   18  O   UNL     1     -12.475  14.507  63.602  1.00  0.00    -0.782 OA 
HETATM   19  O   UNL     1     -11.586  16.480  63.887  1.00  0.00    -1.175 OA 
HETATM   20  C   UNL     1     -11.861  13.333  67.474  1.00  0.00    -0.358 A  
BRANCH  12  21
HETATM   21  C   UNL     1     -10.705  17.364  66.308  1.00  0.00    -0.082 C  
HETATM   22  O   UNL     1      -9.444  17.321  65.663  1.00  0.00    -0.515 OA 
HETATM   23  H   UNL     1      -9.162  18.202  65.447  1.00  0.00     0.000 HD 
ENDBRANCH  12  21
ENDBRANCH   6   7
ENDBRANCH   4   6
ENDBRANCH   2   4
TORSDOF 4
ENDMDL
MODEL       17
REMARK 921   NORMALIZED FREE ENERGY PREDICTED BY IDOCK:   -5.90 KCAL/MOL
REMARK 922        TOTAL FREE ENERGY PREDICTED BY IDOCK:   -7.73 KCAL/MOL
REMARK 923 INTER-LIGAND FREE ENERGY PREDICTED BY IDOCK:   -7.18 KCAL/MOL
REMARK 924 INTRA-LIGAND FREE ENERGY PREDICTED BY IDOCK:   -0.54 KCAL/MOL
REMARK 927      BINDING AFFINITY PREDICTED BY RF-SCORE:    0.00 PKD
ROOT
HETATM    1  C   UNL     1     -14.154  13.764  72.151  1.00  0.00    -0.604 C  
HETATM    2  C   UNL     1     -14.038  15.279  71.963  1.00  0.00    -0.562 C  
HETATM    3  C   UNL     1     -13.298  15.883  73.161  1.00  0.00    -0.681 C  
ENDROOT
BRANCH   2   4
HETATM    4  N   UNL     1     -13.331  15.525  70.707  1.00  0.00    -0.769 NA 
HETATM    5  H   UNL     1     -13.702  16.357  70.248  1.00  0.00     0.000 HD 
BRANCH   4   6
HETATM    6  C   UNL     1     -11.872  15.622  70.836  1.00  0.00    -0.388 C  
BRANCH   6   7
HETATM    7  C   UNL     1     -11.181  15.155  69.531  1.00  0.00    -0.273 C  
HETATM    8  C   UNL     1     -11.782  15.841  68.307  1.00  0.00    -0.229 C  
HETATM    9  C   UNL     1     -10.961  15.450  67.080  1.00  0.00    -0.317 C  
HETATM   10  C   UNL     1     -10.767  13.957  67.003  1.00  0.00    -0.283 A  
HETATM   11  C   UNL     1     -10.345  13.378  65.795  1.00  0.00    -0.296 A  
HETATM   12  C   UNL     1     -10.153  11.989  65.665  1.00  0.00    -0.272 A  
HETATM   13  C   UNL     1     -10.422  11.184  66.793  1.00  0.00    -0.252 A  
HETATM   14  H   UNL     1     -11.516  13.096  70.174  1.00  0.00     0.000 HD 
HETATM   15  N   UNL     1     -10.267   9.713  66.781  1.00  0.00    -0.239 N  
HETATM   16  N   UNL     1     -11.265  13.693  69.386  1.00  0.00    -0.231 NA 
HETATM   17  C   UNL     1     -10.836  11.768  68.005  1.00  0.00    -0.256 A  
HETATM   18  O   UNL     1     -10.573   9.093  67.810  1.00  0.00    -0.248 OA 
HETATM   19  O   UNL     1      -9.844   9.164  65.754  1.00  0.00    -0.286 OA 
HETATM   20  C   UNL     1     -10.987  13.152  68.128  1.00  0.00    -0.251 A  
BRANCH  12  21
HETATM   21  C   UNL     1      -9.665  11.481  64.333  1.00  0.00    -0.200 C  
HETATM   22  O   UNL     1     -10.752  10.963  63.586  1.00  0.00    -0.546 OA 
HETATM   23  H   UNL     1     -10.445  10.643  62.747  1.00  0.00     0.000 HD 
ENDBRANCH  12  21
ENDBRANCH   6   7
ENDBRANCH   4   6
ENDBRANCH   2   4
TORSDOF 4
ENDMDL
MODEL       18
REMARK 921   NORMALIZED FREE ENERGY PREDICTED BY IDOCK:   -5.85 KCAL/MOL
REMARK 922        TOTAL FREE ENERGY PREDICTED BY IDOCK:   -7.66 KCAL/MOL
REMARK 923 INTER-LIGAND FREE ENERGY PREDICTED BY IDOCK:   -7.08 KCAL/MOL
REMARK 924 INTRA-LIGAND FREE ENERGY PREDICTED BY IDOCK:   -0.58 KCAL/MOL
REMARK 927      BINDING AFFINITY PREDICTED BY RF-SCORE:    0.00 PKD
ROOT
HETATM    1  C   UNL     1     -10.497  13.221  64.386  1.00  0.00    -0.424 C  
HETATM    2  C   UNL     1     -12.002  13.250  64.107  1.00  0.00    -0.447 C  
HETATM    3  C   UNL     1     -12.456  11.866  63.632  1.00  0.00    -0.583 C  
ENDROOT
BRANCH   2   4
HETATM    4  N   UNL     1     -12.683  13.654  65.337  1.00  0.00    -0.628 NA 
HETATM    5  H   UNL     1     -13.366  12.949  65.612  1.00  0.00     0.000 HD 
BRANCH   4   6
HETATM    6  C   UNL     1     -11.786  13.960  66.457  1.00  0.00    -0.393 C  
BRANCH   6   7
HETATM    7  C   UNL     1     -12.153  13.104  67.694  1.00  0.00    -0.232 C  
HETATM    8  C   UNL     1     -11.803  13.826  68.993  1.00  0.00    -0.397 C  
HETATM    9  C   UNL     1     -12.325  12.996  70.164  1.00  0.00    -0.270 C  
HETATM   10  C   UNL     1     -11.901  11.555  70.046  1.00  0.00    -0.435 A  
HETATM   11  C   UNL     1     -11.983  10.717  71.171  1.00  0.00    -0.401 A  
HETATM   12  C   UNL     1     -11.595   9.364  71.118  1.00  0.00    -0.415 A  
HETATM   13  C   UNL     1     -11.095   8.874  69.892  1.00  0.00    -0.136 A  
HETATM   14  H   UNL     1     -11.063  11.448  66.783  1.00  0.00     0.000 HD 
HETATM   15  N   UNL     1     -10.649   7.476  69.712  1.00  0.00    -0.238 N  
HETATM   16  N   UNL     1     -11.484  11.795  67.646  1.00  0.00    -0.375 NA 
HETATM   17  C   UNL     1     -11.023   9.714  68.764  1.00  0.00    -0.153 A  
HETATM   18  O   UNL     1     -10.183   7.158  68.608  1.00  0.00    -0.168 OA 
HETATM   19  O   UNL     1     -10.755   6.687  70.661  1.00  0.00    -0.223 OA 
HETATM   20  C   UNL     1     -11.445  11.045  68.823  1.00  0.00    -0.305 A  
BRANCH  12  21
HETATM   21  C   UNL     1     -11.759   8.550  72.376  1.00  0.00    -0.358 C  
HETATM   22  O   UNL     1     -12.954   7.792  72.308  1.00  0.00    -0.493 OA 
HETATM   23  H   UNL     1     -13.057   7.279  73.100  1.00  0.00     0.000 HD 
ENDBRANCH  12  21
ENDBRANCH   6   7
ENDBRANCH   4   6
ENDBRANCH   2   4
TORSDOF 4
ENDMDL
MODEL       19
REMARK 921   NORMALIZED FREE ENERGY PREDICTED BY IDOCK:   -5.85 KCAL/MOL
REMARK 922        TOTAL FREE ENERGY PREDICTED BY IDOCK:   -7.66 KCAL/MOL
REMARK 923 INTER-LIGAND FREE ENERGY PREDICTED BY IDOCK:   -7.13 KCAL/MOL
REMARK 924 INTRA-LIGAND FREE ENERGY PREDICTED BY IDOCK:   -0.53 KCAL/MOL
REMARK 927      BINDING AFFINITY PREDICTED BY RF-SCORE:    0.00 PKD
ROOT
HETATM    1  C   UNL     1     -11.034   6.025  68.877  1.00  0.00    -0.395 C  
HETATM    2  C   UNL     1     -11.107   6.070  70.405  1.00  0.00    -0.329 C  
HETATM    3  C   UNL     1      -9.687   6.065  70.981  1.00  0.00    -0.208 C  
ENDROOT
BRANCH   2   4
HETATM    4  N   UNL     1     -11.845   7.273  70.787  1.00  0.00    -0.405 NA 
HETATM    5  H   UNL     1     -12.684   7.023  71.311  1.00  0.00     0.000 HD 
BRANCH   4   6
HETATM    6  C   UNL     1     -11.056   8.263  71.529  1.00  0.00    -0.259 C  
BRANCH   6   7
HETATM    7  C   UNL     1     -11.056   9.622  70.786  1.00  0.00    -0.334 C  
HETATM    8  C   UNL     1     -12.346  10.397  71.045  1.00  0.00    -0.490 C  
HETATM    9  C   UNL     1     -12.217  11.779  70.409  1.00  0.00    -0.416 C  
HETATM   10  C   UNL     1     -11.750  11.683  68.979  1.00  0.00    -0.388 A  
HETATM   11  C   UNL     1     -11.895  12.794  68.130  1.00  0.00    -0.372 A  
HETATM   12  C   UNL     1     -11.481  12.757  66.785  1.00  0.00    -0.399 A  
HETATM   13  C   UNL     1     -10.929  11.551  66.302  1.00  0.00    -0.275 A  
HETATM   14  H   UNL     1     -10.519   8.546  68.965  1.00  0.00     0.000 HD 
HETATM   15  N   UNL     1     -10.465  11.385  64.908  1.00  0.00    -0.290 N  
HETATM   16  N   UNL     1     -10.860   9.431  69.341  1.00  0.00    -0.218 NA 
HETATM   17  C   UNL     1     -10.777  10.443  67.158  1.00  0.00    -0.316 A  
HETATM   18  O   UNL     1     -10.039  10.271  64.571  1.00  0.00    -0.338 OA 
HETATM   19  O   UNL     1     -10.523  12.355  64.138  1.00  0.00    -0.335 OA 
HETATM   20  C   UNL     1     -11.159  10.507  68.500  1.00  0.00    -0.275 A  
BRANCH  12  21
HETATM   21  C   UNL     1     -11.653  14.018  65.976  1.00  0.00    -0.357 C  
HETATM   22  O   UNL     1     -12.929  14.025  65.360  1.00  0.00    -0.726 OA 
HETATM   23  H   UNL     1     -13.037  14.819  64.850  1.00  0.00     0.000 HD 
ENDBRANCH  12  21
ENDBRANCH   6   7
ENDBRANCH   4   6
ENDBRANCH   2   4
TORSDOF 4
ENDMDL
MODEL       20
REMARK 921   NORMALIZED FREE ENERGY PREDICTED BY IDOCK:   -5.80 KCAL/MOL
REMARK 922        TOTAL FREE ENERGY PREDICTED BY IDOCK:   -7.60 KCAL/MOL
REMARK 923 INTER-LIGAND FREE ENERGY PREDICTED BY IDOCK:   -7.22 KCAL/MOL
REMARK 924 INTRA-LIGAND FREE ENERGY PREDICTED BY IDOCK:   -0.39 KCAL/MOL
REMARK 927      BINDING AFFINITY PREDICTED BY RF-SCORE:    0.00 PKD
ROOT
HETATM    1  C   UNL     1     -10.918   6.464  67.810  1.00  0.00    -0.425 C  
HETATM    2  C   UNL     1     -11.091   6.011  69.262  1.00  0.00    -0.354 C  
HETATM    3  C   UNL     1      -9.733   6.044  69.970  1.00  0.00    -0.202 C  
ENDROOT
BRANCH   2   4
HETATM    4  N   UNL     1     -12.060   6.901  69.901  1.00  0.00    -0.600 NA 
HETATM    5  H   UNL     1     -12.989   6.480  69.891  1.00  0.00     0.000 HD 
BRANCH   4   6
HETATM    6  C   UNL     1     -11.702   7.316  71.262  1.00  0.00    -0.296 C  
BRANCH   6   7
HETATM    7  C   UNL     1     -11.806   8.855  71.403  1.00  0.00    -0.317 C  
HETATM    8  C   UNL     1     -13.246   9.292  71.661  1.00  0.00    -0.456 C  
HETATM    9  C   UNL     1     -13.254  10.794  71.938  1.00  0.00    -0.524 C  
HETATM   10  C   UNL     1     -12.486  11.549  70.883  1.00  0.00    -0.464 A  
HETATM   11  C   UNL     1     -12.660  12.939  70.765  1.00  0.00    -0.314 A  
HETATM   12  C   UNL     1     -11.973  13.693  69.795  1.00  0.00    -0.404 A  
HETATM   13  C   UNL     1     -11.110  13.000  68.918  1.00  0.00    -0.262 A  
HETATM   14  H   UNL     1     -10.701   9.031  69.531  1.00  0.00     0.000 HD 
HETATM   15  N   UNL     1     -10.340  13.676  67.853  1.00  0.00    -0.243 N  
HETATM   16  N   UNL     1     -11.277   9.530  70.209  1.00  0.00    -0.255 NA 
HETATM   17  C   UNL     1     -10.932  11.609  69.044  1.00  0.00    -0.283 A  
HETATM   18  O   UNL     1      -9.646  12.971  67.106  1.00  0.00    -0.217 OA 
HETATM   19  O   UNL     1     -10.419  14.909  67.748  1.00  0.00    -0.250 OA 
HETATM   20  C   UNL     1     -11.593  10.880  70.036  1.00  0.00    -0.341 A  
BRANCH  12  21
HETATM   21  C   UNL     1     -12.209  15.181  69.782  1.00  0.00    -0.289 C  
HETATM   22  O   UNL     1     -13.291  15.505  70.638  1.00  0.00    -0.718 OA 
HETATM   23  H   UNL     1     -13.440  16.442  70.630  1.00  0.00     0.000 HD 
ENDBRANCH  12  21
ENDBRANCH   6   7
ENDBRANCH   4   6
ENDBRANCH   2   4
TORSDOF 4
ENDMDL
MODEL       21
REMARK 921   NORMALIZED FREE ENERGY PREDICTED BY IDOCK:   -5.79 KCAL/MOL
REMARK 922        TOTAL FREE ENERGY PREDICTED BY IDOCK:   -7.59 KCAL/MOL
REMARK 923 INTER-LIGAND FREE ENERGY PREDICTED BY IDOCK:   -7.02 KCAL/MOL
REMARK 924 INTRA-LIGAND FREE ENERGY PREDICTED BY IDOCK:   -0.56 KCAL/MOL
REMARK 927      BINDING AFFINITY PREDICTED BY RF-SCORE:    0.00 PKD
ROOT
HETATM    1  C   UNL     1     -12.199   7.176  71.158  1.00  0.00    -0.405 C  
HETATM    2  C   UNL     1     -11.808   8.186  72.240  1.00  0.00    -0.382 C  
HETATM    3  C   UNL     1     -10.737   7.571  73.145  1.00  0.00    -0.452 C  
ENDROOT
BRANCH   2   4
HETATM    4  N   UNL     1     -11.330   9.397  71.575  1.00  0.00    -0.379 NA 
HETATM    5  H   UNL     1     -10.855   9.160  70.704  1.00  0.00     0.000 HD 
BRANCH   4   6
HETATM    6  C   UNL     1     -12.364  10.409  71.333  1.00  0.00    -0.397 C  
BRANCH   6   7
HETATM    7  C   UNL     1     -12.244  10.973  69.896  1.00  0.00    -0.336 C  
HETATM    8  C   UNL     1     -11.241  10.174  69.067  1.00  0.00    -0.223 C  
HETATM    9  C   UNL     1     -11.284  10.687  67.629  1.00  0.00    -0.361 C  
HETATM   10  C   UNL     1     -11.171  12.189  67.579  1.00  0.00    -0.357 A  
HETATM   11  C   UNL     1     -10.849  12.817  66.364  1.00  0.00    -0.294 A  
HETATM   12  C   UNL     1     -10.726  14.215  66.262  1.00  0.00    -0.293 A  
HETATM   13  C   UNL     1     -10.916  14.977  67.435  1.00  0.00    -0.315 A  
HETATM   14  H   UNL     1     -11.939  12.948  70.772  1.00  0.00     0.000 HD 
HETATM   15  N   UNL     1     -10.806  16.451  67.460  1.00  0.00    -0.290 N  
HETATM   16  N   UNL     1     -11.866  12.394  69.918  1.00  0.00    -0.328 NA 
HETATM   17  C   UNL     1     -11.248  14.345  68.650  1.00  0.00    -0.280 A  
HETATM   18  O   UNL     1     -10.946  17.021  68.551  1.00  0.00    -0.335 OA 
HETATM   19  O   UNL     1     -10.579  17.052  66.400  1.00  0.00    -0.271 OA 
HETATM   20  C   UNL     1     -11.402  12.958  68.727  1.00  0.00    -0.290 A  
BRANCH  12  21
HETATM   21  C   UNL     1     -10.412  14.783  64.901  1.00  0.00    -0.369 C  
HETATM   22  O   UNL     1     -11.599  15.257  64.291  1.00  0.00    -0.666 OA 
HETATM   23  H   UNL     1     -11.402  15.615  63.434  1.00  0.00     0.000 HD 
ENDBRANCH  12  21
ENDBRANCH   6   7
ENDBRANCH   4   6
ENDBRANCH   2   4
TORSDOF 4
ENDMDL
MODEL       22
REMARK 921   NORMALIZED FREE ENERGY PREDICTED BY IDOCK:   -5.77 KCAL/MOL
REMARK 922        TOTAL FREE ENERGY PREDICTED BY IDOCK:   -7.56 KCAL/MOL
REMARK 923 INTER-LIGAND FREE ENERGY PREDICTED BY IDOCK:   -6.93 KCAL/MOL
REMARK 924 INTRA-LIGAND FREE ENERGY PREDICTED BY IDOCK:   -0.63 KCAL/MOL
REMARK 927      BINDING AFFINITY PREDICTED BY RF-SCORE:    0.00 PKD
ROOT
HETATM    1  C   UNL     1     -12.190  13.499  63.485  1.00  0.00    -0.410 C  
HETATM    2  C   UNL     1     -11.927  12.111  64.074  1.00  0.00    -0.440 C  
HETATM    3  C   UNL     1     -10.531  11.638  63.656  1.00  0.00    -0.483 C  
ENDROOT
BRANCH   2   4
HETATM    4  N   UNL     1     -12.056  12.206  65.528  1.00  0.00    -0.514 NA 
HETATM    5  H   UNL     1     -12.705  11.499  65.873  1.00  0.00     0.000 HD 
BRANCH   4   6
HETATM    6  C   UNL     1     -10.786  12.132  66.259  1.00  0.00    -0.282 C  
BRANCH   6   7
HETATM    7  C   UNL     1     -10.551  13.431  67.069  1.00  0.00    -0.264 C  
HETATM    8  C   UNL     1     -11.870  14.125  67.401  1.00  0.00    -0.447 C  
HETATM    9  C   UNL     1     -11.576  15.309  68.320  1.00  0.00    -0.357 C  
HETATM   10  C   UNL     1     -10.469  16.170  67.768  1.00  0.00    -0.295 A  
HETATM   11  C   UNL     1     -10.286  17.468  68.275  1.00  0.00    -0.379 A  
HETATM   12  C   UNL     1      -9.272  18.316  67.792  1.00  0.00    -0.276 A  
HETATM   13  C   UNL     1      -8.447  17.827  66.756  1.00  0.00    -0.248 A  
HETATM   14  H   UNL     1      -9.104  14.031  65.550  1.00  0.00     0.000 HD 
HETATM   15  N   UNL     1      -7.354  18.623  66.159  1.00  0.00    -0.254 N  
HETATM   16  N   UNL     1      -9.664  14.351  66.341  1.00  0.00    -0.290 NA 
HETATM   17  C   UNL     1      -8.627  16.522  66.257  1.00  0.00    -0.367 A  
HETATM   18  O   UNL     1      -6.718  18.119  65.223  1.00  0.00    -0.443 OA 
HETATM   19  O   UNL     1      -7.120  19.753  66.613  1.00  0.00    -0.215 OA 
HETATM   20  C   UNL     1      -9.616  15.679  66.771  1.00  0.00    -0.240 A  
BRANCH  12  21
HETATM   21  C   UNL     1      -9.145  19.675  68.432  1.00  0.00    -0.328 C  
HETATM   22  O   UNL     1     -10.033  20.586  67.809  1.00  0.00    -0.395 OA 
HETATM   23  H   UNL     1      -9.954  21.442  68.213  1.00  0.00     0.000 HD 
ENDBRANCH  12  21
ENDBRANCH   6   7
ENDBRANCH   4   6
ENDBRANCH   2   4
TORSDOF 4
ENDMDL
MODEL       23
REMARK 921   NORMALIZED FREE ENERGY PREDICTED BY IDOCK:   -5.75 KCAL/MOL
REMARK 922        TOTAL FREE ENERGY PREDICTED BY IDOCK:   -7.54 KCAL/MOL
REMARK 923 INTER-LIGAND FREE ENERGY PREDICTED BY IDOCK:   -7.16 KCAL/MOL
REMARK 924 INTRA-LIGAND FREE ENERGY PREDICTED BY IDOCK:   -0.37 KCAL/MOL
REMARK 927      BINDING AFFINITY PREDICTED BY RF-SCORE:    0.00 PKD
ROOT
HETATM    1  C   UNL     1     -12.561  16.031  74.236  1.00  0.00    -0.685 C  
HETATM    2  C   UNL     1     -12.696  15.216  72.948  1.00  0.00    -0.421 C  
HETATM    3  C   UNL     1     -14.122  15.355  72.406  1.00  0.00    -0.645 C  
ENDROOT
BRANCH   2   4
HETATM    4  N   UNL     1     -11.701  15.709  71.995  1.00  0.00    -0.422 NA 
HETATM    5  H   UNL     1     -10.847  15.154  72.055  1.00  0.00     0.000 HD 
BRANCH   4   6
HETATM    6  C   UNL     1     -12.168  15.778  70.606  1.00  0.00    -0.384 C  
BRANCH   6   7
HETATM    7  C   UNL     1     -11.405  14.757  69.727  1.00  0.00    -0.283 C  
HETATM    8  C   UNL     1      -9.982  15.229  69.436  1.00  0.00    -0.257 C  
HETATM    9  C   UNL     1      -9.245  14.115  68.696  1.00  0.00    -0.146 C  
HETATM   10  C   UNL     1     -10.050  13.606  67.528  1.00  0.00    -0.237 A  
HETATM   11  C   UNL     1      -9.417  12.839  66.535  1.00  0.00    -0.253 A  
HETATM   12  C   UNL     1     -10.120  12.343  65.421  1.00  0.00    -0.289 A  
HETATM   13  C   UNL     1     -11.492  12.661  65.317  1.00  0.00    -0.331 A  
HETATM   14  H   UNL     1     -13.099  14.783  68.351  1.00  0.00     0.000 HD 
HETATM   15  N   UNL     1     -12.336  12.206  64.192  1.00  0.00    -0.420 N  
HETATM   16  N   UNL     1     -12.124  14.507  68.468  1.00  0.00    -0.272 NA 
HETATM   17  C   UNL     1     -12.125  13.422  66.319  1.00  0.00    -0.475 A  
HETATM   18  O   UNL     1     -13.518  12.579  64.171  1.00  0.00    -0.341 OA 
HETATM   19  O   UNL     1     -11.834  11.481  63.322  1.00  0.00    -0.300 OA 
HETATM   20  C   UNL     1     -11.422  13.877  67.437  1.00  0.00    -0.348 A  
BRANCH  12  21
HETATM   21  C   UNL     1      -9.348  11.503  64.436  1.00  0.00    -0.005 C  
HETATM   22  O   UNL     1      -9.205  12.203  63.213  1.00  0.00    -0.653 OA 
HETATM   23  H   UNL     1      -8.718  11.674  62.592  1.00  0.00     0.000 HD 
ENDBRANCH  12  21
ENDBRANCH   6   7
ENDBRANCH   4   6
ENDBRANCH   2   4
TORSDOF 4
ENDMDL
MODEL       24
REMARK 921   NORMALIZED FREE ENERGY PREDICTED BY IDOCK:   -5.75 KCAL/MOL
REMARK 922        TOTAL FREE ENERGY PREDICTED BY IDOCK:   -7.53 KCAL/MOL
REMARK 923 INTER-LIGAND FREE ENERGY PREDICTED BY IDOCK:   -6.95 KCAL/MOL
REMARK 924 INTRA-LIGAND FREE ENERGY PREDICTED BY IDOCK:   -0.58 KCAL/MOL
REMARK 927      BINDING AFFINITY PREDICTED BY RF-SCORE:    0.00 PKD
ROOT
HETATM    1  C   UNL     1      -6.765  18.598  66.152  1.00  0.00    -0.268 C  
HETATM    2  C   UNL     1      -8.050  18.617  66.984  1.00  0.00    -0.252 C  
HETATM    3  C   UNL     1      -7.784  19.333  68.312  1.00  0.00    -0.351 C  
ENDROOT
BRANCH   2   4
HETATM    4  N   UNL     1      -9.085  19.291  66.200  1.00  0.00    -0.440 NA 
HETATM    5  H   UNL     1      -8.738  19.507  65.265  1.00  0.00     0.000 HD 
BRANCH   4   6
HETATM    6  C   UNL     1     -10.357  18.565  66.117  1.00  0.00    -0.426 C  
BRANCH   6   7
HETATM    7  C   UNL     1     -10.157  17.078  66.499  1.00  0.00    -0.314 C  
HETATM    8  C   UNL     1     -10.494  16.153  65.332  1.00  0.00    -0.396 C  
HETATM    9  C   UNL     1     -10.135  14.723  65.727  1.00  0.00    -0.364 C  
HETATM   10  C   UNL     1     -10.711  14.365  67.073  1.00  0.00    -0.285 A  
HETATM   11  C   UNL     1     -10.786  13.014  67.454  1.00  0.00    -0.269 A  
HETATM   12  C   UNL     1     -11.321  12.624  68.697  1.00  0.00    -0.331 A  
HETATM   13  C   UNL     1     -11.804  13.639  69.550  1.00  0.00    -0.337 A  
HETATM   14  H   UNL     1     -11.376  17.444  68.272  1.00  0.00     0.000 HD 
HETATM   15  N   UNL     1     -12.395  13.357  70.876  1.00  0.00    -0.375 N  
HETATM   16  N   UNL     1     -10.966  16.724  67.676  1.00  0.00    -0.242 NA 
HETATM   17  C   UNL     1     -11.719  14.992  69.169  1.00  0.00    -0.345 A  
HETATM   18  O   UNL     1     -12.832  14.316  71.528  1.00  0.00    -0.311 OA 
HETATM   19  O   UNL     1     -12.431  12.185  71.278  1.00  0.00    -0.304 OA 
HETATM   20  C   UNL     1     -11.154  15.366  67.947  1.00  0.00    -0.323 A  
BRANCH  12  21
HETATM   21  C   UNL     1     -11.319  11.151  69.016  1.00  0.00    -0.276 C  
HETATM   22  O   UNL     1     -12.627  10.625  68.872  1.00  0.00    -0.742 OA 
HETATM   23  H   UNL     1     -12.626   9.697  69.073  1.00  0.00     0.000 HD 
ENDBRANCH  12  21
ENDBRANCH   6   7
ENDBRANCH   4   6
ENDBRANCH   2   4
TORSDOF 4
ENDMDL
MODEL       25
REMARK 921   NORMALIZED FREE ENERGY PREDICTED BY IDOCK:   -5.73 KCAL/MOL
REMARK 922        TOTAL FREE ENERGY PREDICTED BY IDOCK:   -7.51 KCAL/MOL
REMARK 923 INTER-LIGAND FREE ENERGY PREDICTED BY IDOCK:   -6.96 KCAL/MOL
REMARK 924 INTRA-LIGAND FREE ENERGY PREDICTED BY IDOCK:   -0.55 KCAL/MOL
REMARK 927      BINDING AFFINITY PREDICTED BY RF-SCORE:    0.00 PKD
ROOT
HETATM    1  C   UNL     1     -12.234  12.646  63.372  1.00  0.00    -0.610 C  
HETATM    2  C   UNL     1     -11.690  13.817  64.195  1.00  0.00    -0.364 C  
HETATM    3  C   UNL     1     -12.631  14.090  65.372  1.00  0.00    -0.529 C  
ENDROOT
BRANCH   2   4
HETATM    4  N   UNL     1     -10.343  13.464  64.645  1.00  0.00    -0.520 NA 
HETATM    5  H   UNL     1      -9.644  13.857  64.015  1.00  0.00     0.000 HD 
BRANCH   4   6
HETATM    6  C   UNL     1     -10.047  13.838  66.033  1.00  0.00    -0.311 C  
BRANCH   6   7
HETATM    7  C   UNL     1      -9.882  12.574  66.911  1.00  0.00    -0.227 C  
HETATM    8  C   UNL     1      -9.956  11.301  66.072  1.00  0.00    -0.273 C  
HETATM    9  C   UNL     1      -9.638  10.108  66.971  1.00  0.00    -0.209 C  
HETATM   10  C   UNL     1     -10.455  10.143  68.237  1.00  0.00    -0.244 A  
HETATM   11  C   UNL     1     -10.563   8.982  69.021  1.00  0.00    -0.209 A  
HETATM   12  C   UNL     1     -11.318   8.957  70.209  1.00  0.00    -0.179 A  
HETATM   13  C   UNL     1     -11.990  10.141  70.583  1.00  0.00    -0.332 A  
HETATM   14  H   UNL     1     -11.434  13.368  68.223  1.00  0.00     0.000 HD 
HETATM   15  N   UNL     1     -12.819  10.239  71.803  1.00  0.00    -0.443 N  
HETATM   16  N   UNL     1     -10.894  12.538  67.977  1.00  0.00    -0.217 NA 
HETATM   17  C   UNL     1     -11.872  11.305  69.799  1.00  0.00    -0.437 A  
HETATM   18  O   UNL     1     -13.405  11.311  72.017  1.00  0.00    -0.462 OA 
HETATM   19  O   UNL     1     -12.898   9.257  72.554  1.00  0.00    -0.370 OA 
HETATM   20  C   UNL     1     -11.090  11.324  68.642  1.00  0.00    -0.232 A  
BRANCH  12  21
HETATM   21  C   UNL     1     -11.335   7.667  70.989  1.00  0.00    -0.272 C  
HETATM   22  O   UNL     1     -12.530   6.956  70.719  1.00  0.00    -0.521 OA 
HETATM   23  H   UNL     1     -12.541   6.144  71.210  1.00  0.00     0.000 HD 
ENDBRANCH  12  21
ENDBRANCH   6   7
ENDBRANCH   4   6
ENDBRANCH   2   4
TORSDOF 4
ENDMDL
MODEL       26
REMARK 921   NORMALIZED FREE ENERGY PREDICTED BY IDOCK:   -5.71 KCAL/MOL
REMARK 922        TOTAL FREE ENERGY PREDICTED BY IDOCK:   -7.49 KCAL/MOL
REMARK 923 INTER-LIGAND FREE ENERGY PREDICTED BY IDOCK:   -7.35 KCAL/MOL
REMARK 924 INTRA-LIGAND FREE ENERGY PREDICTED BY IDOCK:   -0.14 KCAL/MOL
REMARK 927      BINDING AFFINITY PREDICTED BY RF-SCORE:    0.00 PKD
ROOT
HETATM    1  C   UNL     1      -8.716  18.585  67.948  1.00  0.00    -0.301 C  
HETATM    2  C   UNL     1      -9.809  18.404  66.892  1.00  0.00    -0.338 C  
HETATM    3  C   UNL     1     -10.001  19.718  66.129  1.00  0.00    -0.573 C  
ENDROOT
BRANCH   2   4
HETATM    4  N   UNL     1      -9.404  17.314  66.005  1.00  0.00    -0.507 NA 
HETATM    5  H   UNL     1      -8.622  16.799  66.410  1.00  0.00     0.000 HD 
BRANCH   4   6
HETATM    6  C   UNL     1     -10.485  16.392  65.638  1.00  0.00    -0.347 C  
BRANCH   6   7
HETATM    7  C   UNL     1     -10.576  15.230  66.658  1.00  0.00    -0.304 C  
HETATM    8  C   UNL     1     -11.241  14.001  66.043  1.00  0.00    -0.310 C  
HETATM    9  C   UNL     1     -11.163  12.854  67.048  1.00  0.00    -0.329 C  
HETATM   10  C   UNL     1     -11.645  13.285  68.409  1.00  0.00    -0.372 A  
HETATM   11  C   UNL     1     -11.972  12.309  69.366  1.00  0.00    -0.318 A  
HETATM   12  C   UNL     1     -12.433  12.655  70.651  1.00  0.00    -0.323 A  
HETATM   13  C   UNL     1     -12.579  14.028  70.946  1.00  0.00    -0.361 A  
HETATM   14  H   UNL     1     -11.471  16.633  68.069  1.00  0.00     0.000 HD 
HETATM   15  N   UNL     1     -13.060  14.518  72.255  1.00  0.00    -0.348 N  
HETATM   16  N   UNL     1     -11.302  15.647  67.867  1.00  0.00    -0.332 NA 
HETATM   17  C   UNL     1     -12.241  15.003  69.988  1.00  0.00    -0.373 A  
HETATM   18  O   UNL     1     -13.197  15.742  72.397  1.00  0.00    -0.442 OA 
HETATM   19  O   UNL     1     -13.307  13.695  73.148  1.00  0.00    -0.518 OA 
HETATM   20  C   UNL     1     -11.752  14.644  68.730  1.00  0.00    -0.324 A  
BRANCH  12  21
HETATM   21  C   UNL     1     -12.720  11.527  71.608  1.00  0.00    -0.290 C  
HETATM   22  O   UNL     1     -13.338  10.455  70.918  1.00  0.00    -0.337 OA 
HETATM   23  H   UNL     1     -13.519   9.744  71.521  1.00  0.00     0.000 HD 
ENDBRANCH  12  21
ENDBRANCH   6   7
ENDBRANCH   4   6
ENDBRANCH   2   4
TORSDOF 4
ENDMDL
MODEL       27
REMARK 921   NORMALIZED FREE ENERGY PREDICTED BY IDOCK:   -5.70 KCAL/MOL
REMARK 922        TOTAL FREE ENERGY PREDICTED BY IDOCK:   -7.47 KCAL/MOL
REMARK 923 INTER-LIGAND FREE ENERGY PREDICTED BY IDOCK:   -7.25 KCAL/MOL
REMARK 924 INTRA-LIGAND FREE ENERGY PREDICTED BY IDOCK:   -0.22 KCAL/MOL
REMARK 927      BINDING AFFINITY PREDICTED BY RF-SCORE:    0.00 PKD
ROOT
HETATM    1  C   UNL     1     -10.534   5.336  66.333  1.00  0.00    -0.347 C  
HETATM    2  C   UNL     1     -11.051   6.574  67.069  1.00  0.00    -0.339 C  
HETATM    3  C   UNL     1     -10.851   6.388  68.577  1.00  0.00    -0.382 C  
ENDROOT
BRANCH   2   4
HETATM    4  N   UNL     1     -10.322   7.737  66.563  1.00  0.00    -0.496 NA 
HETATM    5  H   UNL     1     -10.676   8.005  65.645  1.00  0.00     0.000 HD 
BRANCH   4   6
HETATM    6  C   UNL     1     -10.319   8.895  67.465  1.00  0.00    -0.263 C  
BRANCH   6   7
HETATM    7  C   UNL     1     -10.773  10.169  66.713  1.00  0.00    -0.121 C  
HETATM    8  C   UNL     1     -10.138  10.252  65.326  1.00  0.00    -0.359 C  
HETATM    9  C   UNL     1     -10.741  11.446  64.588  1.00  0.00    -0.378 C  
HETATM   10  C   UNL     1     -10.701  12.691  65.436  1.00  0.00    -0.308 A  
HETATM   11  C   UNL     1     -10.886  13.945  64.828  1.00  0.00    -0.430 A  
HETATM   12  C   UNL     1     -10.852  15.141  65.571  1.00  0.00    -0.373 A  
HETATM   13  C   UNL     1     -10.604  15.044  66.957  1.00  0.00    -0.293 A  
HETATM   14  H   UNL     1     -10.216  11.325  68.478  1.00  0.00     0.000 HD 
HETATM   15  N   UNL     1     -10.537  16.225  67.843  1.00  0.00    -0.309 N  
HETATM   16  N   UNL     1     -10.457  11.379  67.488  1.00  0.00    -0.195 NA 
HETATM   17  C   UNL     1     -10.428  13.785  67.564  1.00  0.00    -0.245 A  
HETATM   18  O   UNL     1     -10.267  16.036  69.038  1.00  0.00    -0.211 OA 
HETATM   19  O   UNL     1     -10.749  17.347  67.361  1.00  0.00    -0.333 OA 
HETATM   20  C   UNL     1     -10.499  12.605  66.819  1.00  0.00    -0.240 A  
BRANCH  12  21
HETATM   21  C   UNL     1     -11.098  16.425  64.822  1.00  0.00    -0.235 C  
HETATM   22  O   UNL     1     -11.937  16.181  63.707  1.00  0.00    -1.394 OA 
HETATM   23  H   UNL     1     -12.092  16.990  63.236  1.00  0.00     0.000 HD 
ENDBRANCH  12  21
ENDBRANCH   6   7
ENDBRANCH   4   6
ENDBRANCH   2   4
TORSDOF 4
ENDMDL
MODEL       28
REMARK 921   NORMALIZED FREE ENERGY PREDICTED BY IDOCK:   -5.69 KCAL/MOL
REMARK 922        TOTAL FREE ENERGY PREDICTED BY IDOCK:   -7.46 KCAL/MOL
REMARK 923 INTER-LIGAND FREE ENERGY PREDICTED BY IDOCK:   -7.03 KCAL/MOL
REMARK 924 INTRA-LIGAND FREE ENERGY PREDICTED BY IDOCK:   -0.43 KCAL/MOL
REMARK 927      BINDING AFFINITY PREDICTED BY RF-SCORE:    0.00 PKD
ROOT
HETATM    1  C   UNL     1     -10.189   5.465  74.328  1.00  0.00    -0.293 C  
HETATM    2  C   UNL     1     -10.445   6.780  73.586  1.00  0.00    -0.347 C  
HETATM    3  C   UNL     1      -9.174   7.635  73.616  1.00  0.00    -0.339 C  
ENDROOT
BRANCH   2   4
HETATM    4  N   UNL     1     -10.851   6.455  72.219  1.00  0.00    -0.229 NA 
HETATM    5  H   UNL     1     -10.780   5.451  72.057  1.00  0.00     0.000 HD 
BRANCH   4   6
HETATM    6  C   UNL     1     -12.186   6.939  71.849  1.00  0.00    -0.332 C  
BRANCH   6   7
HETATM    7  C   UNL     1     -12.076   8.183  70.934  1.00  0.00    -0.148 C  
HETATM    8  C   UNL     1     -10.647   8.383  70.436  1.00  0.00    -0.236 C  
HETATM    9  C   UNL     1     -10.641   9.531  69.428  1.00  0.00    -0.235 C  
HETATM   10  C   UNL     1     -11.353  10.742  69.972  1.00  0.00    -0.397 A  
HETATM   11  C   UNL     1     -11.163  11.990  69.354  1.00  0.00    -0.263 A  
HETATM   12  C   UNL     1     -11.799  13.155  69.824  1.00  0.00    -0.386 A  
HETATM   13  C   UNL     1     -12.625  13.036  70.962  1.00  0.00    -0.299 A  
HETATM   14  H   UNL     1     -13.093   9.328  72.488  1.00  0.00     0.000 HD 
HETATM   15  N   UNL     1     -13.341  14.185  71.556  1.00  0.00    -0.344 N  
HETATM   16  N   UNL     1     -12.544   9.391  71.630  1.00  0.00    -0.349 NA 
HETATM   17  C   UNL     1     -12.820  11.782  71.574  1.00  0.00    -0.450 A  
HETATM   18  O   UNL     1     -14.004  13.983  72.583  1.00  0.00    -0.654 OA 
HETATM   19  O   UNL     1     -13.247  15.294  71.011  1.00  0.00    -0.444 OA 
HETATM   20  C   UNL     1     -12.211  10.629  71.074  1.00  0.00    -0.393 A  
BRANCH  12  21
HETATM   21  C   UNL     1     -11.551  14.432  69.062  1.00  0.00    -0.296 C  
HETATM   22  O   UNL     1     -12.442  14.518  67.964  1.00  0.00    -0.598 OA 
HETATM   23  H   UNL     1     -12.286  15.323  67.484  1.00  0.00     0.000 HD 
ENDBRANCH  12  21
ENDBRANCH   6   7
ENDBRANCH   4   6
ENDBRANCH   2   4
TORSDOF 4
ENDMDL
MODEL       29
REMARK 921   NORMALIZED FREE ENERGY PREDICTED BY IDOCK:   -5.68 KCAL/MOL
REMARK 922        TOTAL FREE ENERGY PREDICTED BY IDOCK:   -7.46 KCAL/MOL
REMARK 923 INTER-LIGAND FREE ENERGY PREDICTED BY IDOCK:   -6.98 KCAL/MOL
REMARK 924 INTRA-LIGAND FREE ENERGY PREDICTED BY IDOCK:   -0.48 KCAL/MOL
REMARK 927      BINDING AFFINITY PREDICTED BY RF-SCORE:    0.00 PKD
ROOT
HETATM    1  C   UNL     1      -9.954  19.358  68.572  1.00  0.00    -0.520 C  
HETATM    2  C   UNL     1     -10.698  18.303  67.749  1.00  0.00    -0.333 C  
HETATM    3  C   UNL     1     -10.417  18.530  66.260  1.00  0.00    -0.441 C  
ENDROOT
BRANCH   2   4
HETATM    4  N   UNL     1     -10.248  16.984  68.193  1.00  0.00    -0.304 NA 
HETATM    5  H   UNL     1     -10.515  16.826  69.165  1.00  0.00     0.000 HD 
BRANCH   4   6
HETATM    6  C   UNL     1     -10.701  15.870  67.352  1.00  0.00    -0.313 C  
BRANCH   6   7
HETATM    7  C   UNL     1     -11.502  14.847  68.195  1.00  0.00    -0.330 C  
HETATM    8  C   UNL     1     -11.701  15.340  69.627  1.00  0.00    -0.355 C  
HETATM    9  C   UNL     1     -12.618  14.360  70.354  1.00  0.00    -0.405 C  
HETATM   10  C   UNL     1     -12.151  12.938  70.177  1.00  0.00    -0.373 A  
HETATM   11  C   UNL     1     -12.646  11.938  71.032  1.00  0.00    -0.381 A  
HETATM   12  C   UNL     1     -12.239  10.595  70.915  1.00  0.00    -0.497 A  
HETATM   13  C   UNL     1     -11.292  10.282  69.917  1.00  0.00    -0.290 A  
HETATM   14  H   UNL     1     -10.108  13.309  67.523  1.00  0.00     0.000 HD 
HETATM   15  N   UNL     1     -10.781   8.912  69.699  1.00  0.00    -0.233 N  
HETATM   16  N   UNL     1     -10.839  13.534  68.198  1.00  0.00    -0.247 NA 
HETATM   17  C   UNL     1     -10.805  11.285  69.056  1.00  0.00    -0.268 A  
HETATM   18  O   UNL     1      -9.915   8.751  68.826  1.00  0.00    -0.174 OA 
HETATM   19  O   UNL     1     -11.231   7.988  70.393  1.00  0.00    -0.268 OA 
HETATM   20  C   UNL     1     -11.245  12.607  69.161  1.00  0.00    -0.243 A  
BRANCH  12  21
HETATM   21  C   UNL     1     -12.862   9.601  71.862  1.00  0.00    -0.425 C  
HETATM   22  O   UNL     1     -13.895   8.889  71.204  1.00  0.00    -0.577 OA 
HETATM   23  H   UNL     1     -14.287   8.263  71.800  1.00  0.00     0.000 HD 
ENDBRANCH  12  21
ENDBRANCH   6   7
ENDBRANCH   4   6
ENDBRANCH   2   4
TORSDOF 4
ENDMDL
MODEL       30
REMARK 921   NORMALIZED FREE ENERGY PREDICTED BY IDOCK:   -5.66 KCAL/MOL
REMARK 922        TOTAL FREE ENERGY PREDICTED BY IDOCK:   -7.42 KCAL/MOL
REMARK 923 INTER-LIGAND FREE ENERGY PREDICTED BY IDOCK:   -6.87 KCAL/MOL
REMARK 924 INTRA-LIGAND FREE ENERGY PREDICTED BY IDOCK:   -0.55 KCAL/MOL
REMARK 927      BINDING AFFINITY PREDICTED BY RF-SCORE:    0.00 PKD
ROOT
HETATM    1  C   UNL     1     -11.444   8.430  72.372  1.00  0.00    -0.451 C  
HETATM    2  C   UNL     1     -12.443   7.473  71.718  1.00  0.00    -0.330 C  
HETATM    3  C   UNL     1     -13.764   8.209  71.470  1.00  0.00    -0.359 C  
ENDROOT
BRANCH   2   4
HETATM    4  N   UNL     1     -11.851   6.984  70.473  1.00  0.00    -0.497 NA 
HETATM    5  H   UNL     1     -12.522   7.054  69.709  1.00  0.00     0.000 HD 
BRANCH   4   6
HETATM    6  C   UNL     1     -10.587   7.632  70.103  1.00  0.00    -0.236 C  
BRANCH   6   7
HETATM    7  C   UNL     1     -10.660   8.171  68.653  1.00  0.00    -0.109 C  
HETATM    8  C   UNL     1      -9.351   7.930  67.904  1.00  0.00    -0.150 C  
HETATM    9  C   UNL     1      -9.542   8.348  66.448  1.00  0.00    -0.307 C  
HETATM   10  C   UNL     1     -10.145   9.726  66.348  1.00  0.00    -0.313 A  
HETATM   11  C   UNL     1     -10.083  10.419  65.127  1.00  0.00    -0.379 A  
HETATM   12  C   UNL     1     -10.624  11.710  64.979  1.00  0.00    -0.342 A  
HETATM   13  C   UNL     1     -11.220  12.304  66.112  1.00  0.00    -0.328 A  
HETATM   14  H   UNL     1     -11.370  10.067  69.469  1.00  0.00     0.000 HD 
HETATM   15  N   UNL     1     -11.816  13.656  66.087  1.00  0.00    -0.371 N  
HETATM   16  N   UNL     1     -10.994   9.604  68.641  1.00  0.00    -0.160 NA 
HETATM   17  C   UNL     1     -11.289  11.603  67.332  1.00  0.00    -0.367 A  
HETATM   18  O   UNL     1     -12.273  14.105  67.148  1.00  0.00    -0.421 OA 
HETATM   19  O   UNL     1     -11.834  14.283  65.018  1.00  0.00    -0.360 OA 
HETATM   20  C   UNL     1     -10.778  10.308  67.453  1.00  0.00    -0.281 A  
BRANCH  12  21
HETATM   21  C   UNL     1     -10.532  12.345  63.615  1.00  0.00    -0.426 C  
HETATM   22  O   UNL     1     -11.786  12.264  62.960  1.00  0.00    -0.686 OA 
HETATM   23  H   UNL     1     -11.728  12.664  62.101  1.00  0.00     0.000 HD 
ENDBRANCH  12  21
ENDBRANCH   6   7
ENDBRANCH   4   6
ENDBRANCH   2   4
TORSDOF 4
ENDMDL
MODEL       31
REMARK 921   NORMALIZED FREE ENERGY PREDICTED BY IDOCK:   -5.65 KCAL/MOL
REMARK 922        TOTAL FREE ENERGY PREDICTED BY IDOCK:   -7.41 KCAL/MOL
REMARK 923 INTER-LIGAND FREE ENERGY PREDICTED BY IDOCK:   -6.82 KCAL/MOL
REMARK 924 INTRA-LIGAND FREE ENERGY PREDICTED BY IDOCK:   -0.59 KCAL/MOL
REMARK 927      BINDING AFFINITY PREDICTED BY RF-SCORE:    0.00 PKD
ROOT
HETATM    1  C   UNL     1      -8.345   7.587  66.738  1.00  0.00    -0.126 C  
HETATM    2  C   UNL     1      -9.870   7.515  66.627  1.00  0.00    -0.204 C  
HETATM    3  C   UNL     1     -10.466   7.213  68.005  1.00  0.00    -0.251 C  
ENDROOT
BRANCH   2   4
HETATM    4  N   UNL     1     -10.344   8.794  66.097  1.00  0.00    -0.295 NA 
HETATM    5  H   UNL     1     -11.260   9.020  66.483  1.00  0.00     0.000 HD 
BRANCH   4   6
HETATM    6  C   UNL     1      -9.418   9.915  66.290  1.00  0.00    -0.193 C  
BRANCH   6   7
HETATM    7  C   UNL     1     -10.169  11.147  66.852  1.00  0.00    -0.222 C  
HETATM    8  C   UNL     1      -9.252  12.365  66.940  1.00  0.00    -0.209 C  
HETATM    9  C   UNL     1     -10.088  13.572  67.358  1.00  0.00    -0.237 C  
HETATM   10  C   UNL     1     -10.933  13.261  68.567  1.00  0.00    -0.291 A  
HETATM   11  C   UNL     1     -11.502  14.317  69.301  1.00  0.00    -0.330 A  
HETATM   12  C   UNL     1     -12.294  14.084  70.441  1.00  0.00    -0.429 A  
HETATM   13  C   UNL     1     -12.486  12.744  70.843  1.00  0.00    -0.283 A  
HETATM   14  H   UNL     1     -10.841   9.893  68.506  1.00  0.00     0.000 HD 
HETATM   15  N   UNL     1     -13.290  12.371  72.026  1.00  0.00    -0.486 N  
HETATM   16  N   UNL     1     -10.749  10.852  68.171  1.00  0.00    -0.198 NA 
HETATM   17  C   UNL     1     -11.923  11.689  70.099  1.00  0.00    -0.441 A  
HETATM   18  O   UNL     1     -13.358  11.169  72.320  1.00  0.00    -0.394 OA 
HETATM   19  O   UNL     1     -13.856  13.265  72.671  1.00  0.00    -0.712 OA 
HETATM   20  C   UNL     1     -11.168  11.935  68.950  1.00  0.00    -0.254 A  
BRANCH  12  21
HETATM   21  C   UNL     1     -12.882  15.289  71.130  1.00  0.00    -0.427 C  
HETATM   22  O   UNL     1     -14.248  15.425  70.782  1.00  0.00    -0.844 OA 
HETATM   23  H   UNL     1     -14.618  16.183  71.216  1.00  0.00     0.000 HD 
ENDBRANCH  12  21
ENDBRANCH   6   7
ENDBRANCH   4   6
ENDBRANCH   2   4
TORSDOF 4
ENDMDL
MODEL       32
REMARK 921   NORMALIZED FREE ENERGY PREDICTED BY IDOCK:   -5.65 KCAL/MOL
REMARK 922        TOTAL FREE ENERGY PREDICTED BY IDOCK:   -7.41 KCAL/MOL
REMARK 923 INTER-LIGAND FREE ENERGY PREDICTED BY IDOCK:   -6.92 KCAL/MOL
REMARK 924 INTRA-LIGAND FREE ENERGY PREDICTED BY IDOCK:   -0.49 KCAL/MOL
REMARK 927      BINDING AFFINITY PREDICTED BY RF-SCORE:    0.00 PKD
ROOT
HETATM    1  C   UNL     1     -13.051  14.258  72.883  1.00  0.00    -0.589 C  
HETATM    2  C   UNL     1     -13.154  13.970  71.383  1.00  0.00    -0.353 C  
HETATM    3  C   UNL     1     -12.912  15.263  70.600  1.00  0.00    -0.442 C  
ENDROOT
BRANCH   2   4
HETATM    4  N   UNL     1     -12.168  12.940  71.053  1.00  0.00    -0.410 NA 
HETATM    5  H   UNL     1     -11.390  12.971  71.710  1.00  0.00     0.000 HD 
BRANCH   4   6
HETATM    6  C   UNL     1     -12.712  11.580  70.969  1.00  0.00    -0.328 C  
BRANCH   6   7
HETATM    7  C   UNL     1     -12.081  10.817  69.778  1.00  0.00    -0.318 C  
HETATM    8  C   UNL     1     -10.683  10.308  70.123  1.00  0.00    -0.334 C  
HETATM    9  C   UNL     1     -10.183   9.444  68.967  1.00  0.00    -0.216 C  
HETATM   10  C   UNL     1     -10.350  10.148  67.645  1.00  0.00    -0.265 A  
HETATM   11  C   UNL     1      -9.651   9.677  66.520  1.00  0.00    -0.252 A  
HETATM   12  C   UNL     1      -9.765  10.300  65.263  1.00  0.00    -0.354 A  
HETATM   13  C   UNL     1     -10.595  11.438  65.168  1.00  0.00    -0.293 A  
HETATM   14  H   UNL     1     -12.576  12.524  68.513  1.00  0.00     0.000 HD 
HETATM   15  N   UNL     1     -10.791  12.183  63.907  1.00  0.00    -0.364 N  
HETATM   16  N   UNL     1     -12.030  11.665  68.578  1.00  0.00    -0.493 NA 
HETATM   17  C   UNL     1     -11.301  11.901  66.296  1.00  0.00    -0.394 A  
HETATM   18  O   UNL     1     -11.503  13.197  63.941  1.00  0.00    -0.396 OA 
HETATM   19  O   UNL     1     -10.238  11.772  62.877  1.00  0.00    -0.291 OA 
HETATM   20  C   UNL     1     -11.205  11.251  67.528  1.00  0.00    -0.291 A  
BRANCH  12  21
HETATM   21  C   UNL     1      -8.997   9.689  64.118  1.00  0.00    -0.229 C  
HETATM   22  O   UNL     1      -7.861  10.481  63.823  1.00  0.00    -0.307 OA 
HETATM   23  H   UNL     1      -7.377  10.096  63.102  1.00  0.00     0.000 HD 
ENDBRANCH  12  21
ENDBRANCH   6   7
ENDBRANCH   4   6
ENDBRANCH   2   4
TORSDOF 4
ENDMDL
MODEL       33
REMARK 921   NORMALIZED FREE ENERGY PREDICTED BY IDOCK:   -5.61 KCAL/MOL
REMARK 922        TOTAL FREE ENERGY PREDICTED BY IDOCK:   -7.37 KCAL/MOL
REMARK 923 INTER-LIGAND FREE ENERGY PREDICTED BY IDOCK:   -6.95 KCAL/MOL
REMARK 924 INTRA-LIGAND FREE ENERGY PREDICTED BY IDOCK:   -0.42 KCAL/MOL
REMARK 927      BINDING AFFINITY PREDICTED BY RF-SCORE:    0.00 PKD
ROOT
HETATM    1  C   UNL     1     -12.503  12.305  63.388  1.00  0.00    -0.592 C  
HETATM    2  C   UNL     1     -11.819  13.099  64.505  1.00  0.00    -0.377 C  
HETATM    3  C   UNL     1     -12.146  14.586  64.344  1.00  0.00    -0.492 C  
ENDROOT
BRANCH   2   4
HETATM    4  N   UNL     1     -12.291  12.573  65.786  1.00  0.00    -0.626 NA 
HETATM    5  H   UNL     1     -11.959  11.618  65.921  1.00  0.00     0.000 HD 
BRANCH   4   6
HETATM    6  C   UNL     1     -11.949  13.401  66.948  1.00  0.00    -0.385 C  
BRANCH   6   7
HETATM    7  C   UNL     1     -11.016  12.626  67.910  1.00  0.00    -0.230 C  
HETATM    8  C   UNL     1      -9.974  11.817  67.142  1.00  0.00    -0.221 C  
HETATM    9  C   UNL     1      -9.002  11.201  68.147  1.00  0.00    -0.159 C  
HETATM   10  C   UNL     1      -9.736  10.494  69.257  1.00  0.00    -0.215 A  
HETATM   11  C   UNL     1      -9.041   9.588  70.076  1.00  0.00    -0.255 A  
HETATM   12  C   UNL     1      -9.679   8.896  71.123  1.00  0.00    -0.344 A  
HETATM   13  C   UNL     1     -11.058   9.125  71.315  1.00  0.00    -0.335 A  
HETATM   14  H   UNL     1     -12.800  11.854  68.903  1.00  0.00     0.000 HD 
HETATM   15  N   UNL     1     -11.842   8.455  72.375  1.00  0.00    -0.388 N  
HETATM   16  N   UNL     1     -11.791  11.743  68.796  1.00  0.00    -0.324 NA 
HETATM   17  C   UNL     1     -11.750  10.041  70.498  1.00  0.00    -0.400 A  
HETATM   18  O   UNL     1     -13.057   8.690  72.430  1.00  0.00    -0.373 OA 
HETATM   19  O   UNL     1     -11.259   7.690  73.156  1.00  0.00    -0.391 OA 
HETATM   20  C   UNL     1     -11.095  10.747  69.486  1.00  0.00    -0.278 A  
BRANCH  12  21
HETATM   21  C   UNL     1      -8.828   7.975  71.960  1.00  0.00    -0.156 C  
HETATM   22  O   UNL     1      -8.398   8.647  73.131  1.00  0.00    -0.405 OA 
HETATM   23  H   UNL     1      -7.863   8.067  73.658  1.00  0.00     0.000 HD 
ENDBRANCH  12  21
ENDBRANCH   6   7
ENDBRANCH   4   6
ENDBRANCH   2   4
TORSDOF 4
ENDMDL
MODEL       34
REMARK 921   NORMALIZED FREE ENERGY PREDICTED BY IDOCK:   -5.58 KCAL/MOL
REMARK 922        TOTAL FREE ENERGY PREDICTED BY IDOCK:   -7.33 KCAL/MOL
REMARK 923 INTER-LIGAND FREE ENERGY PREDICTED BY IDOCK:   -7.10 KCAL/MOL
REMARK 924 INTRA-LIGAND FREE ENERGY PREDICTED BY IDOCK:   -0.23 KCAL/MOL
REMARK 927      BINDING AFFINITY PREDICTED BY RF-SCORE:    0.00 PKD
ROOT
HETATM    1  C   UNL     1     -10.865   6.217  71.350  1.00  0.00    -0.319 C  
HETATM    2  C   UNL     1     -11.159   6.561  72.812  1.00  0.00    -0.245 C  
HETATM    3  C   UNL     1      -9.838   6.736  73.568  1.00  0.00    -0.249 C  
ENDROOT
BRANCH   2   4
HETATM    4  N   UNL     1     -11.966   7.781  72.836  1.00  0.00    -0.609 NA 
HETATM    5  H   UNL     1     -11.501   8.503  73.385  1.00  0.00     0.000 HD 
BRANCH   4   6
HETATM    6  C   UNL     1     -12.324   8.300  71.511  1.00  0.00    -0.306 C  
BRANCH   6   7
HETATM    7  C   UNL     1     -12.134   9.836  71.461  1.00  0.00    -0.409 C  
HETATM    8  C   UNL     1     -13.397  10.567  71.911  1.00  0.00    -0.461 C  
HETATM    9  C   UNL     1     -13.093  12.062  71.981  1.00  0.00    -0.456 C  
HETATM   10  C   UNL     1     -12.435  12.547  70.715  1.00  0.00    -0.357 A  
HETATM   11  C   UNL     1     -12.389  13.926  70.445  1.00  0.00    -0.433 A  
HETATM   12  C   UNL     1     -11.792  14.433  69.275  1.00  0.00    -0.365 A  
HETATM   13  C   UNL     1     -11.253  13.503  68.359  1.00  0.00    -0.278 A  
HETATM   14  H   UNL     1     -11.412   9.611  69.415  1.00  0.00     0.000 HD 
HETATM   15  N   UNL     1     -10.607  13.909  67.093  1.00  0.00    -0.276 N  
HETATM   16  N   UNL     1     -11.748  10.276  70.112  1.00  0.00    -0.278 NA 
HETATM   17  C   UNL     1     -11.293  12.123  68.637  1.00  0.00    -0.330 A  
HETATM   18  O   UNL     1     -10.208  13.013  66.336  1.00  0.00    -0.267 OA 
HETATM   19  O   UNL     1     -10.494  15.117  66.839  1.00  0.00    -0.271 OA 
HETATM   20  C   UNL     1     -11.857  11.638  69.819  1.00  0.00    -0.357 A  
BRANCH  12  21
HETATM   21  C   UNL     1     -11.768  15.930  69.106  1.00  0.00    -0.363 C  
HETATM   22  O   UNL     1     -11.408  16.548  70.329  1.00  0.00    -0.468 OA 
HETATM   23  H   UNL     1     -11.392  17.491  70.222  1.00  0.00     0.000 HD 
ENDBRANCH  12  21
ENDBRANCH   6   7
ENDBRANCH   4   6
ENDBRANCH   2   4
TORSDOF 4
ENDMDL
MODEL       35
REMARK 921   NORMALIZED FREE ENERGY PREDICTED BY IDOCK:   -5.58 KCAL/MOL
REMARK 922        TOTAL FREE ENERGY PREDICTED BY IDOCK:   -7.33 KCAL/MOL
REMARK 923 INTER-LIGAND FREE ENERGY PREDICTED BY IDOCK:   -6.84 KCAL/MOL
REMARK 924 INTRA-LIGAND FREE ENERGY PREDICTED BY IDOCK:   -0.49 KCAL/MOL
REMARK 927      BINDING AFFINITY PREDICTED BY RF-SCORE:    0.00 PKD
ROOT
HETATM    1  C   UNL     1     -14.119  14.450  72.039  1.00  0.00    -0.620 C  
HETATM    2  C   UNL     1     -13.067  15.256  71.274  1.00  0.00    -0.468 C  
HETATM    3  C   UNL     1     -11.759  15.269  72.073  1.00  0.00    -0.529 C  
ENDROOT
BRANCH   2   4
HETATM    4  N   UNL     1     -12.895  14.641  69.959  1.00  0.00    -0.568 NA 
HETATM    5  H   UNL     1     -12.797  15.358  69.241  1.00  0.00     0.000 HD 
BRANCH   4   6
HETATM    6  C   UNL     1     -11.788  13.681  69.874  1.00  0.00    -0.320 C  
BRANCH   6   7
HETATM    7  C   UNL     1     -11.223  13.630  68.434  1.00  0.00    -0.276 C  
HETATM    8  C   UNL     1     -12.245  14.137  67.418  1.00  0.00    -0.278 C  
HETATM    9  C   UNL     1     -11.575  14.200  66.047  1.00  0.00    -0.364 C  
HETATM   10  C   UNL     1     -10.869  12.909  65.723  1.00  0.00    -0.292 A  
HETATM   11  C   UNL     1     -10.491  12.644  64.395  1.00  0.00    -0.398 A  
HETATM   12  C   UNL     1      -9.834  11.452  64.035  1.00  0.00    -0.316 A  
HETATM   13  C   UNL     1      -9.581  10.510  65.055  1.00  0.00    -0.276 A  
HETATM   14  H   UNL     1     -10.663  11.554  68.801  1.00  0.00     0.000 HD 
HETATM   15  N   UNL     1      -8.906   9.219  64.804  1.00  0.00    -0.197 N  
HETATM   16  N   UNL     1     -10.794  12.267  68.084  1.00  0.00    -0.216 NA 
HETATM   17  C   UNL     1      -9.953  10.783  66.386  1.00  0.00    -0.264 A  
HETATM   18  O   UNL     1      -8.773   8.441  65.760  1.00  0.00    -0.153 OA 
HETATM   19  O   UNL     1      -8.506   8.966  63.658  1.00  0.00    -0.187 OA 
HETATM   20  C   UNL     1     -10.572  11.986  66.734  1.00  0.00    -0.227 A  
BRANCH  12  21
HETATM   21  C   UNL     1      -9.445  11.289  62.588  1.00  0.00    -0.244 C  
HETATM   22  O   UNL     1      -8.086  11.646  62.411  1.00  0.00    -0.646 OA 
HETATM   23  H   UNL     1      -7.840  11.543  61.500  1.00  0.00     0.000 HD 
ENDBRANCH  12  21
ENDBRANCH   6   7
ENDBRANCH   4   6
ENDBRANCH   2   4
TORSDOF 4
ENDMDL
MODEL       36
REMARK 921   NORMALIZED FREE ENERGY PREDICTED BY IDOCK:   -5.50 KCAL/MOL
REMARK 922        TOTAL FREE ENERGY PREDICTED BY IDOCK:   -7.23 KCAL/MOL
REMARK 923 INTER-LIGAND FREE ENERGY PREDICTED BY IDOCK:   -6.82 KCAL/MOL
REMARK 924 INTRA-LIGAND FREE ENERGY PREDICTED BY IDOCK:   -0.41 KCAL/MOL
REMARK 927      BINDING AFFINITY PREDICTED BY RF-SCORE:    0.00 PKD
ROOT
HETATM    1  C   UNL     1     -10.813   6.201  67.312  1.00  0.00    -0.438 C  
HETATM    2  C   UNL     1      -9.503   6.797  66.790  1.00  0.00    -0.162 C  
HETATM    3  C   UNL     1      -8.883   5.841  65.767  1.00  0.00    -0.151 C  
ENDROOT
BRANCH   2   4
HETATM    4  N   UNL     1      -9.803   8.103  66.204  1.00  0.00    -0.464 NA 
HETATM    5  H   UNL     1     -10.230   7.989  65.284  1.00  0.00     0.000 HD 
BRANCH   4   6
HETATM    6  C   UNL     1     -10.631   8.974  67.046  1.00  0.00    -0.200 C  
BRANCH   6   7
HETATM    7  C   UNL     1     -10.066  10.416  67.053  1.00  0.00    -0.215 C  
HETATM    8  C   UNL     1      -9.994  10.978  68.470  1.00  0.00    -0.198 C  
HETATM    9  C   UNL     1      -9.295  12.335  68.419  1.00  0.00    -0.162 C  
HETATM   10  C   UNL     1      -9.897  13.222  67.359  1.00  0.00    -0.227 A  
HETATM   11  C   UNL     1      -9.632  14.602  67.383  1.00  0.00    -0.215 A  
HETATM   12  C   UNL     1     -10.173  15.477  66.421  1.00  0.00    -0.300 A  
HETATM   13  C   UNL     1     -11.017  14.924  65.434  1.00  0.00    -0.364 A  
HETATM   14  H   UNL     1     -11.532  10.921  65.517  1.00  0.00     0.000 HD 
HETATM   15  N   UNL     1     -11.651  15.738  64.375  1.00  0.00    -0.338 N  
HETATM   16  N   UNL     1     -10.872  11.300  66.197  1.00  0.00    -0.253 NA 
HETATM   17  C   UNL     1     -11.273  13.539  65.408  1.00  0.00    -0.301 A  
HETATM   18  O   UNL     1     -12.412  15.163  63.583  1.00  0.00    -0.607 OA 
HETATM   19  O   UNL     1     -11.402  16.951  64.323  1.00  0.00    -1.202 OA 
HETATM   20  C   UNL     1     -10.700  12.678  66.348  1.00  0.00    -0.255 A  
BRANCH  12  21
HETATM   21  C   UNL     1      -9.794  16.932  66.522  1.00  0.00    -0.296 C  
HETATM   22  O   UNL     1      -8.670  17.195  65.701  1.00  0.00    -0.473 OA 
HETATM   23  H   UNL     1      -8.432  18.112  65.764  1.00  0.00     0.000 HD 
ENDBRANCH  12  21
ENDBRANCH   6   7
ENDBRANCH   4   6
ENDBRANCH   2   4
TORSDOF 4
ENDMDL
MODEL       37
REMARK 921   NORMALIZED FREE ENERGY PREDICTED BY IDOCK:   -5.45 KCAL/MOL
REMARK 922        TOTAL FREE ENERGY PREDICTED BY IDOCK:   -7.17 KCAL/MOL
REMARK 923 INTER-LIGAND FREE ENERGY PREDICTED BY IDOCK:   -6.72 KCAL/MOL
REMARK 924 INTRA-LIGAND FREE ENERGY PREDICTED BY IDOCK:   -0.45 KCAL/MOL
REMARK 927      BINDING AFFINITY PREDICTED BY RF-SCORE:    0.00 PKD
ROOT
HETATM    1  C   UNL     1      -9.948  10.305  64.363  1.00  0.00    -0.331 C  
HETATM    2  C   UNL     1      -9.589  11.535  63.526  1.00  0.00    -0.279 C  
HETATM    3  C   UNL     1      -8.720  11.106  62.340  1.00  0.00    -0.328 C  
ENDROOT
BRANCH   2   4
HETATM    4  N   UNL     1     -10.836  12.162  63.087  1.00  0.00    -0.658 NA 
HETATM    5  H   UNL     1     -11.429  11.480  62.614  1.00  0.00     0.000 HD 
BRANCH   4   6
HETATM    6  C   UNL     1     -11.587  12.837  64.153  1.00  0.00    -0.396 C  
BRANCH   6   7
HETATM    7  C   UNL     1     -10.648  13.747  64.983  1.00  0.00    -0.389 C  
HETATM    8  C   UNL     1     -10.622  13.327  66.450  1.00  0.00    -0.288 C  
HETATM    9  C   UNL     1      -9.571  14.165  67.175  1.00  0.00    -0.244 C  
HETATM   10  C   UNL     1      -9.747  15.634  66.886  1.00  0.00    -0.240 A  
HETATM   11  C   UNL     1      -9.113  16.580  67.709  1.00  0.00    -0.204 A  
HETATM   12  C   UNL     1      -9.248  17.964  67.488  1.00  0.00    -0.249 A  
HETATM   13  C   UNL     1     -10.065  18.379  66.414  1.00  0.00    -0.403 A  
HETATM   14  H   UNL     1     -11.684  15.469  64.133  1.00  0.00     0.000 HD 
HETATM   15  N   UNL     1     -10.292  19.802  66.084  1.00  0.00    -0.500 N  
HETATM   16  N   UNL     1     -11.046  15.158  64.866  1.00  0.00    -0.410 NA 
HETATM   17  C   UNL     1     -10.691  17.428  65.585  1.00  0.00    -0.113 A  
HETATM   18  O   UNL     1     -11.064  20.061  65.150  1.00  0.00    -0.289 OA 
HETATM   19  O   UNL     1      -9.709  20.671  66.749  1.00  0.00    -0.382 OA 
HETATM   20  C   UNL     1     -10.519  16.057  65.796  1.00  0.00    -0.374 A  
BRANCH  12  21
HETATM   21  C   UNL     1      -8.495  18.887  68.412  1.00  0.00    -0.350 C  
HETATM   22  O   UNL     1      -9.403  19.555  69.270  1.00  0.00    -0.293 OA 
HETATM   23  H   UNL     1      -8.930  20.136  69.852  1.00  0.00     0.000 HD 
ENDBRANCH  12  21
ENDBRANCH   6   7
ENDBRANCH   4   6
ENDBRANCH   2   4
TORSDOF 4
ENDMDL
MODEL       38
REMARK 921   NORMALIZED FREE ENERGY PREDICTED BY IDOCK:   -5.43 KCAL/MOL
REMARK 922        TOTAL FREE ENERGY PREDICTED BY IDOCK:   -7.15 KCAL/MOL
REMARK 923 INTER-LIGAND FREE ENERGY PREDICTED BY IDOCK:   -6.68 KCAL/MOL
REMARK 924 INTRA-LIGAND FREE ENERGY PREDICTED BY IDOCK:   -0.46 KCAL/MOL
REMARK 927      BINDING AFFINITY PREDICTED BY RF-SCORE:    0.00 PKD
ROOT
HETATM    1  C   UNL     1     -11.102   4.603  73.074  1.00  0.00    -0.327 C  
HETATM    2  C   UNL     1     -10.521   5.605  72.073  1.00  0.00    -0.219 C  
HETATM    3  C   UNL     1     -10.154   4.874  70.778  1.00  0.00    -0.303 C  
ENDROOT
BRANCH   2   4
HETATM    4  N   UNL     1     -11.522   6.647  71.845  1.00  0.00    -0.276 NA 
HETATM    5  H   UNL     1     -12.461   6.270  71.967  1.00  0.00     0.000 HD 
BRANCH   4   6
HETATM    6  C   UNL     1     -11.345   7.852  72.664  1.00  0.00    -0.408 C  
BRANCH   6   7
HETATM    7  C   UNL     1     -11.329   9.117  71.770  1.00  0.00    -0.381 C  
HETATM    8  C   UNL     1     -12.670   9.846  71.815  1.00  0.00    -0.523 C  
HETATM    9  C   UNL     1     -12.537  11.153  71.037  1.00  0.00    -0.503 C  
HETATM   10  C   UNL     1     -11.927  10.922  69.678  1.00  0.00    -0.414 A  
HETATM   11  C   UNL     1     -12.035  11.921  68.695  1.00  0.00    -0.291 A  
HETATM   12  C   UNL     1     -11.490  11.755  67.407  1.00  0.00    -0.375 A  
HETATM   13  C   UNL     1     -10.842  10.534  67.123  1.00  0.00    -0.259 A  
HETATM   14  H   UNL     1     -10.570   7.873  70.146  1.00  0.00     0.000 HD 
HETATM   15  N   UNL     1     -10.236  10.236  65.807  1.00  0.00    -0.246 N  
HETATM   16  N   UNL     1     -10.984   8.776  70.382  1.00  0.00    -0.234 NA 
HETATM   17  C   UNL     1     -10.728   9.539  68.113  1.00  0.00    -0.247 A  
HETATM   18  O   UNL     1      -9.732   9.116  65.645  1.00  0.00    -0.270 OA 
HETATM   19  O   UNL     1     -10.258  11.109  64.927  1.00  0.00    -0.265 OA 
HETATM   20  C   UNL     1     -11.243   9.732  69.397  1.00  0.00    -0.114 A  
BRANCH  12  21
HETATM   21  C   UNL     1     -11.634  12.906  66.444  1.00  0.00    -0.371 C  
HETATM   22  O   UNL     1     -12.551  12.564  65.420  1.00  0.00    -0.656 OA 
HETATM   23  H   UNL     1     -12.642  13.289  64.813  1.00  0.00     0.000 HD 
ENDBRANCH  12  21
ENDBRANCH   6   7
ENDBRANCH   4   6
ENDBRANCH   2   4
TORSDOF 4
ENDMDL
MODEL       39
REMARK 921   NORMALIZED FREE ENERGY PREDICTED BY IDOCK:   -5.41 KCAL/MOL
REMARK 922        TOTAL FREE ENERGY PREDICTED BY IDOCK:   -7.12 KCAL/MOL
REMARK 923 INTER-LIGAND FREE ENERGY PREDICTED BY IDOCK:   -6.63 KCAL/MOL
REMARK 924 INTRA-LIGAND FREE ENERGY PREDICTED BY IDOCK:   -0.50 KCAL/MOL
REMARK 927      BINDING AFFINITY PREDICTED BY RF-SCORE:    0.00 PKD
ROOT
HETATM    1  C   UNL     1     -13.936  15.586  72.220  1.00  0.00    -0.642 C  
HETATM    2  C   UNL     1     -12.823  15.459  71.177  1.00  0.00    -0.455 C  
HETATM    3  C   UNL     1     -11.481  15.266  71.888  1.00  0.00    -0.504 C  
ENDROOT
BRANCH   2   4
HETATM    4  N   UNL     1     -13.146  14.328  70.307  1.00  0.00    -0.395 NA 
HETATM    5  H   UNL     1     -13.577  14.656  69.443  1.00  0.00     0.000 HD 
BRANCH   4   6
HETATM    6  C   UNL     1     -12.012  13.445  70.009  1.00  0.00    -0.337 C  
BRANCH   6   7
HETATM    7  C   UNL     1     -12.361  11.978  70.359  1.00  0.00    -0.233 C  
HETATM    8  C   UNL     1     -12.972  11.870  71.755  1.00  0.00    -0.455 C  
HETATM    9  C   UNL     1     -13.426  10.428  71.975  1.00  0.00    -0.360 C  
HETATM   10  C   UNL     1     -12.333   9.450  71.627  1.00  0.00    -0.465 A  
HETATM   11  C   UNL     1     -12.428   8.122  72.077  1.00  0.00    -0.375 A  
HETATM   12  C   UNL     1     -11.433   7.169  71.786  1.00  0.00    -0.301 A  
HETATM   13  C   UNL     1     -10.314   7.597  71.039  1.00  0.00    -0.202 A  
HETATM   14  H   UNL     1     -10.332  11.429  69.773  1.00  0.00     0.000 HD 
HETATM   15  N   UNL     1      -9.201   6.694  70.676  1.00  0.00    -0.158 N  
HETATM   16  N   UNL     1     -11.174  11.116  70.257  1.00  0.00    -0.155 NA 
HETATM   17  C   UNL     1     -10.228   8.926  70.582  1.00  0.00    -0.267 A  
HETATM   18  O   UNL     1      -8.243   7.180  70.058  1.00  0.00    -0.131 OA 
HETATM   19  O   UNL     1      -9.268   5.500  71.004  1.00  0.00    -0.145 OA 
HETATM   20  C   UNL     1     -11.240   9.851  70.848  1.00  0.00    -0.360 A  
BRANCH  12  21
HETATM   21  C   UNL     1     -11.654   5.765  72.289  1.00  0.00    -0.241 C  
HETATM   22  O   UNL     1     -11.214   5.660  73.632  1.00  0.00    -0.446 OA 
HETATM   23  H   UNL     1     -11.354   4.776  73.949  1.00  0.00     0.000 HD 
ENDBRANCH  12  21
ENDBRANCH   6   7
ENDBRANCH   4   6
ENDBRANCH   2   4
TORSDOF 4
ENDMDL
MODEL       40
REMARK 921   NORMALIZED FREE ENERGY PREDICTED BY IDOCK:   -5.41 KCAL/MOL
REMARK 922        TOTAL FREE ENERGY PREDICTED BY IDOCK:   -7.12 KCAL/MOL
REMARK 923 INTER-LIGAND FREE ENERGY PREDICTED BY IDOCK:   -6.64 KCAL/MOL
REMARK 924 INTRA-LIGAND FREE ENERGY PREDICTED BY IDOCK:   -0.48 KCAL/MOL
REMARK 927      BINDING AFFINITY PREDICTED BY RF-SCORE:    0.00 PKD
ROOT
HETATM    1  C   UNL     1     -12.298   6.825  71.009  1.00  0.00    -0.370 C  
HETATM    2  C   UNL     1     -11.002   6.616  70.222  1.00  0.00    -0.303 C  
HETATM    3  C   UNL     1     -10.384   5.270  70.613  1.00  0.00    -0.324 C  
ENDROOT
BRANCH   2   4
HETATM    4  N   UNL     1     -11.325   6.674  68.797  1.00  0.00    -0.584 NA 
HETATM    5  H   UNL     1     -11.960   7.448  68.608  1.00  0.00     0.000 HD 
BRANCH   4   6
HETATM    6  C   UNL     1     -10.158   6.743  67.910  1.00  0.00    -0.159 C  
BRANCH   6   7
HETATM    7  C   UNL     1     -10.304   7.921  66.915  1.00  0.00    -0.330 C  
HETATM    8  C   UNL     1      -9.009   8.159  66.141  1.00  0.00    -0.218 C  
HETATM    9  C   UNL     1      -9.268   9.227  65.081  1.00  0.00    -0.264 C  
HETATM   10  C   UNL     1      -9.943  10.437  65.675  1.00  0.00    -0.337 A  
HETATM   11  C   UNL     1      -9.955  11.643  64.955  1.00  0.00    -0.293 A  
HETATM   12  C   UNL     1     -10.566  12.805  65.464  1.00  0.00    -0.303 A  
HETATM   13  C   UNL     1     -11.155  12.726  66.745  1.00  0.00    -0.277 A  
HETATM   14  H   UNL     1     -11.084   9.122  68.561  1.00  0.00     0.000 HD 
HETATM   15  N   UNL     1     -11.821  13.877  67.392  1.00  0.00    -0.382 N  
HETATM   16  N   UNL     1     -10.711   9.151  67.611  1.00  0.00    -0.242 NA 
HETATM   17  C   UNL     1     -11.149  11.513  67.460  1.00  0.00    -0.329 A  
HETATM   18  O   UNL     1     -12.265  13.717  68.538  1.00  0.00    -0.348 OA 
HETATM   19  O   UNL     1     -11.904  14.947  66.771  1.00  0.00    -0.304 OA 
HETATM   20  C   UNL     1     -10.570  10.360  66.926  1.00  0.00    -0.230 A  
BRANCH  12  21
HETATM   21  C   UNL     1     -10.550  14.033  64.591  1.00  0.00    -0.395 C  
HETATM   22  O   UNL     1     -11.766  14.127  63.869  1.00  0.00    -0.645 OA 
HETATM   23  H   UNL     1     -11.756  14.901  63.319  1.00  0.00     0.000 HD 
ENDBRANCH  12  21
ENDBRANCH   6   7
ENDBRANCH   4   6
ENDBRANCH   2   4
TORSDOF 4
ENDMDL
MODEL       41
REMARK 921   NORMALIZED FREE ENERGY PREDICTED BY IDOCK:   -5.40 KCAL/MOL
REMARK 922        TOTAL FREE ENERGY PREDICTED BY IDOCK:   -7.10 KCAL/MOL
REMARK 923 INTER-LIGAND FREE ENERGY PREDICTED BY IDOCK:   -6.69 KCAL/MOL
REMARK 924 INTRA-LIGAND FREE ENERGY PREDICTED BY IDOCK:   -0.41 KCAL/MOL
REMARK 927      BINDING AFFINITY PREDICTED BY RF-SCORE:    0.00 PKD
ROOT
HETATM    1  C   UNL     1      -6.434  18.490  67.032  1.00  0.00    -0.198 C  
HETATM    2  C   UNL     1      -7.286  19.627  67.603  1.00  0.00    -0.244 C  
HETATM    3  C   UNL     1      -6.883  20.947  66.938  1.00  0.00    -0.375 C  
ENDROOT
BRANCH   2   4
HETATM    4  N   UNL     1      -8.692  19.302  67.362  1.00  0.00    -0.288 NA 
HETATM    5  H   UNL     1      -8.768  18.495  66.744  1.00  0.00     0.000 HD 
BRANCH   4   6
HETATM    6  C   UNL     1      -9.486  19.092  68.577  1.00  0.00    -0.389 C  
BRANCH   6   7
HETATM    7  C   UNL     1      -9.822  17.591  68.751  1.00  0.00    -0.326 C  
HETATM    8  C   UNL     1      -8.585  16.786  69.142  1.00  0.00    -0.086 C  
HETATM    9  C   UNL     1      -9.015  15.351  69.441  1.00  0.00    -0.258 C  
HETATM   10  C   UNL     1      -9.873  14.794  68.334  1.00  0.00    -0.220 A  
HETATM   11  C   UNL     1     -10.081  13.407  68.254  1.00  0.00    -0.247 A  
HETATM   12  C   UNL     1     -10.869  12.833  67.238  1.00  0.00    -0.277 A  
HETATM   13  C   UNL     1     -11.434  13.701  66.278  1.00  0.00    -0.333 A  
HETATM   14  H   UNL     1     -10.779  17.650  66.791  1.00  0.00     0.000 HD 
HETATM   15  N   UNL     1     -12.273  13.220  65.160  1.00  0.00    -0.415 N  
HETATM   16  N   UNL     1     -10.419  17.040  67.525  1.00  0.00    -0.333 NA 
HETATM   17  C   UNL     1     -11.231  15.091  66.367  1.00  0.00    -0.310 A  
HETATM   18  O   UNL     1     -12.682  14.059  64.344  1.00  0.00    -0.663 OA 
HETATM   19  O   UNL     1     -12.529  12.010  65.081  1.00  0.00    -0.425 OA 
HETATM   20  C   UNL     1     -10.476  15.649  67.402  1.00  0.00    -0.291 A  
BRANCH  12  21
HETATM   21  C   UNL     1     -11.053  11.337  67.269  1.00  0.00    -0.305 C  
HETATM   22  O   UNL     1     -12.240  11.012  67.971  1.00  0.00    -0.703 OA 
HETATM   23  H   UNL     1     -12.356  10.070  67.990  1.00  0.00     0.000 HD 
ENDBRANCH  12  21
ENDBRANCH   6   7
ENDBRANCH   4   6
ENDBRANCH   2   4
TORSDOF 4
ENDMDL
MODEL       42
REMARK 921   NORMALIZED FREE ENERGY PREDICTED BY IDOCK:   -5.38 KCAL/MOL
REMARK 922        TOTAL FREE ENERGY PREDICTED BY IDOCK:   -7.09 KCAL/MOL
REMARK 923 INTER-LIGAND FREE ENERGY PREDICTED BY IDOCK:   -7.02 KCAL/MOL
REMARK 924 INTRA-LIGAND FREE ENERGY PREDICTED BY IDOCK:   -0.07 KCAL/MOL
REMARK 927      BINDING AFFINITY PREDICTED BY RF-SCORE:    0.00 PKD
ROOT
HETATM    1  C   UNL     1     -12.224  12.949  63.327  1.00  0.00    -0.481 C  
HETATM    2  C   UNL     1     -10.972  12.698  64.172  1.00  0.00    -0.387 C  
HETATM    3  C   UNL     1     -10.142  11.581  63.530  1.00  0.00    -0.446 C  
ENDROOT
BRANCH   2   4
HETATM    4  N   UNL     1     -10.225  13.952  64.255  1.00  0.00    -0.703 NA 
HETATM    5  H   UNL     1     -10.796  14.728  63.920  1.00  0.00     0.000 HD 
BRANCH   4   6
HETATM    6  C   UNL     1      -9.685  14.253  65.586  1.00  0.00    -0.205 C  
BRANCH   6   7
HETATM    7  C   UNL     1     -10.681  13.811  66.687  1.00  0.00    -0.277 C  
HETATM    8  C   UNL     1     -10.739  14.828  67.824  1.00  0.00    -0.268 C  
HETATM    9  C   UNL     1     -11.841  14.407  68.794  1.00  0.00    -0.360 C  
HETATM   10  C   UNL     1     -11.708  12.956  69.178  1.00  0.00    -0.376 A  
HETATM   11  C   UNL     1     -12.401  12.474  70.302  1.00  0.00    -0.265 A  
HETATM   12  C   UNL     1     -12.308  11.129  70.709  1.00  0.00    -0.504 A  
HETATM   13  C   UNL     1     -11.472  10.274  69.959  1.00  0.00    -0.296 A  
HETATM   14  H   UNL     1      -9.680  11.873  66.715  1.00  0.00     0.000 HD 
HETATM   15  N   UNL     1     -11.286   8.845  70.289  1.00  0.00    -0.232 N  
HETATM   16  N   UNL     1     -10.329  12.483  67.211  1.00  0.00    -0.219 NA 
HETATM   17  C   UNL     1     -10.787  10.759  68.828  1.00  0.00    -0.262 A  
HETATM   18  O   UNL     1     -10.494   8.191  69.595  1.00  0.00    -0.219 OA 
HETATM   19  O   UNL     1     -11.920   8.363  71.238  1.00  0.00    -0.285 OA 
HETATM   20  C   UNL     1     -10.917  12.087  68.416  1.00  0.00    -0.237 A  
BRANCH  12  21
HETATM   21  C   UNL     1     -13.122  10.713  71.908  1.00  0.00    -0.458 C  
HETATM   22  O   UNL     1     -13.619  11.860  72.575  1.00  0.00    -0.540 OA 
HETATM   23  H   UNL     1     -14.131  11.599  73.330  1.00  0.00     0.000 HD 
ENDBRANCH  12  21
ENDBRANCH   6   7
ENDBRANCH   4   6
ENDBRANCH   2   4
TORSDOF 4
ENDMDL
MODEL       43
REMARK 921   NORMALIZED FREE ENERGY PREDICTED BY IDOCK:   -5.38 KCAL/MOL
REMARK 922        TOTAL FREE ENERGY PREDICTED BY IDOCK:   -7.08 KCAL/MOL
REMARK 923 INTER-LIGAND FREE ENERGY PREDICTED BY IDOCK:   -6.53 KCAL/MOL
REMARK 924 INTRA-LIGAND FREE ENERGY PREDICTED BY IDOCK:   -0.55 KCAL/MOL
REMARK 927      BINDING AFFINITY PREDICTED BY RF-SCORE:    0.00 PKD
ROOT
HETATM    1  C   UNL     1      -6.762  18.039  66.580  1.00  0.00    -0.236 C  
HETATM    2  C   UNL     1      -7.479  19.348  66.239  1.00  0.00    -0.274 C  
HETATM    3  C   UNL     1      -6.610  20.169  65.282  1.00  0.00    -0.330 C  
ENDROOT
BRANCH   2   4
HETATM    4  N   UNL     1      -8.774  19.012  65.647  1.00  0.00    -0.189 NA 
HETATM    5  H   UNL     1      -8.845  18.006  65.496  1.00  0.00     0.000 HD 
BRANCH   4   6
HETATM    6  C   UNL     1      -9.935  19.498  66.401  1.00  0.00    -0.438 C  
BRANCH   6   7
HETATM    7  C   UNL     1     -10.538  18.360  67.260  1.00  0.00    -0.402 C  
HETATM    8  C   UNL     1      -9.793  18.209  68.584  1.00  0.00    -0.389 C  
HETATM    9  C   UNL     1     -10.527  17.177  69.438  1.00  0.00    -0.203 C  
HETATM   10  C   UNL     1     -10.803  15.917  68.659  1.00  0.00    -0.291 A  
HETATM   11  C   UNL     1     -11.153  14.743  69.348  1.00  0.00    -0.302 A  
HETATM   12  C   UNL     1     -11.416  13.537  68.671  1.00  0.00    -0.343 A  
HETATM   13  C   UNL     1     -11.294  13.536  67.265  1.00  0.00    -0.315 A  
HETATM   14  H   UNL     1     -10.383  17.057  65.516  1.00  0.00     0.000 HD 
HETATM   15  N   UNL     1     -11.536  12.332  66.441  1.00  0.00    -0.361 N  
HETATM   16  N   UNL     1     -10.530  17.085  66.525  1.00  0.00    -0.286 NA 
HETATM   17  C   UNL     1     -10.952  14.716  66.577  1.00  0.00    -0.318 A  
HETATM   18  O   UNL     1     -11.357  12.424  65.218  1.00  0.00    -0.310 OA 
HETATM   19  O   UNL     1     -11.901  11.288  67.001  1.00  0.00    -0.484 OA 
HETATM   20  C   UNL     1     -10.729  15.914  67.260  1.00  0.00    -0.306 A  
BRANCH  12  21
HETATM   21  C   UNL     1     -11.817  12.349  69.508  1.00  0.00    -0.303 C  
HETATM   22  O   UNL     1     -10.674  11.573  69.822  1.00  0.00    -0.452 OA 
HETATM   23  H   UNL     1     -10.927  10.825  70.349  1.00  0.00     0.000 HD 
ENDBRANCH  12  21
ENDBRANCH   6   7
ENDBRANCH   4   6
ENDBRANCH   2   4
TORSDOF 4
ENDMDL
MODEL       44
REMARK 921   NORMALIZED FREE ENERGY PREDICTED BY IDOCK:   -5.37 KCAL/MOL
REMARK 922        TOTAL FREE ENERGY PREDICTED BY IDOCK:   -7.06 KCAL/MOL
REMARK 923 INTER-LIGAND FREE ENERGY PREDICTED BY IDOCK:   -6.81 KCAL/MOL
REMARK 924 INTRA-LIGAND FREE ENERGY PREDICTED BY IDOCK:   -0.26 KCAL/MOL
REMARK 927      BINDING AFFINITY PREDICTED BY RF-SCORE:    0.00 PKD
ROOT
HETATM    1  C   UNL     1     -10.749   7.333  69.600  1.00  0.00    -0.249 C  
HETATM    2  C   UNL     1     -10.842   8.671  70.337  1.00  0.00    -0.227 C  
HETATM    3  C   UNL     1      -9.955   8.625  71.585  1.00  0.00    -0.353 C  
ENDROOT
BRANCH   2   4
HETATM    4  N   UNL     1     -10.426   9.726  69.413  1.00  0.00    -0.210 NA 
HETATM    5  H   UNL     1      -9.485  10.046  69.640  1.00  0.00     0.000 HD 
BRANCH   4   6
HETATM    6  C   UNL     1     -10.513   9.362  67.994  1.00  0.00    -0.228 C  
BRANCH   6   7
HETATM    7  C   UNL     1     -10.888  10.598  67.140  1.00  0.00    -0.270 C  
HETATM    8  C   UNL     1     -10.100  10.631  65.833  1.00  0.00    -0.321 C  
HETATM    9  C   UNL     1     -10.623  11.785  64.980  1.00  0.00    -0.338 C  
HETATM   10  C   UNL     1     -10.690  13.065  65.772  1.00  0.00    -0.291 A  
HETATM   11  C   UNL     1     -10.814  14.290  65.095  1.00  0.00    -0.387 A  
HETATM   12  C   UNL     1     -10.876  15.516  65.784  1.00  0.00    -0.337 A  
HETATM   13  C   UNL     1     -10.787  15.480  67.193  1.00  0.00    -0.316 A  
HETATM   14  H   UNL     1     -10.546  11.833  68.906  1.00  0.00     0.000 HD 
HETATM   15  N   UNL     1     -10.832  16.698  68.029  1.00  0.00    -0.350 N  
HETATM   16  N   UNL     1     -10.673  11.843  67.894  1.00  0.00    -0.197 NA 
HETATM   17  C   UNL     1     -10.672  14.250  67.869  1.00  0.00    -0.244 A  
HETATM   18  O   UNL     1     -10.698  16.562  69.254  1.00  0.00    -0.295 OA 
HETATM   19  O   UNL     1     -10.996  17.797  67.478  1.00  0.00    -0.287 OA 
HETATM   20  C   UNL     1     -10.648  13.039  67.172  1.00  0.00    -0.246 A  
BRANCH  12  21
HETATM   21  C   UNL     1     -11.044  16.765  64.958  1.00  0.00    -0.057 C  
HETATM   22  O   UNL     1     -11.645  16.444  63.716  1.00  0.00    -1.605 OA 
HETATM   23  H   UNL     1     -11.752  17.230  63.195  1.00  0.00     0.000 HD 
ENDBRANCH  12  21
ENDBRANCH   6   7
ENDBRANCH   4   6
ENDBRANCH   2   4
TORSDOF 4
ENDMDL
MODEL       45
REMARK 921   NORMALIZED FREE ENERGY PREDICTED BY IDOCK:   -5.36 KCAL/MOL
REMARK 922        TOTAL FREE ENERGY PREDICTED BY IDOCK:   -7.05 KCAL/MOL
REMARK 923 INTER-LIGAND FREE ENERGY PREDICTED BY IDOCK:   -6.52 KCAL/MOL
REMARK 924 INTRA-LIGAND FREE ENERGY PREDICTED BY IDOCK:   -0.54 KCAL/MOL
REMARK 927      BINDING AFFINITY PREDICTED BY RF-SCORE:    0.00 PKD
ROOT
HETATM    1  C   UNL     1     -10.179  17.857  68.013  1.00  0.00    -0.381 C  
HETATM    2  C   UNL     1     -10.681  18.156  66.599  1.00  0.00    -0.168 C  
HETATM    3  C   UNL     1     -10.427  19.631  66.271  1.00  0.00    -0.621 C  
ENDROOT
BRANCH   2   4
HETATM    4  N   UNL     1      -9.982  17.264  65.673  1.00  0.00    -0.567 NA 
HETATM    5  H   UNL     1      -9.199  16.810  66.142  1.00  0.00     0.000 HD 
BRANCH   4   6
HETATM    6  C   UNL     1     -10.838  16.264  65.026  1.00  0.00    -0.320 C  
BRANCH   6   7
HETATM    7  C   UNL     1     -10.520  14.848  65.565  1.00  0.00    -0.360 C  
HETATM    8  C   UNL     1     -10.851  13.773  64.532  1.00  0.00    -0.399 C  
HETATM    9  C   UNL     1     -10.378  12.424  65.069  1.00  0.00    -0.319 C  
HETATM   10  C   UNL     1     -10.861  12.194  66.477  1.00  0.00    -0.307 A  
HETATM   11  C   UNL     1     -10.826  10.896  67.015  1.00  0.00    -0.323 A  
HETATM   12  C   UNL     1     -11.271  10.623  68.323  1.00  0.00    -0.362 A  
HETATM   13  C   UNL     1     -11.779  11.701  69.080  1.00  0.00    -0.324 A  
HETATM   14  H   UNL     1     -11.672  15.346  67.350  1.00  0.00     0.000 HD 
HETATM   15  N   UNL     1     -12.283  11.542  70.461  1.00  0.00    -0.377 N  
HETATM   16  N   UNL     1     -11.244  14.587  66.818  1.00  0.00    -0.325 NA 
HETATM   17  C   UNL     1     -11.805  13.002  68.541  1.00  0.00    -0.360 A  
HETATM   18  O   UNL     1     -12.752  12.543  71.022  1.00  0.00    -0.326 OA 
HETATM   19  O   UNL     1     -12.220  10.426  70.996  1.00  0.00    -0.326 OA 
HETATM   20  C   UNL     1     -11.327  13.262  67.254  1.00  0.00    -0.314 A  
BRANCH  12  21
HETATM   21  C   UNL     1     -11.155   9.201  68.809  1.00  0.00     0.143 C  
HETATM   22  O   UNL     1      -9.974   9.049  69.576  1.00  0.00    -0.181 OA 
HETATM   23  H   UNL     1      -9.900   8.153  69.882  1.00  0.00     0.000 HD 
ENDBRANCH  12  21
ENDBRANCH   6   7
ENDBRANCH   4   6
ENDBRANCH   2   4
TORSDOF 4
ENDMDL
MODEL       46
REMARK 921   NORMALIZED FREE ENERGY PREDICTED BY IDOCK:   -5.32 KCAL/MOL
REMARK 922        TOTAL FREE ENERGY PREDICTED BY IDOCK:   -7.00 KCAL/MOL
REMARK 923 INTER-LIGAND FREE ENERGY PREDICTED BY IDOCK:   -6.50 KCAL/MOL
REMARK 924 INTRA-LIGAND FREE ENERGY PREDICTED BY IDOCK:   -0.50 KCAL/MOL
REMARK 927      BINDING AFFINITY PREDICTED BY RF-SCORE:    0.00 PKD
ROOT
HETATM    1  C   UNL     1     -12.811  15.705  72.957  1.00  0.00    -0.599 C  
HETATM    2  C   UNL     1     -12.447  14.310  72.441  1.00  0.00    -0.169 C  
HETATM    3  C   UNL     1     -13.698  13.426  72.444  1.00  0.00    -0.698 C  
ENDROOT
BRANCH   2   4
HETATM    4  N   UNL     1     -11.888  14.458  71.097  1.00  0.00    -0.463 NA 
HETATM    5  H   UNL     1     -11.759  13.543  70.665  1.00  0.00     0.000 HD 
BRANCH   4   6
HETATM    6  C   UNL     1     -12.657  15.338  70.210  1.00  0.00    -0.347 C  
BRANCH   6   7
HETATM    7  C   UNL     1     -11.780  15.813  69.026  1.00  0.00    -0.396 C  
HETATM    8  C   UNL     1     -11.233  14.630  68.230  1.00  0.00    -0.301 C  
HETATM    9  C   UNL     1     -10.506  15.169  67.000  1.00  0.00    -0.282 C  
HETATM   10  C   UNL     1      -9.530  16.255  67.372  1.00  0.00    -0.227 A  
HETATM   11  C   UNL     1      -8.535  16.633  66.453  1.00  0.00    -0.348 A  
HETATM   12  C   UNL     1      -7.595  17.637  66.751  1.00  0.00    -0.256 A  
HETATM   13  C   UNL     1      -7.667  18.247  68.023  1.00  0.00    -0.260 A  
HETATM   14  H   UNL     1     -10.679  17.063  70.435  1.00  0.00     0.000 HD 
HETATM   15  N   UNL     1      -6.733  19.307  68.457  1.00  0.00    -0.260 N  
HETATM   16  N   UNL     1     -10.675  16.662  69.497  1.00  0.00    -0.327 NA 
HETATM   17  C   UNL     1      -8.671  17.872  68.937  1.00  0.00    -0.123 A  
HETATM   18  O   UNL     1      -6.853  19.744  69.610  1.00  0.00    -0.348 OA 
HETATM   19  O   UNL     1      -5.874  19.711  67.660  1.00  0.00    -0.182 OA 
HETATM   20  C   UNL     1      -9.619  16.898  68.613  1.00  0.00    -0.265 A  
BRANCH  12  21
HETATM   21  C   UNL     1      -6.594  17.986  65.679  1.00  0.00    -0.207 C  
HETATM   22  O   UNL     1      -6.961  19.204  65.056  1.00  0.00    -0.443 OA 
HETATM   23  H   UNL     1      -6.331  19.424  64.380  1.00  0.00     0.000 HD 
ENDBRANCH  12  21
ENDBRANCH   6   7
ENDBRANCH   4   6
ENDBRANCH   2   4
TORSDOF 4
ENDMDL
MODEL       47
REMARK 921   NORMALIZED FREE ENERGY PREDICTED BY IDOCK:   -5.31 KCAL/MOL
REMARK 922        TOTAL FREE ENERGY PREDICTED BY IDOCK:   -7.00 KCAL/MOL
REMARK 923 INTER-LIGAND FREE ENERGY PREDICTED BY IDOCK:   -6.45 KCAL/MOL
REMARK 924 INTRA-LIGAND FREE ENERGY PREDICTED BY IDOCK:   -0.55 KCAL/MOL
REMARK 927      BINDING AFFINITY PREDICTED BY RF-SCORE:    0.00 PKD
ROOT
HETATM    1  C   UNL     1      -5.440  19.058  63.961  1.00  0.00    -0.304 C  
HETATM    2  C   UNL     1      -5.746  20.551  63.825  1.00  0.00    -0.263 C  
HETATM    3  C   UNL     1      -6.008  20.884  62.353  1.00  0.00    -0.265 C  
ENDROOT
BRANCH   2   4
HETATM    4  N   UNL     1      -6.905  20.853  64.666  1.00  0.00    -0.522 NA 
HETATM    5  H   UNL     1      -7.684  20.240  64.429  1.00  0.00     0.000 HD 
BRANCH   4   6
HETATM    6  C   UNL     1      -6.640  20.808  66.108  1.00  0.00    -0.207 C  
BRANCH   6   7
HETATM    7  C   UNL     1      -7.803  20.105  66.850  1.00  0.00    -0.315 C  
HETATM    8  C   UNL     1      -7.415  19.755  68.285  1.00  0.00    -0.346 C  
HETATM    9  C   UNL     1      -8.648  19.204  68.999  1.00  0.00    -0.237 C  
HETATM   10  C   UNL     1      -9.316  18.125  68.187  1.00  0.00    -0.295 A  
HETATM   11  C   UNL     1     -10.243  17.269  68.806  1.00  0.00    -0.353 A  
HETATM   12  C   UNL     1     -10.891  16.241  68.096  1.00  0.00    -0.342 A  
HETATM   13  C   UNL     1     -10.563  16.078  66.732  1.00  0.00    -0.297 A  
HETATM   14  H   UNL     1      -7.955  18.730  65.163  1.00  0.00     0.000 HD 
HETATM   15  N   UNL     1     -11.169  15.032  65.882  1.00  0.00    -0.336 N  
HETATM   16  N   UNL     1      -8.231  18.896  66.131  1.00  0.00    -0.434 NA 
HETATM   17  C   UNL     1      -9.640  16.943  66.113  1.00  0.00    -0.280 A  
HETATM   18  O   UNL     1     -10.777  14.944  64.709  1.00  0.00    -0.404 OA 
HETATM   19  O   UNL     1     -12.033  14.290  66.371  1.00  0.00    -0.402 OA 
HETATM   20  C   UNL     1      -9.031  17.982  66.822  1.00  0.00    -0.269 A  
BRANCH  12  21
HETATM   21  C   UNL     1     -11.893  15.406  68.851  1.00  0.00    -0.329 C  
HETATM   22  O   UNL     1     -11.318  14.158  69.197  1.00  0.00    -0.251 OA 
HETATM   23  H   UNL     1     -11.949  13.632  69.673  1.00  0.00     0.000 HD 
ENDBRANCH  12  21
ENDBRANCH   6   7
ENDBRANCH   4   6
ENDBRANCH   2   4
TORSDOF 4
ENDMDL
MODEL       48
REMARK 921   NORMALIZED FREE ENERGY PREDICTED BY IDOCK:   -5.31 KCAL/MOL
REMARK 922        TOTAL FREE ENERGY PREDICTED BY IDOCK:   -6.99 KCAL/MOL
REMARK 923 INTER-LIGAND FREE ENERGY PREDICTED BY IDOCK:   -6.52 KCAL/MOL
REMARK 924 INTRA-LIGAND FREE ENERGY PREDICTED BY IDOCK:   -0.47 KCAL/MOL
REMARK 927      BINDING AFFINITY PREDICTED BY RF-SCORE:    0.00 PKD
ROOT
HETATM    1  C   UNL     1      -7.329   8.612  71.565  1.00  0.00    -0.118 C  
HETATM    2  C   UNL     1      -8.430   7.785  72.234  1.00  0.00    -0.128 C  
HETATM    3  C   UNL     1      -7.895   7.195  73.543  1.00  0.00    -0.113 C  
ENDROOT
BRANCH   2   4
HETATM    4  N   UNL     1      -9.578   8.661  72.461  1.00  0.00    -0.253 NA 
HETATM    5  H   UNL     1      -9.272   9.629  72.560  1.00  0.00     0.000 HD 
BRANCH   4   6
HETATM    6  C   UNL     1     -10.632   8.561  71.445  1.00  0.00    -0.245 C  
BRANCH   6   7
HETATM    7  C   UNL     1     -10.789   9.906  70.693  1.00  0.00    -0.330 C  
HETATM    8  C   UNL     1     -12.131  10.564  71.005  1.00  0.00    -0.492 C  
HETATM    9  C   UNL     1     -12.156  11.945  70.354  1.00  0.00    -0.421 C  
HETATM   10  C   UNL     1     -11.747  11.875  68.905  1.00  0.00    -0.381 A  
HETATM   11  C   UNL     1     -12.031  12.958  68.055  1.00  0.00    -0.323 A  
HETATM   12  C   UNL     1     -11.676  12.944  66.693  1.00  0.00    -0.452 A  
HETATM   13  C   UNL     1     -11.039  11.787  66.194  1.00  0.00    -0.307 A  
HETATM   14  H   UNL     1     -10.238   8.862  68.858  1.00  0.00     0.000 HD 
HETATM   15  N   UNL     1     -10.625  11.647  64.782  1.00  0.00    -0.289 N  
HETATM   16  N   UNL     1     -10.642   9.717  69.242  1.00  0.00    -0.213 NA 
HETATM   17  C   UNL     1     -10.748  10.707  67.050  1.00  0.00    -0.317 A  
HETATM   18  O   UNL     1     -10.115  10.572  64.434  1.00  0.00    -0.340 OA 
HETATM   19  O   UNL     1     -10.805  12.599  64.008  1.00  0.00    -0.357 OA 
HETATM   20  C   UNL     1     -11.074  10.751  68.408  1.00  0.00    -0.266 A  
BRANCH  12  21
HETATM   21  C   UNL     1     -11.998  14.174  65.883  1.00  0.00    -0.409 C  
HETATM   22  O   UNL     1     -13.218  13.988  65.187  1.00  0.00    -0.768 OA 
HETATM   23  H   UNL     1     -13.421  14.763  64.678  1.00  0.00     0.000 HD 
ENDBRANCH  12  21
ENDBRANCH   6   7
ENDBRANCH   4   6
ENDBRANCH   2   4
TORSDOF 4
ENDMDL
MODEL       49
REMARK 921   NORMALIZED FREE ENERGY PREDICTED BY IDOCK:   -5.27 KCAL/MOL
REMARK 922        TOTAL FREE ENERGY PREDICTED BY IDOCK:   -6.95 KCAL/MOL
REMARK 923 INTER-LIGAND FREE ENERGY PREDICTED BY IDOCK:   -6.70 KCAL/MOL
REMARK 924 INTRA-LIGAND FREE ENERGY PREDICTED BY IDOCK:   -0.25 KCAL/MOL
REMARK 927      BINDING AFFINITY PREDICTED BY RF-SCORE:    0.00 PKD
ROOT
HETATM    1  C   UNL     1      -6.392  20.074  69.888  1.00  0.00    -0.391 C  
HETATM    2  C   UNL     1      -7.076  19.961  68.523  1.00  0.00    -0.301 C  
HETATM    3  C   UNL     1      -6.278  19.001  67.634  1.00  0.00    -0.209 C  
ENDROOT
BRANCH   2   4
HETATM    4  N   UNL     1      -8.444  19.491  68.741  1.00  0.00    -0.343 NA 
HETATM    5  H   UNL     1      -9.058  20.275  68.961  1.00  0.00     0.000 HD 
BRANCH   4   6
HETATM    6  C   UNL     1      -9.001  18.702  67.636  1.00  0.00    -0.275 C  
BRANCH   6   7
HETATM    7  C   UNL     1      -9.455  17.310  68.140  1.00  0.00    -0.278 C  
HETATM    8  C   UNL     1     -10.322  16.599  67.104  1.00  0.00    -0.300 C  
HETATM    9  C   UNL     1     -10.608  15.183  67.600  1.00  0.00    -0.263 C  
HETATM   10  C   UNL     1     -11.107  15.192  69.022  1.00  0.00    -0.260 A  
HETATM   11  C   UNL     1     -11.741  14.048  69.537  1.00  0.00    -0.367 A  
HETATM   12  C   UNL     1     -12.231  14.003  70.856  1.00  0.00    -0.436 A  
HETATM   13  C   UNL     1     -12.085  15.162  71.649  1.00  0.00    -0.359 A  
HETATM   14  H   UNL     1     -10.134  18.274  69.975  1.00  0.00     0.000 HD 
HETATM   15  N   UNL     1     -12.564  15.242  73.045  1.00  0.00    -0.387 N  
HETATM   16  N   UNL     1     -10.178  17.422  69.416  1.00  0.00    -0.202 NA 
HETATM   17  C   UNL     1     -11.441  16.303  71.132  1.00  0.00    -0.364 A  
HETATM   18  O   UNL     1     -12.429  16.322  73.640  1.00  0.00    -0.502 OA 
HETATM   19  O   UNL     1     -13.079  14.239  73.560  1.00  0.00    -0.486 OA 
HETATM   20  C   UNL     1     -10.928  16.320  69.833  1.00  0.00    -0.365 A  
BRANCH  12  21
HETATM   21  C   UNL     1     -12.861  12.713  71.315  1.00  0.00    -0.250 C  
HETATM   22  O   UNL     1     -12.125  11.612  70.812  1.00  0.00    -0.364 OA 
HETATM   23  H   UNL     1     -12.522  10.799  71.101  1.00  0.00     0.000 HD 
ENDBRANCH  12  21
ENDBRANCH   6   7
ENDBRANCH   4   6
ENDBRANCH   2   4
TORSDOF 4
ENDMDL
MODEL       50
REMARK 921   NORMALIZED FREE ENERGY PREDICTED BY IDOCK:   -5.26 KCAL/MOL
REMARK 922        TOTAL FREE ENERGY PREDICTED BY IDOCK:   -6.94 KCAL/MOL
REMARK 923 INTER-LIGAND FREE ENERGY PREDICTED BY IDOCK:   -6.49 KCAL/MOL
REMARK 924 INTRA-LIGAND FREE ENERGY PREDICTED BY IDOCK:   -0.45 KCAL/MOL
REMARK 927      BINDING AFFINITY PREDICTED BY RF-SCORE:    0.00 PKD
ROOT
HETATM    1  C   UNL     1      -5.384  13.960  72.768  1.00  0.00    -0.180 C  
HETATM    2  C   UNL     1      -5.360  13.697  71.261  1.00  0.00    -0.194 C  
HETATM    3  C   UNL     1      -5.364  12.186  71.009  1.00  0.00    -0.126 C  
ENDROOT
BRANCH   2   4
HETATM    4  N   UNL     1      -6.528  14.350  70.670  1.00  0.00    -0.359 NA 
HETATM    5  H   UNL     1      -6.743  15.213  71.170  1.00  0.00     0.000 HD 
BRANCH   4   6
HETATM    6  C   UNL     1      -6.418  14.609  69.230  1.00  0.00    -0.122 C  
BRANCH   6   7
HETATM    7  C   UNL     1      -7.586  13.936  68.468  1.00  0.00    -0.134 C  
HETATM    8  C   UNL     1      -7.112  12.707  67.696  1.00  0.00    -0.139 C  
HETATM    9  C   UNL     1      -8.331  12.012  67.095  1.00  0.00    -0.181 C  
HETATM   10  C   UNL     1      -9.209  12.989  66.355  1.00  0.00    -0.141 A  
HETATM   11  C   UNL     1     -10.177  12.504  65.458  1.00  0.00    -0.295 A  
HETATM   12  C   UNL     1     -11.019  13.371  64.737  1.00  0.00    -0.371 A  
HETATM   13  C   UNL     1     -10.847  14.760  64.927  1.00  0.00    -0.416 A  
HETATM   14  H   UNL     1      -8.078  15.893  67.637  1.00  0.00     0.000 HD 
HETATM   15  N   UNL     1     -11.664  15.771  64.223  1.00  0.00    -0.297 N  
HETATM   16  N   UNL     1      -8.236  14.888  67.554  1.00  0.00    -0.168 NA 
HETATM   17  C   UNL     1      -9.883  15.241  65.834  1.00  0.00    -0.385 A  
HETATM   18  O   UNL     1     -11.402  16.966  64.426  1.00  0.00    -1.133 OA 
HETATM   19  O   UNL     1     -12.566  15.389  63.465  1.00  0.00    -0.289 OA 
HETATM   20  C   UNL     1      -9.079  14.367  66.569  1.00  0.00    -0.205 A  
BRANCH  12  21
HETATM   21  C   UNL     1     -12.044  12.741  63.829  1.00  0.00    -0.517 C  
HETATM   22  O   UNL     1     -13.206  12.412  64.569  1.00  0.00    -0.834 OA 
HETATM   23  H   UNL     1     -13.852  12.016  63.998  1.00  0.00     0.000 HD 
ENDBRANCH  12  21
ENDBRANCH   6   7
ENDBRANCH   4   6
ENDBRANCH   2   4
TORSDOF 4
ENDMDL
MODEL       51
REMARK 921   NORMALIZED FREE ENERGY PREDICTED BY IDOCK:   -5.25 KCAL/MOL
REMARK 922        TOTAL FREE ENERGY PREDICTED BY IDOCK:   -6.93 KCAL/MOL
REMARK 923 INTER-LIGAND FREE ENERGY PREDICTED BY IDOCK:   -6.38 KCAL/MOL
REMARK 924 INTRA-LIGAND FREE ENERGY PREDICTED BY IDOCK:   -0.55 KCAL/MOL
REMARK 927      BINDING AFFINITY PREDICTED BY RF-SCORE:    0.00 PKD
ROOT
HETATM    1  C   UNL     1     -13.362  12.718  72.038  1.00  0.00    -0.565 C  
HETATM    2  C   UNL     1     -12.728  13.755  71.107  1.00  0.00    -0.362 C  
HETATM    3  C   UNL     1     -12.122  14.885  71.945  1.00  0.00    -0.435 C  
ENDROOT
BRANCH   2   4
HETATM    4  N   UNL     1     -11.717  13.076  70.297  1.00  0.00    -0.542 NA 
HETATM    5  H   UNL     1     -11.547  12.137  70.656  1.00  0.00     0.000 HD 
BRANCH   4   6
HETATM    6  C   UNL     1     -12.019  13.026  68.862  1.00  0.00    -0.263 C  
BRANCH   6   7
HETATM    7  C   UNL     1     -10.968  13.833  68.059  1.00  0.00    -0.250 C  
HETATM    8  C   UNL     1      -9.565  13.263  68.252  1.00  0.00    -0.221 C  
HETATM    9  C   UNL     1      -8.608  14.007  67.323  1.00  0.00    -0.228 C  
HETATM   10  C   UNL     1      -8.766  15.500  67.455  1.00  0.00    -0.194 A  
HETATM   11  C   UNL     1      -7.763  16.347  66.953  1.00  0.00    -0.276 A  
HETATM   12  C   UNL     1      -7.857  17.748  67.054  1.00  0.00    -0.234 A  
HETATM   13  C   UNL     1      -8.991  18.283  67.702  1.00  0.00    -0.266 A  
HETATM   14  H   UNL     1     -11.779  15.648  68.958  1.00  0.00     0.000 HD 
HETATM   15  N   UNL     1      -9.201  19.736  67.878  1.00  0.00    -0.334 N  
HETATM   16  N   UNL     1     -10.995  15.254  68.437  1.00  0.00    -0.259 NA 
HETATM   17  C   UNL     1      -9.999  17.432  68.196  1.00  0.00    -0.308 A  
HETATM   18  O   UNL     1     -10.208  20.102  68.502  1.00  0.00    -0.413 OA 
HETATM   19  O   UNL     1      -8.370  20.523  67.402  1.00  0.00    -0.341 OA 
HETATM   20  C   UNL     1      -9.908  16.045  68.056  1.00  0.00    -0.222 A  
BRANCH  12  21
HETATM   21  C   UNL     1      -6.740  18.560  66.450  1.00  0.00    -0.207 C  
HETATM   22  O   UNL     1      -7.102  18.984  65.148  1.00  0.00    -0.457 OA 
HETATM   23  H   UNL     1      -6.399  19.495  64.767  1.00  0.00     0.000 HD 
ENDBRANCH  12  21
ENDBRANCH   6   7
ENDBRANCH   4   6
ENDBRANCH   2   4
TORSDOF 4
ENDMDL
MODEL       52
REMARK 921   NORMALIZED FREE ENERGY PREDICTED BY IDOCK:   -5.25 KCAL/MOL
REMARK 922        TOTAL FREE ENERGY PREDICTED BY IDOCK:   -6.93 KCAL/MOL
REMARK 923 INTER-LIGAND FREE ENERGY PREDICTED BY IDOCK:   -6.41 KCAL/MOL
REMARK 924 INTRA-LIGAND FREE ENERGY PREDICTED BY IDOCK:   -0.52 KCAL/MOL
REMARK 927      BINDING AFFINITY PREDICTED BY RF-SCORE:    0.00 PKD
ROOT
HETATM    1  C   UNL     1     -11.650  14.694  64.656  1.00  0.00    -0.406 C  
HETATM    2  C   UNL     1     -10.269  15.009  65.236  1.00  0.00    -0.377 C  
HETATM    3  C   UNL     1     -10.345  16.305  66.049  1.00  0.00    -0.363 C  
ENDROOT
BRANCH   2   4
HETATM    4  N   UNL     1      -9.856  13.873  66.060  1.00  0.00    -0.367 NA 
HETATM    5  H   UNL     1      -9.959  14.096  67.050  1.00  0.00     0.000 HD 
BRANCH   4   6
HETATM    6  C   UNL     1     -10.539  12.612  65.747  1.00  0.00    -0.272 C  
BRANCH   6   7
HETATM    7  C   UNL     1     -11.219  12.036  67.014  1.00  0.00    -0.320 C  
HETATM    8  C   UNL     1     -11.056  12.975  68.208  1.00  0.00    -0.293 C  
HETATM    9  C   UNL     1     -11.871  12.420  69.374  1.00  0.00    -0.365 C  
HETATM   10  C   UNL     1     -11.576  10.960  69.604  1.00  0.00    -0.394 A  
HETATM   11  C   UNL     1     -11.954  10.363  70.819  1.00  0.00    -0.462 A  
HETATM   12  C   UNL     1     -11.697   9.006  71.089  1.00  0.00    -0.366 A  
HETATM   13  C   UNL     1     -11.021   8.258  70.101  1.00  0.00    -0.222 A  
HETATM   14  H   UNL     1     -10.141  10.173  66.658  1.00  0.00     0.000 HD 
HETATM   15  N   UNL     1     -10.688   6.827  70.268  1.00  0.00    -0.232 N  
HETATM   16  N   UNL     1     -10.684  10.705  67.339  1.00  0.00    -0.256 NA 
HETATM   17  C   UNL     1     -10.652   8.857  68.881  1.00  0.00    -0.188 A  
HETATM   18  O   UNL     1     -10.052   6.273  69.359  1.00  0.00    -0.162 OA 
HETATM   19  O   UNL     1     -11.051   6.245  71.300  1.00  0.00    -0.266 OA 
HETATM   20  C   UNL     1     -10.946  10.196  68.613  1.00  0.00    -0.230 A  
BRANCH  12  21
HETATM   21  C   UNL     1     -12.178   8.462  72.410  1.00  0.00    -0.367 C  
HETATM   22  O   UNL     1     -13.297   7.618  72.206  1.00  0.00    -0.503 OA 
HETATM   23  H   UNL     1     -13.600   7.275  73.038  1.00  0.00     0.000 HD 
ENDBRANCH  12  21
ENDBRANCH   6   7
ENDBRANCH   4   6
ENDBRANCH   2   4
TORSDOF 4
ENDMDL
MODEL       53
REMARK 921   NORMALIZED FREE ENERGY PREDICTED BY IDOCK:   -5.23 KCAL/MOL
REMARK 922        TOTAL FREE ENERGY PREDICTED BY IDOCK:   -6.90 KCAL/MOL
REMARK 923 INTER-LIGAND FREE ENERGY PREDICTED BY IDOCK:   -6.42 KCAL/MOL
REMARK 924 INTRA-LIGAND FREE ENERGY PREDICTED BY IDOCK:   -0.48 KCAL/MOL
REMARK 927      BINDING AFFINITY PREDICTED BY RF-SCORE:    0.00 PKD
ROOT
HETATM    1  C   UNL     1     -10.209  11.411  64.527  1.00  0.00    -0.352 C  
HETATM    2  C   UNL     1     -11.086  12.642  64.769  1.00  0.00    -0.300 C  
HETATM    3  C   UNL     1     -11.919  12.925  63.515  1.00  0.00    -0.629 C  
ENDROOT
BRANCH   2   4
HETATM    4  N   UNL     1     -11.930  12.373  65.934  1.00  0.00    -0.587 NA 
HETATM    5  H   UNL     1     -12.219  11.395  65.945  1.00  0.00     0.000 HD 
BRANCH   4   6
HETATM    6  C   UNL     1     -11.328  12.741  67.220  1.00  0.00    -0.314 C  
BRANCH   6   7
HETATM    7  C   UNL     1     -11.728  11.723  68.316  1.00  0.00    -0.310 C  
HETATM    8  C   UNL     1     -11.973  12.414  69.655  1.00  0.00    -0.341 C  
HETATM    9  C   UNL     1     -12.504  11.380  70.645  1.00  0.00    -0.419 C  
HETATM   10  C   UNL     1     -11.643  10.143  70.660  1.00  0.00    -0.429 A  
HETATM   11  C   UNL     1     -11.758   9.235  71.727  1.00  0.00    -0.456 A  
HETATM   12  C   UNL     1     -10.974   8.068  71.794  1.00  0.00    -0.305 A  
HETATM   13  C   UNL     1     -10.042   7.844  70.758  1.00  0.00    -0.192 A  
HETATM   14  H   UNL     1      -9.981  10.541  67.755  1.00  0.00     0.000 HD 
HETATM   15  N   UNL     1      -9.157   6.660  70.719  1.00  0.00    -0.151 N  
HETATM   16  N   UNL     1     -10.701  10.680  68.465  1.00  0.00    -0.201 NA 
HETATM   17  C   UNL     1      -9.936   8.751  69.686  1.00  0.00    -0.191 A  
HETATM   18  O   UNL     1      -8.342   6.580  69.789  1.00  0.00    -0.124 OA 
HETATM   19  O   UNL     1      -9.263   5.805  71.609  1.00  0.00    -0.146 OA 
HETATM   20  C   UNL     1     -10.746   9.887  69.615  1.00  0.00    -0.252 A  
BRANCH  12  21
HETATM   21  C   UNL     1     -11.206   7.148  72.966  1.00  0.00    -0.239 C  
HETATM   22  O   UNL     1     -12.033   6.067  72.573  1.00  0.00    -0.482 OA 
HETATM   23  H   UNL     1     -12.179   5.487  73.311  1.00  0.00     0.000 HD 
ENDBRANCH  12  21
ENDBRANCH   6   7
ENDBRANCH   4   6
ENDBRANCH   2   4
TORSDOF 4
ENDMDL
MODEL       54
REMARK 921   NORMALIZED FREE ENERGY PREDICTED BY IDOCK:   -5.22 KCAL/MOL
REMARK 922        TOTAL FREE ENERGY PREDICTED BY IDOCK:   -6.88 KCAL/MOL
REMARK 923 INTER-LIGAND FREE ENERGY PREDICTED BY IDOCK:   -6.28 KCAL/MOL
REMARK 924 INTRA-LIGAND FREE ENERGY PREDICTED BY IDOCK:   -0.60 KCAL/MOL
REMARK 927      BINDING AFFINITY PREDICTED BY RF-SCORE:    0.00 PKD
ROOT
HETATM    1  C   UNL     1     -11.245   6.181  69.087  1.00  0.00    -0.409 C  
HETATM    2  C   UNL     1     -10.971   5.980  70.580  1.00  0.00    -0.319 C  
HETATM    3  C   UNL     1     -10.222   4.660  70.785  1.00  0.00    -0.214 C  
ENDROOT
BRANCH   2   4
HETATM    4  N   UNL     1     -10.196   7.126  71.055  1.00  0.00    -0.196 NA 
HETATM    5  H   UNL     1      -9.952   7.737  70.276  1.00  0.00     0.000 HD 
BRANCH   4   6
HETATM    6  C   UNL     1     -10.839   7.896  72.125  1.00  0.00    -0.269 C  
BRANCH   6   7
HETATM    7  C   UNL     1     -11.079   9.357  71.672  1.00  0.00    -0.339 C  
HETATM    8  C   UNL     1     -12.567   9.700  71.668  1.00  0.00    -0.493 C  
HETATM    9  C   UNL     1     -12.720  11.188  71.358  1.00  0.00    -0.524 C  
HETATM   10  C   UNL     1     -11.923  11.579  70.140  1.00  0.00    -0.452 A  
HETATM   11  C   UNL     1     -12.197  12.799  69.499  1.00  0.00    -0.161 A  
HETATM   12  C   UNL     1     -11.487  13.211  68.355  1.00  0.00    -0.350 A  
HETATM   13  C   UNL     1     -10.495  12.342  67.852  1.00  0.00    -0.213 A  
HETATM   14  H   UNL     1      -9.826   8.949  69.933  1.00  0.00     0.000 HD 
HETATM   15  N   UNL     1      -9.688  12.657  66.654  1.00  0.00    -0.243 N  
HETATM   16  N   UNL     1     -10.500   9.597  70.342  1.00  0.00    -0.273 NA 
HETATM   17  C   UNL     1     -10.218  11.124  68.502  1.00  0.00    -0.209 A  
HETATM   18  O   UNL     1      -8.874  11.805  66.267  1.00  0.00    -0.195 OA 
HETATM   19  O   UNL     1      -9.856  13.747  66.089  1.00  0.00    -0.294 OA 
HETATM   20  C   UNL     1     -10.906  10.745  69.657  1.00  0.00    -0.241 A  
BRANCH  12  21
HETATM   21  C   UNL     1     -11.840  14.555  67.771  1.00  0.00    -0.357 C  
HETATM   22  O   UNL     1     -12.641  14.383  66.616  1.00  0.00    -0.534 OA 
HETATM   23  H   UNL     1     -12.864  15.229  66.248  1.00  0.00     0.000 HD 
ENDBRANCH  12  21
ENDBRANCH   6   7
ENDBRANCH   4   6
ENDBRANCH   2   4
TORSDOF 4
ENDMDL
MODEL       55
REMARK 921   NORMALIZED FREE ENERGY PREDICTED BY IDOCK:   -5.17 KCAL/MOL
REMARK 922        TOTAL FREE ENERGY PREDICTED BY IDOCK:   -6.82 KCAL/MOL
REMARK 923 INTER-LIGAND FREE ENERGY PREDICTED BY IDOCK:   -6.34 KCAL/MOL
REMARK 924 INTRA-LIGAND FREE ENERGY PREDICTED BY IDOCK:   -0.49 KCAL/MOL
REMARK 927      BINDING AFFINITY PREDICTED BY RF-SCORE:    0.00 PKD
ROOT
HETATM    1  C   UNL     1     -11.197   9.988  70.807  1.00  0.00    -0.428 C  
HETATM    2  C   UNL     1     -12.156  11.117  70.420  1.00  0.00    -0.385 C  
HETATM    3  C   UNL     1     -12.932  11.571  71.659  1.00  0.00    -0.499 C  
ENDROOT
BRANCH   2   4
HETATM    4  N   UNL     1     -11.364  12.204  69.845  1.00  0.00    -0.506 NA 
HETATM    5  H   UNL     1     -10.399  11.904  69.704  1.00  0.00     0.000 HD 
BRANCH   4   6
HETATM    6  C   UNL     1     -11.910  12.766  68.604  1.00  0.00    -0.304 C  
BRANCH   6   7
HETATM    7  C   UNL     1     -10.830  13.594  67.864  1.00  0.00    -0.250 C  
HETATM    8  C   UNL     1      -9.425  13.097  68.194  1.00  0.00    -0.222 C  
HETATM    9  C   UNL     1      -8.426  13.853  67.322  1.00  0.00    -0.212 C  
HETATM   10  C   UNL     1      -8.659  15.341  67.386  1.00  0.00    -0.197 A  
HETATM   11  C   UNL     1      -7.654  16.217  66.939  1.00  0.00    -0.275 A  
HETATM   12  C   UNL     1      -7.817  17.615  66.982  1.00  0.00    -0.239 A  
HETATM   13  C   UNL     1      -9.025  18.117  67.513  1.00  0.00    -0.257 A  
HETATM   14  H   UNL     1     -11.792  15.398  68.626  1.00  0.00     0.000 HD 
HETATM   15  N   UNL     1      -9.312  19.564  67.618  1.00  0.00    -0.307 N  
HETATM   16  N   UNL     1     -10.951  15.024  68.186  1.00  0.00    -0.269 NA 
HETATM   17  C   UNL     1     -10.033  17.237  67.951  1.00  0.00    -0.297 A  
HETATM   18  O   UNL     1     -10.383  19.902  68.142  1.00  0.00    -0.430 OA 
HETATM   19  O   UNL     1      -8.478  20.372  67.185  1.00  0.00    -0.338 OA 
HETATM   20  C   UNL     1      -9.871  15.852  67.869  1.00  0.00    -0.218 A  
BRANCH  12  21
HETATM   21  C   UNL     1      -6.689  18.457  66.444  1.00  0.00    -0.212 C  
HETATM   22  O   UNL     1      -6.984  18.871  65.122  1.00  0.00    -0.490 OA 
HETATM   23  H   UNL     1      -6.274  19.402  64.783  1.00  0.00     0.000 HD 
ENDBRANCH  12  21
ENDBRANCH   6   7
ENDBRANCH   4   6
ENDBRANCH   2   4
TORSDOF 4
ENDMDL
MODEL       56
REMARK 921   NORMALIZED FREE ENERGY PREDICTED BY IDOCK:   -5.16 KCAL/MOL
REMARK 922        TOTAL FREE ENERGY PREDICTED BY IDOCK:   -6.81 KCAL/MOL
REMARK 923 INTER-LIGAND FREE ENERGY PREDICTED BY IDOCK:   -6.18 KCAL/MOL
REMARK 924 INTRA-LIGAND FREE ENERGY PREDICTED BY IDOCK:   -0.63 KCAL/MOL
REMARK 927      BINDING AFFINITY PREDICTED BY RF-SCORE:    0.00 PKD
ROOT
HETATM    1  C   UNL     1      -8.069   7.253  71.651  1.00  0.00    -0.100 C  
HETATM    2  C   UNL     1      -7.648   8.724  71.661  1.00  0.00    -0.070 C  
HETATM    3  C   UNL     1      -6.229   8.850  71.098  1.00  0.00    -0.057 C  
ENDROOT
BRANCH   2   4
HETATM    4  N   UNL     1      -8.618   9.477  70.866  1.00  0.00    -0.341 NA 
HETATM    5  H   UNL     1      -8.166   9.885  70.048  1.00  0.00     0.000 HD 
BRANCH   4   6
HETATM    6  C   UNL     1      -9.803   8.710  70.464  1.00  0.00    -0.179 C  
BRANCH   6   7
HETATM    7  C   UNL     1     -10.129   8.960  68.971  1.00  0.00    -0.197 C  
HETATM    8  C   UNL     1      -8.909   8.712  68.087  1.00  0.00    -0.142 C  
HETATM    9  C   UNL     1      -9.337   8.830  66.626  1.00  0.00    -0.242 C  
HETATM   10  C   UNL     1     -10.113  10.100  66.383  1.00  0.00    -0.300 A  
HETATM   11  C   UNL     1     -10.296  10.556  65.067  1.00  0.00    -0.310 A  
HETATM   12  C   UNL     1     -11.007  11.737  64.783  1.00  0.00    -0.360 A  
HETATM   13  C   UNL     1     -11.519  12.471  65.875  1.00  0.00    -0.373 A  
HETATM   14  H   UNL     1     -10.955  10.895  69.548  1.00  0.00     0.000 HD 
HETATM   15  N   UNL     1     -12.275  13.730  65.709  1.00  0.00    -0.431 N  
HETATM   16  N   UNL     1     -10.636  10.325  68.764  1.00  0.00    -0.197 NA 
HETATM   17  C   UNL     1     -11.342  12.006  67.193  1.00  0.00    -0.396 A  
HETATM   18  O   UNL     1     -12.642  14.322  66.735  1.00  0.00    -0.276 OA 
HETATM   19  O   UNL     1     -12.509  14.142  64.563  1.00  0.00    -0.602 OA 
HETATM   20  C   UNL     1     -10.664  10.813  67.455  1.00  0.00    -0.264 A  
BRANCH  12  21
HETATM   21  C   UNL     1     -11.171  12.113  63.333  1.00  0.00    -0.414 C  
HETATM   22  O   UNL     1     -12.447  11.706  62.871  1.00  0.00    -0.930 OA 
HETATM   23  H   UNL     1     -12.551  11.942  61.958  1.00  0.00     0.000 HD 
ENDBRANCH  12  21
ENDBRANCH   6   7
ENDBRANCH   4   6
ENDBRANCH   2   4
TORSDOF 4
ENDMDL
MODEL       57
REMARK 921   NORMALIZED FREE ENERGY PREDICTED BY IDOCK:   -5.16 KCAL/MOL
REMARK 922        TOTAL FREE ENERGY PREDICTED BY IDOCK:   -6.81 KCAL/MOL
REMARK 923 INTER-LIGAND FREE ENERGY PREDICTED BY IDOCK:   -6.26 KCAL/MOL
REMARK 924 INTRA-LIGAND FREE ENERGY PREDICTED BY IDOCK:   -0.56 KCAL/MOL
REMARK 927      BINDING AFFINITY PREDICTED BY RF-SCORE:    0.00 PKD
ROOT
HETATM    1  C   UNL     1     -10.347  11.033  64.269  1.00  0.00    -0.430 C  
HETATM    2  C   UNL     1     -11.338  12.170  64.530  1.00  0.00    -0.334 C  
HETATM    3  C   UNL     1     -12.435  12.141  63.461  1.00  0.00    -0.666 C  
ENDROOT
BRANCH   2   4
HETATM    4  N   UNL     1     -11.883  11.994  65.875  1.00  0.00    -0.510 NA 
HETATM    5  H   UNL     1     -11.360  11.278  66.379  1.00  0.00     0.000 HD 
BRANCH   4   6
HETATM    6  C   UNL     1     -11.957  13.225  66.669  1.00  0.00    -0.388 C  
BRANCH   6   7
HETATM    7  C   UNL     1     -10.648  14.040  66.528  1.00  0.00    -0.279 C  
HETATM    8  C   UNL     1      -9.555  13.501  67.448  1.00  0.00    -0.227 C  
HETATM    9  C   UNL     1      -8.258  14.250  67.150  1.00  0.00    -0.184 C  
HETATM   10  C   UNL     1      -8.475  15.742  67.145  1.00  0.00    -0.235 A  
HETATM   11  C   UNL     1      -7.366  16.601  67.231  1.00  0.00    -0.203 A  
HETATM   12  C   UNL     1      -7.512  18.001  67.236  1.00  0.00    -0.213 A  
HETATM   13  C   UNL     1      -8.822  18.523  67.172  1.00  0.00    -0.270 A  
HETATM   14  H   UNL     1     -11.828  15.852  66.819  1.00  0.00     0.000 HD 
HETATM   15  N   UNL     1      -9.106  19.974  67.177  1.00  0.00    -0.346 N  
HETATM   16  N   UNL     1     -10.884  15.466  66.801  1.00  0.00    -0.312 NA 
HETATM   17  C   UNL     1      -9.930  17.660  67.076  1.00  0.00    -0.320 A  
HETATM   18  O   UNL     1     -10.294  20.329  67.164  1.00  0.00    -0.399 OA 
HETATM   19  O   UNL     1      -8.157  20.770  67.196  1.00  0.00    -0.303 OA 
HETATM   20  C   UNL     1      -9.767  16.273  67.037  1.00  0.00    -0.239 A  
BRANCH  12  21
HETATM   21  C   UNL     1      -6.252  18.826  67.297  1.00  0.00    -0.178 C  
HETATM   22  O   UNL     1      -6.127  19.421  68.576  1.00  0.00    -0.222 OA 
HETATM   23  H   UNL     1      -5.333  19.940  68.615  1.00  0.00     0.000 HD 
ENDBRANCH  12  21
ENDBRANCH   6   7
ENDBRANCH   4   6
ENDBRANCH   2   4
TORSDOF 4
ENDMDL
MODEL       58
REMARK 921   NORMALIZED FREE ENERGY PREDICTED BY IDOCK:   -5.13 KCAL/MOL
REMARK 922        TOTAL FREE ENERGY PREDICTED BY IDOCK:   -6.78 KCAL/MOL
REMARK 923 INTER-LIGAND FREE ENERGY PREDICTED BY IDOCK:   -6.16 KCAL/MOL
REMARK 924 INTRA-LIGAND FREE ENERGY PREDICTED BY IDOCK:   -0.61 KCAL/MOL
REMARK 927      BINDING AFFINITY PREDICTED BY RF-SCORE:    0.00 PKD
ROOT
HETATM    1  C   UNL     1     -13.943  15.518  72.402  1.00  0.00    -0.653 C  
HETATM    2  C   UNL     1     -13.020  15.667  71.190  1.00  0.00    -0.478 C  
HETATM    3  C   UNL     1     -11.563  15.703  71.663  1.00  0.00    -0.519 C  
ENDROOT
BRANCH   2   4
HETATM    4  N   UNL     1     -13.272  14.543  70.289  1.00  0.00    -0.463 NA 
HETATM    5  H   UNL     1     -13.854  14.840  69.506  1.00  0.00     0.000 HD 
BRANCH   4   6
HETATM    6  C   UNL     1     -12.063  13.871  69.800  1.00  0.00    -0.345 C  
BRANCH   6   7
HETATM    7  C   UNL     1     -12.197  12.336  69.955  1.00  0.00    -0.196 C  
HETATM    8  C   UNL     1     -12.719  11.961  71.341  1.00  0.00    -0.395 C  
HETATM    9  C   UNL     1     -12.967  10.454  71.374  1.00  0.00    -0.545 C  
HETATM   10  C   UNL     1     -11.772   9.691  70.861  1.00  0.00    -0.412 A  
HETATM   11  C   UNL     1     -11.667   8.315  71.126  1.00  0.00    -0.308 A  
HETATM   12  C   UNL     1     -10.571   7.555  70.677  1.00  0.00    -0.231 A  
HETATM   13  C   UNL     1      -9.557   8.228  69.961  1.00  0.00    -0.168 A  
HETATM   14  H   UNL     1     -10.145  12.155  69.237  1.00  0.00     0.000 HD 
HETATM   15  N   UNL     1      -8.353   7.544  69.444  1.00  0.00    -0.130 N  
HETATM   16  N   UNL     1     -10.912  11.667  69.699  1.00  0.00    -0.107 NA 
HETATM   17  C   UNL     1      -9.669   9.606  69.690  1.00  0.00    -0.230 A  
HETATM   18  O   UNL     1      -7.499   8.235  68.869  1.00  0.00    -0.088 OA 
HETATM   19  O   UNL     1      -8.244   6.320  69.605  1.00  0.00    -0.120 OA 
HETATM   20  C   UNL     1     -10.781  10.339  70.112  1.00  0.00    -0.278 A  
BRANCH  12  21
HETATM   21  C   UNL     1     -10.579   6.080  70.988  1.00  0.00    -0.246 C  
HETATM   22  O   UNL     1     -10.951   5.346  69.835  1.00  0.00    -0.250 OA 
HETATM   23  H   UNL     1     -10.956   4.417  70.031  1.00  0.00     0.000 HD 
ENDBRANCH  12  21
ENDBRANCH   6   7
ENDBRANCH   4   6
ENDBRANCH   2   4
TORSDOF 4
ENDMDL
MODEL       59
REMARK 921   NORMALIZED FREE ENERGY PREDICTED BY IDOCK:   -5.13 KCAL/MOL
REMARK 922        TOTAL FREE ENERGY PREDICTED BY IDOCK:   -6.77 KCAL/MOL
REMARK 923 INTER-LIGAND FREE ENERGY PREDICTED BY IDOCK:   -6.15 KCAL/MOL
REMARK 924 INTRA-LIGAND FREE ENERGY PREDICTED BY IDOCK:   -0.62 KCAL/MOL
REMARK 927      BINDING AFFINITY PREDICTED BY RF-SCORE:    0.00 PKD
ROOT
HETATM    1  C   UNL     1     -10.422  14.229  65.038  1.00  0.00    -0.458 C  
HETATM    2  C   UNL     1     -11.878  13.913  64.685  1.00  0.00    -0.407 C  
HETATM    3  C   UNL     1     -11.947  12.550  63.989  1.00  0.00    -0.536 C  
ENDROOT
BRANCH   2   4
HETATM    4  N   UNL     1     -12.657  13.933  65.922  1.00  0.00    -0.479 NA 
HETATM    5  H   UNL     1     -13.279  13.125  65.963  1.00  0.00     0.000 HD 
BRANCH   4   6
HETATM    6  C   UNL     1     -11.855  14.021  67.148  1.00  0.00    -0.411 C  
BRANCH   6   7
HETATM    7  C   UNL     1     -12.030  12.743  68.003  1.00  0.00    -0.264 C  
HETATM    8  C   UNL     1     -11.822  13.034  69.488  1.00  0.00    -0.385 C  
HETATM    9  C   UNL     1     -12.155  11.772  70.281  1.00  0.00    -0.426 C  
HETATM   10  C   UNL     1     -11.449  10.567  69.713  1.00  0.00    -0.365 A  
HETATM   11  C   UNL     1     -11.350   9.398  70.487  1.00  0.00    -0.328 A  
HETATM   12  C   UNL     1     -10.697   8.246  70.009  1.00  0.00    -0.239 A  
HETATM   13  C   UNL     1     -10.119   8.307  68.723  1.00  0.00    -0.200 A  
HETATM   14  H   UNL     1     -10.635  11.737  66.660  1.00  0.00     0.000 HD 
HETATM   15  N   UNL     1      -9.401   7.168  68.113  1.00  0.00    -0.130 N  
HETATM   16  N   UNL     1     -11.110  11.683  67.561  1.00  0.00    -0.257 NA 
HETATM   17  C   UNL     1     -10.228   9.477  67.947  1.00  0.00    -0.251 A  
HETATM   18  O   UNL     1      -8.890   7.339  66.997  1.00  0.00    -0.123 OA 
HETATM   19  O   UNL     1      -9.337   6.098  68.736  1.00  0.00    -0.124 OA 
HETATM   20  C   UNL     1     -10.910  10.600  68.421  1.00  0.00    -0.237 A  
BRANCH  12  21
HETATM   21  C   UNL     1     -10.681   7.038  70.911  1.00  0.00    -0.235 C  
HETATM   22  O   UNL     1     -11.696   6.131  70.519  1.00  0.00    -0.293 OA 
HETATM   23  H   UNL     1     -11.687   5.370  71.087  1.00  0.00     0.000 HD 
ENDBRANCH  12  21
ENDBRANCH   6   7
ENDBRANCH   4   6
ENDBRANCH   2   4
TORSDOF 4
ENDMDL
MODEL       60
REMARK 921   NORMALIZED FREE ENERGY PREDICTED BY IDOCK:   -5.11 KCAL/MOL
REMARK 922        TOTAL FREE ENERGY PREDICTED BY IDOCK:   -6.75 KCAL/MOL
REMARK 923 INTER-LIGAND FREE ENERGY PREDICTED BY IDOCK:   -6.49 KCAL/MOL
REMARK 924 INTRA-LIGAND FREE ENERGY PREDICTED BY IDOCK:   -0.25 KCAL/MOL
REMARK 927      BINDING AFFINITY PREDICTED BY RF-SCORE:    0.00 PKD
ROOT
HETATM    1  C   UNL     1      -6.683   8.087  71.263  1.00  0.00    -0.043 C  
HETATM    2  C   UNL     1      -8.078   8.549  70.834  1.00  0.00    -0.127 C  
HETATM    3  C   UNL     1      -9.104   8.099  71.878  1.00  0.00    -0.230 C  
ENDROOT
BRANCH   2   4
HETATM    4  N   UNL     1      -8.047  10.005  70.693  1.00  0.00    -0.386 NA 
HETATM    5  H   UNL     1      -7.435  10.417  71.397  1.00  0.00     0.000 HD 
BRANCH   4   6
HETATM    6  C   UNL     1      -7.677  10.480  69.355  1.00  0.00    -0.155 C  
BRANCH   6   7
HETATM    7  C   UNL     1      -8.906  11.093  68.639  1.00  0.00    -0.155 C  
HETATM    8  C   UNL     1      -9.462  10.146  67.578  1.00  0.00    -0.172 C  
HETATM    9  C   UNL     1     -10.751  10.746  67.021  1.00  0.00    -0.320 C  
HETATM   10  C   UNL     1     -10.557  12.186  66.621  1.00  0.00    -0.266 A  
HETATM   11  C   UNL     1     -11.504  12.803  65.785  1.00  0.00    -0.388 A  
HETATM   12  C   UNL     1     -11.369  14.143  65.375  1.00  0.00    -0.322 A  
HETATM   13  C   UNL     1     -10.231  14.851  65.816  1.00  0.00    -0.336 A  
HETATM   14  H   UNL     1      -7.719  12.892  68.295  1.00  0.00     0.000 HD 
HETATM   15  N   UNL     1      -9.972  16.260  65.449  1.00  0.00    -0.167 N  
HETATM   16  N   UNL     1      -8.569  12.391  68.034  1.00  0.00    -0.173 NA 
HETATM   17  C   UNL     1      -9.289  14.233  66.661  1.00  0.00    -0.302 A  
HETATM   18  O   UNL     1      -8.919  16.777  65.851  1.00  0.00    -0.497 OA 
HETATM   19  O   UNL     1     -10.808  16.861  64.759  1.00  0.00    -0.787 OA 
HETATM   20  C   UNL     1      -9.455  12.913  67.088  1.00  0.00    -0.229 A  
BRANCH  12  21
HETATM   21  C   UNL     1     -12.463  14.712  64.508  1.00  0.00    -0.292 C  
HETATM   22  O   UNL     1     -12.428  14.105  63.228  1.00  0.00    -1.146 OA 
HETATM   23  H   UNL     1     -13.117  14.463  62.682  1.00  0.00     0.000 HD 
ENDBRANCH  12  21
ENDBRANCH   6   7
ENDBRANCH   4   6
ENDBRANCH   2   4
TORSDOF 4
ENDMDL
MODEL       61
REMARK 921   NORMALIZED FREE ENERGY PREDICTED BY IDOCK:   -5.07 KCAL/MOL
REMARK 922        TOTAL FREE ENERGY PREDICTED BY IDOCK:   -6.70 KCAL/MOL
REMARK 923 INTER-LIGAND FREE ENERGY PREDICTED BY IDOCK:   -6.13 KCAL/MOL
REMARK 924 INTRA-LIGAND FREE ENERGY PREDICTED BY IDOCK:   -0.56 KCAL/MOL
REMARK 927      BINDING AFFINITY PREDICTED BY RF-SCORE:    0.00 PKD
ROOT
HETATM    1  C   UNL     1      -9.674   7.727  66.522  1.00  0.00    -0.265 C  
HETATM    2  C   UNL     1      -8.407   7.648  67.378  1.00  0.00    -0.116 C  
HETATM    3  C   UNL     1      -7.487   8.823  67.033  1.00  0.00    -0.091 C  
ENDROOT
BRANCH   2   4
HETATM    4  N   UNL     1      -8.811   7.667  68.784  1.00  0.00    -0.131 NA 
HETATM    5  H   UNL     1      -8.350   8.433  69.275  1.00  0.00     0.000 HD 
BRANCH   4   6
HETATM    6  C   UNL     1     -10.261   7.722  69.002  1.00  0.00    -0.208 C  
BRANCH   6   7
HETATM    7  C   UNL     1     -10.638   8.978  69.825  1.00  0.00    -0.228 C  
HETATM    8  C   UNL     1     -11.908   8.748  70.640  1.00  0.00    -0.137 C  
HETATM    9  C   UNL     1     -12.137   9.964  71.535  1.00  0.00    -0.496 C  
HETATM   10  C   UNL     1     -12.050  11.247  70.748  1.00  0.00    -0.450 A  
HETATM   11  C   UNL     1     -12.561  12.432  71.304  1.00  0.00    -0.332 A  
HETATM   12  C   UNL     1     -12.511  13.657  70.611  1.00  0.00    -0.417 A  
HETATM   13  C   UNL     1     -11.946  13.655  69.318  1.00  0.00    -0.336 A  
HETATM   14  H   UNL     1     -10.454  10.147  67.992  1.00  0.00     0.000 HD 
HETATM   15  N   UNL     1     -11.844  14.874  68.487  1.00  0.00    -0.318 N  
HETATM   16  N   UNL     1     -10.802  10.150  68.951  1.00  0.00    -0.215 NA 
HETATM   17  C   UNL     1     -11.428  12.467  68.767  1.00  0.00    -0.350 A  
HETATM   18  O   UNL     1     -11.373  14.757  67.346  1.00  0.00    -0.327 OA 
HETATM   19  O   UNL     1     -12.230  15.953  68.958  1.00  0.00    -0.253 OA 
HETATM   20  C   UNL     1     -11.452  11.267  69.482  1.00  0.00    -0.307 A  
BRANCH  12  21
HETATM   21  C   UNL     1     -13.056  14.872  71.318  1.00  0.00    -0.381 C  
HETATM   22  O   UNL     1     -14.315  15.223  70.770  1.00  0.00    -0.776 OA 
HETATM   23  H   UNL     1     -14.659  15.988  71.215  1.00  0.00     0.000 HD 
ENDBRANCH  12  21
ENDBRANCH   6   7
ENDBRANCH   4   6
ENDBRANCH   2   4
TORSDOF 4
ENDMDL
MODEL       62
REMARK 921   NORMALIZED FREE ENERGY PREDICTED BY IDOCK:   -5.07 KCAL/MOL
REMARK 922        TOTAL FREE ENERGY PREDICTED BY IDOCK:   -6.70 KCAL/MOL
REMARK 923 INTER-LIGAND FREE ENERGY PREDICTED BY IDOCK:   -6.13 KCAL/MOL
REMARK 924 INTRA-LIGAND FREE ENERGY PREDICTED BY IDOCK:   -0.56 KCAL/MOL
REMARK 927      BINDING AFFINITY PREDICTED BY RF-SCORE:    0.00 PKD
ROOT
HETATM    1  C   UNL     1     -13.718  14.241  72.198  1.00  0.00    -0.569 C  
HETATM    2  C   UNL     1     -13.271  15.438  71.355  1.00  0.00    -0.500 C  
HETATM    3  C   UNL     1     -11.950  15.982  71.907  1.00  0.00    -0.606 C  
ENDROOT
BRANCH   2   4
HETATM    4  N   UNL     1     -13.138  14.989  69.969  1.00  0.00    -0.579 NA 
HETATM    5  H   UNL     1     -13.997  15.176  69.452  1.00  0.00     0.000 HD 
BRANCH   4   6
HETATM    6  C   UNL     1     -11.982  15.545  69.256  1.00  0.00    -0.316 C  
BRANCH   6   7
HETATM    7  C   UNL     1     -11.372  14.485  68.306  1.00  0.00    -0.297 C  
HETATM    8  C   UNL     1     -12.375  14.049  67.241  1.00  0.00    -0.195 C  
HETATM    9  C   UNL     1     -11.665  13.122  66.257  1.00  0.00    -0.424 C  
HETATM   10  C   UNL     1     -10.911  12.033  66.976  1.00  0.00    -0.297 A  
HETATM   11  C   UNL     1     -10.485  10.901  66.260  1.00  0.00    -0.304 A  
HETATM   12  C   UNL     1      -9.782   9.852  66.882  1.00  0.00    -0.236 A  
HETATM   13  C   UNL     1      -9.534   9.961  68.268  1.00  0.00    -0.139 A  
HETATM   14  H   UNL     1     -10.763  13.356  70.071  1.00  0.00     0.000 HD 
HETATM   15  N   UNL     1      -8.814   8.923  69.036  1.00  0.00    -0.135 N  
HETATM   16  N   UNL     1     -10.892  13.317  69.060  1.00  0.00    -0.215 NA 
HETATM   17  C   UNL     1      -9.955  11.101  68.980  1.00  0.00    -0.155 A  
HETATM   18  O   UNL     1      -8.689   9.093  70.258  1.00  0.00    -0.160 OA 
HETATM   19  O   UNL     1      -8.372   7.933  68.436  1.00  0.00    -0.123 OA 
HETATM   20  C   UNL     1     -10.620  12.150  68.341  1.00  0.00    -0.226 A  
BRANCH  12  21
HETATM   21  C   UNL     1      -9.343   8.703  66.011  1.00  0.00    -0.218 C  
HETATM   22  O   UNL     1     -10.278   7.642  66.105  1.00  0.00    -0.437 OA 
HETATM   23  H   UNL     1     -10.001   6.918  65.556  1.00  0.00     0.000 HD 
ENDBRANCH  12  21
ENDBRANCH   6   7
ENDBRANCH   4   6
ENDBRANCH   2   4
TORSDOF 4
ENDMDL
MODEL       63
REMARK 921   NORMALIZED FREE ENERGY PREDICTED BY IDOCK:   -5.04 KCAL/MOL
REMARK 922        TOTAL FREE ENERGY PREDICTED BY IDOCK:   -6.67 KCAL/MOL
REMARK 923 INTER-LIGAND FREE ENERGY PREDICTED BY IDOCK:   -6.27 KCAL/MOL
REMARK 924 INTRA-LIGAND FREE ENERGY PREDICTED BY IDOCK:   -0.40 KCAL/MOL
REMARK 927      BINDING AFFINITY PREDICTED BY RF-SCORE:    0.00 PKD
ROOT
HETATM    1  C   UNL     1      -8.595   8.864  65.651  1.00  0.00    -0.188 C  
HETATM    2  C   UNL     1     -10.033   9.121  66.109  1.00  0.00    -0.268 C  
HETATM    3  C   UNL     1     -10.498   7.961  66.994  1.00  0.00    -0.419 C  
ENDROOT
BRANCH   2   4
HETATM    4  N   UNL     1     -10.058  10.396  66.825  1.00  0.00    -0.206 NA 
HETATM    5  H   UNL     1      -9.134  10.612  67.198  1.00  0.00     0.000 HD 
BRANCH   4   6
HETATM    6  C   UNL     1     -10.567  11.526  66.040  1.00  0.00    -0.261 C  
BRANCH   6   7
HETATM    7  C   UNL     1     -10.557  12.822  66.887  1.00  0.00    -0.244 C  
HETATM    8  C   UNL     1     -11.974  13.329  67.146  1.00  0.00    -0.400 C  
HETATM    9  C   UNL     1     -11.898  14.515  68.104  1.00  0.00    -0.348 C  
HETATM   10  C   UNL     1     -10.882  15.528  67.643  1.00  0.00    -0.306 A  
HETATM   11  C   UNL     1     -10.904  16.824  68.185  1.00  0.00    -0.353 A  
HETATM   12  C   UNL     1      -9.983  17.811  67.786  1.00  0.00    -0.322 A  
HETATM   13  C   UNL     1      -9.037  17.462  66.797  1.00  0.00    -0.260 A  
HETATM   14  H   UNL     1      -9.109  13.648  65.479  1.00  0.00     0.000 HD 
HETATM   15  N   UNL     1      -8.023  18.411  66.290  1.00  0.00    -0.257 N  
HETATM   16  N   UNL     1      -9.755  13.870  66.237  1.00  0.00    -0.295 NA 
HETATM   17  C   UNL     1      -9.012  16.159  66.263  1.00  0.00    -0.379 A  
HETATM   18  O   UNL     1      -7.269  18.020  65.387  1.00  0.00    -0.502 OA 
HETATM   19  O   UNL     1      -7.970  19.548  66.779  1.00  0.00    -0.264 OA 
HETATM   20  C   UNL     1      -9.910  15.181  66.695  1.00  0.00    -0.252 A  
BRANCH  12  21
HETATM   21  C   UNL     1     -10.077  19.156  68.459  1.00  0.00    -0.422 C  
HETATM   22  O   UNL     1     -10.743  20.074  67.610  1.00  0.00    -0.324 OA 
HETATM   23  H   UNL     1     -10.802  20.922  68.035  1.00  0.00     0.000 HD 
ENDBRANCH  12  21
ENDBRANCH   6   7
ENDBRANCH   4   6
ENDBRANCH   2   4
TORSDOF 4
ENDMDL
MODEL       64
REMARK 921   NORMALIZED FREE ENERGY PREDICTED BY IDOCK:   -5.03 KCAL/MOL
REMARK 922        TOTAL FREE ENERGY PREDICTED BY IDOCK:   -6.65 KCAL/MOL
REMARK 923 INTER-LIGAND FREE ENERGY PREDICTED BY IDOCK:   -6.18 KCAL/MOL
REMARK 924 INTRA-LIGAND FREE ENERGY PREDICTED BY IDOCK:   -0.47 KCAL/MOL
REMARK 927      BINDING AFFINITY PREDICTED BY RF-SCORE:    0.00 PKD
ROOT
HETATM    1  C   UNL     1      -7.262  10.171  64.532  1.00  0.00    -0.119 C  
HETATM    2  C   UNL     1      -8.782  10.025  64.430  1.00  0.00    -0.199 C  
HETATM    3  C   UNL     1      -9.272   9.057  65.511  1.00  0.00    -0.262 C  
ENDROOT
BRANCH   2   4
HETATM    4  N   UNL     1      -9.374  11.354  64.579  1.00  0.00    -0.397 NA 
HETATM    5  H   UNL     1     -10.211  11.436  64.002  1.00  0.00     0.000 HD 
BRANCH   4   6
HETATM    6  C   UNL     1      -9.670  11.738  65.964  1.00  0.00    -0.232 C  
BRANCH   6   7
HETATM    7  C   UNL     1     -10.248  13.174  66.016  1.00  0.00    -0.286 C  
HETATM    8  C   UNL     1     -10.608  13.679  64.621  1.00  0.00    -0.446 C  
HETATM    9  C   UNL     1     -11.305  15.031  64.760  1.00  0.00    -0.409 C  
HETATM   10  C   UNL     1     -10.519  15.964  65.645  1.00  0.00    -0.411 A  
HETATM   11  C   UNL     1     -10.805  17.340  65.623  1.00  0.00    -0.029 A  
HETATM   12  C   UNL     1     -10.098  18.256  66.424  1.00  0.00    -0.406 A  
HETATM   13  C   UNL     1      -9.066  17.750  67.244  1.00  0.00    -0.246 A  
HETATM   14  H   UNL     1      -8.515  13.752  67.209  1.00  0.00     0.000 HD 
HETATM   15  N   UNL     1      -8.248  18.611  68.124  1.00  0.00    -0.293 N  
HETATM   16  N   UNL     1      -9.303  14.098  66.661  1.00  0.00    -0.283 NA 
HETATM   17  C   UNL     1      -8.789  16.369  67.270  1.00  0.00    -0.203 A  
HETATM   18  O   UNL     1      -7.336  18.074  68.770  1.00  0.00    -0.270 OA 
HETATM   19  O   UNL     1      -8.501  19.823  68.179  1.00  0.00    -0.314 OA 
HETATM   20  C   UNL     1      -9.523  15.468  66.496  1.00  0.00    -0.273 A  
BRANCH  12  21
HETATM   21  C   UNL     1     -10.512  19.704  66.346  1.00  0.00    -0.513 C  
HETATM   22  O   UNL     1      -9.568  20.435  65.584  1.00  0.00    -0.589 OA 
HETATM   23  H   UNL     1      -9.829  21.346  65.535  1.00  0.00     0.000 HD 
ENDBRANCH  12  21
ENDBRANCH   6   7
ENDBRANCH   4   6
ENDBRANCH   2   4
TORSDOF 4
ENDMDL
MODEL       65
REMARK 921   NORMALIZED FREE ENERGY PREDICTED BY IDOCK:   -5.01 KCAL/MOL
REMARK 922        TOTAL FREE ENERGY PREDICTED BY IDOCK:   -6.63 KCAL/MOL
REMARK 923 INTER-LIGAND FREE ENERGY PREDICTED BY IDOCK:   -6.32 KCAL/MOL
REMARK 924 INTRA-LIGAND FREE ENERGY PREDICTED BY IDOCK:   -0.31 KCAL/MOL
REMARK 927      BINDING AFFINITY PREDICTED BY RF-SCORE:    0.00 PKD
ROOT
HETATM    1  C   UNL     1     -11.028   6.700  70.214  1.00  0.00    -0.355 C  
HETATM    2  C   UNL     1     -10.318   6.814  68.863  1.00  0.00    -0.192 C  
HETATM    3  C   UNL     1     -10.288   5.440  68.188  1.00  0.00    -0.210 C  
ENDROOT
BRANCH   2   4
HETATM    4  N   UNL     1     -11.036   7.802  68.057  1.00  0.00    -0.462 NA 
HETATM    5  H   UNL     1     -11.700   8.316  68.635  1.00  0.00     0.000 HD 
BRANCH   4   6
HETATM    6  C   UNL     1     -10.172   8.733  67.322  1.00  0.00    -0.263 C  
BRANCH   6   7
HETATM    7  C   UNL     1     -10.651  10.191  67.526  1.00  0.00    -0.273 C  
HETATM    8  C   UNL     1      -9.507  11.184  67.333  1.00  0.00    -0.176 C  
HETATM    9  C   UNL     1     -10.076  12.599  67.401  1.00  0.00    -0.218 C  
HETATM   10  C   UNL     1     -10.945  12.782  68.619  1.00  0.00    -0.295 A  
HETATM   11  C   UNL     1     -11.277  14.081  69.040  1.00  0.00    -0.311 A  
HETATM   12  C   UNL     1     -12.080  14.311  70.174  1.00  0.00    -0.403 A  
HETATM   13  C   UNL     1     -12.530  13.184  70.896  1.00  0.00    -0.323 A  
HETATM   14  H   UNL     1     -11.532   9.562  69.420  1.00  0.00     0.000 HD 
HETATM   15  N   UNL     1     -13.372  13.293  72.106  1.00  0.00    -0.504 N  
HETATM   16  N   UNL     1     -11.255  10.365  68.856  1.00  0.00    -0.243 NA 
HETATM   17  C   UNL     1     -12.203  11.884  70.466  1.00  0.00    -0.426 A  
HETATM   18  O   UNL     1     -13.675  12.245  72.694  1.00  0.00    -0.148 OA 
HETATM   19  O   UNL     1     -13.736  14.417  72.483  1.00  0.00    -0.451 OA 
HETATM   20  C   UNL     1     -11.435  11.672  69.318  1.00  0.00    -0.300 A  
BRANCH  12  21
HETATM   21  C   UNL     1     -12.402  15.743  70.513  1.00  0.00    -0.350 C  
HETATM   22  O   UNL     1     -11.205  16.465  70.742  1.00  0.00    -0.412 OA 
HETATM   23  H   UNL     1     -11.407  17.368  70.955  1.00  0.00     0.000 HD 
ENDBRANCH  12  21
ENDBRANCH   6   7
ENDBRANCH   4   6
ENDBRANCH   2   4
TORSDOF 4
ENDMDL
MODEL       66
REMARK 921   NORMALIZED FREE ENERGY PREDICTED BY IDOCK:   -4.96 KCAL/MOL
REMARK 922        TOTAL FREE ENERGY PREDICTED BY IDOCK:   -6.56 KCAL/MOL
REMARK 923 INTER-LIGAND FREE ENERGY PREDICTED BY IDOCK:   -6.35 KCAL/MOL
REMARK 924 INTRA-LIGAND FREE ENERGY PREDICTED BY IDOCK:   -0.21 KCAL/MOL
REMARK 927      BINDING AFFINITY PREDICTED BY RF-SCORE:    0.00 PKD
ROOT
HETATM    1  C   UNL     1      -9.809   7.674  69.650  1.00  0.00    -0.181 C  
HETATM    2  C   UNL     1     -10.417   8.558  70.741  1.00  0.00    -0.200 C  
HETATM    3  C   UNL     1      -9.744   8.245  72.081  1.00  0.00    -0.344 C  
ENDROOT
BRANCH   2   4
HETATM    4  N   UNL     1     -10.226   9.955  70.350  1.00  0.00    -0.353 NA 
HETATM    5  H   UNL     1      -9.475  10.377  70.895  1.00  0.00     0.000 HD 
BRANCH   4   6
HETATM    6  C   UNL     1      -9.993  10.160  68.916  1.00  0.00    -0.199 C  
BRANCH   6   7
HETATM    7  C   UNL     1     -10.439  11.581  68.492  1.00  0.00    -0.208 C  
HETATM    8  C   UNL     1     -11.490  11.527  67.386  1.00  0.00    -0.349 C  
HETATM    9  C   UNL     1     -11.990  12.946  67.124  1.00  0.00    -0.374 C  
HETATM   10  C   UNL     1     -10.843  13.905  66.933  1.00  0.00    -0.286 A  
HETATM   11  C   UNL     1     -11.084  15.161  66.352  1.00  0.00    -0.312 A  
HETATM   12  C   UNL     1     -10.048  16.093  66.145  1.00  0.00    -0.356 A  
HETATM   13  C   UNL     1      -8.742  15.715  66.523  1.00  0.00    -0.307 A  
HETATM   14  H   UNL     1      -8.331  12.099  68.269  1.00  0.00     0.000 HD 
HETATM   15  N   UNL     1      -7.571  16.600  66.350  1.00  0.00    -0.289 N  
HETATM   16  N   UNL     1      -9.287  12.386  68.058  1.00  0.00    -0.198 NA 
HETATM   17  C   UNL     1      -8.506  14.458  67.114  1.00  0.00    -0.229 A  
HETATM   18  O   UNL     1      -6.459  16.155  66.672  1.00  0.00    -0.254 OA 
HETATM   19  O   UNL     1      -7.744  17.739  65.893  1.00  0.00    -0.501 OA 
HETATM   20  C   UNL     1      -9.550  13.559  67.345  1.00  0.00    -0.227 A  
BRANCH  12  21
HETATM   21  C   UNL     1     -10.427  17.423  65.546  1.00  0.00    -0.101 C  
HETATM   22  O   UNL     1     -11.276  17.225  64.429  1.00  0.00    -1.082 OA 
HETATM   23  H   UNL     1     -11.515  18.063  64.052  1.00  0.00     0.000 HD 
ENDBRANCH  12  21
ENDBRANCH   6   7
ENDBRANCH   4   6
ENDBRANCH   2   4
TORSDOF 4
ENDMDL
MODEL       67
REMARK 921   NORMALIZED FREE ENERGY PREDICTED BY IDOCK:   -4.92 KCAL/MOL
REMARK 922        TOTAL FREE ENERGY PREDICTED BY IDOCK:   -6.51 KCAL/MOL
REMARK 923 INTER-LIGAND FREE ENERGY PREDICTED BY IDOCK:   -5.99 KCAL/MOL
REMARK 924 INTRA-LIGAND FREE ENERGY PREDICTED BY IDOCK:   -0.52 KCAL/MOL
REMARK 927      BINDING AFFINITY PREDICTED BY RF-SCORE:    0.00 PKD
ROOT
HETATM    1  C   UNL     1      -9.995  17.841  68.189  1.00  0.00    -0.342 C  
HETATM    2  C   UNL     1     -10.655  18.308  66.889  1.00  0.00    -0.329 C  
HETATM    3  C   UNL     1     -10.288  19.772  66.631  1.00  0.00    -0.614 C  
ENDROOT
BRANCH   2   4
HETATM    4  N   UNL     1     -10.195  17.433  65.810  1.00  0.00    -0.599 NA 
HETATM    5  H   UNL     1      -9.578  16.709  66.179  1.00  0.00     0.000 HD 
BRANCH   4   6
HETATM    6  C   UNL     1     -11.270  16.829  65.014  1.00  0.00     0.034 C  
BRANCH   6   7
HETATM    7  C   UNL     1     -10.985  15.327  64.771  1.00  0.00    -0.386 C  
HETATM    8  C   UNL     1     -12.266  14.565  64.438  1.00  0.00    -0.480 C  
HETATM    9  C   UNL     1     -11.894  13.132  64.066  1.00  0.00    -0.514 C  
HETATM   10  C   UNL     1     -10.980  12.518  65.094  1.00  0.00    -0.332 A  
HETATM   11  C   UNL     1     -10.803  11.124  65.116  1.00  0.00    -0.229 A  
HETATM   12  C   UNL     1      -9.965  10.498  66.059  1.00  0.00    -0.295 A  
HETATM   13  C   UNL     1      -9.316  11.319  67.006  1.00  0.00    -0.172 A  
HETATM   14  H   UNL     1      -9.900  15.298  66.664  1.00  0.00     0.000 HD 
HETATM   15  N   UNL     1      -8.418  10.781  68.050  1.00  0.00    -0.121 N  
HETATM   16  N   UNL     1     -10.323  14.721  65.936  1.00  0.00    -0.302 NA 
HETATM   17  C   UNL     1      -9.488  12.716  66.975  1.00  0.00    -0.220 A  
HETATM   18  O   UNL     1      -7.934  11.582  68.863  1.00  0.00    -0.131 OA 
HETATM   19  O   UNL     1      -8.189   9.564  68.073  1.00  0.00    -0.112 OA 
HETATM   20  C   UNL     1     -10.295  13.326  66.011  1.00  0.00    -0.289 A  
BRANCH  12  21
HETATM   21  C   UNL     1      -9.823   9.000  65.968  1.00  0.00    -0.242 C  
HETATM   22  O   UNL     1     -10.583   8.380  66.990  1.00  0.00    -0.314 OA 
HETATM   23  H   UNL     1     -10.494   7.437  66.932  1.00  0.00     0.000 HD 
ENDBRANCH  12  21
ENDBRANCH   6   7
ENDBRANCH   4   6
ENDBRANCH   2   4
TORSDOF 4
ENDMDL
MODEL       68
REMARK 921   NORMALIZED FREE ENERGY PREDICTED BY IDOCK:   -4.92 KCAL/MOL
REMARK 922        TOTAL FREE ENERGY PREDICTED BY IDOCK:   -6.51 KCAL/MOL
REMARK 923 INTER-LIGAND FREE ENERGY PREDICTED BY IDOCK:   -6.26 KCAL/MOL
REMARK 924 INTRA-LIGAND FREE ENERGY PREDICTED BY IDOCK:   -0.25 KCAL/MOL
REMARK 927      BINDING AFFINITY PREDICTED BY RF-SCORE:    0.00 PKD
ROOT
HETATM    1  C   UNL     1     -12.783  15.660  73.765  1.00  0.00    -0.742 C  
HETATM    2  C   UNL     1     -12.929  15.951  72.270  1.00  0.00    -0.412 C  
HETATM    3  C   UNL     1     -11.547  15.913  71.609  1.00  0.00    -0.541 C  
ENDROOT
BRANCH   2   4
HETATM    4  N   UNL     1     -13.832  14.951  71.701  1.00  0.00    -0.418 NA 
HETATM    5  H   UNL     1     -13.637  14.821  70.709  1.00  0.00     0.000 HD 
BRANCH   4   6
HETATM    6  C   UNL     1     -13.826  13.659  72.396  1.00  0.00    -0.589 C  
BRANCH   6   7
HETATM    7  C   UNL     1     -13.461  12.518  71.415  1.00  0.00     0.201 C  
HETATM    8  C   UNL     1     -13.063  11.248  72.163  1.00  0.00    -0.272 C  
HETATM    9  C   UNL     1     -12.862  10.128  71.144  1.00  0.00    -0.494 C  
HETATM   10  C   UNL     1     -11.964  10.569  70.016  1.00  0.00    -0.367 A  
HETATM   11  C   UNL     1     -11.388   9.602  69.175  1.00  0.00     0.029 A  
HETATM   12  C   UNL     1     -10.537   9.957  68.110  1.00  0.00    -0.270 A  
HETATM   13  C   UNL     1     -10.260  11.329  67.924  1.00  0.00    -0.181 A  
HETATM   14  H   UNL     1     -12.123  13.913  70.403  1.00  0.00     0.000 HD 
HETATM   15  N   UNL     1      -9.377  11.828  66.848  1.00  0.00    -0.187 N  
HETATM   16  N   UNL     1     -12.380  12.931  70.507  1.00  0.00    -0.324 NA 
HETATM   17  C   UNL     1     -10.846  12.296  68.763  1.00  0.00    -0.266 A  
HETATM   18  O   UNL     1      -9.161  13.048  66.798  1.00  0.00    -0.229 OA 
HETATM   19  O   UNL     1      -8.891  11.016  66.048  1.00  0.00    -0.182 OA 
HETATM   20  C   UNL     1     -11.717  11.930  69.793  1.00  0.00    -0.331 A  
BRANCH  12  21
HETATM   21  C   UNL     1     -10.004   8.840  67.251  1.00  0.00    -0.220 C  
HETATM   22  O   UNL     1     -11.021   7.883  67.019  1.00  0.00    -0.465 OA 
HETATM   23  H   UNL     1     -10.685   7.179  66.477  1.00  0.00     0.000 HD 
ENDBRANCH  12  21
ENDBRANCH   6   7
ENDBRANCH   4   6
ENDBRANCH   2   4
TORSDOF 4
ENDMDL
MODEL       69
REMARK 921   NORMALIZED FREE ENERGY PREDICTED BY IDOCK:   -4.91 KCAL/MOL
REMARK 922        TOTAL FREE ENERGY PREDICTED BY IDOCK:   -6.50 KCAL/MOL
REMARK 923 INTER-LIGAND FREE ENERGY PREDICTED BY IDOCK:   -6.03 KCAL/MOL
REMARK 924 INTRA-LIGAND FREE ENERGY PREDICTED BY IDOCK:   -0.46 KCAL/MOL
REMARK 927      BINDING AFFINITY PREDICTED BY RF-SCORE:    0.00 PKD
ROOT
HETATM    1  C   UNL     1     -10.418   5.239  69.843  1.00  0.00    -0.351 C  
HETATM    2  C   UNL     1     -10.055   6.507  69.065  1.00  0.00    -0.165 C  
HETATM    3  C   UNL     1      -9.683   6.131  67.628  1.00  0.00    -0.121 C  
ENDROOT
BRANCH   2   4
HETATM    4  N   UNL     1     -11.204   7.410  69.112  1.00  0.00    -0.437 NA 
HETATM    5  H   UNL     1     -12.064   6.900  68.913  1.00  0.00     0.000 HD 
BRANCH   4   6
HETATM    6  C   UNL     1     -11.336   8.164  70.364  1.00  0.00    -0.181 C  
BRANCH   6   7
HETATM    7  C   UNL     1     -11.225   9.685  70.094  1.00  0.00    -0.256 C  
HETATM    8  C   UNL     1     -12.426  10.439  70.661  1.00  0.00    -0.437 C  
HETATM    9  C   UNL     1     -12.181  11.937  70.492  1.00  0.00    -0.426 C  
HETATM   10  C   UNL     1     -11.767  12.269  69.082  1.00  0.00    -0.377 A  
HETATM   11  C   UNL     1     -11.828  13.602  68.640  1.00  0.00    -0.409 A  
HETATM   12  C   UNL     1     -11.459  13.967  67.332  1.00  0.00    -0.373 A  
HETATM   13  C   UNL     1     -11.041  12.940  66.458  1.00  0.00    -0.286 A  
HETATM   14  H   UNL     1     -10.848   9.214  67.997  1.00  0.00     0.000 HD 
HETATM   15  N   UNL     1     -10.635  13.194  65.060  1.00  0.00    -0.316 N  
HETATM   16  N   UNL     1     -11.090   9.955  68.654  1.00  0.00    -0.179 NA 
HETATM   17  C   UNL     1     -10.972  11.607  66.907  1.00  0.00    -0.342 A  
HETATM   18  O   UNL     1     -10.329  12.217  64.361  1.00  0.00    -0.287 OA 
HETATM   19  O   UNL     1     -10.620  14.362  64.644  1.00  0.00    -0.415 OA 
HETATM   20  C   UNL     1     -11.308  11.265  68.219  1.00  0.00    -0.289 A  
BRANCH  12  21
HETATM   21  C   UNL     1     -11.530  15.431  66.978  1.00  0.00    -0.103 C  
HETATM   22  O   UNL     1     -10.303  16.064  67.293  1.00  0.00    -0.282 OA 
HETATM   23  H   UNL     1     -10.348  16.985  67.070  1.00  0.00     0.000 HD 
ENDBRANCH  12  21
ENDBRANCH   6   7
ENDBRANCH   4   6
ENDBRANCH   2   4
TORSDOF 4
ENDMDL
MODEL       70
REMARK 921   NORMALIZED FREE ENERGY PREDICTED BY IDOCK:   -4.88 KCAL/MOL
REMARK 922        TOTAL FREE ENERGY PREDICTED BY IDOCK:   -6.47 KCAL/MOL
REMARK 923 INTER-LIGAND FREE ENERGY PREDICTED BY IDOCK:   -6.16 KCAL/MOL
REMARK 924 INTRA-LIGAND FREE ENERGY PREDICTED BY IDOCK:   -0.31 KCAL/MOL
REMARK 927      BINDING AFFINITY PREDICTED BY RF-SCORE:    0.00 PKD
ROOT
HETATM    1  C   UNL     1      -5.156  16.649  70.814  1.00  0.00    -0.219 C  
HETATM    2  C   UNL     1      -5.610  16.574  69.354  1.00  0.00    -0.148 C  
HETATM    3  C   UNL     1      -5.126  15.257  68.739  1.00  0.00    -0.095 C  
ENDROOT
BRANCH   2   4
HETATM    4  N   UNL     1      -7.069  16.682  69.329  1.00  0.00    -0.230 NA 
HETATM    5  H   UNL     1      -7.433  16.795  70.275  1.00  0.00     0.000 HD 
BRANCH   4   6
HETATM    6  C   UNL     1      -7.587  17.740  68.454  1.00  0.00    -0.269 C  
BRANCH   6   7
HETATM    7  C   UNL     1      -8.348  17.126  67.254  1.00  0.00    -0.192 C  
HETATM    8  C   UNL     1      -9.744  17.728  67.114  1.00  0.00    -0.288 C  
HETATM    9  C   UNL     1     -10.377  17.190  65.832  1.00  0.00    -0.294 C  
HETATM   10  C   UNL     1     -10.266  15.689  65.754  1.00  0.00    -0.391 A  
HETATM   11  C   UNL     1     -11.072  14.985  64.843  1.00  0.00    -0.425 A  
HETATM   12  C   UNL     1     -11.014  13.582  64.732  1.00  0.00    -0.382 A  
HETATM   13  C   UNL     1     -10.127  12.894  65.588  1.00  0.00    -0.272 A  
HETATM   14  H   UNL     1      -7.846  15.152  68.036  1.00  0.00     0.000 HD 
HETATM   15  N   UNL     1      -9.980  11.423  65.574  1.00  0.00    -0.228 N  
HETATM   16  N   UNL     1      -8.436  15.663  67.379  1.00  0.00    -0.162 NA 
HETATM   17  C   UNL     1      -9.314  13.604  66.494  1.00  0.00    -0.242 A  
HETATM   18  O   UNL     1      -9.207  10.913  66.398  1.00  0.00    -0.166 OA 
HETATM   19  O   UNL     1     -10.629  10.765  64.749  1.00  0.00    -0.310 OA 
HETATM   20  C   UNL     1      -9.358  14.999  66.567  1.00  0.00    -0.281 A  
BRANCH  12  21
HETATM   21  C   UNL     1     -11.897  12.934  63.697  1.00  0.00    -0.532 C  
HETATM   22  O   UNL     1     -12.499  13.928  62.887  1.00  0.00    -1.034 OA 
HETATM   23  H   UNL     1     -13.055  13.521  62.235  1.00  0.00     0.000 HD 
ENDBRANCH  12  21
ENDBRANCH   6   7
ENDBRANCH   4   6
ENDBRANCH   2   4
TORSDOF 4
ENDMDL
MODEL       71
REMARK 921   NORMALIZED FREE ENERGY PREDICTED BY IDOCK:   -4.88 KCAL/MOL
REMARK 922        TOTAL FREE ENERGY PREDICTED BY IDOCK:   -6.47 KCAL/MOL
REMARK 923 INTER-LIGAND FREE ENERGY PREDICTED BY IDOCK:   -5.94 KCAL/MOL
REMARK 924 INTRA-LIGAND FREE ENERGY PREDICTED BY IDOCK:   -0.53 KCAL/MOL
REMARK 927      BINDING AFFINITY PREDICTED BY RF-SCORE:    0.00 PKD
ROOT
HETATM    1  C   UNL     1     -11.864  10.393  70.918  1.00  0.00    -0.475 C  
HETATM    2  C   UNL     1     -10.596   9.953  70.182  1.00  0.00    -0.297 C  
HETATM    3  C   UNL     1     -10.609   8.431  70.014  1.00  0.00    -0.235 C  
ENDROOT
BRANCH   2   4
HETATM    4  N   UNL     1     -10.560  10.643  68.893  1.00  0.00    -0.198 NA 
HETATM    5  H   UNL     1     -10.135  10.047  68.183  1.00  0.00     0.000 HD 
BRANCH   4   6
HETATM    6  C   UNL     1     -11.861  11.139  68.430  1.00  0.00    -0.232 C  
BRANCH   6   7
HETATM    7  C   UNL     1     -11.758  12.629  68.021  1.00  0.00    -0.350 C  
HETATM    8  C   UNL     1     -11.876  12.799  66.508  1.00  0.00    -0.471 C  
HETATM    9  C   UNL     1     -11.917  14.292  66.190  1.00  0.00    -0.422 C  
HETATM   10  C   UNL     1     -10.796  15.030  66.878  1.00  0.00    -0.315 A  
HETATM   11  C   UNL     1     -10.458  16.325  66.450  1.00  0.00    -0.297 A  
HETATM   12  C   UNL     1      -9.416  17.056  67.053  1.00  0.00    -0.256 A  
HETATM   13  C   UNL     1      -8.700  16.434  68.099  1.00  0.00    -0.191 A  
HETATM   14  H   UNL     1      -9.936  12.758  69.214  1.00  0.00     0.000 HD 
HETATM   15  N   UNL     1      -7.582  17.095  68.805  1.00  0.00    -0.254 N  
HETATM   16  N   UNL     1     -10.501  13.221  68.501  1.00  0.00    -0.251 NA 
HETATM   17  C   UNL     1      -9.048  15.140  68.531  1.00  0.00    -0.191 A  
HETATM   18  O   UNL     1      -6.987  16.445  69.678  1.00  0.00    -0.211 OA 
HETATM   19  O   UNL     1      -7.284  18.258  68.499  1.00  0.00    -0.263 OA 
HETATM   20  C   UNL     1     -10.107  14.441  67.946  1.00  0.00    -0.228 A  
BRANCH  12  21
HETATM   21  C   UNL     1      -9.163  18.449  66.537  1.00  0.00    -0.296 C  
HETATM   22  O   UNL     1      -7.997  18.461  65.733  1.00  0.00    -0.509 OA 
HETATM   23  H   UNL     1      -7.837  19.338  65.407  1.00  0.00     0.000 HD 
ENDBRANCH  12  21
ENDBRANCH   6   7
ENDBRANCH   4   6
ENDBRANCH   2   4
TORSDOF 4
ENDMDL
MODEL       72
REMARK 921   NORMALIZED FREE ENERGY PREDICTED BY IDOCK:   -4.85 KCAL/MOL
REMARK 922        TOTAL FREE ENERGY PREDICTED BY IDOCK:   -6.43 KCAL/MOL
REMARK 923 INTER-LIGAND FREE ENERGY PREDICTED BY IDOCK:   -5.84 KCAL/MOL
REMARK 924 INTRA-LIGAND FREE ENERGY PREDICTED BY IDOCK:   -0.58 KCAL/MOL
REMARK 927      BINDING AFFINITY PREDICTED BY RF-SCORE:    0.00 PKD
ROOT
HETATM    1  C   UNL     1      -5.343  11.499  71.058  1.00  0.00    -0.096 C  
HETATM    2  C   UNL     1      -5.990  11.106  69.728  1.00  0.00    -0.095 C  
HETATM    3  C   UNL     1      -5.141  10.026  69.050  1.00  0.00    -0.036 C  
ENDROOT
BRANCH   2   4
HETATM    4  N   UNL     1      -7.347  10.637  70.007  1.00  0.00    -0.381 NA 
HETATM    5  H   UNL     1      -8.032  11.323  69.691  1.00  0.00     0.000 HD 
BRANCH   4   6
HETATM    6  C   UNL     1      -7.660   9.313  69.457  1.00  0.00    -0.081 C  
BRANCH   6   7
HETATM    7  C   UNL     1      -8.665   9.437  68.286  1.00  0.00    -0.124 C  
HETATM    8  C   UNL     1      -7.992   9.162  66.944  1.00  0.00    -0.105 C  
HETATM    9  C   UNL     1      -9.065   9.154  65.857  1.00  0.00    -0.256 C  
HETATM   10  C   UNL     1      -9.944  10.375  65.945  1.00  0.00    -0.317 A  
HETATM   11  C   UNL     1     -10.754  10.722  64.851  1.00  0.00    -0.167 A  
HETATM   12  C   UNL     1     -11.590  11.855  64.877  1.00  0.00    -0.290 A  
HETATM   13  C   UNL     1     -11.573  12.654  66.041  1.00  0.00    -0.393 A  
HETATM   14  H   UNL     1      -9.246  11.383  69.084  1.00  0.00     0.000 HD 
HETATM   15  N   UNL     1     -12.399  13.871  66.188  1.00  0.00    -0.467 N  
HETATM   16  N   UNL     1      -9.297  10.765  68.274  1.00  0.00    -0.154 NA 
HETATM   17  C   UNL     1     -10.767  12.297  67.140  1.00  0.00    -0.265 A  
HETATM   18  O   UNL     1     -12.277  14.528  67.232  1.00  0.00    -0.347 OA 
HETATM   19  O   UNL     1     -13.170  14.186  65.270  1.00  0.00    -0.760 OA 
HETATM   20  C   UNL     1      -9.970  11.150  67.112  1.00  0.00    -0.186 A  
BRANCH  12  21
HETATM   21  C   UNL     1     -12.442  12.113  63.661  1.00  0.00    -0.549 C  
HETATM   22  O   UNL     1     -11.835  13.102  62.848  1.00  0.00    -0.775 OA 
HETATM   23  H   UNL     1     -12.371  13.264  62.081  1.00  0.00     0.000 HD 
ENDBRANCH  12  21
ENDBRANCH   6   7
ENDBRANCH   4   6
ENDBRANCH   2   4
TORSDOF 4
ENDMDL
MODEL       73
REMARK 921   NORMALIZED FREE ENERGY PREDICTED BY IDOCK:   -4.80 KCAL/MOL
REMARK 922        TOTAL FREE ENERGY PREDICTED BY IDOCK:   -6.36 KCAL/MOL
REMARK 923 INTER-LIGAND FREE ENERGY PREDICTED BY IDOCK:   -5.93 KCAL/MOL
REMARK 924 INTRA-LIGAND FREE ENERGY PREDICTED BY IDOCK:   -0.43 KCAL/MOL
REMARK 927      BINDING AFFINITY PREDICTED BY RF-SCORE:    0.00 PKD
ROOT
HETATM    1  C   UNL     1     -10.404   8.712  68.323  1.00  0.00    -0.252 C  
HETATM    2  C   UNL     1     -10.548   9.795  69.395  1.00  0.00    -0.228 C  
HETATM    3  C   UNL     1     -10.310   9.176  70.776  1.00  0.00    -0.323 C  
ENDROOT
BRANCH   2   4
HETATM    4  N   UNL     1      -9.582  10.853  69.099  1.00  0.00    -0.370 NA 
HETATM    5  H   UNL     1      -8.633  10.480  69.104  1.00  0.00     0.000 HD 
BRANCH   4   6
HETATM    6  C   UNL     1      -9.838  11.580  67.850  1.00  0.00    -0.185 C  
BRANCH   6   7
HETATM    7  C   UNL     1     -10.074  13.083  68.137  1.00  0.00    -0.237 C  
HETATM    8  C   UNL     1     -11.532  13.472  67.903  1.00  0.00    -0.353 C  
HETATM    9  C   UNL     1     -11.724  14.921  68.344  1.00  0.00    -0.336 C  
HETATM   10  C   UNL     1     -10.671  15.820  67.749  1.00  0.00    -0.307 A  
HETATM   11  C   UNL     1     -10.870  17.211  67.753  1.00  0.00    -0.270 A  
HETATM   12  C   UNL     1      -9.922  18.096  67.205  1.00  0.00    -0.341 A  
HETATM   13  C   UNL     1      -8.762  17.538  66.626  1.00  0.00    -0.263 A  
HETATM   14  H   UNL     1      -8.377  13.525  66.839  1.00  0.00     0.000 HD 
HETATM   15  N   UNL     1      -7.698  18.360  66.012  1.00  0.00    -0.210 N  
HETATM   16  N   UNL     1      -9.187  13.921  67.316  1.00  0.00    -0.224 NA 
HETATM   17  C   UNL     1      -8.562  16.143  66.632  1.00  0.00    -0.311 A  
HETATM   18  O   UNL     1      -6.742  17.769  65.489  1.00  0.00    -0.313 OA 
HETATM   19  O   UNL     1      -7.804  19.595  66.042  1.00  0.00    -0.321 OA 
HETATM   20  C   UNL     1      -9.496  15.280  67.211  1.00  0.00    -0.208 A  
BRANCH  12  21
HETATM   21  C   UNL     1     -10.222  19.571  67.295  1.00  0.00    -0.429 C  
HETATM   22  O   UNL     1     -10.658  20.052  66.036  1.00  0.00    -0.449 OA 
HETATM   23  H   UNL     1     -10.847  20.981  66.093  1.00  0.00     0.000 HD 
ENDBRANCH  12  21
ENDBRANCH   6   7
ENDBRANCH   4   6
ENDBRANCH   2   4
TORSDOF 4
ENDMDL
MODEL       74
REMARK 921   NORMALIZED FREE ENERGY PREDICTED BY IDOCK:   -4.79 KCAL/MOL
REMARK 922        TOTAL FREE ENERGY PREDICTED BY IDOCK:   -6.35 KCAL/MOL
REMARK 923 INTER-LIGAND FREE ENERGY PREDICTED BY IDOCK:   -5.87 KCAL/MOL
REMARK 924 INTRA-LIGAND FREE ENERGY PREDICTED BY IDOCK:   -0.47 KCAL/MOL
REMARK 927      BINDING AFFINITY PREDICTED BY RF-SCORE:    0.00 PKD
ROOT
HETATM    1  C   UNL     1     -10.907  17.102  67.769  1.00  0.00    -0.270 C  
HETATM    2  C   UNL     1     -11.025  17.321  66.259  1.00  0.00     0.225 C  
HETATM    3  C   UNL     1     -10.502  18.718  65.907  1.00  0.00    -0.424 C  
ENDROOT
BRANCH   2   4
HETATM    4  N   UNL     1     -10.262  16.269  65.588  1.00  0.00    -0.469 NA 
HETATM    5  H   UNL     1      -9.705  15.748  66.266  1.00  0.00     0.000 HD 
BRANCH   4   6
HETATM    6  C   UNL     1     -11.070  15.351  64.778  1.00  0.00    -0.403 C  
BRANCH   6   7
HETATM    7  C   UNL     1     -10.500  13.914  64.857  1.00  0.00    -0.426 C  
HETATM    8  C   UNL     1     -11.026  13.044  63.718  1.00  0.00    -0.316 C  
HETATM    9  C   UNL     1     -10.313  11.694  63.770  1.00  0.00    -0.445 C  
HETATM   10  C   UNL     1     -10.355  11.106  65.157  1.00  0.00    -0.354 A  
HETATM   11  C   UNL     1     -10.065   9.743  65.338  1.00  0.00    -0.196 A  
HETATM   12  C   UNL     1     -10.095   9.140  66.610  1.00  0.00    -0.343 A  
HETATM   13  C   UNL     1     -10.450   9.950  67.710  1.00  0.00    -0.242 A  
HETATM   14  H   UNL     1     -11.130  13.855  66.946  1.00  0.00     0.000 HD 
HETATM   15  N   UNL     1     -10.524   9.434  69.093  1.00  0.00    -0.213 N  
HETATM   16  N   UNL     1     -10.813  13.294  66.154  1.00  0.00    -0.279 NA 
HETATM   17  C   UNL     1     -10.731  11.318  67.527  1.00  0.00    -0.275 A  
HETATM   18  O   UNL     1     -10.891  10.217  69.982  1.00  0.00    -0.273 OA 
HETATM   19  O   UNL     1     -10.223   8.252  69.308  1.00  0.00    -0.196 OA 
HETATM   20  C   UNL     1     -10.662  11.910  66.263  1.00  0.00    -0.271 A  
BRANCH  12  21
HETATM   21  C   UNL     1      -9.732   7.679  66.690  1.00  0.00    -0.213 C  
HETATM   22  O   UNL     1     -10.909   6.892  66.733  1.00  0.00    -0.492 OA 
HETATM   23  H   UNL     1     -10.681   5.972  66.783  1.00  0.00     0.000 HD 
ENDBRANCH  12  21
ENDBRANCH   6   7
ENDBRANCH   4   6
ENDBRANCH   2   4
TORSDOF 4
ENDMDL
MODEL       75
REMARK 921   NORMALIZED FREE ENERGY PREDICTED BY IDOCK:   -4.78 KCAL/MOL
REMARK 922        TOTAL FREE ENERGY PREDICTED BY IDOCK:   -6.34 KCAL/MOL
REMARK 923 INTER-LIGAND FREE ENERGY PREDICTED BY IDOCK:   -5.84 KCAL/MOL
REMARK 924 INTRA-LIGAND FREE ENERGY PREDICTED BY IDOCK:   -0.50 KCAL/MOL
REMARK 927      BINDING AFFINITY PREDICTED BY RF-SCORE:    0.00 PKD
ROOT
HETATM    1  C   UNL     1     -10.127  19.584  68.546  1.00  0.00    -0.543 C  
HETATM    2  C   UNL     1     -10.875  18.890  67.405  1.00  0.00    -0.374 C  
HETATM    3  C   UNL     1     -10.462  19.519  66.071  1.00  0.00    -0.611 C  
ENDROOT
BRANCH   2   4
HETATM    4  N   UNL     1     -10.555  17.464  67.457  1.00  0.00    -0.352 NA 
HETATM    5  H   UNL     1     -11.385  16.922  67.697  1.00  0.00     0.000 HD 
BRANCH   4   6
HETATM    6  C   UNL     1      -9.935  16.933  66.237  1.00  0.00    -0.309 C  
BRANCH   6   7
HETATM    7  C   UNL     1     -10.256  15.427  66.077  1.00  0.00    -0.324 C  
HETATM    8  C   UNL     1     -11.639  15.092  66.632  1.00  0.00    -0.201 C  
HETATM    9  C   UNL     1     -11.949  13.632  66.309  1.00  0.00    -0.461 C  
HETATM   10  C   UNL     1     -10.812  12.728  66.710  1.00  0.00    -0.289 A  
HETATM   11  C   UNL     1     -11.034  11.344  66.813  1.00  0.00    -0.347 A  
HETATM   12  C   UNL     1     -10.010  10.455  67.189  1.00  0.00    -0.239 A  
HETATM   13  C   UNL     1      -8.743  11.003  67.484  1.00  0.00    -0.128 A  
HETATM   14  H   UNL     1      -8.332  14.990  67.007  1.00  0.00     0.000 HD 
HETATM   15  N   UNL     1      -7.589  10.176  67.897  1.00  0.00    -0.089 N  
HETATM   16  N   UNL     1      -9.232  14.598  66.731  1.00  0.00    -0.251 NA 
HETATM   17  C   UNL     1      -8.521  12.389  67.371  1.00  0.00    -0.179 A  
HETATM   18  O   UNL     1      -6.532  10.759  68.178  1.00  0.00    -0.057 OA 
HETATM   19  O   UNL     1      -7.723   8.944  67.948  1.00  0.00    -0.099 OA 
HETATM   20  C   UNL     1      -9.539  13.255  66.962  1.00  0.00    -0.243 A  
BRANCH  12  21
HETATM   21  C   UNL     1     -10.351   8.987  67.233  1.00  0.00    -0.273 C  
HETATM   22  O   UNL     1      -9.954   8.364  66.025  1.00  0.00    -0.474 OA 
HETATM   23  H   UNL     1     -10.169   7.439  66.052  1.00  0.00     0.000 HD 
ENDBRANCH  12  21
ENDBRANCH   6   7
ENDBRANCH   4   6
ENDBRANCH   2   4
TORSDOF 4
ENDMDL
MODEL       76
REMARK 921   NORMALIZED FREE ENERGY PREDICTED BY IDOCK:   -4.78 KCAL/MOL
REMARK 922        TOTAL FREE ENERGY PREDICTED BY IDOCK:   -6.34 KCAL/MOL
REMARK 923 INTER-LIGAND FREE ENERGY PREDICTED BY IDOCK:   -5.79 KCAL/MOL
REMARK 924 INTRA-LIGAND FREE ENERGY PREDICTED BY IDOCK:   -0.55 KCAL/MOL
REMARK 927      BINDING AFFINITY PREDICTED BY RF-SCORE:    0.00 PKD
ROOT
HETATM    1  C   UNL     1      -9.356  18.184  66.656  1.00  0.00    -0.300 C  
HETATM    2  C   UNL     1      -9.224  17.097  67.726  1.00  0.00    -0.241 C  
HETATM    3  C   UNL     1      -7.981  17.370  68.577  1.00  0.00    -0.266 C  
ENDROOT
BRANCH   2   4
HETATM    4  N   UNL     1     -10.447  17.105  68.529  1.00  0.00    -0.359 NA 
HETATM    5  H   UNL     1     -10.840  18.044  68.568  1.00  0.00     0.000 HD 
BRANCH   4   6
HETATM    6  C   UNL     1     -11.466  16.141  68.098  1.00  0.00    -0.220 C  
BRANCH   6   7
HETATM    7  C   UNL     1     -10.834  14.745  67.880  1.00  0.00    -0.269 C  
HETATM    8  C   UNL     1     -11.041  14.258  66.448  1.00  0.00    -0.325 C  
HETATM    9  C   UNL     1     -10.270  12.953  66.264  1.00  0.00    -0.285 C  
HETATM   10  C   UNL     1     -10.573  11.976  67.371  1.00  0.00    -0.253 A  
HETATM   11  C   UNL     1     -10.241  10.620  67.205  1.00  0.00    -0.261 A  
HETATM   12  C   UNL     1     -10.507   9.664  68.204  1.00  0.00    -0.266 A  
HETATM   13  C   UNL     1     -11.145  10.109  69.382  1.00  0.00    -0.243 A  
HETATM   14  H   UNL     1     -11.897  14.064  69.660  1.00  0.00     0.000 HD 
HETATM   15  N   UNL     1     -11.485   9.202  70.499  1.00  0.00    -0.255 N  
HETATM   16  N   UNL     1     -11.380  13.766  68.833  1.00  0.00    -0.270 NA 
HETATM   17  C   UNL     1     -11.469  11.469  69.548  1.00  0.00    -0.378 A  
HETATM   18  O   UNL     1     -12.087   9.683  71.470  1.00  0.00    -0.351 OA 
HETATM   19  O   UNL     1     -11.161   8.008  70.421  1.00  0.00    -0.250 OA 
HETATM   20  C   UNL     1     -11.166  12.412  68.563  1.00  0.00    -0.279 A  
BRANCH  12  21
HETATM   21  C   UNL     1     -10.076   8.246  67.933  1.00  0.00    -0.202 C  
HETATM   22  O   UNL     1     -11.186   7.478  67.502  1.00  0.00    -0.516 OA 
HETATM   23  H   UNL     1     -10.914   6.585  67.331  1.00  0.00     0.000 HD 
ENDBRANCH  12  21
ENDBRANCH   6   7
ENDBRANCH   4   6
ENDBRANCH   2   4
TORSDOF 4
ENDMDL
MODEL       77
REMARK 921   NORMALIZED FREE ENERGY PREDICTED BY IDOCK:   -4.77 KCAL/MOL
REMARK 922        TOTAL FREE ENERGY PREDICTED BY IDOCK:   -6.33 KCAL/MOL
REMARK 923 INTER-LIGAND FREE ENERGY PREDICTED BY IDOCK:   -5.90 KCAL/MOL
REMARK 924 INTRA-LIGAND FREE ENERGY PREDICTED BY IDOCK:   -0.43 KCAL/MOL
REMARK 927      BINDING AFFINITY PREDICTED BY RF-SCORE:    0.00 PKD
ROOT
HETATM    1  C   UNL     1     -11.377  16.149  70.558  1.00  0.00    -0.392 C  
HETATM    2  C   UNL     1     -11.016  16.428  69.097  1.00  0.00    -0.324 C  
HETATM    3  C   UNL     1      -9.493  16.406  68.937  1.00  0.00    -0.254 C  
ENDROOT
BRANCH   2   4
HETATM    4  N   UNL     1     -11.665  15.411  68.270  1.00  0.00    -0.437 NA 
HETATM    5  H   UNL     1     -10.994  15.000  67.621  1.00  0.00     0.000 HD 
BRANCH   4   6
HETATM    6  C   UNL     1     -12.354  14.359  69.026  1.00  0.00    -0.095 C  
BRANCH   6   7
HETATM    7  C   UNL     1     -11.579  13.023  68.924  1.00  0.00    -0.311 C  
HETATM    8  C   UNL     1     -11.779  12.366  67.561  1.00  0.00    -0.425 C  
HETATM    9  C   UNL     1     -10.874  11.138  67.476  1.00  0.00    -0.303 C  
HETATM   10  C   UNL     1     -11.029  10.259  68.691  1.00  0.00    -0.289 A  
HETATM   11  C   UNL     1     -10.554   8.937  68.650  1.00  0.00    -0.182 A  
HETATM   12  C   UNL     1     -10.678   8.071  69.753  1.00  0.00    -0.231 A  
HETATM   13  C   UNL     1     -11.320   8.568  70.907  1.00  0.00    -0.268 A  
HETATM   14  H   UNL     1     -12.498  12.427  70.812  1.00  0.00     0.000 HD 
HETATM   15  N   UNL     1     -11.518   7.755  72.126  1.00  0.00    -0.291 N  
HETATM   16  N   UNL     1     -11.980  12.099  69.996  1.00  0.00    -0.338 NA 
HETATM   17  C   UNL     1     -11.787   9.896  70.948  1.00  0.00    -0.443 A  
HETATM   18  O   UNL     1     -12.136   8.270  73.069  1.00  0.00    -0.249 OA 
HETATM   19  O   UNL     1     -11.066   6.601  72.156  1.00  0.00    -0.236 OA 
HETATM   20  C   UNL     1     -11.625  10.754  69.858  1.00  0.00    -0.331 A  
BRANCH  12  21
HETATM   21  C   UNL     1     -10.101   6.685  69.610  1.00  0.00    -0.181 C  
HETATM   22  O   UNL     1     -11.095   5.795  69.137  1.00  0.00    -0.316 OA 
HETATM   23  H   UNL     1     -10.732   4.923  69.047  1.00  0.00     0.000 HD 
ENDBRANCH  12  21
ENDBRANCH   6   7
ENDBRANCH   4   6
ENDBRANCH   2   4
TORSDOF 4
ENDMDL
MODEL       78
REMARK 921   NORMALIZED FREE ENERGY PREDICTED BY IDOCK:   -4.73 KCAL/MOL
REMARK 922        TOTAL FREE ENERGY PREDICTED BY IDOCK:   -6.28 KCAL/MOL
REMARK 923 INTER-LIGAND FREE ENERGY PREDICTED BY IDOCK:   -6.01 KCAL/MOL
REMARK 924 INTRA-LIGAND FREE ENERGY PREDICTED BY IDOCK:   -0.27 KCAL/MOL
REMARK 927      BINDING AFFINITY PREDICTED BY RF-SCORE:    0.00 PKD
ROOT
HETATM    1  C   UNL     1     -11.548  10.617  68.374  1.00  0.00    -0.269 C  
HETATM    2  C   UNL     1     -11.958  11.250  69.706  1.00  0.00    -0.360 C  
HETATM    3  C   UNL     1     -11.520  10.339  70.857  1.00  0.00    -0.425 C  
ENDROOT
BRANCH   2   4
HETATM    4  N   UNL     1     -11.335  12.571  69.789  1.00  0.00    -0.490 NA 
HETATM    5  H   UNL     1     -10.953  12.725  70.722  1.00  0.00     0.000 HD 
BRANCH   4   6
HETATM    6  C   UNL     1     -10.311  12.827  68.770  1.00  0.00    -0.117 C  
BRANCH   6   7
HETATM    7  C   UNL     1     -10.349  14.310  68.326  1.00  0.00    -0.242 C  
HETATM    8  C   UNL     1     -10.450  14.433  66.807  1.00  0.00    -0.273 C  
HETATM    9  C   UNL     1     -10.632  15.907  66.451  1.00  0.00    -0.298 C  
HETATM   10  C   UNL     1      -9.606  16.768  67.142  1.00  0.00    -0.238 A  
HETATM   11  C   UNL     1      -9.389  18.081  66.688  1.00  0.00    -0.297 A  
HETATM   12  C   UNL     1      -8.440  18.927  67.292  1.00  0.00    -0.293 A  
HETATM   13  C   UNL     1      -7.688  18.405  68.367  1.00  0.00    -0.297 A  
HETATM   14  H   UNL     1      -8.575  14.649  69.551  1.00  0.00     0.000 HD 
HETATM   15  N   UNL     1      -6.657  19.190  69.078  1.00  0.00    -0.285 N  
HETATM   16  N   UNL     1      -9.167  15.037  68.816  1.00  0.00    -0.194 NA 
HETATM   17  C   UNL     1      -7.914  17.092  68.825  1.00  0.00    -0.255 A  
HETATM   18  O   UNL     1      -6.020  18.624  69.978  1.00  0.00    -0.249 OA 
HETATM   19  O   UNL     1      -6.470  20.370  68.748  1.00  0.00    -0.310 OA 
HETATM   20  C   UNL     1      -8.885  16.277  68.237  1.00  0.00    -0.188 A  
BRANCH  12  21
HETATM   21  C   UNL     1      -8.316  20.326  66.746  1.00  0.00    -0.258 C  
HETATM   22  O   UNL     1      -9.526  21.033  66.951  1.00  0.00    -0.672 OA 
HETATM   23  H   UNL     1      -9.448  21.914  66.607  1.00  0.00     0.000 HD 
ENDBRANCH  12  21
ENDBRANCH   6   7
ENDBRANCH   4   6
ENDBRANCH   2   4
TORSDOF 4
ENDMDL
MODEL       79
REMARK 921   NORMALIZED FREE ENERGY PREDICTED BY IDOCK:   -4.72 KCAL/MOL
REMARK 922        TOTAL FREE ENERGY PREDICTED BY IDOCK:   -6.27 KCAL/MOL
REMARK 923 INTER-LIGAND FREE ENERGY PREDICTED BY IDOCK:   -5.68 KCAL/MOL
REMARK 924 INTRA-LIGAND FREE ENERGY PREDICTED BY IDOCK:   -0.58 KCAL/MOL
REMARK 927      BINDING AFFINITY PREDICTED BY RF-SCORE:    0.00 PKD
ROOT
HETATM    1  C   UNL     1      -8.629   5.848  70.489  1.00  0.00    -0.136 C  
HETATM    2  C   UNL     1      -7.407   6.414  69.762  1.00  0.00    -0.080 C  
HETATM    3  C   UNL     1      -7.391   5.899  68.320  1.00  0.00    -0.081 C  
ENDROOT
BRANCH   2   4
HETATM    4  N   UNL     1      -7.485   7.874  69.819  1.00  0.00    -0.086 NA 
HETATM    5  H   UNL     1      -7.495   8.265  68.877  1.00  0.00     0.000 HD 
BRANCH   4   6
HETATM    6  C   UNL     1      -8.612   8.395  70.600  1.00  0.00    -0.141 C  
BRANCH   6   7
HETATM    7  C   UNL     1      -9.257   9.604  69.880  1.00  0.00    -0.229 C  
HETATM    8  C   UNL     1     -10.708   9.800  70.314  1.00  0.00    -0.358 C  
HETATM    9  C   UNL     1     -11.233  11.088  69.683  1.00  0.00    -0.345 C  
HETATM   10  C   UNL     1     -10.948  11.129  68.203  1.00  0.00    -0.292 A  
HETATM   11  C   UNL     1     -11.637  12.048  67.394  1.00  0.00    -0.388 A  
HETATM   12  C   UNL     1     -11.414  12.126  66.006  1.00  0.00    -0.427 A  
HETATM   13  C   UNL     1     -10.483  11.228  65.441  1.00  0.00    -0.268 A  
HETATM   14  H   UNL     1      -8.558   8.763  67.992  1.00  0.00     0.000 HD 
HETATM   15  N   UNL     1     -10.168  11.205  63.997  1.00  0.00    -0.330 N  
HETATM   16  N   UNL     1      -9.181   9.448  68.419  1.00  0.00    -0.128 NA 
HETATM   17  C   UNL     1      -9.788  10.314  66.257  1.00  0.00    -0.276 A  
HETATM   18  O   UNL     1      -9.370  10.346  63.594  1.00  0.00    -0.243 OA 
HETATM   19  O   UNL     1     -10.710  12.034  63.252  1.00  0.00    -0.408 OA 
HETATM   20  C   UNL     1      -9.994  10.274  67.638  1.00  0.00    -0.179 A  
BRANCH  12  21
HETATM   21  C   UNL     1     -12.183  13.173  65.241  1.00  0.00    -0.455 C  
HETATM   22  O   UNL     1     -13.216  12.559  64.490  1.00  0.00    -0.832 OA 
HETATM   23  H   UNL     1     -13.700  13.219  64.008  1.00  0.00     0.000 HD 
ENDBRANCH  12  21
ENDBRANCH   6   7
ENDBRANCH   4   6
ENDBRANCH   2   4
TORSDOF 4
ENDMDL
MODEL       80
REMARK 921   NORMALIZED FREE ENERGY PREDICTED BY IDOCK:   -4.71 KCAL/MOL
REMARK 922        TOTAL FREE ENERGY PREDICTED BY IDOCK:   -6.26 KCAL/MOL
REMARK 923 INTER-LIGAND FREE ENERGY PREDICTED BY IDOCK:   -5.67 KCAL/MOL
REMARK 924 INTRA-LIGAND FREE ENERGY PREDICTED BY IDOCK:   -0.58 KCAL/MOL
REMARK 927      BINDING AFFINITY PREDICTED BY RF-SCORE:    0.00 PKD
ROOT
HETATM    1  C   UNL     1      -7.428   5.521  65.931  1.00  0.00    -0.082 C  
HETATM    2  C   UNL     1      -8.783   6.192  66.168  1.00  0.00    -0.148 C  
HETATM    3  C   UNL     1      -8.876   6.647  67.627  1.00  0.00    -0.116 C  
ENDROOT
BRANCH   2   4
HETATM    4  N   UNL     1      -8.899   7.316  65.239  1.00  0.00    -0.367 NA 
HETATM    5  H   UNL     1      -9.639   7.950  65.539  1.00  0.00     0.000 HD 
BRANCH   4   6
HETATM    6  C   UNL     1      -7.652   8.056  65.018  1.00  0.00    -0.104 C  
BRANCH   6   7
HETATM    7  C   UNL     1      -7.882   9.575  65.210  1.00  0.00    -0.111 C  
HETATM    8  C   UNL     1      -7.814   9.966  66.685  1.00  0.00    -0.110 C  
HETATM    9  C   UNL     1      -7.901  11.487  66.787  1.00  0.00    -0.146 C  
HETATM   10  C   UNL     1      -9.060  12.026  65.988  1.00  0.00    -0.092 A  
HETATM   11  C   UNL     1      -9.511  13.336  66.224  1.00  0.00    -0.196 A  
HETATM   12  C   UNL     1     -10.592  13.887  65.511  1.00  0.00    -0.318 A  
HETATM   13  C   UNL     1     -11.232  13.068  64.556  1.00  0.00    -0.339 A  
HETATM   14  H   UNL     1      -9.680   9.385  63.989  1.00  0.00     0.000 HD 
HETATM   15  N   UNL     1     -12.383  13.528  63.749  1.00  0.00    -0.392 N  
HETATM   16  N   UNL     1      -9.172   9.989  64.635  1.00  0.00    -0.238 NA 
HETATM   17  C   UNL     1     -10.772  11.758  64.316  1.00  0.00    -0.395 A  
HETATM   18  O   UNL     1     -12.903  12.715  62.971  1.00  0.00    -0.467 OA 
HETATM   19  O   UNL     1     -12.779  14.694  63.883  1.00  0.00    -0.788 OA 
HETATM   20  C   UNL     1      -9.675  11.238  65.007  1.00  0.00    -0.251 A  
BRANCH  12  21
HETATM   21  C   UNL     1     -10.968  15.313  65.821  1.00  0.00    -0.338 C  
HETATM   22  O   UNL     1     -10.565  16.160  64.759  1.00  0.00    -0.676 OA 
HETATM   23  H   UNL     1     -10.801  17.058  64.954  1.00  0.00     0.000 HD 
ENDBRANCH  12  21
ENDBRANCH   6   7
ENDBRANCH   4   6
ENDBRANCH   2   4
TORSDOF 4
ENDMDL
MODEL       81
REMARK 921   NORMALIZED FREE ENERGY PREDICTED BY IDOCK:   -4.71 KCAL/MOL
REMARK 922        TOTAL FREE ENERGY PREDICTED BY IDOCK:   -6.25 KCAL/MOL
REMARK 923 INTER-LIGAND FREE ENERGY PREDICTED BY IDOCK:   -5.72 KCAL/MOL
REMARK 924 INTRA-LIGAND FREE ENERGY PREDICTED BY IDOCK:   -0.53 KCAL/MOL
REMARK 927      BINDING AFFINITY PREDICTED BY RF-SCORE:    0.00 PKD
ROOT
HETATM    1  C   UNL     1     -13.315  13.235  72.176  1.00  0.00    -0.618 C  
HETATM    2  C   UNL     1     -12.667  14.235  71.215  1.00  0.00    -0.357 C  
HETATM    3  C   UNL     1     -12.030  15.372  72.019  1.00  0.00    -0.500 C  
ENDROOT
BRANCH   2   4
HETATM    4  N   UNL     1     -11.679  13.515  70.412  1.00  0.00    -0.531 NA 
HETATM    5  H   UNL     1     -11.419  12.642  70.870  1.00  0.00     0.000 HD 
BRANCH   4   6
HETATM    6  C   UNL     1     -12.087  13.264  69.025  1.00  0.00    -0.226 C  
BRANCH   6   7
HETATM    7  C   UNL     1     -11.786  11.797  68.631  1.00  0.00    -0.330 C  
HETATM    8  C   UNL     1     -11.141  11.032  69.784  1.00  0.00    -0.303 C  
HETATM    9  C   UNL     1     -11.010   9.565  69.379  1.00  0.00    -0.192 C  
HETATM   10  C   UNL     1     -10.370   9.426  68.022  1.00  0.00    -0.267 A  
HETATM   11  C   UNL     1      -9.855   8.180  67.626  1.00  0.00    -0.216 A  
HETATM   12  C   UNL     1      -9.242   7.995  66.372  1.00  0.00    -0.245 A  
HETATM   13  C   UNL     1      -9.139   9.118  65.522  1.00  0.00    -0.219 A  
HETATM   14  H   UNL     1     -10.789  12.556  66.844  1.00  0.00     0.000 HD 
HETATM   15  N   UNL     1      -8.511   9.055  64.185  1.00  0.00    -0.184 N  
HETATM   16  N   UNL     1     -10.925  11.738  67.439  1.00  0.00    -0.246 NA 
HETATM   17  C   UNL     1      -9.663  10.363  65.919  1.00  0.00    -0.272 A  
HETATM   18  O   UNL     1      -8.428  10.108  63.537  1.00  0.00    -0.163 OA 
HETATM   19  O   UNL     1      -8.093   7.964  63.771  1.00  0.00    -0.144 OA 
HETATM   20  C   UNL     1     -10.301  10.522  67.152  1.00  0.00    -0.235 A  
BRANCH  12  21
HETATM   21  C   UNL     1      -8.758   6.607  66.038  1.00  0.00    -0.147 C  
HETATM   22  O   UNL     1      -9.773   5.895  65.353  1.00  0.00    -0.325 OA 
HETATM   23  H   UNL     1      -9.468   5.020  65.143  1.00  0.00     0.000 HD 
ENDBRANCH  12  21
ENDBRANCH   6   7
ENDBRANCH   4   6
ENDBRANCH   2   4
TORSDOF 4
ENDMDL
MODEL       82
REMARK 921   NORMALIZED FREE ENERGY PREDICTED BY IDOCK:   -4.71 KCAL/MOL
REMARK 922        TOTAL FREE ENERGY PREDICTED BY IDOCK:   -6.25 KCAL/MOL
REMARK 923 INTER-LIGAND FREE ENERGY PREDICTED BY IDOCK:   -6.49 KCAL/MOL
REMARK 924 INTRA-LIGAND FREE ENERGY PREDICTED BY IDOCK:    0.24 KCAL/MOL
REMARK 927      BINDING AFFINITY PREDICTED BY RF-SCORE:    0.00 PKD
ROOT
HETATM    1  C   UNL     1     -11.587  14.709  64.614  1.00  0.00    -0.406 C  
HETATM    2  C   UNL     1     -11.511  13.193  64.812  1.00  0.00    -0.323 C  
HETATM    3  C   UNL     1     -12.370  12.499  63.751  1.00  0.00    -0.595 C  
ENDROOT
BRANCH   2   4
HETATM    4  N   UNL     1     -10.106  12.797  64.720  1.00  0.00    -0.482 NA 
HETATM    5  H   UNL     1      -9.674  13.208  63.892  1.00  0.00     0.000 HD 
BRANCH   4   6
HETATM    6  C   UNL     1      -9.308  13.098  65.914  1.00  0.00     0.081 C  
BRANCH   6   7
HETATM    7  C   UNL     1      -9.818  12.281  67.126  1.00  0.00    -0.203 C  
HETATM    8  C   UNL     1     -10.617  11.060  66.677  1.00  0.00    -0.315 C  
HETATM    9  C   UNL     1     -10.960  10.225  67.909  1.00  0.00    -0.350 C  
HETATM   10  C   UNL     1     -11.563  11.076  68.997  1.00  0.00    -0.392 A  
HETATM   11  C   UNL     1     -12.250  10.458  70.056  1.00  0.00    -0.262 A  
HETATM   12  C   UNL     1     -12.837  11.205  71.095  1.00  0.00    -0.473 A  
HETATM   13  C   UNL     1     -12.732  12.611  71.031  1.00  0.00    -0.226 A  
HETATM   14  H   UNL     1     -10.617  14.137  67.950  1.00  0.00     0.000 HD 
HETATM   15  N   UNL     1     -13.313  13.505  72.055  1.00  0.00    -0.439 N  
HETATM   16  N   UNL     1     -10.632  13.119  68.020  1.00  0.00    -0.230 NA 
HETATM   17  C   UNL     1     -12.035  13.227  69.973  1.00  0.00    -0.399 A  
HETATM   18  O   UNL     1     -13.206  14.727  71.882  1.00  0.00    -0.309 OA 
HETATM   19  O   UNL     1     -13.879  13.002  73.036  1.00  0.00    -0.272 OA 
HETATM   20  C   UNL     1     -11.428  12.470  68.968  1.00  0.00    -0.304 A  
BRANCH  12  21
HETATM   21  C   UNL     1     -13.518  10.435  72.198  1.00  0.00    -0.196 C  
HETATM   22  O   UNL     1     -12.927   9.155  72.329  1.00  0.00    -0.396 OA 
HETATM   23  H   UNL     1     -13.356   8.670  73.023  1.00  0.00     0.000 HD 
ENDBRANCH  12  21
ENDBRANCH   6   7
ENDBRANCH   4   6
ENDBRANCH   2   4
TORSDOF 4
ENDMDL
MODEL       83
REMARK 921   NORMALIZED FREE ENERGY PREDICTED BY IDOCK:   -4.69 KCAL/MOL
REMARK 922        TOTAL FREE ENERGY PREDICTED BY IDOCK:   -6.24 KCAL/MOL
REMARK 923 INTER-LIGAND FREE ENERGY PREDICTED BY IDOCK:   -5.74 KCAL/MOL
REMARK 924 INTRA-LIGAND FREE ENERGY PREDICTED BY IDOCK:   -0.49 KCAL/MOL
REMARK 927      BINDING AFFINITY PREDICTED BY RF-SCORE:    0.00 PKD
ROOT
HETATM    1  C   UNL     1      -9.659   6.742  69.043  1.00  0.00    -0.135 C  
HETATM    2  C   UNL     1      -8.466   7.668  68.794  1.00  0.00    -0.129 C  
HETATM    3  C   UNL     1      -7.169   6.927  69.131  1.00  0.00    -0.090 C  
ENDROOT
BRANCH   2   4
HETATM    4  N   UNL     1      -8.505   8.089  67.394  1.00  0.00    -0.125 NA 
HETATM    5  H   UNL     1      -9.350   8.629  67.209  1.00  0.00     0.000 HD 
BRANCH   4   6
HETATM    6  C   UNL     1      -7.319   8.828  66.946  1.00  0.00    -0.079 C  
BRANCH   6   7
HETATM    7  C   UNL     1      -7.664  10.320  66.720  1.00  0.00    -0.111 C  
HETATM    8  C   UNL     1      -7.775  11.071  68.045  1.00  0.00    -0.106 C  
HETATM    9  C   UNL     1      -7.968  12.556  67.745  1.00  0.00    -0.163 C  
HETATM   10  C   UNL     1      -9.069  12.774  66.739  1.00  0.00    -0.209 A  
HETATM   11  C   UNL     1      -9.624  14.056  66.590  1.00  0.00    -0.299 A  
HETATM   12  C   UNL     1     -10.658  14.314  65.670  1.00  0.00    -0.328 A  
HETATM   13  C   UNL     1     -11.142  13.229  64.907  1.00  0.00    -0.328 A  
HETATM   14  H   UNL     1      -9.309   9.673  65.441  1.00  0.00     0.000 HD 
HETATM   15  N   UNL     1     -12.228  13.370  63.914  1.00  0.00    -0.436 N  
HETATM   16  N   UNL     1      -8.909  10.461  65.951  1.00  0.00    -0.157 NA 
HETATM   17  C   UNL     1     -10.577  11.947  65.052  1.00  0.00    -0.335 A  
HETATM   18  O   UNL     1     -12.611  12.346  63.330  1.00  0.00    -0.661 OA 
HETATM   19  O   UNL     1     -12.710  14.493  63.709  1.00  0.00    -0.780 OA 
HETATM   20  C   UNL     1      -9.527  11.715  65.944  1.00  0.00    -0.228 A  
BRANCH  12  21
HETATM   21  C   UNL     1     -11.154  15.734  65.569  1.00  0.00    -0.190 C  
HETATM   22  O   UNL     1     -10.677  16.328  64.374  1.00  0.00    -0.854 OA 
HETATM   23  H   UNL     1     -10.989  17.222  64.311  1.00  0.00     0.000 HD 
ENDBRANCH  12  21
ENDBRANCH   6   7
ENDBRANCH   4   6
ENDBRANCH   2   4
TORSDOF 4
ENDMDL
MODEL       84
REMARK 921   NORMALIZED FREE ENERGY PREDICTED BY IDOCK:   -4.67 KCAL/MOL
REMARK 922        TOTAL FREE ENERGY PREDICTED BY IDOCK:   -6.21 KCAL/MOL
REMARK 923 INTER-LIGAND FREE ENERGY PREDICTED BY IDOCK:   -5.73 KCAL/MOL
REMARK 924 INTRA-LIGAND FREE ENERGY PREDICTED BY IDOCK:   -0.48 KCAL/MOL
REMARK 927      BINDING AFFINITY PREDICTED BY RF-SCORE:    0.00 PKD
ROOT
HETATM    1  C   UNL     1      -9.696  19.475  68.655  1.00  0.00    -0.514 C  
HETATM    2  C   UNL     1     -10.652  18.938  67.587  1.00  0.00    -0.428 C  
HETATM    3  C   UNL     1     -10.106  19.282  66.198  1.00  0.00    -0.517 C  
ENDROOT
BRANCH   2   4
HETATM    4  N   UNL     1     -10.779  17.493  67.780  1.00  0.00    -0.372 NA 
HETATM    5  H   UNL     1     -11.709  17.262  68.129  1.00  0.00     0.000 HD 
BRANCH   4   6
HETATM    6  C   UNL     1     -10.465  16.690  66.593  1.00  0.00    -0.258 C  
BRANCH   6   7
HETATM    7  C   UNL     1     -10.942  15.229  66.787  1.00  0.00    -0.306 C  
HETATM    8  C   UNL     1     -11.228  14.928  68.256  1.00  0.00    -0.306 C  
HETATM    9  C   UNL     1     -11.832  13.529  68.355  1.00  0.00    -0.408 C  
HETATM   10  C   UNL     1     -11.007  12.521  67.597  1.00  0.00    -0.279 A  
HETATM   11  C   UNL     1     -11.195  11.150  67.843  1.00  0.00    -0.365 A  
HETATM   12  C   UNL     1     -10.448  10.166  67.168  1.00  0.00    -0.305 A  
HETATM   13  C   UNL     1      -9.477  10.603  66.241  1.00  0.00    -0.177 A  
HETATM   14  H   UNL     1      -9.205  14.584  65.633  1.00  0.00     0.000 HD 
HETATM   15  N   UNL     1      -8.624   9.669  65.475  1.00  0.00    -0.139 N  
HETATM   16  N   UNL     1      -9.952  14.278  66.258  1.00  0.00    -0.295 NA 
HETATM   17  C   UNL     1      -9.297  11.977  65.990  1.00  0.00    -0.196 A  
HETATM   18  O   UNL     1      -7.769  10.156  64.720  1.00  0.00    -0.140 OA 
HETATM   19  O   UNL     1      -8.793   8.450  65.618  1.00  0.00    -0.172 OA 
HETATM   20  C   UNL     1     -10.071  12.940  66.642  1.00  0.00    -0.245 A  
BRANCH  12  21
HETATM   21  C   UNL     1     -10.758   8.726  67.485  1.00  0.00    -0.143 C  
HETATM   22  O   UNL     1      -9.821   8.227  68.423  1.00  0.00    -0.162 OA 
HETATM   23  H   UNL     1     -10.016   7.319  68.623  1.00  0.00     0.000 HD 
ENDBRANCH  12  21
ENDBRANCH   6   7
ENDBRANCH   4   6
ENDBRANCH   2   4
TORSDOF 4
ENDMDL
MODEL       85
REMARK 921   NORMALIZED FREE ENERGY PREDICTED BY IDOCK:   -4.66 KCAL/MOL
REMARK 922        TOTAL FREE ENERGY PREDICTED BY IDOCK:   -6.20 KCAL/MOL
REMARK 923 INTER-LIGAND FREE ENERGY PREDICTED BY IDOCK:   -5.73 KCAL/MOL
REMARK 924 INTRA-LIGAND FREE ENERGY PREDICTED BY IDOCK:   -0.47 KCAL/MOL
REMARK 927      BINDING AFFINITY PREDICTED BY RF-SCORE:    0.00 PKD
ROOT
HETATM    1  C   UNL     1     -11.891  14.896  64.636  1.00  0.00    -0.412 C  
HETATM    2  C   UNL     1     -11.874  13.368  64.724  1.00  0.00    -0.380 C  
HETATM    3  C   UNL     1     -12.107  12.777  63.331  1.00  0.00    -0.619 C  
ENDROOT
BRANCH   2   4
HETATM    4  N   UNL     1     -10.583  12.963  65.279  1.00  0.00    -0.290 NA 
HETATM    5  H   UNL     1      -9.843  13.579  64.944  1.00  0.00     0.000 HD 
BRANCH   4   6
HETATM    6  C   UNL     1     -10.549  12.875  66.744  1.00  0.00    -0.257 C  
BRANCH   6   7
HETATM    7  C   UNL     1     -10.184  11.438  67.192  1.00  0.00    -0.202 C  
HETATM    8  C   UNL     1     -10.518  10.416  66.108  1.00  0.00    -0.224 C  
HETATM    9  C   UNL     1      -9.999   9.051  66.553  1.00  0.00    -0.355 C  
HETATM   10  C   UNL     1     -10.438   8.729  67.958  1.00  0.00    -0.260 A  
HETATM   11  C   UNL     1     -10.358   7.403  68.419  1.00  0.00    -0.224 A  
HETATM   12  C   UNL     1     -10.761   7.045  69.720  1.00  0.00    -0.265 A  
HETATM   13  C   UNL     1     -11.273   8.065  70.551  1.00  0.00    -0.250 A  
HETATM   14  H   UNL     1     -11.296  11.805  69.032  1.00  0.00     0.000 HD 
HETATM   15  N   UNL     1     -11.734   7.816  71.933  1.00  0.00    -0.279 N  
HETATM   16  N   UNL     1     -10.867  11.089  68.447  1.00  0.00    -0.203 NA 
HETATM   17  C   UNL     1     -11.342   9.394  70.089  1.00  0.00    -0.220 A  
HETATM   18  O   UNL     1     -12.210   8.771  72.563  1.00  0.00    -0.364 OA 
HETATM   19  O   UNL     1     -11.631   6.673  72.401  1.00  0.00    -0.272 OA 
HETATM   20  C   UNL     1     -10.906   9.740  68.807  1.00  0.00    -0.188 A  
BRANCH  12  21
HETATM   21  C   UNL     1     -10.598   5.601  70.120  1.00  0.00    -0.309 C  
HETATM   22  O   UNL     1      -9.419   5.443  70.888  1.00  0.00    -0.158 OA 
HETATM   23  H   UNL     1      -9.316   4.534  71.140  1.00  0.00     0.000 HD 
ENDBRANCH  12  21
ENDBRANCH   6   7
ENDBRANCH   4   6
ENDBRANCH   2   4
TORSDOF 4
ENDMDL
MODEL       86
REMARK 921   NORMALIZED FREE ENERGY PREDICTED BY IDOCK:   -4.66 KCAL/MOL
REMARK 922        TOTAL FREE ENERGY PREDICTED BY IDOCK:   -6.20 KCAL/MOL
REMARK 923 INTER-LIGAND FREE ENERGY PREDICTED BY IDOCK:   -5.63 KCAL/MOL
REMARK 924 INTRA-LIGAND FREE ENERGY PREDICTED BY IDOCK:   -0.56 KCAL/MOL
REMARK 927      BINDING AFFINITY PREDICTED BY RF-SCORE:    0.00 PKD
ROOT
HETATM    1  C   UNL     1     -10.128   5.329  66.965  1.00  0.00    -0.243 C  
HETATM    2  C   UNL     1     -10.971   6.102  67.981  1.00  0.00    -0.305 C  
HETATM    3  C   UNL     1     -10.449   5.822  69.393  1.00  0.00    -0.360 C  
ENDROOT
BRANCH   2   4
HETATM    4  N   UNL     1     -10.893   7.524  67.644  1.00  0.00    -0.497 NA 
HETATM    5  H   UNL     1     -11.703   8.021  68.012  1.00  0.00     0.000 HD 
BRANCH   4   6
HETATM    6  C   UNL     1      -9.653   8.184  68.069  1.00  0.00    -0.156 C  
BRANCH   6   7
HETATM    7  C   UNL     1      -9.959   9.584  68.655  1.00  0.00    -0.167 C  
HETATM    8  C   UNL     1     -11.285   9.593  69.411  1.00  0.00    -0.112 C  
HETATM    9  C   UNL     1     -11.451  10.954  70.083  1.00  0.00    -0.405 C  
HETATM   10  C   UNL     1     -11.208  12.079  69.110  1.00  0.00    -0.305 A  
HETATM   11  C   UNL     1     -11.639  13.377  69.435  1.00  0.00    -0.365 A  
HETATM   12  C   UNL     1     -11.444  14.463  68.561  1.00  0.00    -0.326 A  
HETATM   13  C   UNL     1     -10.815  14.204  67.325  1.00  0.00    -0.285 A  
HETATM   14  H   UNL     1      -9.575  10.418  66.675  1.00  0.00     0.000 HD 
HETATM   15  N   UNL     1     -10.560  15.258  66.319  1.00  0.00    -0.302 N  
HETATM   16  N   UNL     1      -9.971  10.606  67.597  1.00  0.00    -0.166 NA 
HETATM   17  C   UNL     1     -10.376  12.904  67.006  1.00  0.00    -0.245 A  
HETATM   18  O   UNL     1     -10.043  14.917  65.245  1.00  0.00    -0.355 OA 
HETATM   19  O   UNL     1     -10.872  16.427  66.586  1.00  0.00    -0.229 OA 
HETATM   20  C   UNL     1     -10.545  11.843  67.899  1.00  0.00    -0.201 A  
BRANCH  12  21
HETATM   21  C   UNL     1     -11.914  15.817  69.028  1.00  0.00    -0.278 C  
HETATM   22  O   UNL     1     -10.829  16.540  69.583  1.00  0.00    -0.328 OA 
HETATM   23  H   UNL     1     -11.125  17.393  69.877  1.00  0.00     0.000 HD 
ENDBRANCH  12  21
ENDBRANCH   6   7
ENDBRANCH   4   6
ENDBRANCH   2   4
TORSDOF 4
ENDMDL
MODEL       87
REMARK 921   NORMALIZED FREE ENERGY PREDICTED BY IDOCK:   -4.65 KCAL/MOL
REMARK 922        TOTAL FREE ENERGY PREDICTED BY IDOCK:   -6.19 KCAL/MOL
REMARK 923 INTER-LIGAND FREE ENERGY PREDICTED BY IDOCK:   -5.68 KCAL/MOL
REMARK 924 INTRA-LIGAND FREE ENERGY PREDICTED BY IDOCK:   -0.51 KCAL/MOL
REMARK 927      BINDING AFFINITY PREDICTED BY RF-SCORE:    0.00 PKD
ROOT
HETATM    1  C   UNL     1     -11.255  15.874  70.513  1.00  0.00    -0.395 C  
HETATM    2  C   UNL     1     -10.936  16.257  69.065  1.00  0.00    -0.325 C  
HETATM    3  C   UNL     1      -9.435  16.086  68.814  1.00  0.00    -0.227 C  
ENDROOT
BRANCH   2   4
HETATM    4  N   UNL     1     -11.736  15.404  68.186  1.00  0.00    -0.417 NA 
HETATM    5  H   UNL     1     -11.243  15.237  67.309  1.00  0.00     0.000 HD 
BRANCH   4   6
HETATM    6  C   UNL     1     -12.154  14.132  68.786  1.00  0.00    -0.291 C  
BRANCH   6   7
HETATM    7  C   UNL     1     -11.365  12.954  68.163  1.00  0.00    -0.289 C  
HETATM    8  C   UNL     1     -11.779  12.714  66.713  1.00  0.00    -0.460 C  
HETATM    9  C   UNL     1     -10.864  11.645  66.119  1.00  0.00    -0.343 C  
HETATM   10  C   UNL     1     -10.777  10.437  67.016  1.00  0.00    -0.298 A  
HETATM   11  C   UNL     1     -10.274   9.230  66.501  1.00  0.00    -0.316 A  
HETATM   12  C   UNL     1     -10.177   8.070  67.293  1.00  0.00    -0.345 A  
HETATM   13  C   UNL     1     -10.624   8.150  68.629  1.00  0.00    -0.109 A  
HETATM   14  H   UNL     1     -11.923  11.755  69.899  1.00  0.00     0.000 HD 
HETATM   15  N   UNL     1     -10.581   7.000  69.558  1.00  0.00    -0.227 N  
HETATM   16  N   UNL     1     -11.544  11.725  68.952  1.00  0.00    -0.282 NA 
HETATM   17  C   UNL     1     -11.119   9.363  69.145  1.00  0.00    -0.039 A  
HETATM   18  O   UNL     1     -11.042   7.162  70.698  1.00  0.00    -0.249 OA 
HETATM   19  O   UNL     1     -10.094   5.931  69.164  1.00  0.00    -0.162 OA 
HETATM   20  C   UNL     1     -11.177  10.516  68.357  1.00  0.00    -0.279 A  
BRANCH  12  21
HETATM   21  C   UNL     1      -9.589   6.841  66.647  1.00  0.00    -0.163 C  
HETATM   22  O   UNL     1     -10.627   6.021  66.139  1.00  0.00    -0.463 OA 
HETATM   23  H   UNL     1     -10.257   5.247  65.732  1.00  0.00     0.000 HD 
ENDBRANCH  12  21
ENDBRANCH   6   7
ENDBRANCH   4   6
ENDBRANCH   2   4
TORSDOF 4
ENDMDL
MODEL       88
REMARK 921   NORMALIZED FREE ENERGY PREDICTED BY IDOCK:   -4.65 KCAL/MOL
REMARK 922        TOTAL FREE ENERGY PREDICTED BY IDOCK:   -6.18 KCAL/MOL
REMARK 923 INTER-LIGAND FREE ENERGY PREDICTED BY IDOCK:   -5.56 KCAL/MOL
REMARK 924 INTRA-LIGAND FREE ENERGY PREDICTED BY IDOCK:   -0.62 KCAL/MOL
REMARK 927      BINDING AFFINITY PREDICTED BY RF-SCORE:    0.00 PKD
ROOT
HETATM    1  C   UNL     1      -5.842  11.898  67.030  1.00  0.00    -0.153 C  
HETATM    2  C   UNL     1      -6.398  10.822  66.094  1.00  0.00    -0.134 C  
HETATM    3  C   UNL     1      -6.337   9.461  66.793  1.00  0.00    -0.066 C  
ENDROOT
BRANCH   2   4
HETATM    4  N   UNL     1      -7.769  11.193  65.744  1.00  0.00    -0.369 NA 
HETATM    5  H   UNL     1      -8.364  10.365  65.713  1.00  0.00     0.000 HD 
BRANCH   4   6
HETATM    6  C   UNL     1      -8.364  12.217  66.611  1.00  0.00    -0.051 C  
BRANCH   6   7
HETATM    7  C   UNL     1      -9.634  11.666  67.305  1.00  0.00    -0.174 C  
HETATM    8  C   UNL     1     -10.592  12.792  67.686  1.00  0.00    -0.230 C  
HETATM    9  C   UNL     1     -11.879  12.172  68.227  1.00  0.00    -0.361 C  
HETATM   10  C   UNL     1     -11.586  11.135  69.280  1.00  0.00    -0.388 A  
HETATM   11  C   UNL     1     -12.620  10.704  70.130  1.00  0.00    -0.283 A  
HETATM   12  C   UNL     1     -12.401   9.743  71.134  1.00  0.00    -0.451 A  
HETATM   13  C   UNL     1     -11.093   9.233  71.280  1.00  0.00    -0.357 A  
HETATM   14  H   UNL     1      -8.328  10.548  68.649  1.00  0.00     0.000 HD 
HETATM   15  N   UNL     1     -10.735   8.226  72.301  1.00  0.00    -0.304 N  
HETATM   16  N   UNL     1      -9.282  10.876  68.494  1.00  0.00    -0.174 NA 
HETATM   17  C   UNL     1     -10.062   9.660  70.421  1.00  0.00    -0.336 A  
HETATM   18  O   UNL     1      -9.547   7.878  72.377  1.00  0.00    -0.173 OA 
HETATM   19  O   UNL     1     -11.626   7.776  73.036  1.00  0.00    -0.330 OA 
HETATM   20  C   UNL     1     -10.302  10.589  69.406  1.00  0.00    -0.234 A  
BRANCH  12  21
HETATM   21  C   UNL     1     -13.590   9.329  71.964  1.00  0.00    -0.452 C  
HETATM   22  O   UNL     1     -14.162   8.148  71.431  1.00  0.00    -0.538 OA 
HETATM   23  H   UNL     1     -14.911   7.887  71.953  1.00  0.00     0.000 HD 
ENDBRANCH  12  21
ENDBRANCH   6   7
ENDBRANCH   4   6
ENDBRANCH   2   4
TORSDOF 4
ENDMDL
MODEL       89
REMARK 921   NORMALIZED FREE ENERGY PREDICTED BY IDOCK:   -4.63 KCAL/MOL
REMARK 922        TOTAL FREE ENERGY PREDICTED BY IDOCK:   -6.15 KCAL/MOL
REMARK 923 INTER-LIGAND FREE ENERGY PREDICTED BY IDOCK:   -5.57 KCAL/MOL
REMARK 924 INTRA-LIGAND FREE ENERGY PREDICTED BY IDOCK:   -0.59 KCAL/MOL
REMARK 927      BINDING AFFINITY PREDICTED BY RF-SCORE:    0.00 PKD
ROOT
HETATM    1  C   UNL     1      -9.169   4.141  69.388  1.00  0.00    -0.210 C  
HETATM    2  C   UNL     1      -9.719   4.747  70.681  1.00  0.00    -0.200 C  
HETATM    3  C   UNL     1      -8.591   5.474  71.421  1.00  0.00    -0.131 C  
ENDROOT
BRANCH   2   4
HETATM    4  N   UNL     1     -10.810   5.655  70.327  1.00  0.00    -0.294 NA 
HETATM    5  H   UNL     1     -11.676   5.361  70.778  1.00  0.00     0.000 HD 
BRANCH   4   6
HETATM    6  C   UNL     1     -10.542   7.070  70.608  1.00  0.00    -0.225 C  
BRANCH   6   7
HETATM    7  C   UNL     1     -10.851   7.937  69.362  1.00  0.00    -0.106 C  
HETATM    8  C   UNL     1      -9.770   7.782  68.295  1.00  0.00    -0.169 C  
HETATM    9  C   UNL     1     -10.209   8.541  67.046  1.00  0.00    -0.371 C  
HETATM   10  C   UNL     1     -10.644   9.945  67.382  1.00  0.00    -0.338 A  
HETATM   11  C   UNL     1     -10.754  10.898  66.355  1.00  0.00    -0.257 A  
HETATM   12  C   UNL     1     -11.150  12.224  66.614  1.00  0.00    -0.344 A  
HETATM   13  C   UNL     1     -11.415  12.579  67.954  1.00  0.00    -0.315 A  
HETATM   14  H   UNL     1     -11.132   9.636  70.702  1.00  0.00     0.000 HD 
HETATM   15  N   UNL     1     -11.830  13.940  68.355  1.00  0.00    -0.360 N  
HETATM   16  N   UNL     1     -10.999   9.353  69.731  1.00  0.00    -0.235 NA 
HETATM   17  C   UNL     1     -11.312  11.619  68.980  1.00  0.00    -0.337 A  
HETATM   18  O   UNL     1     -11.993  14.160  69.564  1.00  0.00    -0.301 OA 
HETATM   19  O   UNL     1     -11.994  14.798  67.477  1.00  0.00    -0.352 OA 
HETATM   20  C   UNL     1     -10.952  10.297  68.702  1.00  0.00    -0.244 A  
BRANCH  12  21
HETATM   21  C   UNL     1     -11.269  13.152  65.432  1.00  0.00    -0.291 C  
HETATM   22  O   UNL     1     -10.035  13.813  65.213  1.00  0.00    -0.489 OA 
HETATM   23  H   UNL     1     -10.110  14.398  64.468  1.00  0.00     0.000 HD 
ENDBRANCH  12  21
ENDBRANCH   6   7
ENDBRANCH   4   6
ENDBRANCH   2   4
TORSDOF 4
ENDMDL
MODEL       90
REMARK 921   NORMALIZED FREE ENERGY PREDICTED BY IDOCK:   -4.62 KCAL/MOL
REMARK 922        TOTAL FREE ENERGY PREDICTED BY IDOCK:   -6.15 KCAL/MOL
REMARK 923 INTER-LIGAND FREE ENERGY PREDICTED BY IDOCK:   -5.65 KCAL/MOL
REMARK 924 INTRA-LIGAND FREE ENERGY PREDICTED BY IDOCK:   -0.50 KCAL/MOL
REMARK 927      BINDING AFFINITY PREDICTED BY RF-SCORE:    0.00 PKD
ROOT
HETATM    1  C   UNL     1      -8.997   8.100  73.089  1.00  0.00    -0.330 C  
HETATM    2  C   UNL     1      -8.291   7.966  71.738  1.00  0.00    -0.118 C  
HETATM    3  C   UNL     1      -6.842   7.525  71.963  1.00  0.00    -0.062 C  
ENDROOT
BRANCH   2   4
HETATM    4  N   UNL     1      -9.036   6.996  70.934  1.00  0.00    -0.151 NA 
HETATM    5  H   UNL     1      -8.945   6.062  71.331  1.00  0.00     0.000 HD 
BRANCH   4   6
HETATM    6  C   UNL     1     -10.451   7.330  70.733  1.00  0.00    -0.212 C  
BRANCH   6   7
HETATM    7  C   UNL     1     -10.661   7.984  69.345  1.00  0.00    -0.205 C  
HETATM    8  C   UNL     1      -9.446   7.778  68.444  1.00  0.00    -0.148 C  
HETATM    9  C   UNL     1      -9.778   8.313  67.053  1.00  0.00    -0.274 C  
HETATM   10  C   UNL     1     -10.350   9.706  67.124  1.00  0.00    -0.319 A  
HETATM   11  C   UNL     1     -10.398  10.492  65.960  1.00  0.00    -0.279 A  
HETATM   12  C   UNL     1     -10.917  11.801  65.971  1.00  0.00    -0.355 A  
HETATM   13  C   UNL     1     -11.373  12.315  67.205  1.00  0.00    -0.335 A  
HETATM   14  H   UNL     1     -11.229   9.821  70.375  1.00  0.00     0.000 HD 
HETATM   15  N   UNL     1     -11.932  13.676  67.348  1.00  0.00    -0.384 N  
HETATM   16  N   UNL     1     -10.956   9.418  69.479  1.00  0.00    -0.212 NA 
HETATM   17  C   UNL     1     -11.332  11.520  68.367  1.00  0.00    -0.342 A  
HETATM   18  O   UNL     1     -12.261  14.048  68.483  1.00  0.00    -0.333 OA 
HETATM   19  O   UNL     1     -12.045  14.385  66.338  1.00  0.00    -0.414 OA 
HETATM   20  C   UNL     1     -10.847  10.210  68.333  1.00  0.00    -0.242 A  
BRANCH  12  21
HETATM   21  C   UNL     1     -10.952  12.541  64.658  1.00  0.00    -0.310 C  
HETATM   22  O   UNL     1      -9.829  13.398  64.558  1.00  0.00    -0.625 OA 
HETATM   23  H   UNL     1      -9.850  13.864  63.731  1.00  0.00     0.000 HD 
ENDBRANCH  12  21
ENDBRANCH   6   7
ENDBRANCH   4   6
ENDBRANCH   2   4
TORSDOF 4
ENDMDL
MODEL       91
REMARK 921   NORMALIZED FREE ENERGY PREDICTED BY IDOCK:   -4.62 KCAL/MOL
REMARK 922        TOTAL FREE ENERGY PREDICTED BY IDOCK:   -6.15 KCAL/MOL
REMARK 923 INTER-LIGAND FREE ENERGY PREDICTED BY IDOCK:   -5.76 KCAL/MOL
REMARK 924 INTRA-LIGAND FREE ENERGY PREDICTED BY IDOCK:   -0.39 KCAL/MOL
REMARK 927      BINDING AFFINITY PREDICTED BY RF-SCORE:    0.00 PKD
ROOT
HETATM    1  C   UNL     1     -10.424   7.340  67.092  1.00  0.00    -0.394 C  
HETATM    2  C   UNL     1     -10.412   8.782  67.605  1.00  0.00    -0.244 C  
HETATM    3  C   UNL     1     -10.267   8.776  69.130  1.00  0.00    -0.215 C  
ENDROOT
BRANCH   2   4
HETATM    4  N   UNL     1      -9.305   9.483  66.955  1.00  0.00    -0.144 NA 
HETATM    5  H   UNL     1      -8.685   8.818  66.494  1.00  0.00     0.000 HD 
BRANCH   4   6
HETATM    6  C   UNL     1      -9.716  10.533  66.015  1.00  0.00    -0.205 C  
BRANCH   6   7
HETATM    7  C   UNL     1      -9.234  11.919  66.506  1.00  0.00    -0.214 C  
HETATM    8  C   UNL     1      -9.382  12.055  68.020  1.00  0.00    -0.196 C  
HETATM    9  C   UNL     1      -8.754  13.379  68.452  1.00  0.00    -0.134 C  
HETATM   10  C   UNL     1      -9.254  14.523  67.608  1.00  0.00    -0.195 A  
HETATM   11  C   UNL     1      -9.067  15.843  68.055  1.00  0.00    -0.184 A  
HETATM   12  C   UNL     1      -9.519  16.949  67.311  1.00  0.00    -0.242 A  
HETATM   13  C   UNL     1     -10.193  16.690  66.098  1.00  0.00    -0.348 A  
HETATM   14  H   UNL     1     -10.505  12.824  64.981  1.00  0.00     0.000 HD 
HETATM   15  N   UNL     1     -10.722  17.764  65.230  1.00  0.00    -0.041 N  
HETATM   16  N   UNL     1      -9.962  13.001  65.826  1.00  0.00    -0.276 NA 
HETATM   17  C   UNL     1     -10.370  15.367  65.648  1.00  0.00    -0.395 A  
HETATM   18  O   UNL     1     -11.339  17.430  64.209  1.00  0.00    -0.849 OA 
HETATM   19  O   UNL     1     -10.531  18.945  65.557  1.00  0.00    -0.550 OA 
HETATM   20  C   UNL     1      -9.884  14.281  66.381  1.00  0.00    -0.296 A  
BRANCH  12  21
HETATM   21  C   UNL     1      -9.234  18.319  67.869  1.00  0.00    -0.276 C  
HETATM   22  O   UNL     1     -10.388  18.827  68.514  1.00  0.00    -0.361 OA 
HETATM   23  H   UNL     1     -10.209  19.690  68.866  1.00  0.00     0.000 HD 
ENDBRANCH  12  21
ENDBRANCH   6   7
ENDBRANCH   4   6
ENDBRANCH   2   4
TORSDOF 4
ENDMDL
MODEL       92
REMARK 921   NORMALIZED FREE ENERGY PREDICTED BY IDOCK:   -4.59 KCAL/MOL
REMARK 922        TOTAL FREE ENERGY PREDICTED BY IDOCK:   -6.11 KCAL/MOL
REMARK 923 INTER-LIGAND FREE ENERGY PREDICTED BY IDOCK:   -5.78 KCAL/MOL
REMARK 924 INTRA-LIGAND FREE ENERGY PREDICTED BY IDOCK:   -0.33 KCAL/MOL
REMARK 927      BINDING AFFINITY PREDICTED BY RF-SCORE:    0.00 PKD
ROOT
HETATM    1  C   UNL     1     -10.503  19.840  65.992  1.00  0.00    -0.609 C  
HETATM    2  C   UNL     1      -9.444  19.812  67.097  1.00  0.00    -0.355 C  
HETATM    3  C   UNL     1     -10.125  19.994  68.457  1.00  0.00    -0.487 C  
ENDROOT
BRANCH   2   4
HETATM    4  N   UNL     1      -8.733  18.537  67.010  1.00  0.00    -0.270 NA 
HETATM    5  H   UNL     1      -7.755  18.657  67.269  1.00  0.00     0.000 HD 
BRANCH   4   6
HETATM    6  C   UNL     1      -9.337  17.448  67.787  1.00  0.00    -0.255 C  
BRANCH   6   7
HETATM    7  C   UNL     1      -9.283  16.121  66.992  1.00  0.00    -0.211 C  
HETATM    8  C   UNL     1     -10.395  16.054  65.946  1.00  0.00    -0.386 C  
HETATM    9  C   UNL     1     -10.193  14.795  65.105  1.00  0.00    -0.410 C  
HETATM   10  C   UNL     1      -9.996  13.580  65.975  1.00  0.00    -0.308 A  
HETATM   11  C   UNL     1     -10.136  12.300  65.413  1.00  0.00    -0.292 A  
HETATM   12  C   UNL     1      -9.968  11.131  66.181  1.00  0.00    -0.273 A  
HETATM   13  C   UNL     1      -9.674  11.286  67.553  1.00  0.00    -0.177 A  
HETATM   14  H   UNL     1      -9.216  15.063  68.899  1.00  0.00     0.000 HD 
HETATM   15  N   UNL     1      -9.483  10.138  68.465  1.00  0.00    -0.153 N  
HETATM   16  N   UNL     1      -9.366  14.963  67.895  1.00  0.00    -0.189 NA 
HETATM   17  C   UNL     1      -9.525  12.570  68.110  1.00  0.00    -0.214 A  
HETATM   18  O   UNL     1      -9.273  10.381  69.662  1.00  0.00    -0.169 OA 
HETATM   19  O   UNL     1      -9.542   8.989  68.002  1.00  0.00    -0.144 OA 
HETATM   20  C   UNL     1      -9.659  13.720  67.328  1.00  0.00    -0.237 A  
BRANCH  12  21
HETATM   21  C   UNL     1     -10.107   9.811  65.467  1.00  0.00    -0.172 C  
HETATM   22  O   UNL     1     -10.096  10.017  64.065  1.00  0.00    -0.469 OA 
HETATM   23  H   UNL     1     -10.183   9.186  63.616  1.00  0.00     0.000 HD 
ENDBRANCH  12  21
ENDBRANCH   6   7
ENDBRANCH   4   6
ENDBRANCH   2   4
TORSDOF 4
ENDMDL
MODEL       93
REMARK 921   NORMALIZED FREE ENERGY PREDICTED BY IDOCK:   -4.59 KCAL/MOL
REMARK 922        TOTAL FREE ENERGY PREDICTED BY IDOCK:   -6.10 KCAL/MOL
REMARK 923 INTER-LIGAND FREE ENERGY PREDICTED BY IDOCK:   -5.52 KCAL/MOL
REMARK 924 INTRA-LIGAND FREE ENERGY PREDICTED BY IDOCK:   -0.58 KCAL/MOL
REMARK 927      BINDING AFFINITY PREDICTED BY RF-SCORE:    0.00 PKD
ROOT
HETATM    1  C   UNL     1     -12.417  12.340  63.418  1.00  0.00    -0.592 C  
HETATM    2  C   UNL     1     -11.077  12.406  64.154  1.00  0.00    -0.372 C  
HETATM    3  C   UNL     1      -9.993  11.747  63.295  1.00  0.00    -0.435 C  
ENDROOT
BRANCH   2   4
HETATM    4  N   UNL     1     -10.778  13.813  64.422  1.00  0.00    -0.571 NA 
HETATM    5  H   UNL     1     -11.583  14.396  64.195  1.00  0.00     0.000 HD 
BRANCH   4   6
HETATM    6  C   UNL     1     -10.317  14.089  65.788  1.00  0.00    -0.319 C  
BRANCH   6   7
HETATM    7  C   UNL     1     -10.583  12.870  66.705  1.00  0.00    -0.257 C  
HETATM    8  C   UNL     1     -11.569  13.217  67.818  1.00  0.00    -0.379 C  
HETATM    9  C   UNL     1     -11.897  11.940  68.589  1.00  0.00    -0.365 C  
HETATM   10  C   UNL     1     -10.645  11.204  68.989  1.00  0.00    -0.251 A  
HETATM   11  C   UNL     1     -10.715  10.210  69.980  1.00  0.00    -0.356 A  
HETATM   12  C   UNL     1      -9.575   9.496  70.396  1.00  0.00    -0.326 A  
HETATM   13  C   UNL     1      -8.341   9.825  69.795  1.00  0.00    -0.178 A  
HETATM   14  H   UNL     1      -8.422  12.635  66.899  1.00  0.00     0.000 HD 
HETATM   15  N   UNL     1      -7.073   9.153  70.151  1.00  0.00    -0.051 N  
HETATM   16  N   UNL     1      -9.328  12.362  67.280  1.00  0.00    -0.179 NA 
HETATM   17  C   UNL     1      -8.276  10.815  68.795  1.00  0.00    -0.145 A  
HETATM   18  O   UNL     1      -6.036   9.548  69.598  1.00  0.00    -0.038 OA 
HETATM   19  O   UNL     1      -7.096   8.232  70.980  1.00  0.00    -0.048 OA 
HETATM   20  C   UNL     1      -9.422  11.491  68.369  1.00  0.00    -0.195 A  
BRANCH  12  21
HETATM   21  C   UNL     1      -9.773   8.428  71.441  1.00  0.00    -0.199 C  
HETATM   22  O   UNL     1      -9.322   8.896  72.700  1.00  0.00    -0.266 OA 
HETATM   23  H   UNL     1      -9.447   8.224  73.358  1.00  0.00     0.000 HD 
ENDBRANCH  12  21
ENDBRANCH   6   7
ENDBRANCH   4   6
ENDBRANCH   2   4
TORSDOF 4
ENDMDL
MODEL       94
REMARK 921   NORMALIZED FREE ENERGY PREDICTED BY IDOCK:   -4.57 KCAL/MOL
REMARK 922        TOTAL FREE ENERGY PREDICTED BY IDOCK:   -6.08 KCAL/MOL
REMARK 923 INTER-LIGAND FREE ENERGY PREDICTED BY IDOCK:   -6.02 KCAL/MOL
REMARK 924 INTRA-LIGAND FREE ENERGY PREDICTED BY IDOCK:   -0.07 KCAL/MOL
REMARK 927      BINDING AFFINITY PREDICTED BY RF-SCORE:    0.00 PKD
ROOT
HETATM    1  C   UNL     1     -10.226  19.992  68.233  1.00  0.00    -0.527 C  
HETATM    2  C   UNL     1      -9.811  19.304  66.931  1.00  0.00    -0.342 C  
HETATM    3  C   UNL     1     -10.652  19.855  65.775  1.00  0.00    -0.490 C  
ENDROOT
BRANCH   2   4
HETATM    4  N   UNL     1      -8.382  19.547  66.728  1.00  0.00    -0.285 NA 
HETATM    5  H   UNL     1      -7.940  19.816  67.607  1.00  0.00     0.000 HD 
BRANCH   4   6
HETATM    6  C   UNL     1      -7.656  18.431  66.111  1.00  0.00    -0.235 C  
BRANCH   6   7
HETATM    7  C   UNL     1      -7.835  17.140  66.947  1.00  0.00    -0.215 C  
HETATM    8  C   UNL     1      -6.551  16.316  66.979  1.00  0.00    -0.193 C  
HETATM    9  C   UNL     1      -6.752  15.142  67.936  1.00  0.00    -0.168 C  
HETATM   10  C   UNL     1      -8.033  14.405  67.637  1.00  0.00    -0.191 A  
HETATM   11  C   UNL     1      -8.227  13.118  68.166  1.00  0.00    -0.160 A  
HETATM   12  C   UNL     1      -9.401  12.383  67.914  1.00  0.00    -0.195 A  
HETATM   13  C   UNL     1     -10.380  12.975  67.086  1.00  0.00    -0.243 A  
HETATM   14  H   UNL     1      -9.631  16.720  65.781  1.00  0.00     0.000 HD 
HETATM   15  N   UNL     1     -11.650  12.302  66.741  1.00  0.00    -0.372 N  
HETATM   16  N   UNL     1      -8.946  16.328  66.428  1.00  0.00    -0.279 NA 
HETATM   17  C   UNL     1     -10.185  14.268  66.565  1.00  0.00    -0.277 A  
HETATM   18  O   UNL     1     -12.422  12.888  65.969  1.00  0.00    -0.509 OA 
HETATM   19  O   UNL     1     -11.889  11.188  67.230  1.00  0.00    -0.525 OA 
HETATM   20  C   UNL     1      -9.030  15.000  66.853  1.00  0.00    -0.251 A  
BRANCH  12  21
HETATM   21  C   UNL     1      -9.518  11.027  68.561  1.00  0.00    -0.188 C  
HETATM   22  O   UNL     1      -8.553  10.899  69.590  1.00  0.00    -0.370 OA 
HETATM   23  H   UNL     1      -8.627  10.045  69.998  1.00  0.00     0.000 HD 
ENDBRANCH  12  21
ENDBRANCH   6   7
ENDBRANCH   4   6
ENDBRANCH   2   4
TORSDOF 4
ENDMDL
MODEL       95
REMARK 921   NORMALIZED FREE ENERGY PREDICTED BY IDOCK:   -4.57 KCAL/MOL
REMARK 922        TOTAL FREE ENERGY PREDICTED BY IDOCK:   -6.08 KCAL/MOL
REMARK 923 INTER-LIGAND FREE ENERGY PREDICTED BY IDOCK:   -5.84 KCAL/MOL
REMARK 924 INTRA-LIGAND FREE ENERGY PREDICTED BY IDOCK:   -0.24 KCAL/MOL
REMARK 927      BINDING AFFINITY PREDICTED BY RF-SCORE:    0.00 PKD
ROOT
HETATM    1  C   UNL     1     -11.985  15.989  71.814  1.00  0.00    -0.592 C  
HETATM    2  C   UNL     1     -12.944  14.891  71.350  1.00  0.00    -0.354 C  
HETATM    3  C   UNL     1     -14.373  15.259  71.760  1.00  0.00    -0.678 C  
ENDROOT
BRANCH   2   4
HETATM    4  N   UNL     1     -12.811  14.758  69.899  1.00  0.00    -0.591 NA 
HETATM    5  H   UNL     1     -13.319  15.506  69.427  1.00  0.00     0.000 HD 
BRANCH   4   6
HETATM    6  C   UNL     1     -11.427  14.698  69.416  1.00  0.00    -0.296 C  
BRANCH   6   7
HETATM    7  C   UNL     1     -11.217  13.448  68.527  1.00  0.00    -0.283 C  
HETATM    8  C   UNL     1     -11.762  12.190  69.199  1.00  0.00    -0.384 C  
HETATM    9  C   UNL     1     -11.658  11.030  68.212  1.00  0.00    -0.354 C  
HETATM   10  C   UNL     1     -10.278  10.943  67.612  1.00  0.00    -0.214 A  
HETATM   11  C   UNL     1      -9.884   9.764  66.957  1.00  0.00    -0.245 A  
HETATM   12  C   UNL     1      -8.605   9.626  66.384  1.00  0.00    -0.136 A  
HETATM   13  C   UNL     1      -7.713  10.713  66.506  1.00  0.00    -0.137 A  
HETATM   14  H   UNL     1      -9.121  14.025  68.334  1.00  0.00     0.000 HD 
HETATM   15  N   UNL     1      -6.342  10.689  65.954  1.00  0.00    -0.128 N  
HETATM   16  N   UNL     1      -9.795  13.271  68.197  1.00  0.00    -0.227 NA 
HETATM   17  C   UNL     1      -8.115  11.897  67.155  1.00  0.00    -0.172 A  
HETATM   18  O   UNL     1      -5.621  11.677  66.155  1.00  0.00    -0.252 OA 
HETATM   19  O   UNL     1      -5.969   9.691  65.320  1.00  0.00    -0.062 OA 
HETATM   20  C   UNL     1      -9.399  12.031  67.688  1.00  0.00    -0.185 A  
BRANCH  12  21
HETATM   21  C   UNL     1      -8.302   8.331  65.676  1.00  0.00    -0.148 C  
HETATM   22  O   UNL     1      -9.431   7.477  65.729  1.00  0.00    -0.402 OA 
HETATM   23  H   UNL     1      -9.241   6.661  65.283  1.00  0.00     0.000 HD 
ENDBRANCH  12  21
ENDBRANCH   6   7
ENDBRANCH   4   6
ENDBRANCH   2   4
TORSDOF 4
ENDMDL
MODEL       96
REMARK 921   NORMALIZED FREE ENERGY PREDICTED BY IDOCK:   -4.55 KCAL/MOL
REMARK 922        TOTAL FREE ENERGY PREDICTED BY IDOCK:   -6.05 KCAL/MOL
REMARK 923 INTER-LIGAND FREE ENERGY PREDICTED BY IDOCK:   -5.37 KCAL/MOL
REMARK 924 INTRA-LIGAND FREE ENERGY PREDICTED BY IDOCK:   -0.69 KCAL/MOL
REMARK 927      BINDING AFFINITY PREDICTED BY RF-SCORE:    0.00 PKD
ROOT
HETATM    1  C   UNL     1     -10.789   5.665  67.133  1.00  0.00    -0.242 C  
HETATM    2  C   UNL     1      -9.602   5.017  67.849  1.00  0.00    -0.140 C  
HETATM    3  C   UNL     1      -8.329   5.812  67.542  1.00  0.00    -0.104 C  
ENDROOT
BRANCH   2   4
HETATM    4  N   UNL     1      -9.897   4.993  69.281  1.00  0.00    -0.179 NA 
HETATM    5  H   UNL     1      -9.857   4.037  69.635  1.00  0.00     0.000 HD 
BRANCH   4   6
HETATM    6  C   UNL     1      -9.050   5.874  70.093  1.00  0.00    -0.145 C  
BRANCH   6   7
HETATM    7  C   UNL     1      -9.915   6.912  70.848  1.00  0.00    -0.189 C  
HETATM    8  C   UNL     1     -11.322   6.378  71.110  1.00  0.00    -0.376 C  
HETATM    9  C   UNL     1     -12.068   7.385  71.982  1.00  0.00    -0.325 C  
HETATM   10  C   UNL     1     -11.958   8.781  71.424  1.00  0.00    -0.367 A  
HETATM   11  C   UNL     1     -12.841   9.777  71.875  1.00  0.00    -0.520 A  
HETATM   12  C   UNL     1     -12.786  11.095  71.384  1.00  0.00    -0.524 A  
HETATM   13  C   UNL     1     -11.820  11.386  70.396  1.00  0.00    -0.335 A  
HETATM   14  H   UNL     1      -9.333   8.384  69.347  1.00  0.00     0.000 HD 
HETATM   15  N   UNL     1     -11.667  12.728  69.796  1.00  0.00    -0.304 N  
HETATM   16  N   UNL     1      -9.984   8.179  70.105  1.00  0.00    -0.185 NA 
HETATM   17  C   UNL     1     -10.931  10.388  69.952  1.00  0.00    -0.364 A  
HETATM   18  O   UNL     1     -10.820  12.868  68.903  1.00  0.00    -0.242 OA 
HETATM   19  O   UNL     1     -12.387  13.651  70.204  1.00  0.00    -0.331 OA 
HETATM   20  C   UNL     1     -10.975   9.093  70.476  1.00  0.00    -0.258 A  
BRANCH  12  21
HETATM   21  C   UNL     1     -13.758  12.089  71.965  1.00  0.00     0.043 C  
HETATM   22  O   UNL     1     -13.081  12.965  72.849  1.00  0.00    -0.280 OA 
HETATM   23  H   UNL     1     -13.694  13.592  73.215  1.00  0.00     0.000 HD 
ENDBRANCH  12  21
ENDBRANCH   6   7
ENDBRANCH   4   6
ENDBRANCH   2   4
TORSDOF 4
ENDMDL
MODEL       97
REMARK 921   NORMALIZED FREE ENERGY PREDICTED BY IDOCK:   -4.55 KCAL/MOL
REMARK 922        TOTAL FREE ENERGY PREDICTED BY IDOCK:   -6.05 KCAL/MOL
REMARK 923 INTER-LIGAND FREE ENERGY PREDICTED BY IDOCK:   -5.87 KCAL/MOL
REMARK 924 INTRA-LIGAND FREE ENERGY PREDICTED BY IDOCK:   -0.19 KCAL/MOL
REMARK 927      BINDING AFFINITY PREDICTED BY RF-SCORE:    0.00 PKD
ROOT
HETATM    1  C   UNL     1      -9.633   4.069  65.449  1.00  0.00    -0.188 C  
HETATM    2  C   UNL     1      -8.768   5.267  65.848  1.00  0.00    -0.138 C  
HETATM    3  C   UNL     1      -7.428   4.766  66.398  1.00  0.00    -0.086 C  
ENDROOT
BRANCH   2   4
HETATM    4  N   UNL     1      -8.590   6.110  64.666  1.00  0.00    -0.345 NA 
HETATM    5  H   UNL     1      -9.474   6.214  64.168  1.00  0.00     0.000 HD 
BRANCH   4   6
HETATM    6  C   UNL     1      -7.998   7.425  64.937  1.00  0.00    -0.128 C  
BRANCH   6   7
HETATM    7  C   UNL     1      -8.973   8.553  64.520  1.00  0.00     0.305 C  
HETATM    8  C   UNL     1      -8.443   9.329  63.317  1.00  0.00    -0.204 C  
HETATM    9  C   UNL     1      -9.514  10.321  62.870  1.00  0.00    -0.333 C  
HETATM   10  C   UNL     1     -10.032  11.129  64.032  1.00  0.00    -0.376 A  
HETATM   11  C   UNL     1     -10.756  12.308  63.785  1.00  0.00    -0.494 A  
HETATM   12  C   UNL     1     -11.257  13.104  64.833  1.00  0.00    -0.333 A  
HETATM   13  C   UNL     1     -10.990  12.689  66.155  1.00  0.00    -0.282 A  
HETATM   14  H   UNL     1      -8.986   9.214  66.600  1.00  0.00     0.000 HD 
HETATM   15  N   UNL     1     -11.455  13.442  67.340  1.00  0.00    -0.315 N  
HETATM   16  N   UNL     1      -9.227   9.470  65.642  1.00  0.00    -0.205 NA 
HETATM   17  C   UNL     1     -10.272  11.502  66.399  1.00  0.00    -0.261 A  
HETATM   18  O   UNL     1     -11.127  13.018  68.458  1.00  0.00    -0.240 OA 
HETATM   19  O   UNL     1     -12.144  14.458  67.170  1.00  0.00    -0.414 OA 
HETATM   20  C   UNL     1      -9.811  10.705  65.349  1.00  0.00    -0.267 A  
BRANCH  12  21
HETATM   21  C   UNL     1     -12.050  14.328  64.451  1.00  0.00    -0.468 C  
HETATM   22  O   UNL     1     -12.409  14.262  63.083  1.00  0.00    -1.096 OA 
HETATM   23  H   UNL     1     -12.909  15.033  62.842  1.00  0.00     0.000 HD 
ENDBRANCH  12  21
ENDBRANCH   6   7
ENDBRANCH   4   6
ENDBRANCH   2   4
TORSDOF 4
ENDMDL
MODEL       98
REMARK 921   NORMALIZED FREE ENERGY PREDICTED BY IDOCK:   -4.53 KCAL/MOL
REMARK 922        TOTAL FREE ENERGY PREDICTED BY IDOCK:   -6.04 KCAL/MOL
REMARK 923 INTER-LIGAND FREE ENERGY PREDICTED BY IDOCK:   -5.73 KCAL/MOL
REMARK 924 INTRA-LIGAND FREE ENERGY PREDICTED BY IDOCK:   -0.31 KCAL/MOL
REMARK 927      BINDING AFFINITY PREDICTED BY RF-SCORE:    0.00 PKD
ROOT
HETATM    1  C   UNL     1      -7.481   9.711  64.326  1.00  0.00    -0.125 C  
HETATM    2  C   UNL     1      -8.522   9.830  63.210  1.00  0.00    -0.181 C  
HETATM    3  C   UNL     1      -8.479   8.570  62.340  1.00  0.00    -0.174 C  
ENDROOT
BRANCH   2   4
HETATM    4  N   UNL     1      -9.832  10.018  63.832  1.00  0.00    -0.484 NA 
HETATM    5  H   UNL     1      -9.936   9.398  64.635  1.00  0.00     0.000 HD 
BRANCH   4   6
HETATM    6  C   UNL     1     -10.133  11.403  64.213  1.00  0.00    -0.297 C  
BRANCH   6   7
HETATM    7  C   UNL     1     -10.993  11.435  65.500  1.00  0.00    -0.183 C  
HETATM    8  C   UNL     1     -11.000  12.826  66.130  1.00  0.00    -0.310 C  
HETATM    9  C   UNL     1     -11.979  12.823  67.302  1.00  0.00    -0.345 C  
HETATM   10  C   UNL     1     -11.730  11.655  68.221  1.00  0.00    -0.374 A  
HETATM   11  C   UNL     1     -12.285  11.663  69.513  1.00  0.00    -0.257 A  
HETATM   12  C   UNL     1     -12.079  10.602  70.415  1.00  0.00    -0.430 A  
HETATM   13  C   UNL     1     -11.272   9.526  69.986  1.00  0.00    -0.209 A  
HETATM   14  H   UNL     1      -9.888   9.688  66.198  1.00  0.00     0.000 HD 
HETATM   15  N   UNL     1     -10.976   8.357  70.842  1.00  0.00    -0.237 N  
HETATM   16  N   UNL     1     -10.520  10.439  66.475  1.00  0.00    -0.223 NA 
HETATM   17  C   UNL     1     -10.725   9.516  68.688  1.00  0.00    -0.218 A  
HETATM   18  O   UNL     1     -10.218   7.487  70.388  1.00  0.00    -0.199 OA 
HETATM   19  O   UNL     1     -11.489   8.295  71.969  1.00  0.00    -0.289 OA 
HETATM   20  C   UNL     1     -10.968  10.561  67.793  1.00  0.00    -0.313 A  
BRANCH  12  21
HETATM   21  C   UNL     1     -12.750  10.700  71.761  1.00  0.00    -0.383 C  
HETATM   22  O   UNL     1     -13.236  12.016  71.962  1.00  0.00    -0.499 OA 
HETATM   23  H   UNL     1     -13.659  12.078  72.810  1.00  0.00     0.000 HD 
ENDBRANCH  12  21
ENDBRANCH   6   7
ENDBRANCH   4   6
ENDBRANCH   2   4
TORSDOF 4
ENDMDL
MODEL       99
REMARK 921   NORMALIZED FREE ENERGY PREDICTED BY IDOCK:   -4.53 KCAL/MOL
REMARK 922        TOTAL FREE ENERGY PREDICTED BY IDOCK:   -6.03 KCAL/MOL
REMARK 923 INTER-LIGAND FREE ENERGY PREDICTED BY IDOCK:   -5.84 KCAL/MOL
REMARK 924 INTRA-LIGAND FREE ENERGY PREDICTED BY IDOCK:   -0.19 KCAL/MOL
REMARK 927      BINDING AFFINITY PREDICTED BY RF-SCORE:    0.00 PKD
ROOT
HETATM    1  C   UNL     1      -7.923   7.635  63.447  1.00  0.00    -0.093 C  
HETATM    2  C   UNL     1      -7.746   8.390  64.767  1.00  0.00    -0.109 C  
HETATM    3  C   UNL     1      -6.879   9.630  64.530  1.00  0.00    -0.107 C  
ENDROOT
BRANCH   2   4
HETATM    4  N   UNL     1      -9.075   8.743  65.266  1.00  0.00    -0.405 NA 
HETATM    5  H   UNL     1      -9.096   8.695  66.285  1.00  0.00     0.000 HD 
BRANCH   4   6
HETATM    6  C   UNL     1      -9.574  10.044  64.807  1.00  0.00    -0.308 C  
BRANCH   6   7
HETATM    7  C   UNL     1      -9.783  10.999  66.008  1.00  0.00    -0.224 C  
HETATM    8  C   UNL     1     -11.030  10.625  66.804  1.00  0.00    -0.182 C  
HETATM    9  C   UNL     1     -11.092  11.508  68.050  1.00  0.00    -0.313 C  
HETATM   10  C   UNL     1     -10.912  12.963  67.700  1.00  0.00    -0.274 A  
HETATM   11  C   UNL     1     -11.273  13.947  68.636  1.00  0.00    -0.298 A  
HETATM   12  C   UNL     1     -11.131  15.320  68.360  1.00  0.00    -0.289 A  
HETATM   13  C   UNL     1     -10.630  15.684  67.091  1.00  0.00    -0.308 A  
HETATM   14  H   UNL     1      -9.566  12.672  64.624  1.00  0.00     0.000 HD 
HETATM   15  N   UNL     1     -10.442  17.091  66.678  1.00  0.00    -0.288 N  
HETATM   16  N   UNL     1      -9.867  12.397  65.559  1.00  0.00    -0.236 NA 
HETATM   17  C   UNL     1     -10.261  14.695  66.159  1.00  0.00    -0.313 A  
HETATM   18  O   UNL     1     -10.040  17.306  65.526  1.00  0.00    -0.581 OA 
HETATM   19  O   UNL     1     -10.695  17.992  67.492  1.00  0.00    -0.404 OA 
HETATM   20  C   UNL     1     -10.374  13.336  66.461  1.00  0.00    -0.285 A  
BRANCH  12  21
HETATM   21  C   UNL     1     -11.516  16.287  69.450  1.00  0.00    -0.238 C  
HETATM   22  O   UNL     1     -12.859  16.060  69.843  1.00  0.00    -0.587 OA 
HETATM   23  H   UNL     1     -13.101  16.669  70.530  1.00  0.00     0.000 HD 
ENDBRANCH  12  21
ENDBRANCH   6   7
ENDBRANCH   4   6
ENDBRANCH   2   4
TORSDOF 4
ENDMDL
MODEL      100
REMARK 921   NORMALIZED FREE ENERGY PREDICTED BY IDOCK:   -4.52 KCAL/MOL
REMARK 922        TOTAL FREE ENERGY PREDICTED BY IDOCK:   -6.03 KCAL/MOL
REMARK 923 INTER-LIGAND FREE ENERGY PREDICTED BY IDOCK:   -5.65 KCAL/MOL
REMARK 924 INTRA-LIGAND FREE ENERGY PREDICTED BY IDOCK:   -0.38 KCAL/MOL
REMARK 927      BINDING AFFINITY PREDICTED BY RF-SCORE:    0.00 PKD
ROOT
HETATM    1  C   UNL     1     -11.934  13.093  67.297  1.00  0.00    -0.389 C  
HETATM    2  C   UNL     1     -11.249  13.778  68.481  1.00  0.00    -0.275 C  
HETATM    3  C   UNL     1     -12.267  14.654  69.219  1.00  0.00    -0.247 C  
ENDROOT
BRANCH   2   4
HETATM    4  N   UNL     1     -10.697  12.737  69.348  1.00  0.00    -0.431 NA 
HETATM    5  H   UNL     1     -11.282  12.616  70.174  1.00  0.00     0.000 HD 
BRANCH   4   6
HETATM    6  C   UNL     1     -10.475  11.447  68.686  1.00  0.00    -0.201 C  
BRANCH   6   7
HETATM    7  C   UNL     1     -10.822  10.280  69.643  1.00  0.00    -0.271 C  
HETATM    8  C   UNL     1     -11.795  10.726  70.732  1.00  0.00    -0.443 C  
HETATM    9  C   UNL     1     -12.207   9.500  71.545  1.00  0.00    -0.468 C  
HETATM   10  C   UNL     1     -11.005   8.703  71.983  1.00  0.00    -0.432 A  
HETATM   11  C   UNL     1     -11.144   7.752  73.008  1.00  0.00    -0.419 A  
HETATM   12  C   UNL     1     -10.053   6.985  73.460  1.00  0.00    -0.348 A  
HETATM   13  C   UNL     1      -8.796   7.217  72.862  1.00  0.00    -0.132 A  
HETATM   14  H   UNL     1      -8.681   9.921  69.867  1.00  0.00     0.000 HD 
HETATM   15  N   UNL     1      -7.575   6.482  73.254  1.00  0.00    -0.092 N  
HETATM   16  N   UNL     1      -9.605   9.717  70.249  1.00  0.00    -0.247 NA 
HETATM   17  C   UNL     1      -8.662   8.165  71.828  1.00  0.00    -0.199 A  
HETATM   18  O   UNL     1      -6.511   6.794  72.699  1.00  0.00    -0.057 OA 
HETATM   19  O   UNL     1      -7.661   5.595  74.115  1.00  0.00    -0.092 OA 
HETATM   20  C   UNL     1      -9.761   8.893  71.366  1.00  0.00    -0.300 A  
BRANCH  12  21
HETATM   21  C   UNL     1     -10.325   5.969  74.541  1.00  0.00    -0.221 C  
HETATM   22  O   UNL     1     -11.189   4.960  74.047  1.00  0.00    -0.378 OA 
HETATM   23  H   UNL     1     -11.360   4.321  74.728  1.00  0.00     0.000 HD 
ENDBRANCH  12  21
ENDBRANCH   6   7
ENDBRANCH   4   6
ENDBRANCH   2   4
TORSDOF 4
ENDMDL
MODEL      101
REMARK 921   NORMALIZED FREE ENERGY PREDICTED BY IDOCK:   -4.50 KCAL/MOL
REMARK 922        TOTAL FREE ENERGY PREDICTED BY IDOCK:   -6.00 KCAL/MOL
REMARK 923 INTER-LIGAND FREE ENERGY PREDICTED BY IDOCK:   -5.40 KCAL/MOL
REMARK 924 INTRA-LIGAND FREE ENERGY PREDICTED BY IDOCK:   -0.60 KCAL/MOL
REMARK 927      BINDING AFFINITY PREDICTED BY RF-SCORE:    0.00 PKD
ROOT
HETATM    1  C   UNL     1      -5.403   5.002  68.959  1.00  0.00    -0.004 C  
HETATM    2  C   UNL     1      -6.393   4.242  68.075  1.00  0.00    -0.037 C  
HETATM    3  C   UNL     1      -6.874   2.988  68.813  1.00  0.00    -0.044 C  
ENDROOT
BRANCH   2   4
HETATM    4  N   UNL     1      -7.500   5.144  67.756  1.00  0.00    -0.079 NA 
HETATM    5  H   UNL     1      -8.393   4.679  67.913  1.00  0.00     0.000 HD 
BRANCH   4   6
HETATM    6  C   UNL     1      -7.462   6.428  68.465  1.00  0.00    -0.088 C  
BRANCH   6   7
HETATM    7  C   UNL     1      -8.660   6.543  69.440  1.00  0.00    -0.134 C  
HETATM    8  C   UNL     1      -9.753   5.532  69.101  1.00  0.00    -0.208 C  
HETATM    9  C   UNL     1     -10.828   5.599  70.183  1.00  0.00    -0.356 C  
HETATM   10  C   UNL     1     -11.263   7.019  70.436  1.00  0.00    -0.339 A  
HETATM   11  C   UNL     1     -12.460   7.260  71.132  1.00  0.00    -0.373 A  
HETATM   12  C   UNL     1     -12.917   8.567  71.391  1.00  0.00    -0.267 A  
HETATM   13  C   UNL     1     -12.139   9.640  70.907  1.00  0.00    -0.300 A  
HETATM   14  H   UNL     1      -8.690   8.688  69.038  1.00  0.00     0.000 HD 
HETATM   15  N   UNL     1     -12.515  11.056  71.108  1.00  0.00    -0.391 N  
HETATM   16  N   UNL     1      -9.212   7.907  69.437  1.00  0.00    -0.146 NA 
HETATM   17  C   UNL     1     -10.935   9.395  70.219  1.00  0.00    -0.305 A  
HETATM   18  O   UNL     1     -11.787  11.923  70.603  1.00  0.00    -0.280 OA 
HETATM   19  O   UNL     1     -13.534  11.317  71.763  1.00  0.00    -0.310 OA 
HETATM   20  C   UNL     1     -10.477   8.094  70.001  1.00  0.00    -0.231 A  
BRANCH  12  21
HETATM   21  C   UNL     1     -14.196   8.708  72.175  1.00  0.00    -0.439 C  
HETATM   22  O   UNL     1     -13.902   9.025  73.524  1.00  0.00    -1.068 OA 
HETATM   23  H   UNL     1     -14.708   9.114  74.019  1.00  0.00     0.000 HD 
ENDBRANCH  12  21
ENDBRANCH   6   7
ENDBRANCH   4   6
ENDBRANCH   2   4
TORSDOF 4
ENDMDL
MODEL      102
REMARK 921   NORMALIZED FREE ENERGY PREDICTED BY IDOCK:   -4.50 KCAL/MOL
REMARK 922        TOTAL FREE ENERGY PREDICTED BY IDOCK:   -5.99 KCAL/MOL
REMARK 923 INTER-LIGAND FREE ENERGY PREDICTED BY IDOCK:   -5.56 KCAL/MOL
REMARK 924 INTRA-LIGAND FREE ENERGY PREDICTED BY IDOCK:   -0.43 KCAL/MOL
REMARK 927      BINDING AFFINITY PREDICTED BY RF-SCORE:    0.00 PKD
ROOT
HETATM    1  C   UNL     1     -10.877  16.182  65.025  1.00  0.00    -0.380 C  
HETATM    2  C   UNL     1      -9.739  16.588  65.965  1.00  0.00    -0.301 C  
HETATM    3  C   UNL     1     -10.310  17.404  67.129  1.00  0.00    -0.325 C  
ENDROOT
BRANCH   2   4
HETATM    4  N   UNL     1      -9.078  15.368  66.428  1.00  0.00    -0.294 NA 
HETATM    5  H   UNL     1      -8.819  15.456  67.410  1.00  0.00     0.000 HD 
BRANCH   4   6
HETATM    6  C   UNL     1      -9.848  14.138  66.211  1.00  0.00    -0.306 C  
BRANCH   6   7
HETATM    7  C   UNL     1      -9.457  13.064  67.255  1.00  0.00    -0.224 C  
HETATM    8  C   UNL     1      -8.867  11.825  66.585  1.00  0.00    -0.189 C  
HETATM    9  C   UNL     1      -8.370  10.876  67.673  1.00  0.00    -0.116 C  
HETATM   10  C   UNL     1      -9.424  10.649  68.726  1.00  0.00    -0.186 A  
HETATM   11  C   UNL     1      -9.294   9.564  69.610  1.00  0.00    -0.213 A  
HETATM   12  C   UNL     1     -10.251   9.302  70.608  1.00  0.00    -0.335 A  
HETATM   13  C   UNL     1     -11.371  10.159  70.683  1.00  0.00    -0.352 A  
HETATM   14  H   UNL     1     -11.456  13.264  68.106  1.00  0.00     0.000 HD 
HETATM   15  N   UNL     1     -12.447   9.985  71.681  1.00  0.00    -0.402 N  
HETATM   16  N   UNL     1     -10.614  12.690  68.084  1.00  0.00    -0.221 NA 
HETATM   17  C   UNL     1     -11.493  11.251  69.801  1.00  0.00    -0.386 A  
HETATM   18  O   UNL     1     -13.410  10.764  71.632  1.00  0.00    -0.370 OA 
HETATM   19  O   UNL     1     -12.347   9.074  72.516  1.00  0.00    -0.320 OA 
HETATM   20  C   UNL     1     -10.516  11.518  68.839  1.00  0.00    -0.187 A  
BRANCH  12  21
HETATM   21  C   UNL     1      -9.993   8.132  71.522  1.00  0.00    -0.182 C  
HETATM   22  O   UNL     1      -9.348   8.576  72.703  1.00  0.00    -0.269 OA 
HETATM   23  H   UNL     1      -9.185   7.839  73.279  1.00  0.00     0.000 HD 
ENDBRANCH  12  21
ENDBRANCH   6   7
ENDBRANCH   4   6
ENDBRANCH   2   4
TORSDOF 4
ENDMDL
MODEL      103
REMARK 921   NORMALIZED FREE ENERGY PREDICTED BY IDOCK:   -4.46 KCAL/MOL
REMARK 922        TOTAL FREE ENERGY PREDICTED BY IDOCK:   -5.95 KCAL/MOL
REMARK 923 INTER-LIGAND FREE ENERGY PREDICTED BY IDOCK:   -5.40 KCAL/MOL
REMARK 924 INTRA-LIGAND FREE ENERGY PREDICTED BY IDOCK:   -0.55 KCAL/MOL
REMARK 927      BINDING AFFINITY PREDICTED BY RF-SCORE:    0.00 PKD
ROOT
HETATM    1  C   UNL     1     -10.145  10.206  67.650  1.00  0.00    -0.231 C  
HETATM    2  C   UNL     1     -11.475  10.899  67.955  1.00  0.00    -0.266 C  
HETATM    3  C   UNL     1     -11.469  11.395  69.404  1.00  0.00    -0.378 C  
ENDROOT
BRANCH   2   4
HETATM    4  N   UNL     1     -11.640  11.997  67.003  1.00  0.00    -0.504 NA 
HETATM    5  H   UNL     1     -12.460  11.839  66.418  1.00  0.00     0.000 HD 
BRANCH   4   6
HETATM    6  C   UNL     1     -11.699  13.330  67.615  1.00  0.00    -0.366 C  
BRANCH   6   7
HETATM    7  C   UNL     1     -10.522  14.205  67.120  1.00  0.00    -0.270 C  
HETATM    8  C   UNL     1      -9.183  13.676  67.629  1.00  0.00    -0.213 C  
HETATM    9  C   UNL     1      -8.064  14.491  66.985  1.00  0.00    -0.125 C  
HETATM   10  C   UNL     1      -8.314  15.971  67.125  1.00  0.00    -0.228 A  
HETATM   11  C   UNL     1      -7.257  16.873  66.911  1.00  0.00    -0.251 A  
HETATM   12  C   UNL     1      -7.433  18.264  67.034  1.00  0.00    -0.229 A  
HETATM   13  C   UNL     1      -8.713  18.732  67.404  1.00  0.00    -0.273 A  
HETATM   14  H   UNL     1     -11.604  15.952  67.855  1.00  0.00     0.000 HD 
HETATM   15  N   UNL     1      -9.022  20.168  67.573  1.00  0.00    -0.341 N  
HETATM   16  N   UNL     1     -10.701  15.607  67.527  1.00  0.00    -0.298 NA 
HETATM   17  C   UNL     1      -9.771  17.826  67.609  1.00  0.00    -0.282 A  
HETATM   18  O   UNL     1     -10.165  20.471  67.946  1.00  0.00    -0.310 OA 
HETATM   19  O   UNL     1      -8.136  21.002  67.341  1.00  0.00    -0.224 OA 
HETATM   20  C   UNL     1      -9.590  16.450  67.449  1.00  0.00    -0.231 A  
BRANCH  12  21
HETATM   21  C   UNL     1      -6.240  19.139  66.747  1.00  0.00    -0.177 C  
HETATM   22  O   UNL     1      -5.703  19.635  67.961  1.00  0.00    -0.200 OA 
HETATM   23  H   UNL     1      -4.951  20.186  67.780  1.00  0.00     0.000 HD 
ENDBRANCH  12  21
ENDBRANCH   6   7
ENDBRANCH   4   6
ENDBRANCH   2   4
TORSDOF 4
ENDMDL
MODEL      104
REMARK 921   NORMALIZED FREE ENERGY PREDICTED BY IDOCK:   -4.46 KCAL/MOL
REMARK 922        TOTAL FREE ENERGY PREDICTED BY IDOCK:   -5.95 KCAL/MOL
REMARK 923 INTER-LIGAND FREE ENERGY PREDICTED BY IDOCK:   -5.44 KCAL/MOL
REMARK 924 INTRA-LIGAND FREE ENERGY PREDICTED BY IDOCK:   -0.51 KCAL/MOL
REMARK 927      BINDING AFFINITY PREDICTED BY RF-SCORE:    0.00 PKD
ROOT
HETATM    1  C   UNL     1     -10.585  17.364  67.812  1.00  0.00    -0.371 C  
HETATM    2  C   UNL     1     -10.569  16.391  66.630  1.00  0.00    -0.239 C  
HETATM    3  C   UNL     1      -9.124  15.982  66.328  1.00  0.00    -0.379 C  
ENDROOT
BRANCH   2   4
HETATM    4  N   UNL     1     -11.399  15.239  66.984  1.00  0.00    -0.282 NA 
HETATM    5  H   UNL     1     -12.282  15.548  67.388  1.00  0.00     0.000 HD 
BRANCH   4   6
HETATM    6  C   UNL     1     -11.643  14.302  65.881  1.00  0.00    -0.358 C  
BRANCH   6   7
HETATM    7  C   UNL     1     -11.713  12.849  66.410  1.00  0.00    -0.395 C  
HETATM    8  C   UNL     1     -11.548  12.801  67.928  1.00  0.00    -0.400 C  
HETATM    9  C   UNL     1     -11.776  11.365  68.395  1.00  0.00    -0.373 C  
HETATM   10  C   UNL     1     -10.959  10.390  67.586  1.00  0.00    -0.374 A  
HETATM   11  C   UNL     1     -10.765   9.085  68.071  1.00  0.00    -0.184 A  
HETATM   12  C   UNL     1     -10.007   8.136  67.359  1.00  0.00    -0.271 A  
HETATM   13  C   UNL     1      -9.423   8.544  66.141  1.00  0.00    -0.217 A  
HETATM   14  H   UNL     1     -10.220  12.306  64.915  1.00  0.00     0.000 HD 
HETATM   15  N   UNL     1      -8.599   7.644  65.306  1.00  0.00    -0.079 N  
HETATM   16  N   UNL     1     -10.698  12.003  65.764  1.00  0.00    -0.269 NA 
HETATM   17  C   UNL     1      -9.627   9.850  65.654  1.00  0.00    -0.320 A  
HETATM   18  O   UNL     1      -8.093   8.114  64.277  1.00  0.00    -0.149 OA 
HETATM   19  O   UNL     1      -8.447   6.467  65.666  1.00  0.00    -0.144 OA 
HETATM   20  C   UNL     1     -10.411  10.770  66.354  1.00  0.00    -0.233 A  
BRANCH  12  21
HETATM   21  C   UNL     1      -9.894   6.756  67.956  1.00  0.00    -0.136 C  
HETATM   22  O   UNL     1     -10.665   5.839  67.199  1.00  0.00    -0.264 OA 
HETATM   23  H   UNL     1     -10.593   4.970  67.575  1.00  0.00     0.000 HD 
ENDBRANCH  12  21
ENDBRANCH   6   7
ENDBRANCH   4   6
ENDBRANCH   2   4
TORSDOF 4
ENDMDL
MODEL      105
REMARK 921   NORMALIZED FREE ENERGY PREDICTED BY IDOCK:   -4.46 KCAL/MOL
REMARK 922        TOTAL FREE ENERGY PREDICTED BY IDOCK:   -5.95 KCAL/MOL
REMARK 923 INTER-LIGAND FREE ENERGY PREDICTED BY IDOCK:   -5.64 KCAL/MOL
REMARK 924 INTRA-LIGAND FREE ENERGY PREDICTED BY IDOCK:   -0.30 KCAL/MOL
REMARK 927      BINDING AFFINITY PREDICTED BY RF-SCORE:    0.00 PKD
ROOT
HETATM    1  C   UNL     1     -14.129  15.761  72.712  1.00  0.00    -0.425 C  
HETATM    2  C   UNL     1     -12.905  15.364  71.884  1.00  0.00    -0.396 C  
HETATM    3  C   UNL     1     -11.787  14.900  72.823  1.00  0.00    -0.300 C  
ENDROOT
BRANCH   2   4
HETATM    4  N   UNL     1     -13.310  14.308  70.956  1.00  0.00    -0.313 NA 
HETATM    5  H   UNL     1     -13.205  14.623  69.992  1.00  0.00     0.000 HD 
BRANCH   4   6
HETATM    6  C   UNL     1     -12.622  13.027  71.152  1.00  0.00    -0.297 C  
BRANCH   6   7
HETATM    7  C   UNL     1     -12.378  12.329  69.791  1.00  0.00    -0.016 C  
HETATM    8  C   UNL     1     -11.004  11.665  69.745  1.00  0.00    -0.001 C  
HETATM    9  C   UNL     1     -10.891  10.875  68.443  1.00  0.00    -0.266 C  
HETATM   10  C   UNL     1     -11.286  11.717  67.256  1.00  0.00    -0.364 A  
HETATM   11  C   UNL     1     -10.929  11.297  65.963  1.00  0.00    -0.237 A  
HETATM   12  C   UNL     1     -11.267  12.047  64.821  1.00  0.00    -0.373 A  
HETATM   13  C   UNL     1     -11.963  13.259  65.016  1.00  0.00    -0.371 A  
HETATM   14  H   UNL     1     -12.965  14.190  68.813  1.00  0.00     0.000 HD 
HETATM   15  N   UNL     1     -12.367  14.139  63.898  1.00  0.00    -0.334 N  
HETATM   16  N   UNL     1     -12.518  13.282  68.680  1.00  0.00     0.156 NA 
HETATM   17  C   UNL     1     -12.327  13.673  66.312  1.00  0.00    -0.464 A  
HETATM   18  O   UNL     1     -12.934  15.205  64.179  1.00  0.00    -0.477 OA 
HETATM   19  O   UNL     1     -12.123  13.781  62.737  1.00  0.00    -0.006 OA 
HETATM   20  C   UNL     1     -12.016  12.900  67.433  1.00  0.00    -0.300 A  
BRANCH  12  21
HETATM   21  C   UNL     1     -10.864  11.483  63.482  1.00  0.00    -0.398 C  
HETATM   22  O   UNL     1     -10.278  10.205  63.654  1.00  0.00    -0.462 OA 
HETATM   23  H   UNL     1     -10.024   9.850  62.810  1.00  0.00     0.000 HD 
ENDBRANCH  12  21
ENDBRANCH   6   7
ENDBRANCH   4   6
ENDBRANCH   2   4
TORSDOF 4
ENDMDL
MODEL      106
REMARK 921   NORMALIZED FREE ENERGY PREDICTED BY IDOCK:   -4.44 KCAL/MOL
REMARK 922        TOTAL FREE ENERGY PREDICTED BY IDOCK:   -5.92 KCAL/MOL
REMARK 923 INTER-LIGAND FREE ENERGY PREDICTED BY IDOCK:   -5.50 KCAL/MOL
REMARK 924 INTRA-LIGAND FREE ENERGY PREDICTED BY IDOCK:   -0.42 KCAL/MOL
REMARK 927      BINDING AFFINITY PREDICTED BY RF-SCORE:    0.00 PKD
ROOT
HETATM    1  C   UNL     1     -10.846   6.855  70.007  1.00  0.00    -0.299 C  
HETATM    2  C   UNL     1     -10.341   7.522  68.726  1.00  0.00    -0.200 C  
HETATM    3  C   UNL     1     -10.916   6.787  67.510  1.00  0.00    -0.375 C  
ENDROOT
BRANCH   2   4
HETATM    4  N   UNL     1     -10.749   8.926  68.756  1.00  0.00    -0.393 NA 
HETATM    5  H   UNL     1     -11.093   9.175  69.683  1.00  0.00     0.000 HD 
BRANCH   4   6
HETATM    6  C   UNL     1      -9.712   9.872  68.327  1.00  0.00    -0.144 C  
BRANCH   6   7
HETATM    7  C   UNL     1     -10.299  11.299  68.205  1.00  0.00    -0.186 C  
HETATM    8  C   UNL     1     -10.994  11.501  66.861  1.00  0.00    -0.350 C  
HETATM    9  C   UNL     1     -11.674  12.869  66.867  1.00  0.00    -0.445 C  
HETATM   10  C   UNL     1     -10.725  13.950  67.317  1.00  0.00    -0.286 A  
HETATM   11  C   UNL     1     -11.044  15.296  67.069  1.00  0.00    -0.305 A  
HETATM   12  C   UNL     1     -10.191  16.345  67.462  1.00  0.00    -0.273 A  
HETATM   13  C   UNL     1      -8.981  16.000  68.102  1.00  0.00    -0.183 A  
HETATM   14  H   UNL     1      -8.347  12.075  68.798  1.00  0.00     0.000 HD 
HETATM   15  N   UNL     1      -8.000  17.009  68.555  1.00  0.00    -0.239 N  
HETATM   16  N   UNL     1      -9.252  12.316  68.392  1.00  0.00    -0.178 NA 
HETATM   17  C   UNL     1      -8.669  14.651  68.357  1.00  0.00    -0.175 A  
HETATM   18  O   UNL     1      -6.946  16.600  69.065  1.00  0.00    -0.188 OA 
HETATM   19  O   UNL     1      -8.265  18.211  68.406  1.00  0.00    -0.288 OA 
HETATM   20  C   UNL     1      -9.542  13.623  67.993  1.00  0.00    -0.216 A  
BRANCH  12  21
HETATM   21  C   UNL     1     -10.651  17.752  67.175  1.00  0.00    -0.287 C  
HETATM   22  O   UNL     1     -10.052  18.221  65.980  1.00  0.00    -0.493 OA 
HETATM   23  H   UNL     1     -10.341  19.107  65.800  1.00  0.00     0.000 HD 
ENDBRANCH  12  21
ENDBRANCH   6   7
ENDBRANCH   4   6
ENDBRANCH   2   4
TORSDOF 4
ENDMDL
MODEL      107
REMARK 921   NORMALIZED FREE ENERGY PREDICTED BY IDOCK:   -4.42 KCAL/MOL
REMARK 922        TOTAL FREE ENERGY PREDICTED BY IDOCK:   -5.90 KCAL/MOL
REMARK 923 INTER-LIGAND FREE ENERGY PREDICTED BY IDOCK:   -5.29 KCAL/MOL
REMARK 924 INTRA-LIGAND FREE ENERGY PREDICTED BY IDOCK:   -0.61 KCAL/MOL
REMARK 927      BINDING AFFINITY PREDICTED BY RF-SCORE:    0.00 PKD
ROOT
HETATM    1  C   UNL     1     -12.424  12.180  63.446  1.00  0.00    -0.625 C  
HETATM    2  C   UNL     1     -11.659  13.468  63.760  1.00  0.00    -0.243 C  
HETATM    3  C   UNL     1     -12.505  14.350  64.683  1.00  0.00    -0.364 C  
ENDROOT
BRANCH   2   4
HETATM    4  N   UNL     1     -10.386  13.097  64.378  1.00  0.00    -0.530 NA 
HETATM    5  H   UNL     1     -10.505  12.959  65.381  1.00  0.00     0.000 HD 
BRANCH   4   6
HETATM    6  C   UNL     1      -9.733  11.929  63.776  1.00  0.00    -0.209 C  
BRANCH   6   7
HETATM    7  C   UNL     1      -9.289  10.931  64.873  1.00  0.00    -0.224 C  
HETATM    8  C   UNL     1      -9.277   9.497  64.349  1.00  0.00    -0.192 C  
HETATM    9  C   UNL     1      -8.692   8.591  65.430  1.00  0.00    -0.194 C  
HETATM   10  C   UNL     1      -9.355   8.828  66.762  1.00  0.00    -0.229 A  
HETATM   11  C   UNL     1      -9.205   7.878  67.786  1.00  0.00    -0.144 A  
HETATM   12  C   UNL     1      -9.807   8.046  69.048  1.00  0.00    -0.178 A  
HETATM   13  C   UNL     1     -10.593   9.201  69.250  1.00  0.00    -0.216 A  
HETATM   14  H   UNL     1     -10.777  11.830  66.192  1.00  0.00     0.000 HD 
HETATM   15  N   UNL     1     -11.282   9.488  70.526  1.00  0.00    -0.268 N  
HETATM   16  N   UNL     1     -10.156  11.031  66.057  1.00  0.00    -0.238 NA 
HETATM   17  C   UNL     1     -10.733  10.156  68.224  1.00  0.00    -0.277 A  
HETATM   18  O   UNL     1     -11.986  10.507  70.585  1.00  0.00    -0.297 OA 
HETATM   19  O   UNL     1     -11.133   8.705  71.475  1.00  0.00    -0.249 OA 
HETATM   20  C   UNL     1     -10.100   9.992  66.990  1.00  0.00    -0.219 A  
BRANCH  12  21
HETATM   21  C   UNL     1      -9.550   6.980  70.083  1.00  0.00    -0.164 C  
HETATM   22  O   UNL     1     -10.647   6.085  70.135  1.00  0.00    -0.227 OA 
HETATM   23  H   UNL     1     -10.486   5.413  70.786  1.00  0.00     0.000 HD 
ENDBRANCH  12  21
ENDBRANCH   6   7
ENDBRANCH   4   6
ENDBRANCH   2   4
TORSDOF 4
ENDMDL
MODEL      108
REMARK 921   NORMALIZED FREE ENERGY PREDICTED BY IDOCK:   -4.39 KCAL/MOL
REMARK 922        TOTAL FREE ENERGY PREDICTED BY IDOCK:   -5.86 KCAL/MOL
REMARK 923 INTER-LIGAND FREE ENERGY PREDICTED BY IDOCK:   -5.61 KCAL/MOL
REMARK 924 INTRA-LIGAND FREE ENERGY PREDICTED BY IDOCK:   -0.25 KCAL/MOL
REMARK 927      BINDING AFFINITY PREDICTED BY RF-SCORE:    0.00 PKD
ROOT
HETATM    1  C   UNL     1      -9.089  10.574  65.339  1.00  0.00    -0.215 C  
HETATM    2  C   UNL     1     -10.459  11.104  65.770  1.00  0.00    -0.246 C  
HETATM    3  C   UNL     1     -10.776  10.601  67.182  1.00  0.00    -0.327 C  
ENDROOT
BRANCH   2   4
HETATM    4  N   UNL     1     -10.418  12.565  65.709  1.00  0.00    -0.265 NA 
HETATM    5  H   UNL     1     -10.500  12.881  64.743  1.00  0.00     0.000 HD 
BRANCH   4   6
HETATM    6  C   UNL     1     -11.412  13.238  66.552  1.00  0.00    -0.337 C  
BRANCH   6   7
HETATM    7  C   UNL     1     -11.130  14.760  66.611  1.00  0.00    -0.333 C  
HETATM    8  C   UNL     1     -10.989  15.354  65.212  1.00  0.00    -0.397 C  
HETATM    9  C   UNL     1     -10.862  16.870  65.339  1.00  0.00    -0.113 C  
HETATM   10  C   UNL     1      -9.813  17.249  66.353  1.00  0.00    -0.310 A  
HETATM   11  C   UNL     1      -9.311  18.561  66.369  1.00  0.00    -0.285 A  
HETATM   12  C   UNL     1      -8.327  18.967  67.290  1.00  0.00    -0.296 A  
HETATM   13  C   UNL     1      -7.838  18.000  68.195  1.00  0.00    -0.272 A  
HETATM   14  H   UNL     1      -9.519  14.335  68.020  1.00  0.00     0.000 HD 
HETATM   15  N   UNL     1      -6.800  18.300  69.204  1.00  0.00    -0.261 N  
HETATM   16  N   UNL     1      -9.924  15.041  67.405  1.00  0.00    -0.226 NA 
HETATM   17  C   UNL     1      -8.350  16.688  68.182  1.00  0.00    -0.193 A  
HETATM   18  O   UNL     1      -6.406  17.368  69.921  1.00  0.00    -0.202 OA 
HETATM   19  O   UNL     1      -6.368  19.458  69.292  1.00  0.00    -0.274 OA 
HETATM   20  C   UNL     1      -9.352  16.310  67.285  1.00  0.00    -0.224 A  
BRANCH  12  21
HETATM   21  C   UNL     1      -7.886  20.408  67.239  1.00  0.00    -0.334 C  
HETATM   22  O   UNL     1      -7.422  20.724  65.939  1.00  0.00    -0.502 OA 
HETATM   23  H   UNL     1      -7.145  21.632  65.907  1.00  0.00     0.000 HD 
ENDBRANCH  12  21
ENDBRANCH   6   7
ENDBRANCH   4   6
ENDBRANCH   2   4
TORSDOF 4
ENDMDL
MODEL      109
REMARK 921   NORMALIZED FREE ENERGY PREDICTED BY IDOCK:   -4.38 KCAL/MOL
REMARK 922        TOTAL FREE ENERGY PREDICTED BY IDOCK:   -5.84 KCAL/MOL
REMARK 923 INTER-LIGAND FREE ENERGY PREDICTED BY IDOCK:   -5.37 KCAL/MOL
REMARK 924 INTRA-LIGAND FREE ENERGY PREDICTED BY IDOCK:   -0.48 KCAL/MOL
REMARK 927      BINDING AFFINITY PREDICTED BY RF-SCORE:    0.00 PKD
ROOT
HETATM    1  C   UNL     1      -7.479  10.071  64.578  1.00  0.00    -0.142 C  
HETATM    2  C   UNL     1      -8.743  10.341  63.760  1.00  0.00    -0.205 C  
HETATM    3  C   UNL     1      -8.890   9.264  62.681  1.00  0.00    -0.210 C  
ENDROOT
BRANCH   2   4
HETATM    4  N   UNL     1      -9.882  10.350  64.679  1.00  0.00    -0.322 NA 
HETATM    5  H   UNL     1      -9.949   9.458  65.169  1.00  0.00     0.000 HD 
BRANCH   4   6
HETATM    6  C   UNL     1      -9.884  11.461  65.637  1.00  0.00    -0.235 C  
BRANCH   6   7
HETATM    7  C   UNL     1     -10.664  11.071  66.916  1.00  0.00    -0.274 C  
HETATM    8  C   UNL     1     -10.443  12.088  68.034  1.00  0.00    -0.224 C  
HETATM    9  C   UNL     1     -11.352  11.725  69.206  1.00  0.00    -0.348 C  
HETATM   10  C   UNL     1     -11.223  10.268  69.569  1.00  0.00    -0.314 A  
HETATM   11  C   UNL     1     -11.705   9.821  70.812  1.00  0.00    -0.407 A  
HETATM   12  C   UNL     1     -11.605   8.473  71.204  1.00  0.00    -0.325 A  
HETATM   13  C   UNL     1     -10.980   7.575  70.312  1.00  0.00    -0.250 A  
HETATM   14  H   UNL     1      -9.782   9.082  66.764  1.00  0.00     0.000 HD 
HETATM   15  N   UNL     1     -10.808   6.138  70.611  1.00  0.00    -0.272 N  
HETATM   16  N   UNL     1     -10.287   9.725  67.373  1.00  0.00    -0.223 NA 
HETATM   17  C   UNL     1     -10.507   8.025  69.063  1.00  0.00    -0.212 A  
HETATM   18  O   UNL     1     -10.204   5.444  69.780  1.00  0.00    -0.229 OA 
HETATM   19  O   UNL     1     -11.266   5.689  71.671  1.00  0.00    -0.231 OA 
HETATM   20  C   UNL     1     -10.645   9.359  68.673  1.00  0.00    -0.200 A  
BRANCH  12  21
HETATM   21  C   UNL     1     -12.186   8.099  72.544  1.00  0.00    -0.278 C  
HETATM   22  O   UNL     1     -11.143   7.806  73.457  1.00  0.00    -0.464 OA 
HETATM   23  H   UNL     1     -11.509   7.570  74.301  1.00  0.00     0.000 HD 
ENDBRANCH  12  21
ENDBRANCH   6   7
ENDBRANCH   4   6
ENDBRANCH   2   4
TORSDOF 4
ENDMDL
MODEL      110
REMARK 921   NORMALIZED FREE ENERGY PREDICTED BY IDOCK:   -4.37 KCAL/MOL
REMARK 922        TOTAL FREE ENERGY PREDICTED BY IDOCK:   -5.84 KCAL/MOL
REMARK 923 INTER-LIGAND FREE ENERGY PREDICTED BY IDOCK:   -5.33 KCAL/MOL
REMARK 924 INTRA-LIGAND FREE ENERGY PREDICTED BY IDOCK:   -0.51 KCAL/MOL
REMARK 927      BINDING AFFINITY PREDICTED BY RF-SCORE:    0.00 PKD
ROOT
HETATM    1  C   UNL     1      -8.478   5.283  64.499  1.00  0.00    -0.133 C  
HETATM    2  C   UNL     1      -8.357   5.929  65.881  1.00  0.00    -0.136 C  
HETATM    3  C   UNL     1      -6.980   6.588  66.014  1.00  0.00    -0.062 C  
ENDROOT
BRANCH   2   4
HETATM    4  N   UNL     1      -9.441   6.901  66.022  1.00  0.00    -0.394 NA 
HETATM    5  H   UNL     1      -9.889   6.803  66.933  1.00  0.00     0.000 HD 
BRANCH   4   6
HETATM    6  C   UNL     1      -9.043   8.295  65.797  1.00  0.00    -0.114 C  
BRANCH   6   7
HETATM    7  C   UNL     1      -9.417   9.169  67.019  1.00  0.00    -0.154 C  
HETATM    8  C   UNL     1     -10.408   8.453  67.933  1.00  0.00    -0.279 C  
HETATM    9  C   UNL     1     -10.616   9.303  69.184  1.00  0.00    -0.228 C  
HETATM   10  C   UNL     1     -10.924  10.735  68.828  1.00  0.00    -0.295 A  
HETATM   11  C   UNL     1     -11.476  11.585  69.802  1.00  0.00    -0.362 A  
HETATM   12  C   UNL     1     -11.787  12.929  69.522  1.00  0.00    -0.383 A  
HETATM   13  C   UNL     1     -11.546  13.398  68.213  1.00  0.00    -0.344 A  
HETATM   14  H   UNL     1      -9.856  10.796  65.632  1.00  0.00     0.000 HD 
HETATM   15  N   UNL     1     -11.838  14.786  67.794  1.00  0.00    -0.338 N  
HETATM   16  N   UNL     1      -9.967  10.465  66.591  1.00  0.00    -0.202 NA 
HETATM   17  C   UNL     1     -10.985  12.547  67.242  1.00  0.00    -0.300 A  
HETATM   18  O   UNL     1     -11.633  15.085  66.608  1.00  0.00    -0.311 OA 
HETATM   19  O   UNL     1     -12.274  15.586  68.634  1.00  0.00    -0.178 OA 
HETATM   20  C   UNL     1     -10.648  11.225  67.545  1.00  0.00    -0.218 A  
BRANCH  12  21
HETATM   21  C   UNL     1     -12.343  13.758  70.652  1.00  0.00    -0.375 C  
HETATM   22  O   UNL     1     -11.325  14.584  71.189  1.00  0.00    -0.521 OA 
HETATM   23  H   UNL     1     -11.675  15.107  71.901  1.00  0.00     0.000 HD 
ENDBRANCH  12  21
ENDBRANCH   6   7
ENDBRANCH   4   6
ENDBRANCH   2   4
TORSDOF 4
ENDMDL
MODEL      111
REMARK 921   NORMALIZED FREE ENERGY PREDICTED BY IDOCK:   -4.37 KCAL/MOL
REMARK 922        TOTAL FREE ENERGY PREDICTED BY IDOCK:   -5.83 KCAL/MOL
REMARK 923 INTER-LIGAND FREE ENERGY PREDICTED BY IDOCK:   -5.50 KCAL/MOL
REMARK 924 INTRA-LIGAND FREE ENERGY PREDICTED BY IDOCK:   -0.33 KCAL/MOL
REMARK 927      BINDING AFFINITY PREDICTED BY RF-SCORE:    0.00 PKD
ROOT
HETATM    1  C   UNL     1      -9.568   4.575  69.259  1.00  0.00    -0.258 C  
HETATM    2  C   UNL     1     -10.166   5.694  70.115  1.00  0.00    -0.250 C  
HETATM    3  C   UNL     1      -9.798   5.460  71.584  1.00  0.00    -0.223 C  
ENDROOT
BRANCH   2   4
HETATM    4  N   UNL     1      -9.646   6.968  69.620  1.00  0.00    -0.151 NA 
HETATM    5  H   UNL     1      -9.072   6.819  68.790  1.00  0.00     0.000 HD 
BRANCH   4   6
HETATM    6  C   UNL     1     -10.671   7.984  69.355  1.00  0.00    -0.159 C  
BRANCH   6   7
HETATM    7  C   UNL     1     -10.042   9.224  68.673  1.00  0.00    -0.189 C  
HETATM    8  C   UNL     1      -9.284  10.087  69.679  1.00  0.00    -0.236 C  
HETATM    9  C   UNL     1      -8.570  11.202  68.919  1.00  0.00    -0.092 C  
HETATM   10  C   UNL     1      -9.508  11.912  67.977  1.00  0.00    -0.197 A  
HETATM   11  C   UNL     1      -9.143  13.163  67.451  1.00  0.00    -0.208 A  
HETATM   12  C   UNL     1      -9.983  13.871  66.572  1.00  0.00    -0.288 A  
HETATM   13  C   UNL     1     -11.228  13.291  66.246  1.00  0.00    -0.299 A  
HETATM   14  H   UNL     1     -11.996   9.645  67.797  1.00  0.00     0.000 HD 
HETATM   15  N   UNL     1     -12.201  13.939  65.341  1.00  0.00    -0.417 N  
HETATM   16  N   UNL     1     -11.068  10.025  67.989  1.00  0.00    -0.245 NA 
HETATM   17  C   UNL     1     -11.587  12.033  66.767  1.00  0.00    -0.391 A  
HETATM   18  O   UNL     1     -13.286  13.369  65.156  1.00  0.00    -0.691 OA 
HETATM   19  O   UNL     1     -11.898  15.018  64.810  1.00  0.00    -0.387 OA 
HETATM   20  C   UNL     1     -10.727  11.326  67.611  1.00  0.00    -0.226 A  
BRANCH  12  21
HETATM   21  C   UNL     1      -9.475  15.188  66.042  1.00  0.00    -0.323 C  
HETATM   22  O   UNL     1     -10.234  16.252  66.587  1.00  0.00    -0.268 OA 
HETATM   23  H   UNL     1      -9.913  17.082  66.253  1.00  0.00     0.000 HD 
ENDBRANCH  12  21
ENDBRANCH   6   7
ENDBRANCH   4   6
ENDBRANCH   2   4
TORSDOF 4
ENDMDL
MODEL      112
REMARK 921   NORMALIZED FREE ENERGY PREDICTED BY IDOCK:   -4.35 KCAL/MOL
REMARK 922        TOTAL FREE ENERGY PREDICTED BY IDOCK:   -5.81 KCAL/MOL
REMARK 923 INTER-LIGAND FREE ENERGY PREDICTED BY IDOCK:   -5.36 KCAL/MOL
REMARK 924 INTRA-LIGAND FREE ENERGY PREDICTED BY IDOCK:   -0.45 KCAL/MOL
REMARK 927      BINDING AFFINITY PREDICTED BY RF-SCORE:    0.00 PKD
ROOT
HETATM    1  C   UNL     1      -8.296   7.032  68.567  1.00  0.00    -0.121 C  
HETATM    2  C   UNL     1      -6.830   7.368  68.284  1.00  0.00    -0.063 C  
HETATM    3  C   UNL     1      -6.022   6.071  68.186  1.00  0.00    -0.016 C  
ENDROOT
BRANCH   2   4
HETATM    4  N   UNL     1      -6.775   8.140  67.043  1.00  0.00    -0.064 NA 
HETATM    5  H   UNL     1      -5.839   8.520  66.903  1.00  0.00     0.000 HD 
BRANCH   4   6
HETATM    6  C   UNL     1      -7.212   7.407  65.849  1.00  0.00    -0.066 C  
BRANCH   6   7
HETATM    7  C   UNL     1      -8.271   8.223  65.070  1.00  0.00    -0.158 C  
HETATM    8  C   UNL     1      -7.658   8.912  63.853  1.00  0.00    -0.121 C  
HETATM    9  C   UNL     1      -8.779   9.572  63.053  1.00  0.00    -0.233 C  
HETATM   10  C   UNL     1      -9.665  10.408  63.939  1.00  0.00    -0.367 A  
HETATM   11  C   UNL     1     -10.529  11.353  63.358  1.00  0.00    -0.452 A  
HETATM   12  C   UNL     1     -11.373  12.164  64.138  1.00  0.00    -0.449 A  
HETATM   13  C   UNL     1     -11.312  12.015  65.541  1.00  0.00    -0.328 A  
HETATM   14  H   UNL     1      -8.835   9.161  66.958  1.00  0.00     0.000 HD 
HETATM   15  N   UNL     1     -12.142  12.813  66.468  1.00  0.00    -0.347 N  
HETATM   16  N   UNL     1      -8.917   9.216  65.942  1.00  0.00    -0.175 NA 
HETATM   17  C   UNL     1     -10.453  11.061  66.120  1.00  0.00    -0.301 A  
HETATM   18  O   UNL     1     -11.979  12.638  67.684  1.00  0.00    -0.354 OA 
HETATM   19  O   UNL     1     -12.958  13.619  65.998  1.00  0.00    -0.294 OA 
HETATM   20  C   UNL     1      -9.646  10.238  65.330  1.00  0.00    -0.264 A  
BRANCH  12  21
HETATM   21  C   UNL     1     -12.283  13.118  63.407  1.00  0.00    -0.444 C  
HETATM   22  O   UNL     1     -11.854  14.451  63.619  1.00  0.00    -0.740 OA 
HETATM   23  H   UNL     1     -12.427  15.052  63.158  1.00  0.00     0.000 HD 
ENDBRANCH  12  21
ENDBRANCH   6   7
ENDBRANCH   4   6
ENDBRANCH   2   4
TORSDOF 4
ENDMDL
MODEL      113
REMARK 921   NORMALIZED FREE ENERGY PREDICTED BY IDOCK:   -4.33 KCAL/MOL
REMARK 922        TOTAL FREE ENERGY PREDICTED BY IDOCK:   -5.79 KCAL/MOL
REMARK 923 INTER-LIGAND FREE ENERGY PREDICTED BY IDOCK:   -5.25 KCAL/MOL
REMARK 924 INTRA-LIGAND FREE ENERGY PREDICTED BY IDOCK:   -0.53 KCAL/MOL
REMARK 927      BINDING AFFINITY PREDICTED BY RF-SCORE:    0.00 PKD
ROOT
HETATM    1  C   UNL     1     -10.377   9.525  67.312  1.00  0.00    -0.319 C  
HETATM    2  C   UNL     1      -9.525  10.627  66.676  1.00  0.00    -0.167 C  
HETATM    3  C   UNL     1     -10.306  11.270  65.526  1.00  0.00    -0.321 C  
ENDROOT
BRANCH   2   4
HETATM    4  N   UNL     1      -9.192  11.598  67.718  1.00  0.00    -0.173 NA 
HETATM    5  H   UNL     1      -9.533  11.278  68.624  1.00  0.00     0.000 HD 
BRANCH   4   6
HETATM    6  C   UNL     1      -7.767  11.939  67.800  1.00  0.00    -0.136 C  
BRANCH   6   7
HETATM    7  C   UNL     1      -7.577  13.476  67.779  1.00  0.00    -0.162 C  
HETATM    8  C   UNL     1      -7.498  14.046  69.193  1.00  0.00    -0.005 C  
HETATM    9  C   UNL     1      -7.163  15.533  69.098  1.00  0.00    -0.174 C  
HETATM   10  C   UNL     1      -8.071  16.239  68.124  1.00  0.00    -0.158 A  
HETATM   11  C   UNL     1      -8.152  17.641  68.148  1.00  0.00    -0.252 A  
HETATM   12  C   UNL     1      -8.988  18.351  67.265  1.00  0.00    -0.265 A  
HETATM   13  C   UNL     1      -9.768  17.602  66.357  1.00  0.00    -0.294 A  
HETATM   14  H   UNL     1      -9.273  13.597  66.411  1.00  0.00     0.000 HD 
HETATM   15  N   UNL     1     -10.689  18.229  65.386  1.00  0.00    -0.062 N  
HETATM   16  N   UNL     1      -8.659  14.130  67.027  1.00  0.00    -0.209 NA 
HETATM   17  C   UNL     1      -9.677  16.197  66.329  1.00  0.00    -0.332 A  
HETATM   18  O   UNL     1     -11.363  17.480  64.664  1.00  0.00    -0.810 OA 
HETATM   19  O   UNL     1     -10.752  19.466  65.334  1.00  0.00    -0.468 OA 
HETATM   20  C   UNL     1      -8.816  15.509  67.188  1.00  0.00    -0.212 A  
BRANCH  12  21
HETATM   21  C   UNL     1      -8.970  19.855  67.356  1.00  0.00    -0.337 C  
HETATM   22  O   UNL     1     -10.153  20.314  67.985  1.00  0.00    -0.397 OA 
HETATM   23  H   UNL     1     -10.142  21.262  68.043  1.00  0.00     0.000 HD 
ENDBRANCH  12  21
ENDBRANCH   6   7
ENDBRANCH   4   6
ENDBRANCH   2   4
TORSDOF 4
ENDMDL
MODEL      114
REMARK 921   NORMALIZED FREE ENERGY PREDICTED BY IDOCK:   -4.32 KCAL/MOL
REMARK 922        TOTAL FREE ENERGY PREDICTED BY IDOCK:   -5.77 KCAL/MOL
REMARK 923 INTER-LIGAND FREE ENERGY PREDICTED BY IDOCK:   -5.11 KCAL/MOL
REMARK 924 INTRA-LIGAND FREE ENERGY PREDICTED BY IDOCK:   -0.66 KCAL/MOL
REMARK 927      BINDING AFFINITY PREDICTED BY RF-SCORE:    0.00 PKD
ROOT
HETATM    1  C   UNL     1     -11.261   4.861  73.329  1.00  0.00    -0.423 C  
HETATM    2  C   UNL     1     -10.145   5.908  73.295  1.00  0.00    -0.191 C  
HETATM    3  C   UNL     1      -8.912   5.312  72.606  1.00  0.00    -0.135 C  
ENDROOT
BRANCH   2   4
HETATM    4  N   UNL     1     -10.649   7.083  72.586  1.00  0.00    -0.229 NA 
HETATM    5  H   UNL     1      -9.939   7.446  71.950  1.00  0.00     0.000 HD 
BRANCH   4   6
HETATM    6  C   UNL     1     -11.913   6.869  71.871  1.00  0.00    -0.327 C  
BRANCH   6   7
HETATM    7  C   UNL     1     -11.771   7.281  70.385  1.00  0.00    -0.182 C  
HETATM    8  C   UNL     1     -10.878   6.307  69.621  1.00  0.00    -0.403 C  
HETATM    9  C   UNL     1     -10.902   6.685  68.142  1.00  0.00    -0.334 C  
HETATM   10  C   UNL     1     -10.636   8.156  67.948  1.00  0.00    -0.212 A  
HETATM   11  C   UNL     1     -10.281   8.630  66.673  1.00  0.00    -0.343 A  
HETATM   12  C   UNL     1     -10.015   9.993  66.437  1.00  0.00    -0.300 A  
HETATM   13  C   UNL     1     -10.096  10.876  67.536  1.00  0.00    -0.184 A  
HETATM   14  H   UNL     1     -11.240   9.285  71.065  1.00  0.00     0.000 HD 
HETATM   15  N   UNL     1      -9.833  12.326  67.418  1.00  0.00    -0.196 N  
HETATM   16  N   UNL     1     -11.246   8.650  70.267  1.00  0.00    -0.226 NA 
HETATM   17  C   UNL     1     -10.461  10.398  68.809  1.00  0.00    -0.219 A  
HETATM   18  O   UNL     1      -9.885  13.007  68.453  1.00  0.00    -0.228 OA 
HETATM   19  O   UNL     1      -9.571  12.798  66.303  1.00  0.00    -0.257 OA 
HETATM   20  C   UNL     1     -10.756   9.049  69.020  1.00  0.00    -0.141 A  
BRANCH  12  21
HETATM   21  C   UNL     1      -9.678  10.395  65.024  1.00  0.00    -0.300 C  
HETATM   22  O   UNL     1      -8.285  10.622  64.907  1.00  0.00    -0.278 OA 
HETATM   23  H   UNL     1      -8.073  10.876  64.017  1.00  0.00     0.000 HD 
ENDBRANCH  12  21
ENDBRANCH   6   7
ENDBRANCH   4   6
ENDBRANCH   2   4
TORSDOF 4
ENDMDL
MODEL      115
REMARK 921   NORMALIZED FREE ENERGY PREDICTED BY IDOCK:   -4.28 KCAL/MOL
REMARK 922        TOTAL FREE ENERGY PREDICTED BY IDOCK:   -5.73 KCAL/MOL
REMARK 923 INTER-LIGAND FREE ENERGY PREDICTED BY IDOCK:   -5.22 KCAL/MOL
REMARK 924 INTRA-LIGAND FREE ENERGY PREDICTED BY IDOCK:   -0.51 KCAL/MOL
REMARK 927      BINDING AFFINITY PREDICTED BY RF-SCORE:    0.00 PKD
ROOT
HETATM    1  C   UNL     1      -8.156   6.626  68.698  1.00  0.00    -0.119 C  
HETATM    2  C   UNL     1      -7.068   7.176  67.773  1.00  0.00    -0.085 C  
HETATM    3  C   UNL     1      -7.176   6.498  66.403  1.00  0.00    -0.073 C  
ENDROOT
BRANCH   2   4
HETATM    4  N   UNL     1      -7.245   8.625  67.679  1.00  0.00    -0.083 NA 
HETATM    5  H   UNL     1      -7.742   8.867  66.822  1.00  0.00     0.000 HD 
BRANCH   4   6
HETATM    6  C   UNL     1      -7.903   9.235  68.840  1.00  0.00    -0.087 C  
BRANCH   6   7
HETATM    7  C   UNL     1      -9.091  10.119  68.386  1.00  0.00    -0.133 C  
HETATM    8  C   UNL     1      -9.955   9.401  67.351  1.00  0.00    -0.252 C  
HETATM    9  C   UNL     1     -11.181  10.263  67.061  1.00  0.00     0.047 C  
HETATM   10  C   UNL     1     -10.791  11.687  66.759  1.00  0.00    -0.322 A  
HETATM   11  C   UNL     1     -11.721  12.542  66.142  1.00  0.00    -0.466 A  
HETATM   12  C   UNL     1     -11.407  13.879  65.832  1.00  0.00    -0.314 A  
HETATM   13  C   UNL     1     -10.109  14.336  66.144  1.00  0.00    -0.313 A  
HETATM   14  H   UNL     1      -7.662  11.724  68.010  1.00  0.00     0.000 HD 
HETATM   15  N   UNL     1      -9.656  15.715  65.861  1.00  0.00    -0.342 N  
HETATM   16  N   UNL     1      -8.616  11.402  67.847  1.00  0.00    -0.135 NA 
HETATM   17  C   UNL     1      -9.182  13.480  66.770  1.00  0.00    -0.248 A  
HETATM   18  O   UNL     1      -8.481  16.003  66.131  1.00  0.00    -0.323 OA 
HETATM   19  O   UNL     1     -10.460  16.519  65.369  1.00  0.00    -0.543 OA 
HETATM   20  C   UNL     1      -9.520  12.166  67.104  1.00  0.00    -0.190 A  
BRANCH  12  21
HETATM   21  C   UNL     1     -12.493  14.714  65.203  1.00  0.00    -0.206 C  
HETATM   22  O   UNL     1     -12.396  14.646  63.791  1.00  0.00    -1.030 OA 
HETATM   23  H   UNL     1     -13.080  15.172  63.395  1.00  0.00     0.000 HD 
ENDBRANCH  12  21
ENDBRANCH   6   7
ENDBRANCH   4   6
ENDBRANCH   2   4
TORSDOF 4
ENDMDL
MODEL      116
REMARK 921   NORMALIZED FREE ENERGY PREDICTED BY IDOCK:   -4.27 KCAL/MOL
REMARK 922        TOTAL FREE ENERGY PREDICTED BY IDOCK:   -5.72 KCAL/MOL
REMARK 923 INTER-LIGAND FREE ENERGY PREDICTED BY IDOCK:   -5.13 KCAL/MOL
REMARK 924 INTRA-LIGAND FREE ENERGY PREDICTED BY IDOCK:   -0.59 KCAL/MOL
REMARK 927      BINDING AFFINITY PREDICTED BY RF-SCORE:    0.00 PKD
ROOT
HETATM    1  C   UNL     1     -10.043   8.749  69.996  1.00  0.00    -0.200 C  
HETATM    2  C   UNL     1     -11.470   9.291  69.887  1.00  0.00     0.021 C  
HETATM    3  C   UNL     1     -11.825  10.049  71.170  1.00  0.00    -0.481 C  
ENDROOT
BRANCH   2   4
HETATM    4  N   UNL     1     -11.535  10.156  68.708  1.00  0.00    -0.491 NA 
HETATM    5  H   UNL     1     -12.256   9.827  68.066  1.00  0.00     0.000 HD 
BRANCH   4   6
HETATM    6  C   UNL     1     -11.729  11.579  69.006  1.00  0.00    -0.335 C  
BRANCH   6   7
HETATM    7  C   UNL     1     -10.697  12.439  68.236  1.00  0.00    -0.230 C  
HETATM    8  C   UNL     1      -9.267  12.002  68.546  1.00  0.00    -0.116 C  
HETATM    9  C   UNL     1      -8.315  12.786  67.647  1.00  0.00    -0.175 C  
HETATM   10  C   UNL     1      -8.606  14.264  67.698  1.00  0.00    -0.186 A  
HETATM   11  C   UNL     1      -7.645  15.173  67.222  1.00  0.00    -0.236 A  
HETATM   12  C   UNL     1      -7.862  16.564  67.251  1.00  0.00    -0.185 A  
HETATM   13  C   UNL     1      -9.078  17.026  67.798  1.00  0.00    -0.228 A  
HETATM   14  H   UNL     1     -11.716  14.214  68.995  1.00  0.00     0.000 HD 
HETATM   15  N   UNL     1      -9.421  18.461  67.892  1.00  0.00    -0.279 N  
HETATM   16  N   UNL     1     -10.868  13.867  68.544  1.00  0.00    -0.251 NA 
HETATM   17  C   UNL     1     -10.043  16.112  68.266  1.00  0.00    -0.232 A  
HETATM   18  O   UNL     1     -10.495  18.764  68.432  1.00  0.00    -0.333 OA 
HETATM   19  O   UNL     1      -8.628  19.296  67.434  1.00  0.00    -0.284 OA 
HETATM   20  C   UNL     1      -9.828  14.733  68.197  1.00  0.00    -0.221 A  
BRANCH  12  21
HETATM   21  C   UNL     1      -6.778  17.443  66.683  1.00  0.00    -0.229 C  
HETATM   22  O   UNL     1      -7.166  17.924  65.408  1.00  0.00    -0.459 OA 
HETATM   23  H   UNL     1      -6.484  18.478  65.050  1.00  0.00     0.000 HD 
ENDBRANCH  12  21
ENDBRANCH   6   7
ENDBRANCH   4   6
ENDBRANCH   2   4
TORSDOF 4
ENDMDL
MODEL      117
REMARK 921   NORMALIZED FREE ENERGY PREDICTED BY IDOCK:   -4.27 KCAL/MOL
REMARK 922        TOTAL FREE ENERGY PREDICTED BY IDOCK:   -5.72 KCAL/MOL
REMARK 923 INTER-LIGAND FREE ENERGY PREDICTED BY IDOCK:   -5.47 KCAL/MOL
REMARK 924 INTRA-LIGAND FREE ENERGY PREDICTED BY IDOCK:   -0.25 KCAL/MOL
REMARK 927      BINDING AFFINITY PREDICTED BY RF-SCORE:    0.00 PKD
ROOT
HETATM    1  C   UNL     1      -6.923   6.052  70.767  1.00  0.00    -0.067 C  
HETATM    2  C   UNL     1      -8.124   6.629  70.013  1.00  0.00    -0.121 C  
HETATM    3  C   UNL     1      -7.834   6.613  68.509  1.00  0.00    -0.110 C  
ENDROOT
BRANCH   2   4
HETATM    4  N   UNL     1      -9.297   5.823  70.350  1.00  0.00    -0.155 NA 
HETATM    5  H   UNL     1      -9.341   5.663  71.356  1.00  0.00     0.000 HD 
BRANCH   4   6
HETATM    6  C   UNL     1     -10.570   6.367  69.863  1.00  0.00    -0.243 C  
BRANCH   6   7
HETATM    7  C   UNL     1     -10.662   7.883  70.165  1.00  0.00    -0.244 C  
HETATM    8  C   UNL     1     -11.782   8.186  71.158  1.00  0.00    -0.309 C  
HETATM    9  C   UNL     1     -11.719   9.668  71.522  1.00  0.00    -0.472 C  
HETATM   10  C   UNL     1     -11.643  10.532  70.289  1.00  0.00    -0.417 A  
HETATM   11  C   UNL     1     -11.920  11.906  70.393  1.00  0.00    -0.400 A  
HETATM   12  C   UNL     1     -11.869  12.759  69.273  1.00  0.00    -0.358 A  
HETATM   13  C   UNL     1     -11.549  12.182  68.025  1.00  0.00    -0.348 A  
HETATM   14  H   UNL     1     -10.690   8.238  68.012  1.00  0.00     0.000 HD 
HETATM   15  N   UNL     1     -11.472  12.969  66.776  1.00  0.00    -0.327 N  
HETATM   16  N   UNL     1     -10.858   8.655  68.928  1.00  0.00    -0.070 NA 
HETATM   17  C   UNL     1     -11.263  10.806  67.927  1.00  0.00    -0.386 A  
HETATM   18  O   UNL     1     -11.229  12.359  65.724  1.00  0.00    -0.305 OA 
HETATM   19  O   UNL     1     -11.654  14.194  66.828  1.00  0.00    -0.353 OA 
HETATM   20  C   UNL     1     -11.283   9.980  69.053  1.00  0.00    -0.133 A  
BRANCH  12  21
HETATM   21  C   UNL     1     -12.150  14.221  69.506  1.00  0.00    -0.330 C  
HETATM   22  O   UNL     1     -12.637  14.415  70.822  1.00  0.00    -0.319 OA 
HETATM   23  H   UNL     1     -12.814  15.336  70.969  1.00  0.00     0.000 HD 
ENDBRANCH  12  21
ENDBRANCH   6   7
ENDBRANCH   4   6
ENDBRANCH   2   4
TORSDOF 4
ENDMDL
MODEL      118
REMARK 921   NORMALIZED FREE ENERGY PREDICTED BY IDOCK:   -4.25 KCAL/MOL
REMARK 922        TOTAL FREE ENERGY PREDICTED BY IDOCK:   -5.69 KCAL/MOL
REMARK 923 INTER-LIGAND FREE ENERGY PREDICTED BY IDOCK:   -5.12 KCAL/MOL
REMARK 924 INTRA-LIGAND FREE ENERGY PREDICTED BY IDOCK:   -0.57 KCAL/MOL
REMARK 927      BINDING AFFINITY PREDICTED BY RF-SCORE:    0.00 PKD
ROOT
HETATM    1  C   UNL     1     -12.132  12.540  63.349  1.00  0.00    -0.621 C  
HETATM    2  C   UNL     1     -11.815  13.382  64.587  1.00  0.00    -0.391 C  
HETATM    3  C   UNL     1     -12.374  14.795  64.397  1.00  0.00    -0.389 C  
ENDROOT
BRANCH   2   4
HETATM    4  N   UNL     1     -12.403  12.716  65.749  1.00  0.00    -0.619 NA 
HETATM    5  H   UNL     1     -12.216  11.714  65.715  1.00  0.00     0.000 HD 
BRANCH   4   6
HETATM    6  C   UNL     1     -11.990  13.269  67.043  1.00  0.00    -0.365 C  
BRANCH   6   7
HETATM    7  C   UNL     1     -11.061  12.276  67.785  1.00  0.00    -0.255 C  
HETATM    8  C   UNL     1      -9.603  12.725  67.722  1.00  0.00    -0.204 C  
HETATM    9  C   UNL     1      -8.769  11.788  68.593  1.00  0.00    -0.059 C  
HETATM   10  C   UNL     1      -9.056  10.343  68.273  1.00  0.00    -0.145 A  
HETATM   11  C   UNL     1      -8.162   9.350  68.710  1.00  0.00    -0.108 A  
HETATM   12  C   UNL     1      -8.378   7.986  68.435  1.00  0.00    -0.127 A  
HETATM   13  C   UNL     1      -9.520   7.644  67.680  1.00  0.00    -0.142 A  
HETATM   14  H   UNL     1     -11.985  10.666  66.638  1.00  0.00     0.000 HD 
HETATM   15  N   UNL     1      -9.853   6.249  67.319  1.00  0.00    -0.129 N  
HETATM   16  N   UNL     1     -11.198  10.918  67.236  1.00  0.00    -0.388 NA 
HETATM   17  C   UNL     1     -10.418   8.641  67.252  1.00  0.00    -0.360 A  
HETATM   18  O   UNL     1     -10.854   6.058  66.614  1.00  0.00    -0.299 OA 
HETATM   19  O   UNL     1      -9.123   5.335  67.730  1.00  0.00    -0.109 OA 
HETATM   20  C   UNL     1     -10.209   9.986  67.563  1.00  0.00    -0.212 A  
BRANCH  12  21
HETATM   21  C   UNL     1      -7.374   7.005  68.982  1.00  0.00    -0.093 C  
HETATM   22  O   UNL     1      -7.867   6.426  70.177  1.00  0.00    -0.102 OA 
HETATM   23  H   UNL     1      -7.235   5.807  70.522  1.00  0.00     0.000 HD 
ENDBRANCH  12  21
ENDBRANCH   6   7
ENDBRANCH   4   6
ENDBRANCH   2   4
TORSDOF 4
ENDMDL
MODEL      119
REMARK 921   NORMALIZED FREE ENERGY PREDICTED BY IDOCK:   -4.25 KCAL/MOL
REMARK 922        TOTAL FREE ENERGY PREDICTED BY IDOCK:   -5.68 KCAL/MOL
REMARK 923 INTER-LIGAND FREE ENERGY PREDICTED BY IDOCK:   -5.74 KCAL/MOL
REMARK 924 INTRA-LIGAND FREE ENERGY PREDICTED BY IDOCK:    0.05 KCAL/MOL
REMARK 927      BINDING AFFINITY PREDICTED BY RF-SCORE:    0.00 PKD
ROOT
HETATM    1  C   UNL     1     -11.951  11.888  63.463  1.00  0.00    -0.567 C  
HETATM    2  C   UNL     1     -11.484  13.162  64.171  1.00  0.00    -0.403 C  
HETATM    3  C   UNL     1     -12.532  13.579  65.208  1.00  0.00    -0.525 C  
ENDROOT
BRANCH   2   4
HETATM    4  N   UNL     1     -10.187  12.887  64.789  1.00  0.00    -0.457 NA 
HETATM    5  H   UNL     1     -10.108  13.374  65.681  1.00  0.00     0.000 HD 
BRANCH   4   6
HETATM    6  C   UNL     1      -9.883  11.461  64.957  1.00  0.00    -0.261 C  
BRANCH   6   7
HETATM    7  C   UNL     1     -10.580  10.905  66.223  1.00  0.00    -0.214 C  
HETATM    8  C   UNL     1     -10.435  11.862  67.404  1.00  0.00    -0.242 C  
HETATM    9  C   UNL     1     -11.266  11.325  68.567  1.00  0.00    -0.311 C  
HETATM   10  C   UNL     1     -10.973   9.870  68.825  1.00  0.00    -0.217 A  
HETATM   11  C   UNL     1     -11.368   9.292  70.043  1.00  0.00    -0.137 A  
HETATM   12  C   UNL     1     -11.114   7.939  70.339  1.00  0.00    -0.249 A  
HETATM   13  C   UNL     1     -10.424   7.176  69.372  1.00  0.00    -0.222 A  
HETATM   14  H   UNL     1      -9.496   9.036  65.913  1.00  0.00     0.000 HD 
HETATM   15  N   UNL     1     -10.092   5.748  69.567  1.00  0.00    -0.195 N  
HETATM   16  N   UNL     1     -10.049   9.579  66.576  1.00  0.00    -0.255 NA 
HETATM   17  C   UNL     1     -10.038   7.756  68.148  1.00  0.00    -0.220 A  
HETATM   18  O   UNL     1      -9.443   5.181  68.676  1.00  0.00    -0.120 OA 
HETATM   19  O   UNL     1     -10.469   5.182  70.603  1.00  0.00    -0.250 OA 
HETATM   20  C   UNL     1     -10.329   9.091  67.855  1.00  0.00    -0.235 A  
BRANCH  12  21
HETATM   21  C   UNL     1     -11.614   7.416  71.661  1.00  0.00    -0.270 C  
HETATM   22  O   UNL     1     -11.581   8.448  72.631  1.00  0.00    -0.385 OA 
HETATM   23  H   UNL     1     -11.896   8.119  73.464  1.00  0.00     0.000 HD 
ENDBRANCH  12  21
ENDBRANCH   6   7
ENDBRANCH   4   6
ENDBRANCH   2   4
TORSDOF 4
ENDMDL
MODEL      120
REMARK 921   NORMALIZED FREE ENERGY PREDICTED BY IDOCK:   -4.22 KCAL/MOL
REMARK 922        TOTAL FREE ENERGY PREDICTED BY IDOCK:   -5.65 KCAL/MOL
REMARK 923 INTER-LIGAND FREE ENERGY PREDICTED BY IDOCK:   -5.13 KCAL/MOL
REMARK 924 INTRA-LIGAND FREE ENERGY PREDICTED BY IDOCK:   -0.53 KCAL/MOL
REMARK 927      BINDING AFFINITY PREDICTED BY RF-SCORE:    0.00 PKD
ROOT
HETATM    1  C   UNL     1     -11.905  14.568  64.151  1.00  0.00    -0.290 C  
HETATM    2  C   UNL     1     -12.176  13.186  64.750  1.00  0.00    -0.425 C  
HETATM    3  C   UNL     1     -12.509  12.201  63.625  1.00  0.00    -0.658 C  
ENDROOT
BRANCH   2   4
HETATM    4  N   UNL     1     -10.987  12.777  65.498  1.00  0.00    -0.275 NA 
HETATM    5  H   UNL     1     -10.380  13.578  65.665  1.00  0.00     0.000 HD 
BRANCH   4   6
HETATM    6  C   UNL     1     -11.269  12.079  66.757  1.00  0.00    -0.322 C  
BRANCH   6   7
HETATM    7  C   UNL     1     -10.373  10.824  66.894  1.00  0.00    -0.241 C  
HETATM    8  C   UNL     1     -10.178  10.131  65.547  1.00  0.00    -0.288 C  
HETATM    9  C   UNL     1      -9.170   8.997  65.727  1.00  0.00    -0.293 C  
HETATM   10  C   UNL     1      -9.531   8.124  66.901  1.00  0.00    -0.244 A  
HETATM   11  C   UNL     1      -8.940   6.855  67.025  1.00  0.00    -0.124 A  
HETATM   12  C   UNL     1      -9.246   5.997  68.098  1.00  0.00    -0.116 A  
HETATM   13  C   UNL     1     -10.190   6.445  69.047  1.00  0.00    -0.183 A  
HETATM   14  H   UNL     1     -11.660  10.168  68.529  1.00  0.00     0.000 HD 
HETATM   15  N   UNL     1     -10.600   5.634  70.213  1.00  0.00    -0.290 N  
HETATM   16  N   UNL     1     -10.933   9.881  67.873  1.00  0.00    -0.260 NA 
HETATM   17  C   UNL     1     -10.773   7.721  68.925  1.00  0.00    -0.108 A  
HETATM   18  O   UNL     1     -11.471   6.100  70.962  1.00  0.00    -0.309 OA 
HETATM   19  O   UNL     1     -10.064   4.531  70.393  1.00  0.00    -0.224 OA 
HETATM   20  C   UNL     1     -10.434   8.576  67.873  1.00  0.00    -0.201 A  
BRANCH  12  21
HETATM   21  C   UNL     1      -8.526   4.673  68.149  1.00  0.00    -0.101 C  
HETATM   22  O   UNL     1      -9.371   3.646  67.659  1.00  0.00    -0.173 OA 
HETATM   23  H   UNL     1      -8.918   2.813  67.691  1.00  0.00     0.000 HD 
ENDBRANCH  12  21
ENDBRANCH   6   7
ENDBRANCH   4   6
ENDBRANCH   2   4
TORSDOF 4
ENDMDL
MODEL      121
REMARK 921   NORMALIZED FREE ENERGY PREDICTED BY IDOCK:   -4.21 KCAL/MOL
REMARK 922        TOTAL FREE ENERGY PREDICTED BY IDOCK:   -5.64 KCAL/MOL
REMARK 923 INTER-LIGAND FREE ENERGY PREDICTED BY IDOCK:   -5.14 KCAL/MOL
REMARK 924 INTRA-LIGAND FREE ENERGY PREDICTED BY IDOCK:   -0.49 KCAL/MOL
REMARK 927      BINDING AFFINITY PREDICTED BY RF-SCORE:    0.00 PKD
ROOT
HETATM    1  C   UNL     1      -6.392  19.576  70.175  1.00  0.00    -0.224 C  
HETATM    2  C   UNL     1      -6.828  19.606  68.709  1.00  0.00    -0.327 C  
HETATM    3  C   UNL     1      -5.683  19.094  67.828  1.00  0.00    -0.196 C  
ENDROOT
BRANCH   2   4
HETATM    4  N   UNL     1      -8.027  18.779  68.577  1.00  0.00    -0.335 NA 
HETATM    5  H   UNL     1      -8.502  18.697  69.476  1.00  0.00     0.000 HD 
BRANCH   4   6
HETATM    6  C   UNL     1      -8.967  19.227  67.543  1.00  0.00    -0.298 C  
BRANCH   6   7
HETATM    7  C   UNL     1      -9.330  18.057  66.597  1.00  0.00    -0.291 C  
HETATM    8  C   UNL     1     -10.732  18.225  66.017  1.00  0.00    -0.193 C  
HETATM    9  C   UNL     1     -10.965  17.123  64.985  1.00  0.00     0.097 C  
HETATM   10  C   UNL     1     -10.611  15.768  65.541  1.00  0.00    -0.424 A  
HETATM   11  C   UNL     1     -11.069  14.612  64.885  1.00  0.00    -0.409 A  
HETATM   12  C   UNL     1     -10.773  13.322  65.364  1.00  0.00    -0.308 A  
HETATM   13  C   UNL     1     -10.012  13.222  66.549  1.00  0.00    -0.280 A  
HETATM   14  H   UNL     1      -8.724  16.682  68.179  1.00  0.00     0.000 HD 
HETATM   15  N   UNL     1      -9.642  11.925  67.156  1.00  0.00    -0.184 N  
HETATM   16  N   UNL     1      -9.220  16.765  67.291  1.00  0.00    -0.226 NA 
HETATM   17  C   UNL     1      -9.546  14.382  67.198  1.00  0.00    -0.251 A  
HETATM   18  O   UNL     1      -9.010  11.947  68.222  1.00  0.00    -0.173 OA 
HETATM   19  O   UNL     1      -9.977  10.879  66.582  1.00  0.00    -0.195 OA 
HETATM   20  C   UNL     1      -9.818  15.655  66.691  1.00  0.00    -0.244 A  
BRANCH  12  21
HETATM   21  C   UNL     1     -11.287  12.154  64.562  1.00  0.00    -0.334 C  
HETATM   22  O   UNL     1     -10.297  11.728  63.643  1.00  0.00    -0.349 OA 
HETATM   23  H   UNL     1     -10.620  10.992  63.137  1.00  0.00     0.000 HD 
ENDBRANCH  12  21
ENDBRANCH   6   7
ENDBRANCH   4   6
ENDBRANCH   2   4
TORSDOF 4
ENDMDL
MODEL      122
REMARK 921   NORMALIZED FREE ENERGY PREDICTED BY IDOCK:   -4.18 KCAL/MOL
REMARK 922        TOTAL FREE ENERGY PREDICTED BY IDOCK:   -5.60 KCAL/MOL
REMARK 923 INTER-LIGAND FREE ENERGY PREDICTED BY IDOCK:   -5.26 KCAL/MOL
REMARK 924 INTRA-LIGAND FREE ENERGY PREDICTED BY IDOCK:   -0.34 KCAL/MOL
REMARK 927      BINDING AFFINITY PREDICTED BY RF-SCORE:    0.00 PKD
ROOT
HETATM    1  C   UNL     1     -12.274  14.405  64.452  1.00  0.00    -0.481 C  
HETATM    2  C   UNL     1     -11.970  12.922  64.677  1.00  0.00    -0.392 C  
HETATM    3  C   UNL     1     -12.628  12.096  63.567  1.00  0.00    -0.621 C  
ENDROOT
BRANCH   2   4
HETATM    4  N   UNL     1     -10.517  12.756  64.691  1.00  0.00    -0.333 NA 
HETATM    5  H   UNL     1     -10.076  13.436  64.071  1.00  0.00     0.000 HD 
BRANCH   4   6
HETATM    6  C   UNL     1      -9.910  12.813  66.025  1.00  0.00    -0.255 C  
BRANCH   6   7
HETATM    7  C   UNL     1     -10.409  11.635  66.898  1.00  0.00    -0.220 C  
HETATM    8  C   UNL     1      -9.950  11.783  68.347  1.00  0.00    -0.202 C  
HETATM    9  C   UNL     1     -10.597  10.676  69.176  1.00  0.00    -0.256 C  
HETATM   10  C   UNL     1     -10.408   9.327  68.531  1.00  0.00    -0.237 A  
HETATM   11  C   UNL     1     -10.623   8.164  69.290  1.00  0.00    -0.191 A  
HETATM   12  C   UNL     1     -10.455   6.878  68.740  1.00  0.00    -0.223 A  
HETATM   13  C   UNL     1     -10.039   6.792  67.394  1.00  0.00    -0.175 A  
HETATM   14  H   UNL     1      -9.596  10.273  65.400  1.00  0.00     0.000 HD 
HETATM   15  N   UNL     1      -9.820   5.502  66.705  1.00  0.00    -0.157 N  
HETATM   16  N   UNL     1      -9.956  10.347  66.352  1.00  0.00    -0.213 NA 
HETATM   17  C   UNL     1      -9.833   7.959  66.634  1.00  0.00    -0.311 A  
HETATM   18  O   UNL     1      -9.410   5.534  65.536  1.00  0.00    -0.113 OA 
HETATM   19  O   UNL     1     -10.051   4.449  67.318  1.00  0.00    -0.156 OA 
HETATM   20  C   UNL     1     -10.038   9.227  67.183  1.00  0.00    -0.236 A  
BRANCH  12  21
HETATM   21  C   UNL     1     -10.746   5.701  69.635  1.00  0.00    -0.328 C  
HETATM   22  O   UNL     1      -9.733   5.580  70.617  1.00  0.00    -0.163 OA 
HETATM   23  H   UNL     1      -9.916   4.839  71.181  1.00  0.00     0.000 HD 
ENDBRANCH  12  21
ENDBRANCH   6   7
ENDBRANCH   4   6
ENDBRANCH   2   4
TORSDOF 4
ENDMDL
MODEL      123
REMARK 921   NORMALIZED FREE ENERGY PREDICTED BY IDOCK:   -4.14 KCAL/MOL
REMARK 922        TOTAL FREE ENERGY PREDICTED BY IDOCK:   -5.55 KCAL/MOL
REMARK 923 INTER-LIGAND FREE ENERGY PREDICTED BY IDOCK:   -5.10 KCAL/MOL
REMARK 924 INTRA-LIGAND FREE ENERGY PREDICTED BY IDOCK:   -0.45 KCAL/MOL
REMARK 927      BINDING AFFINITY PREDICTED BY RF-SCORE:    0.00 PKD
ROOT
HETATM    1  C   UNL     1      -7.334   3.618  67.369  1.00  0.00    -0.066 C  
HETATM    2  C   UNL     1      -7.891   4.484  66.237  1.00  0.00    -0.099 C  
HETATM    3  C   UNL     1      -9.234   3.911  65.774  1.00  0.00    -0.154 C  
ENDROOT
BRANCH   2   4
HETATM    4  N   UNL     1      -8.027   5.851  66.739  1.00  0.00    -0.101 NA 
HETATM    5  H   UNL     1      -7.785   5.891  67.729  1.00  0.00     0.000 HD 
BRANCH   4   6
HETATM    6  C   UNL     1      -7.265   6.855  65.987  1.00  0.00    -0.074 C  
BRANCH   6   7
HETATM    7  C   UNL     1      -8.223   7.834  65.265  1.00  0.00    -0.140 C  
HETATM    8  C   UNL     1      -7.494   8.633  64.188  1.00  0.00    -0.110 C  
HETATM    9  C   UNL     1      -8.521   9.463  63.422  1.00  0.00    -0.202 C  
HETATM   10  C   UNL     1      -9.414  10.233  64.361  1.00  0.00    -0.360 A  
HETATM   11  C   UNL     1     -10.182  11.300  63.863  1.00  0.00    -0.420 A  
HETATM   12  C   UNL     1     -11.028  12.056  64.696  1.00  0.00    -0.367 A  
HETATM   13  C   UNL     1     -11.066  11.722  66.067  1.00  0.00    -0.312 A  
HETATM   14  H   UNL     1      -8.853   8.552  67.227  1.00  0.00     0.000 HD 
HETATM   15  N   UNL     1     -11.908  12.445  67.045  1.00  0.00    -0.353 N  
HETATM   16  N   UNL     1      -8.866   8.744  66.225  1.00  0.00    -0.148 NA 
HETATM   17  C   UNL     1     -10.302  10.647  66.561  1.00  0.00    -0.299 A  
HETATM   18  O   UNL     1     -11.834  12.103  68.234  1.00  0.00    -0.329 OA 
HETATM   19  O   UNL     1     -12.644  13.357  66.641  1.00  0.00    -0.234 OA 
HETATM   20  C   UNL     1      -9.495   9.883  65.715  1.00  0.00    -0.222 A  
BRANCH  12  21
HETATM   21  C   UNL     1     -11.832  13.154  64.049  1.00  0.00    -0.453 C  
HETATM   22  O   UNL     1     -13.161  12.714  63.830  1.00  0.00    -0.656 OA 
HETATM   23  H   UNL     1     -13.668  13.406  63.422  1.00  0.00     0.000 HD 
ENDBRANCH  12  21
ENDBRANCH   6   7
ENDBRANCH   4   6
ENDBRANCH   2   4
TORSDOF 4
ENDMDL
MODEL      124
REMARK 921   NORMALIZED FREE ENERGY PREDICTED BY IDOCK:   -4.12 KCAL/MOL
REMARK 922        TOTAL FREE ENERGY PREDICTED BY IDOCK:   -5.53 KCAL/MOL
REMARK 923 INTER-LIGAND FREE ENERGY PREDICTED BY IDOCK:   -4.94 KCAL/MOL
REMARK 924 INTRA-LIGAND FREE ENERGY PREDICTED BY IDOCK:   -0.59 KCAL/MOL
REMARK 927      BINDING AFFINITY PREDICTED BY RF-SCORE:    0.00 PKD
ROOT
HETATM    1  C   UNL     1      -9.451   5.279  66.448  1.00  0.00    -0.161 C  
HETATM    2  C   UNL     1      -8.483   6.066  67.336  1.00  0.00    -0.104 C  
HETATM    3  C   UNL     1      -7.290   6.532  66.497  1.00  0.00    -0.078 C  
ENDROOT
BRANCH   2   4
HETATM    4  N   UNL     1      -9.216   7.193  67.913  1.00  0.00    -0.130 NA 
HETATM    5  H   UNL     1      -8.682   8.055  67.807  1.00  0.00     0.000 HD 
BRANCH   4   6
HETATM    6  C   UNL     1     -10.576   7.368  67.391  1.00  0.00    -0.301 C  
BRANCH   6   7
HETATM    7  C   UNL     1     -10.781   8.818  66.889  1.00  0.00    -0.081 C  
HETATM    8  C   UNL     1      -9.555   9.322  66.130  1.00  0.00    -0.327 C  
HETATM    9  C   UNL     1      -9.880  10.692  65.539  1.00  0.00    -0.316 C  
HETATM   10  C   UNL     1     -10.469  11.611  66.578  1.00  0.00    -0.276 A  
HETATM   11  C   UNL     1     -10.515  12.994  66.329  1.00  0.00    -0.285 A  
HETATM   12  C   UNL     1     -11.049  13.898  67.267  1.00  0.00    -0.312 A  
HETATM   13  C   UNL     1     -11.522  13.372  68.488  1.00  0.00    -0.310 A  
HETATM   14  H   UNL     1     -11.380   9.361  68.915  1.00  0.00     0.000 HD 
HETATM   15  N   UNL     1     -12.098  14.219  69.555  1.00  0.00    -0.329 N  
HETATM   16  N   UNL     1     -11.093   9.723  68.005  1.00  0.00    -0.179 NA 
HETATM   17  C   UNL     1     -11.483  11.985  68.730  1.00  0.00    -0.355 A  
HETATM   18  O   UNL     1     -12.442  13.664  70.608  1.00  0.00    -0.344 OA 
HETATM   19  O   UNL     1     -12.210  15.437  69.357  1.00  0.00    -0.300 OA 
HETATM   20  C   UNL     1     -10.983  11.097  67.775  1.00  0.00    -0.262 A  
BRANCH  12  21
HETATM   21  C   UNL     1     -11.080  15.355  66.880  1.00  0.00    -0.256 C  
HETATM   22  O   UNL     1     -10.008  16.042  67.502  1.00  0.00    -0.235 OA 
HETATM   23  H   UNL     1     -10.027  16.959  67.258  1.00  0.00     0.000 HD 
ENDBRANCH  12  21
ENDBRANCH   6   7
ENDBRANCH   4   6
ENDBRANCH   2   4
TORSDOF 4
ENDMDL
MODEL      125
REMARK 921   NORMALIZED FREE ENERGY PREDICTED BY IDOCK:   -4.11 KCAL/MOL
REMARK 922        TOTAL FREE ENERGY PREDICTED BY IDOCK:   -5.51 KCAL/MOL
REMARK 923 INTER-LIGAND FREE ENERGY PREDICTED BY IDOCK:   -5.06 KCAL/MOL
REMARK 924 INTRA-LIGAND FREE ENERGY PREDICTED BY IDOCK:   -0.45 KCAL/MOL
REMARK 927      BINDING AFFINITY PREDICTED BY RF-SCORE:    0.00 PKD
ROOT
HETATM    1  C   UNL     1      -7.408   5.813  63.678  1.00  0.00    -0.062 C  
HETATM    2  C   UNL     1      -8.211   5.651  64.971  1.00  0.00    -0.137 C  
HETATM    3  C   UNL     1      -7.284   5.154  66.085  1.00  0.00    -0.073 C  
ENDROOT
BRANCH   2   4
HETATM    4  N   UNL     1      -8.808   6.945  65.297  1.00  0.00    -0.365 NA 
HETATM    5  H   UNL     1      -9.344   7.299  64.504  1.00  0.00     0.000 HD 
BRANCH   4   6
HETATM    6  C   UNL     1      -9.633   6.948  66.511  1.00  0.00    -0.143 C  
BRANCH   6   7
HETATM    7  C   UNL     1      -9.625   8.351  67.167  1.00  0.00    -0.179 C  
HETATM    8  C   UNL     1     -10.488   8.380  68.426  1.00  0.00    -0.208 C  
HETATM    9  C   UNL     1     -10.317   9.740  69.100  1.00  0.00    -0.225 C  
HETATM   10  C   UNL     1     -10.502  10.866  68.115  1.00  0.00    -0.211 A  
HETATM   11  C   UNL     1     -10.722  12.170  68.592  1.00  0.00    -0.261 A  
HETATM   12  C   UNL     1     -10.907  13.257  67.717  1.00  0.00    -0.268 A  
HETATM   13  C   UNL     1     -10.886  12.994  66.331  1.00  0.00    -0.278 A  
HETATM   14  H   UNL     1     -10.128   9.189  65.216  1.00  0.00     0.000 HD 
HETATM   15  N   UNL     1     -11.076  14.048  65.312  1.00  0.00    -0.312 N  
HETATM   16  N   UNL     1     -10.078   9.379  66.217  1.00  0.00    -0.277 NA 
HETATM   17  C   UNL     1     -10.656  11.687  65.856  1.00  0.00    -0.318 A  
HETATM   18  O   UNL     1     -11.086  13.705  64.121  1.00  0.00    -0.354 OA 
HETATM   19  O   UNL     1     -11.218  15.222  65.685  1.00  0.00    -0.323 OA 
HETATM   20  C   UNL     1     -10.439  10.625  66.737  1.00  0.00    -0.247 A  
BRANCH  12  21
HETATM   21  C   UNL     1     -11.101  14.617  68.338  1.00  0.00    -0.257 C  
HETATM   22  O   UNL     1     -12.476  14.956  68.339  1.00  0.00    -0.559 OA 
HETATM   23  H   UNL     1     -12.598  15.812  68.730  1.00  0.00     0.000 HD 
ENDBRANCH  12  21
ENDBRANCH   6   7
ENDBRANCH   4   6
ENDBRANCH   2   4
TORSDOF 4
ENDMDL
MODEL      126
REMARK 921   NORMALIZED FREE ENERGY PREDICTED BY IDOCK:   -4.10 KCAL/MOL
REMARK 922        TOTAL FREE ENERGY PREDICTED BY IDOCK:   -5.50 KCAL/MOL
REMARK 923 INTER-LIGAND FREE ENERGY PREDICTED BY IDOCK:   -6.01 KCAL/MOL
REMARK 924 INTRA-LIGAND FREE ENERGY PREDICTED BY IDOCK:    0.51 KCAL/MOL
REMARK 927      BINDING AFFINITY PREDICTED BY RF-SCORE:    0.00 PKD
ROOT
HETATM    1  C   UNL     1     -10.478  20.094  68.255  1.00  0.00    -0.357 C  
HETATM    2  C   UNL     1      -9.348  19.396  67.494  1.00  0.00    -0.311 C  
HETATM    3  C   UNL     1      -9.223  20.010  66.096  1.00  0.00    -0.389 C  
ENDROOT
BRANCH   2   4
HETATM    4  N   UNL     1      -8.118  19.552  68.269  1.00  0.00    -0.326 NA 
HETATM    5  H   UNL     1      -8.330  19.607  69.265  1.00  0.00     0.000 HD 
BRANCH   4   6
HETATM    6  C   UNL     1      -7.105  18.521  68.020  1.00  0.00    -0.236 C  
BRANCH   6   7
HETATM    7  C   UNL     1      -7.702  17.110  68.246  1.00  0.00    -0.220 C  
HETATM    8  C   UNL     1      -7.950  16.393  66.920  1.00  0.00    -0.269 C  
HETATM    9  C   UNL     1      -8.395  14.963  67.219  1.00  0.00    -0.233 C  
HETATM   10  C   UNL     1      -9.511  14.937  68.233  1.00  0.00    -0.210 A  
HETATM   11  C   UNL     1     -10.279  13.769  68.383  1.00  0.00    -0.248 A  
HETATM   12  C   UNL     1     -11.336  13.692  69.310  1.00  0.00    -0.323 A  
HETATM   13  C   UNL     1     -11.619  14.842  70.078  1.00  0.00    -0.286 A  
HETATM   14  H   UNL     1      -9.201  18.028  69.537  1.00  0.00     0.000 HD 
HETATM   15  N   UNL     1     -12.707  14.889  71.077  1.00  0.00    -0.323 N  
HETATM   16  N   UNL     1      -8.948  17.184  69.023  1.00  0.00    -0.175 NA 
HETATM   17  C   UNL     1     -10.842  16.007  69.931  1.00  0.00    -0.351 A  
HETATM   18  O   UNL     1     -12.903  15.962  71.666  1.00  0.00    -0.465 OA 
HETATM   19  O   UNL     1     -13.375  13.865  71.284  1.00  0.00    -0.312 OA 
HETATM   20  C   UNL     1      -9.773  16.057  69.032  1.00  0.00    -0.244 A  
BRANCH  12  21
HETATM   21  C   UNL     1     -12.069  12.379  69.411  1.00  0.00    -0.180 C  
HETATM   22  O   UNL     1     -12.066  11.726  68.154  1.00  0.00    -0.556 OA 
HETATM   23  H   UNL     1     -12.527  10.899  68.218  1.00  0.00     0.000 HD 
ENDBRANCH  12  21
ENDBRANCH   6   7
ENDBRANCH   4   6
ENDBRANCH   2   4
TORSDOF 4
ENDMDL
MODEL      127
REMARK 921   NORMALIZED FREE ENERGY PREDICTED BY IDOCK:   -4.09 KCAL/MOL
REMARK 922        TOTAL FREE ENERGY PREDICTED BY IDOCK:   -5.49 KCAL/MOL
REMARK 923 INTER-LIGAND FREE ENERGY PREDICTED BY IDOCK:   -4.89 KCAL/MOL
REMARK 924 INTRA-LIGAND FREE ENERGY PREDICTED BY IDOCK:   -0.60 KCAL/MOL
REMARK 927      BINDING AFFINITY PREDICTED BY RF-SCORE:    0.00 PKD
ROOT
HETATM    1  C   UNL     1     -12.690  10.400  71.391  1.00  0.00    -0.551 C  
HETATM    2  C   UNL     1     -13.144   9.174  72.187  1.00  0.00    -0.446 C  
HETATM    3  C   UNL     1     -14.402   8.586  71.541  1.00  0.00    -0.451 C  
ENDROOT
BRANCH   2   4
HETATM    4  N   UNL     1     -12.041   8.214  72.205  1.00  0.00    -0.370 NA 
HETATM    5  H   UNL     1     -11.781   7.990  73.165  1.00  0.00     0.000 HD 
BRANCH   4   6
HETATM    6  C   UNL     1     -12.291   6.984  71.444  1.00  0.00    -0.377 C  
BRANCH   6   7
HETATM    7  C   UNL     1     -11.034   6.585  70.632  1.00  0.00    -0.287 C  
HETATM    8  C   UNL     1     -10.040   7.740  70.544  1.00  0.00    -0.192 C  
HETATM    9  C   UNL     1      -8.769   7.235  69.864  1.00  0.00    -0.141 C  
HETATM   10  C   UNL     1      -9.086   6.503  68.585  1.00  0.00    -0.128 A  
HETATM   11  C   UNL     1      -8.061   6.266  67.653  1.00  0.00    -0.117 A  
HETATM   12  C   UNL     1      -8.302   5.593  66.441  1.00  0.00    -0.112 A  
HETATM   13  C   UNL     1      -9.624   5.177  66.174  1.00  0.00    -0.164 A  
HETATM   14  H   UNL     1     -12.365   5.880  69.053  1.00  0.00     0.000 HD 
HETATM   15  N   UNL     1     -10.006   4.469  64.934  1.00  0.00    -0.107 N  
HETATM   16  N   UNL     1     -11.402   6.128  69.284  1.00  0.00    -0.392 NA 
HETATM   17  C   UNL     1     -10.648   5.409  67.114  1.00  0.00    -0.274 A  
HETATM   18  O   UNL     1     -11.203   4.188  64.776  1.00  0.00    -0.318 OA 
HETATM   19  O   UNL     1      -9.125   4.189  64.109  1.00  0.00    -0.136 OA 
HETATM   20  C   UNL     1     -10.385   6.046  68.329  1.00  0.00    -0.207 A  
BRANCH  12  21
HETATM   21  C   UNL     1      -7.121   5.363  65.533  1.00  0.00    -0.067 C  
HETATM   22  O   UNL     1      -7.141   6.298  64.469  1.00  0.00    -0.052 OA 
HETATM   23  H   UNL     1      -6.397   6.153  63.897  1.00  0.00     0.000 HD 
ENDBRANCH  12  21
ENDBRANCH   6   7
ENDBRANCH   4   6
ENDBRANCH   2   4
TORSDOF 4
ENDMDL
MODEL      128
REMARK 921   NORMALIZED FREE ENERGY PREDICTED BY IDOCK:   -4.08 KCAL/MOL
REMARK 922        TOTAL FREE ENERGY PREDICTED BY IDOCK:   -5.47 KCAL/MOL
REMARK 923 INTER-LIGAND FREE ENERGY PREDICTED BY IDOCK:   -5.27 KCAL/MOL
REMARK 924 INTRA-LIGAND FREE ENERGY PREDICTED BY IDOCK:   -0.21 KCAL/MOL
REMARK 927      BINDING AFFINITY PREDICTED BY RF-SCORE:    0.00 PKD
ROOT
HETATM    1  C   UNL     1      -7.910   5.328  67.078  1.00  0.00    -0.100 C  
HETATM    2  C   UNL     1      -9.095   6.076  66.463  1.00  0.00    -0.146 C  
HETATM    3  C   UNL     1     -10.400   5.533  67.056  1.00  0.00    -0.306 C  
ENDROOT
BRANCH   2   4
HETATM    4  N   UNL     1      -8.923   7.502  66.739  1.00  0.00    -0.137 NA 
HETATM    5  H   UNL     1      -8.308   7.636  67.542  1.00  0.00     0.000 HD 
BRANCH   4   6
HETATM    6  C   UNL     1      -8.450   8.291  65.596  1.00  0.00    -0.158 C  
BRANCH   6   7
HETATM    7  C   UNL     1      -9.362   9.523  65.375  1.00  0.00    -0.261 C  
HETATM    8  C   UNL     1      -9.409   9.922  63.902  1.00  0.00    -0.262 C  
HETATM    9  C   UNL     1     -10.435  11.040  63.735  1.00  0.00    -0.408 C  
HETATM   10  C   UNL     1     -10.212  12.143  64.737  1.00  0.00    -0.310 A  
HETATM   11  C   UNL     1     -10.819  13.394  64.533  1.00  0.00    -0.419 A  
HETATM   12  C   UNL     1     -10.639  14.461  65.434  1.00  0.00    -0.380 A  
HETATM   13  C   UNL     1      -9.804  14.241  66.551  1.00  0.00    -0.288 A  
HETATM   14  H   UNL     1      -8.269  10.532  66.970  1.00  0.00     0.000 HD 
HETATM   15  N   UNL     1      -9.531  15.283  67.564  1.00  0.00    -0.201 N  
HETATM   16  N   UNL     1      -8.919  10.660  66.195  1.00  0.00    -0.163 NA 
HETATM   17  C   UNL     1      -9.205  12.983  66.758  1.00  0.00    -0.229 A  
HETATM   18  O   UNL     1      -8.747  15.003  68.482  1.00  0.00    -0.161 OA 
HETATM   19  O   UNL     1     -10.089  16.385  67.455  1.00  0.00    -0.251 OA 
HETATM   20  C   UNL     1      -9.422  11.924  65.873  1.00  0.00    -0.214 A  
BRANCH  12  21
HETATM   21  C   UNL     1     -11.366  15.747  65.135  1.00  0.00    -0.154 C  
HETATM   22  O   UNL     1     -10.856  16.323  63.945  1.00  0.00    -0.716 OA 
HETATM   23  H   UNL     1     -11.313  17.133  63.756  1.00  0.00     0.000 HD 
ENDBRANCH  12  21
ENDBRANCH   6   7
ENDBRANCH   4   6
ENDBRANCH   2   4
TORSDOF 4
ENDMDL
MODEL      129
REMARK 921   NORMALIZED FREE ENERGY PREDICTED BY IDOCK:   -4.06 KCAL/MOL
REMARK 922        TOTAL FREE ENERGY PREDICTED BY IDOCK:   -5.45 KCAL/MOL
REMARK 923 INTER-LIGAND FREE ENERGY PREDICTED BY IDOCK:   -5.18 KCAL/MOL
REMARK 924 INTRA-LIGAND FREE ENERGY PREDICTED BY IDOCK:   -0.27 KCAL/MOL
REMARK 927      BINDING AFFINITY PREDICTED BY RF-SCORE:    0.00 PKD
ROOT
HETATM    1  C   UNL     1      -7.065   5.483  63.059  1.00  0.00    -0.038 C  
HETATM    2  C   UNL     1      -6.220   6.224  64.099  1.00  0.00    -0.030 C  
HETATM    3  C   UNL     1      -5.225   7.143  63.383  1.00  0.00    -0.033 C  
ENDROOT
BRANCH   2   4
HETATM    4  N   UNL     1      -7.128   6.974  64.966  1.00  0.00    -0.061 NA 
HETATM    5  H   UNL     1      -6.599   7.579  65.594  1.00  0.00     0.000 HD 
BRANCH   4   6
HETATM    6  C   UNL     1      -8.151   7.748  64.254  1.00  0.00    -0.079 C  
BRANCH   6   7
HETATM    7  C   UNL     1      -8.382   9.111  64.951  1.00  0.00    -0.162 C  
HETATM    8  C   UNL     1      -8.668   8.933  66.440  1.00  0.00    -0.148 C  
HETATM    9  C   UNL     1      -8.736  10.314  67.090  1.00  0.00    -0.131 C  
HETATM   10  C   UNL     1      -9.650  11.235  66.322  1.00  0.00    -0.235 A  
HETATM   11  C   UNL     1     -10.110  12.415  66.932  1.00  0.00    -0.230 A  
HETATM   12  C   UNL     1     -10.969  13.308  66.263  1.00  0.00    -0.296 A  
HETATM   13  C   UNL     1     -11.377  12.969  64.955  1.00  0.00    -0.303 A  
HETATM   14  H   UNL     1      -9.830   9.585  63.389  1.00  0.00     0.000 HD 
HETATM   15  N   UNL     1     -12.281  13.819  64.153  1.00  0.00    -0.425 N  
HETATM   16  N   UNL     1      -9.480   9.851  64.310  1.00  0.00    -0.269 NA 
HETATM   17  C   UNL     1     -10.906  11.790  64.344  1.00  0.00    -0.389 A  
HETATM   18  O   UNL     1     -12.616  13.409  63.032  1.00  0.00    -0.669 OA 
HETATM   19  O   UNL     1     -12.668  14.896  64.628  1.00  0.00    -0.450 OA 
HETATM   20  C   UNL     1     -10.026  10.932  65.007  1.00  0.00    -0.298 A  
BRANCH  12  21
HETATM   21  C   UNL     1     -11.372  14.559  67.000  1.00  0.00    -0.349 C  
HETATM   22  O   UNL     1     -12.315  14.243  68.009  1.00  0.00    -0.582 OA 
HETATM   23  H   UNL     1     -12.569  15.031  68.473  1.00  0.00     0.000 HD 
ENDBRANCH  12  21
ENDBRANCH   6   7
ENDBRANCH   4   6
ENDBRANCH   2   4
TORSDOF 4
ENDMDL
MODEL      130
REMARK 921   NORMALIZED FREE ENERGY PREDICTED BY IDOCK:   -4.03 KCAL/MOL
REMARK 922        TOTAL FREE ENERGY PREDICTED BY IDOCK:   -5.41 KCAL/MOL
REMARK 923 INTER-LIGAND FREE ENERGY PREDICTED BY IDOCK:   -4.80 KCAL/MOL
REMARK 924 INTRA-LIGAND FREE ENERGY PREDICTED BY IDOCK:   -0.62 KCAL/MOL
REMARK 927      BINDING AFFINITY PREDICTED BY RF-SCORE:    0.00 PKD
ROOT
HETATM    1  C   UNL     1      -9.984  16.158  69.176  1.00  0.00    -0.251 C  
HETATM    2  C   UNL     1     -11.110  16.224  68.141  1.00  0.00    -0.329 C  
HETATM    3  C   UNL     1     -10.555  15.844  66.764  1.00  0.00    -0.309 C  
ENDROOT
BRANCH   2   4
HETATM    4  N   UNL     1     -12.172  15.315  68.570  1.00  0.00    -0.560 NA 
HETATM    5  H   UNL     1     -12.552  14.810  67.770  1.00  0.00     0.000 HD 
BRANCH   4   6
HETATM    6  C   UNL     1     -11.780  14.375  69.627  1.00  0.00    -0.309 C  
BRANCH   6   7
HETATM    7  C   UNL     1     -11.871  12.916  69.116  1.00  0.00    -0.303 C  
HETATM    8  C   UNL     1     -11.867  11.920  70.273  1.00  0.00    -0.368 C  
HETATM    9  C   UNL     1     -12.107  10.521  69.709  1.00  0.00    -0.285 C  
HETATM   10  C   UNL     1     -11.186  10.232  68.552  1.00  0.00    -0.271 A  
HETATM   11  C   UNL     1     -11.012   8.904  68.124  1.00  0.00     0.054 A  
HETATM   12  C   UNL     1     -10.159   8.576  67.053  1.00  0.00    -0.347 A  
HETATM   13  C   UNL     1      -9.459   9.630  66.427  1.00  0.00    -0.189 A  
HETATM   14  H   UNL     1     -10.214  13.362  67.767  1.00  0.00     0.000 HD 
HETATM   15  N   UNL     1      -8.530   9.414  65.297  1.00  0.00    -0.140 N  
HETATM   16  N   UNL     1     -10.772  12.616  68.185  1.00  0.00    -0.217 NA 
HETATM   17  C   UNL     1      -9.643  10.960  66.852  1.00  0.00    -0.203 A  
HETATM   18  O   UNL     1      -7.929  10.401  64.848  1.00  0.00    -0.153 OA 
HETATM   19  O   UNL     1      -8.388   8.267  64.851  1.00  0.00    -0.159 OA 
HETATM   20  C   UNL     1     -10.520  11.273  67.893  1.00  0.00    -0.188 A  
BRANCH  12  21
HETATM   21  C   UNL     1     -10.076   7.124  66.657  1.00  0.00    -0.159 C  
HETATM   22  O   UNL     1      -8.905   6.542  67.203  1.00  0.00    -0.110 OA 
HETATM   23  H   UNL     1      -8.853   5.627  66.954  1.00  0.00     0.000 HD 
ENDBRANCH  12  21
ENDBRANCH   6   7
ENDBRANCH   4   6
ENDBRANCH   2   4
TORSDOF 4
ENDMDL
MODEL      131
REMARK 921   NORMALIZED FREE ENERGY PREDICTED BY IDOCK:   -4.01 KCAL/MOL
REMARK 922        TOTAL FREE ENERGY PREDICTED BY IDOCK:   -5.39 KCAL/MOL
REMARK 923 INTER-LIGAND FREE ENERGY PREDICTED BY IDOCK:   -5.11 KCAL/MOL
REMARK 924 INTRA-LIGAND FREE ENERGY PREDICTED BY IDOCK:   -0.28 KCAL/MOL
REMARK 927      BINDING AFFINITY PREDICTED BY RF-SCORE:    0.00 PKD
ROOT
HETATM    1  C   UNL     1     -10.990  15.709  69.569  1.00  0.00    -0.281 C  
HETATM    2  C   UNL     1     -11.554  14.503  70.325  1.00  0.00    -0.268 C  
HETATM    3  C   UNL     1     -12.600  14.982  71.336  1.00  0.00    -0.406 C  
ENDROOT
BRANCH   2   4
HETATM    4  N   UNL     1     -12.127  13.583  69.343  1.00  0.00    -0.313 NA 
HETATM    5  H   UNL     1     -13.116  13.427  69.538  1.00  0.00     0.000 HD 
BRANCH   4   6
HETATM    6  C   UNL     1     -11.941  13.990  67.945  1.00  0.00    -0.351 C  
BRANCH   6   7
HETATM    7  C   UNL     1     -11.087  12.945  67.186  1.00  0.00    -0.275 C  
HETATM    8  C   UNL     1     -11.781  12.484  65.906  1.00  0.00    -0.480 C  
HETATM    9  C   UNL     1     -10.825  11.574  65.138  1.00  0.00    -0.326 C  
HETATM   10  C   UNL     1     -10.251  10.504  66.030  1.00  0.00    -0.310 A  
HETATM   11  C   UNL     1      -9.633   9.382  65.452  1.00  0.00    -0.296 A  
HETATM   12  C   UNL     1      -9.085   8.350  66.237  1.00  0.00    -0.241 A  
HETATM   13  C   UNL     1      -9.195   8.466  67.640  1.00  0.00    -0.134 A  
HETATM   14  H   UNL     1     -10.915  11.832  69.055  1.00  0.00     0.000 HD 
HETATM   15  N   UNL     1      -8.667   7.447  68.572  1.00  0.00    -0.128 N  
HETATM   16  N   UNL     1     -10.785  11.789  68.044  1.00  0.00    -0.200 NA 
HETATM   17  C   UNL     1      -9.807   9.596  68.216  1.00  0.00    -0.169 A  
HETATM   18  O   UNL     1      -8.856   7.621  69.784  1.00  0.00    -0.139 OA 
HETATM   19  O   UNL     1      -8.065   6.468  68.108  1.00  0.00    -0.111 OA 
HETATM   20  C   UNL     1     -10.314  10.629  67.424  1.00  0.00    -0.219 A  
BRANCH  12  21
HETATM   21  C   UNL     1      -8.415   7.212  65.512  1.00  0.00    -0.107 C  
HETATM   22  O   UNL     1      -8.584   7.365  64.114  1.00  0.00    -0.352 OA 
HETATM   23  H   UNL     1      -8.161   6.648  63.656  1.00  0.00     0.000 HD 
ENDBRANCH  12  21
ENDBRANCH   6   7
ENDBRANCH   4   6
ENDBRANCH   2   4
TORSDOF 4
ENDMDL
MODEL      132
REMARK 921   NORMALIZED FREE ENERGY PREDICTED BY IDOCK:   -4.01 KCAL/MOL
REMARK 922        TOTAL FREE ENERGY PREDICTED BY IDOCK:   -5.39 KCAL/MOL
REMARK 923 INTER-LIGAND FREE ENERGY PREDICTED BY IDOCK:   -4.98 KCAL/MOL
REMARK 924 INTRA-LIGAND FREE ENERGY PREDICTED BY IDOCK:   -0.40 KCAL/MOL
REMARK 927      BINDING AFFINITY PREDICTED BY RF-SCORE:    0.00 PKD
ROOT
HETATM    1  C   UNL     1      -5.396   7.292  70.145  1.00  0.00    -0.023 C  
HETATM    2  C   UNL     1      -6.786   7.223  70.780  1.00  0.00    -0.052 C  
HETATM    3  C   UNL     1      -7.240   8.636  71.161  1.00  0.00    -0.085 C  
ENDROOT
BRANCH   2   4
HETATM    4  N   UNL     1      -7.693   6.602  69.815  1.00  0.00    -0.110 NA 
HETATM    5  H   UNL     1      -7.674   5.587  69.912  1.00  0.00     0.000 HD 
BRANCH   4   6
HETATM    6  C   UNL     1      -9.075   7.094  69.873  1.00  0.00    -0.141 C  
BRANCH   6   7
HETATM    7  C   UNL     1      -9.507   7.658  68.497  1.00  0.00    -0.147 C  
HETATM    8  C   UNL     1      -8.386   7.532  67.468  1.00  0.00    -0.117 C  
HETATM    9  C   UNL     1      -8.926   7.967  66.107  1.00  0.00    -0.215 C  
HETATM   10  C   UNL     1      -9.628   9.298  66.196  1.00  0.00    -0.327 A  
HETATM   11  C   UNL     1      -9.888  10.021  65.020  1.00  0.00    -0.374 A  
HETATM   12  C   UNL     1     -10.536  11.271  65.045  1.00  0.00    -0.359 A  
HETATM   13  C   UNL     1     -10.901  11.793  66.305  1.00  0.00    -0.281 A  
HETATM   14  H   UNL     1     -10.143   9.476  69.522  1.00  0.00     0.000 HD 
HETATM   15  N   UNL     1     -11.579  13.097  66.465  1.00  0.00    -0.339 N  
HETATM   16  N   UNL     1      -9.932   9.061  68.614  1.00  0.00    -0.167 NA 
HETATM   17  C   UNL     1     -10.647  11.062  67.481  1.00  0.00    -0.266 A  
HETATM   18  O   UNL     1     -11.815  13.487  67.617  1.00  0.00    -0.340 OA 
HETATM   19  O   UNL     1     -11.878  13.744  65.451  1.00  0.00    -0.332 OA 
HETATM   20  C   UNL     1     -10.036   9.806  67.436  1.00  0.00    -0.191 A  
BRANCH  12  21
HETATM   21  C   UNL     1     -10.795  11.941  63.720  1.00  0.00    -0.418 C  
HETATM   22  O   UNL     1     -10.743  10.983  62.678  1.00  0.00    -0.700 OA 
HETATM   23  H   UNL     1     -10.907  11.405  61.843  1.00  0.00     0.000 HD 
ENDBRANCH  12  21
ENDBRANCH   6   7
ENDBRANCH   4   6
ENDBRANCH   2   4
TORSDOF 4
ENDMDL
MODEL      133
REMARK 921   NORMALIZED FREE ENERGY PREDICTED BY IDOCK:   -3.99 KCAL/MOL
REMARK 922        TOTAL FREE ENERGY PREDICTED BY IDOCK:   -5.36 KCAL/MOL
REMARK 923 INTER-LIGAND FREE ENERGY PREDICTED BY IDOCK:   -4.92 KCAL/MOL
REMARK 924 INTRA-LIGAND FREE ENERGY PREDICTED BY IDOCK:   -0.44 KCAL/MOL
REMARK 927      BINDING AFFINITY PREDICTED BY RF-SCORE:    0.00 PKD
ROOT
HETATM    1  C   UNL     1      -7.126   4.599  72.018  1.00  0.00    -0.061 C  
HETATM    2  C   UNL     1      -7.879   3.467  71.314  1.00  0.00    -0.059 C  
HETATM    3  C   UNL     1      -9.117   3.094  72.135  1.00  0.00    -0.147 C  
ENDROOT
BRANCH   2   4
HETATM    4  N   UNL     1      -8.234   3.928  69.972  1.00  0.00    -0.056 NA 
HETATM    5  H   UNL     1      -7.784   3.345  69.266  1.00  0.00     0.000 HD 
BRANCH   4   6
HETATM    6  C   UNL     1      -9.677   4.013  69.719  1.00  0.00    -0.184 C  
BRANCH   6   7
HETATM    7  C   UNL     1     -10.067   5.447  69.284  1.00  0.00    -0.231 C  
HETATM    8  C   UNL     1      -8.837   6.262  68.892  1.00  0.00    -0.124 C  
HETATM    9  C   UNL     1      -9.304   7.606  68.336  1.00  0.00    -0.146 C  
HETATM   10  C   UNL     1     -10.298   8.265  69.257  1.00  0.00    -0.223 A  
HETATM   11  C   UNL     1     -10.581   9.633  69.102  1.00  0.00    -0.237 A  
HETATM   12  C   UNL     1     -11.497  10.300  69.938  1.00  0.00    -0.340 A  
HETATM   13  C   UNL     1     -12.114   9.550  70.963  1.00  0.00    -0.318 A  
HETATM   14  H   UNL     1     -11.217   5.618  71.130  1.00  0.00     0.000 HD 
HETATM   15  N   UNL     1     -13.086  10.137  71.909  1.00  0.00    -0.455 N  
HETATM   16  N   UNL     1     -10.814   6.135  70.348  1.00  0.00    -0.284 NA 
HETATM   17  C   UNL     1     -11.835   8.178  71.110  1.00  0.00    -0.303 A  
HETATM   18  O   UNL     1     -13.536   9.404  72.802  1.00  0.00    -0.355 OA 
HETATM   19  O   UNL     1     -13.408  11.326  71.776  1.00  0.00    -0.391 OA 
HETATM   20  C   UNL     1     -10.951   7.522  70.249  1.00  0.00    -0.250 A  
BRANCH  12  21
HETATM   21  C   UNL     1     -11.750  11.759  69.659  1.00  0.00    -0.344 C  
HETATM   22  O   UNL     1     -10.590  12.351  69.102  1.00  0.00    -0.410 OA 
HETATM   23  H   UNL     1     -10.749  13.271  68.925  1.00  0.00     0.000 HD 
ENDBRANCH  12  21
ENDBRANCH   6   7
ENDBRANCH   4   6
ENDBRANCH   2   4
TORSDOF 4
ENDMDL
MODEL      134
REMARK 921   NORMALIZED FREE ENERGY PREDICTED BY IDOCK:   -3.98 KCAL/MOL
REMARK 922        TOTAL FREE ENERGY PREDICTED BY IDOCK:   -5.35 KCAL/MOL
REMARK 923 INTER-LIGAND FREE ENERGY PREDICTED BY IDOCK:   -4.82 KCAL/MOL
REMARK 924 INTRA-LIGAND FREE ENERGY PREDICTED BY IDOCK:   -0.54 KCAL/MOL
REMARK 927      BINDING AFFINITY PREDICTED BY RF-SCORE:    0.00 PKD
ROOT
HETATM    1  C   UNL     1      -6.578  19.087  69.182  1.00  0.00    -0.322 C  
HETATM    2  C   UNL     1      -6.977  18.807  67.731  1.00  0.00    -0.215 C  
HETATM    3  C   UNL     1      -5.774  18.232  66.976  1.00  0.00    -0.159 C  
ENDROOT
BRANCH   2   4
HETATM    4  N   UNL     1      -8.107  17.878  67.744  1.00  0.00    -0.228 NA 
HETATM    5  H   UNL     1      -8.722  18.080  68.531  1.00  0.00     0.000 HD 
BRANCH   4   6
HETATM    6  C   UNL     1      -8.874  17.835  66.494  1.00  0.00    -0.262 C  
BRANCH   6   7
HETATM    7  C   UNL     1      -9.113  16.369  66.056  1.00  0.00    -0.282 C  
HETATM    8  C   UNL     1     -10.569  16.137  65.659  1.00  0.00    -0.377 C  
HETATM    9  C   UNL     1     -10.699  14.722  65.100  1.00  0.00    -0.433 C  
HETATM   10  C   UNL     1     -10.070  13.709  66.022  1.00  0.00    -0.320 A  
HETATM   11  C   UNL     1     -10.379  12.347  65.863  1.00  0.00    -0.282 A  
HETATM   12  C   UNL     1      -9.825  11.359  66.699  1.00  0.00    -0.233 A  
HETATM   13  C   UNL     1      -8.956  11.783  67.727  1.00  0.00    -0.173 A  
HETATM   14  H   UNL     1      -8.143  15.733  67.904  1.00  0.00     0.000 HD 
HETATM   15  N   UNL     1      -8.317  10.845  68.674  1.00  0.00    -0.141 N  
HETATM   16  N   UNL     1      -8.722  15.432  67.120  1.00  0.00    -0.204 NA 
HETATM   17  C   UNL     1      -8.641  13.148  67.877  1.00  0.00    -0.185 A  
HETATM   18  O   UNL     1      -7.606  11.323  69.570  1.00  0.00    -0.027 OA 
HETATM   19  O   UNL     1      -8.516   9.629  68.538  1.00  0.00    -0.116 OA 
HETATM   20  C   UNL     1      -9.171  14.113  67.017  1.00  0.00    -0.239 A  
BRANCH  12  21
HETATM   21  C   UNL     1     -10.198   9.926  66.416  1.00  0.00    -0.222 C  
HETATM   22  O   UNL     1     -11.154   9.481  67.363  1.00  0.00    -0.399 OA 
HETATM   23  H   UNL     1     -11.390   8.579  67.184  1.00  0.00     0.000 HD 
ENDBRANCH  12  21
ENDBRANCH   6   7
ENDBRANCH   4   6
ENDBRANCH   2   4
TORSDOF 4
ENDMDL
MODEL      135
REMARK 921   NORMALIZED FREE ENERGY PREDICTED BY IDOCK:   -3.95 KCAL/MOL
REMARK 922        TOTAL FREE ENERGY PREDICTED BY IDOCK:   -5.32 KCAL/MOL
REMARK 923 INTER-LIGAND FREE ENERGY PREDICTED BY IDOCK:   -5.00 KCAL/MOL
REMARK 924 INTRA-LIGAND FREE ENERGY PREDICTED BY IDOCK:   -0.32 KCAL/MOL
REMARK 927      BINDING AFFINITY PREDICTED BY RF-SCORE:    0.00 PKD
ROOT
HETATM    1  C   UNL     1      -9.467   9.978  63.390  1.00  0.00    -0.239 C  
HETATM    2  C   UNL     1      -9.384  10.157  64.908  1.00  0.00    -0.254 C  
HETATM    3  C   UNL     1      -7.936  10.461  65.304  1.00  0.00    -0.143 C  
ENDROOT
BRANCH   2   4
HETATM    4  N   UNL     1     -10.290  11.241  65.285  1.00  0.00    -0.268 NA 
HETATM    5  H   UNL     1     -11.126  11.225  64.700  1.00  0.00     0.000 HD 
BRANCH   4   6
HETATM    6  C   UNL     1     -10.662  11.259  66.704  1.00  0.00    -0.272 C  
BRANCH   6   7
HETATM    7  C   UNL     1     -10.785  12.717  67.213  1.00  0.00    -0.237 C  
HETATM    8  C   UNL     1     -11.539  13.592  66.215  1.00  0.00    -0.372 C  
HETATM    9  C   UNL     1     -11.752  14.968  66.842  1.00  0.00    -0.181 C  
HETATM   10  C   UNL     1     -10.467  15.520  67.404  1.00  0.00    -0.281 A  
HETATM   11  C   UNL     1     -10.379  16.889  67.709  1.00  0.00    -0.327 A  
HETATM   12  C   UNL     1      -9.201  17.458  68.230  1.00  0.00    -0.271 A  
HETATM   13  C   UNL     1      -8.091  16.607  68.421  1.00  0.00    -0.208 A  
HETATM   14  H   UNL     1      -8.633  12.698  67.573  1.00  0.00     0.000 HD 
HETATM   15  N   UNL     1      -6.798  17.085  68.954  1.00  0.00    -0.200 N  
HETATM   16  N   UNL     1      -9.460  13.290  67.492  1.00  0.00    -0.212 NA 
HETATM   17  C   UNL     1      -8.186  15.233  68.123  1.00  0.00    -0.141 A  
HETATM   18  O   UNL     1      -5.871  16.266  69.039  1.00  0.00    -0.124 OA 
HETATM   19  O   UNL     1      -6.691  18.273  69.288  1.00  0.00    -0.262 OA 
HETATM   20  C   UNL     1      -9.373  14.677  67.639  1.00  0.00    -0.200 A  
BRANCH  12  21
HETATM   21  C   UNL     1      -9.231  18.930  68.553  1.00  0.00    -0.361 C  
HETATM   22  O   UNL     1     -10.568  19.354  68.748  1.00  0.00    -0.451 OA 
HETATM   23  H   UNL     1     -10.587  20.281  68.951  1.00  0.00     0.000 HD 
ENDBRANCH  12  21
ENDBRANCH   6   7
ENDBRANCH   4   6
ENDBRANCH   2   4
TORSDOF 4
ENDMDL
MODEL      136
REMARK 921   NORMALIZED FREE ENERGY PREDICTED BY IDOCK:   -3.93 KCAL/MOL
REMARK 922        TOTAL FREE ENERGY PREDICTED BY IDOCK:   -5.29 KCAL/MOL
REMARK 923 INTER-LIGAND FREE ENERGY PREDICTED BY IDOCK:   -4.85 KCAL/MOL
REMARK 924 INTRA-LIGAND FREE ENERGY PREDICTED BY IDOCK:   -0.44 KCAL/MOL
REMARK 927      BINDING AFFINITY PREDICTED BY RF-SCORE:    0.00 PKD
ROOT
HETATM    1  C   UNL     1      -8.261  10.626  66.226  1.00  0.00    -0.153 C  
HETATM    2  C   UNL     1      -9.253  11.581  65.558  1.00  0.00    -0.142 C  
HETATM    3  C   UNL     1     -10.526  10.813  65.188  1.00  0.00    -0.299 C  
ENDROOT
BRANCH   2   4
HETATM    4  N   UNL     1      -9.528  12.673  66.492  1.00  0.00    -0.246 NA 
HETATM    5  H   UNL     1     -10.403  12.504  66.987  1.00  0.00     0.000 HD 
BRANCH   4   6
HETATM    6  C   UNL     1      -8.447  12.946  67.446  1.00  0.00    -0.196 C  
BRANCH   6   7
HETATM    7  C   UNL     1      -7.861  14.360  67.210  1.00  0.00    -0.163 C  
HETATM    8  C   UNL     1      -6.652  14.617  68.106  1.00  0.00    -0.139 C  
HETATM    9  C   UNL     1      -6.038  15.961  67.718  1.00  0.00    -0.167 C  
HETATM   10  C   UNL     1      -7.086  17.043  67.652  1.00  0.00    -0.163 A  
HETATM   11  C   UNL     1      -6.686  18.390  67.651  1.00  0.00    -0.198 A  
HETATM   12  C   UNL     1      -7.622  19.441  67.597  1.00  0.00    -0.292 A  
HETATM   13  C   UNL     1      -8.991  19.097  67.565  1.00  0.00    -0.295 A  
HETATM   14  H   UNL     1      -9.875  15.160  67.468  1.00  0.00     0.000 HD 
HETATM   15  N   UNL     1     -10.069  20.108  67.516  1.00  0.00    -0.413 N  
HETATM   16  N   UNL     1      -8.883  15.395  67.427  1.00  0.00    -0.176 NA 
HETATM   17  C   UNL     1      -9.387  17.746  67.558  1.00  0.00    -0.245 A  
HETATM   18  O   UNL     1     -11.240  19.703  67.538  1.00  0.00    -0.257 OA 
HETATM   19  O   UNL     1      -9.762  21.307  67.457  1.00  0.00    -0.250 OA 
HETATM   20  C   UNL     1      -8.445  16.714  67.576  1.00  0.00    -0.188 A  
BRANCH  12  21
HETATM   21  C   UNL     1      -7.080  20.847  67.565  1.00  0.00    -0.335 C  
HETATM   22  O   UNL     1      -6.850  21.244  66.225  1.00  0.00    -0.535 OA 
HETATM   23  H   UNL     1      -6.509  22.130  66.204  1.00  0.00     0.000 HD 
ENDBRANCH  12  21
ENDBRANCH   6   7
ENDBRANCH   4   6
ENDBRANCH   2   4
TORSDOF 4
ENDMDL
MODEL      137
REMARK 921   NORMALIZED FREE ENERGY PREDICTED BY IDOCK:   -3.92 KCAL/MOL
REMARK 922        TOTAL FREE ENERGY PREDICTED BY IDOCK:   -5.28 KCAL/MOL
REMARK 923 INTER-LIGAND FREE ENERGY PREDICTED BY IDOCK:   -4.66 KCAL/MOL
REMARK 924 INTRA-LIGAND FREE ENERGY PREDICTED BY IDOCK:   -0.61 KCAL/MOL
REMARK 927      BINDING AFFINITY PREDICTED BY RF-SCORE:    0.00 PKD
ROOT
HETATM    1  C   UNL     1     -12.920  10.296  71.624  1.00  0.00    -0.570 C  
HETATM    2  C   UNL     1     -12.995   8.975  72.393  1.00  0.00    -0.405 C  
HETATM    3  C   UNL     1     -14.200   8.168  71.899  1.00  0.00    -0.530 C  
ENDROOT
BRANCH   2   4
HETATM    4  N   UNL     1     -11.737   8.258  72.183  1.00  0.00    -0.340 NA 
HETATM    5  H   UNL     1     -11.403   7.862  73.061  1.00  0.00     0.000 HD 
BRANCH   4   6
HETATM    6  C   UNL     1     -11.791   7.223  71.145  1.00  0.00    -0.312 C  
BRANCH   6   7
HETATM    7  C   UNL     1     -10.553   7.318  70.220  1.00  0.00    -0.229 C  
HETATM    8  C   UNL     1      -9.331   7.831  70.979  1.00  0.00    -0.160 C  
HETATM    9  C   UNL     1      -8.119   7.758  70.052  1.00  0.00    -0.118 C  
HETATM   10  C   UNL     1      -8.412   8.392  68.716  1.00  0.00    -0.124 A  
HETATM   11  C   UNL     1      -7.347   8.729  67.864  1.00  0.00    -0.088 A  
HETATM   12  C   UNL     1      -7.563   9.328  66.608  1.00  0.00    -0.093 A  
HETATM   13  C   UNL     1      -8.897   9.602  66.235  1.00  0.00    -0.151 A  
HETATM   14  H   UNL     1     -11.781   8.439  68.807  1.00  0.00     0.000 HD 
HETATM   15  N   UNL     1      -9.253  10.235  64.947  1.00  0.00    -0.205 N  
HETATM   16  N   UNL     1     -10.827   8.179  69.060  1.00  0.00    -0.069 NA 
HETATM   17  C   UNL     1      -9.962   9.254  67.087  1.00  0.00    -0.276 A  
HETATM   18  O   UNL     1     -10.450  10.476  64.735  1.00  0.00    -0.304 OA 
HETATM   19  O   UNL     1      -8.350  10.499  64.140  1.00  0.00    -0.164 OA 
HETATM   20  C   UNL     1      -9.734   8.628  68.315  1.00  0.00    -0.155 A  
BRANCH  12  21
HETATM   21  C   UNL     1      -6.349   9.615  65.763  1.00  0.00    -0.075 C  
HETATM   22  O   UNL     1      -6.047  10.998  65.807  1.00  0.00    -0.295 OA 
HETATM   23  H   UNL     1      -5.282  11.179  65.274  1.00  0.00     0.000 HD 
ENDBRANCH  12  21
ENDBRANCH   6   7
ENDBRANCH   4   6
ENDBRANCH   2   4
TORSDOF 4
ENDMDL
MODEL      138
REMARK 921   NORMALIZED FREE ENERGY PREDICTED BY IDOCK:   -3.91 KCAL/MOL
REMARK 922        TOTAL FREE ENERGY PREDICTED BY IDOCK:   -5.27 KCAL/MOL
REMARK 923 INTER-LIGAND FREE ENERGY PREDICTED BY IDOCK:   -4.88 KCAL/MOL
REMARK 924 INTRA-LIGAND FREE ENERGY PREDICTED BY IDOCK:   -0.38 KCAL/MOL
REMARK 927      BINDING AFFINITY PREDICTED BY RF-SCORE:    0.00 PKD
ROOT
HETATM    1  C   UNL     1      -7.666   7.177  69.584  1.00  0.00    -0.109 C  
HETATM    2  C   UNL     1      -8.423   7.793  70.763  1.00  0.00    -0.121 C  
HETATM    3  C   UNL     1      -7.787   9.138  71.129  1.00  0.00    -0.119 C  
ENDROOT
BRANCH   2   4
HETATM    4  N   UNL     1      -9.825   7.941  70.372  1.00  0.00    -0.183 NA 
HETATM    5  H   UNL     1     -10.369   7.140  70.690  1.00  0.00     0.000 HD 
BRANCH   4   6
HETATM    6  C   UNL     1     -10.452   9.192  70.815  1.00  0.00    -0.257 C  
BRANCH   6   7
HETATM    7  C   UNL     1     -10.968   9.999  69.598  1.00  0.00    -0.264 C  
HETATM    8  C   UNL     1     -10.498   9.383  68.282  1.00  0.00    -0.260 C  
HETATM    9  C   UNL     1     -11.161  10.135  67.131  1.00  0.00    -0.122 C  
HETATM   10  C   UNL     1     -10.999  11.626  67.285  1.00  0.00    -0.318 A  
HETATM   11  C   UNL     1     -11.231  12.463  66.181  1.00  0.00    -0.364 A  
HETATM   12  C   UNL     1     -11.089  13.861  66.267  1.00  0.00    -0.304 A  
HETATM   13  C   UNL     1     -10.681  14.402  67.506  1.00  0.00    -0.271 A  
HETATM   14  H   UNL     1     -10.186  11.800  70.551  1.00  0.00     0.000 HD 
HETATM   15  N   UNL     1     -10.489  15.852  67.722  1.00  0.00    -0.279 N  
HETATM   16  N   UNL     1     -10.541  11.404  69.680  1.00  0.00     0.009 NA 
HETATM   17  C   UNL     1     -10.459  13.561  68.613  1.00  0.00    -0.242 A  
HETATM   18  O   UNL     1     -10.084  16.221  68.834  1.00  0.00    -0.226 OA 
HETATM   19  O   UNL     1     -10.735  16.633  66.791  1.00  0.00    -0.253 OA 
HETATM   20  C   UNL     1     -10.638  12.179  68.521  1.00  0.00    -0.233 A  
BRANCH  12  21
HETATM   21  C   UNL     1     -11.397  14.664  65.029  1.00  0.00    -0.390 C  
HETATM   22  O   UNL     1     -11.286  13.842  63.881  1.00  0.00    -0.578 OA 
HETATM   23  H   UNL     1     -11.480  14.347  63.102  1.00  0.00     0.000 HD 
ENDBRANCH  12  21
ENDBRANCH   6   7
ENDBRANCH   4   6
ENDBRANCH   2   4
TORSDOF 4
ENDMDL
MODEL      139
REMARK 921   NORMALIZED FREE ENERGY PREDICTED BY IDOCK:   -3.90 KCAL/MOL
REMARK 922        TOTAL FREE ENERGY PREDICTED BY IDOCK:   -5.25 KCAL/MOL
REMARK 923 INTER-LIGAND FREE ENERGY PREDICTED BY IDOCK:   -4.77 KCAL/MOL
REMARK 924 INTRA-LIGAND FREE ENERGY PREDICTED BY IDOCK:   -0.49 KCAL/MOL
REMARK 927      BINDING AFFINITY PREDICTED BY RF-SCORE:    0.00 PKD
ROOT
HETATM    1  C   UNL     1     -13.731  13.966  71.908  1.00  0.00    -0.521 C  
HETATM    2  C   UNL     1     -13.356  15.295  71.248  1.00  0.00    -0.510 C  
HETATM    3  C   UNL     1     -12.130  15.883  71.953  1.00  0.00    -0.578 C  
ENDROOT
BRANCH   2   4
HETATM    4  N   UNL     1     -13.098  15.039  69.831  1.00  0.00    -0.476 NA 
HETATM    5  H   UNL     1     -13.966  15.090  69.298  1.00  0.00     0.000 HD 
BRANCH   4   6
HETATM    6  C   UNL     1     -12.079  15.907  69.230  1.00  0.00    -0.151 C  
BRANCH   6   7
HETATM    7  C   UNL     1     -11.152  15.088  68.298  1.00  0.00    -0.286 C  
HETATM    8  C   UNL     1     -11.958  14.287  67.277  1.00  0.00    -0.439 C  
HETATM    9  C   UNL     1     -10.985  13.626  66.303  1.00  0.00    -0.300 C  
HETATM   10  C   UNL     1      -9.888  12.897  67.035  1.00  0.00    -0.233 A  
HETATM   11  C   UNL     1      -9.105  11.955  66.344  1.00  0.00    -0.208 A  
HETATM   12  C   UNL     1      -8.072  11.241  66.980  1.00  0.00    -0.149 A  
HETATM   13  C   UNL     1      -7.855  11.486  68.353  1.00  0.00    -0.136 A  
HETATM   14  H   UNL     1     -10.161  14.313  70.081  1.00  0.00     0.000 HD 
HETATM   15  N   UNL     1      -6.807  10.796  69.134  1.00  0.00    -0.074 N  
HETATM   16  N   UNL     1     -10.284  14.190  69.075  1.00  0.00    -0.175 NA 
HETATM   17  C   UNL     1      -8.635  12.437  69.040  1.00  0.00     0.444 A  
HETATM   18  O   UNL     1      -6.729  11.048  70.345  1.00  0.00    -0.263 OA 
HETATM   19  O   UNL     1      -6.057   9.998  68.554  1.00  0.00    -0.045 OA 
HETATM   20  C   UNL     1      -9.634  13.163  68.387  1.00  0.00    -0.186 A  
BRANCH  12  21
HETATM   21  C   UNL     1      -7.274  10.282  66.134  1.00  0.00    -0.121 C  
HETATM   22  O   UNL     1      -6.265  10.985  65.430  1.00  0.00    -0.361 OA 
HETATM   23  H   UNL     1      -5.762  10.381  64.897  1.00  0.00     0.000 HD 
ENDBRANCH  12  21
ENDBRANCH   6   7
ENDBRANCH   4   6
ENDBRANCH   2   4
TORSDOF 4
ENDMDL
MODEL      140
REMARK 921   NORMALIZED FREE ENERGY PREDICTED BY IDOCK:   -3.89 KCAL/MOL
REMARK 922        TOTAL FREE ENERGY PREDICTED BY IDOCK:   -5.25 KCAL/MOL
REMARK 923 INTER-LIGAND FREE ENERGY PREDICTED BY IDOCK:   -4.78 KCAL/MOL
REMARK 924 INTRA-LIGAND FREE ENERGY PREDICTED BY IDOCK:   -0.47 KCAL/MOL
REMARK 927      BINDING AFFINITY PREDICTED BY RF-SCORE:    0.00 PKD
ROOT
HETATM    1  C   UNL     1     -10.271  19.990  68.336  1.00  0.00    -0.510 C  
HETATM    2  C   UNL     1     -10.739  19.258  67.075  1.00  0.00    -0.464 C  
HETATM    3  C   UNL     1     -10.360  20.081  65.841  1.00  0.00    -0.529 C  
ENDROOT
BRANCH   2   4
HETATM    4  N   UNL     1     -10.111  17.936  67.062  1.00  0.00    -0.324 NA 
HETATM    5  H   UNL     1      -9.117  18.013  67.275  1.00  0.00     0.000 HD 
BRANCH   4   6
HETATM    6  C   UNL     1     -10.747  16.951  67.943  1.00  0.00    -0.344 C  
BRANCH   6   7
HETATM    7  C   UNL     1      -9.792  15.759  68.201  1.00  0.00    -0.209 C  
HETATM    8  C   UNL     1      -8.806  15.577  67.050  1.00  0.00    -0.255 C  
HETATM    9  C   UNL     1      -7.806  14.490  67.435  1.00  0.00    -0.221 C  
HETATM   10  C   UNL     1      -8.508  13.254  67.939  1.00  0.00    -0.177 A  
HETATM   11  C   UNL     1      -7.800  12.043  68.017  1.00  0.00    -0.145 A  
HETATM   12  C   UNL     1      -8.407  10.858  68.474  1.00  0.00    -0.142 A  
HETATM   13  C   UNL     1      -9.770  10.918  68.837  1.00  0.00    -0.187 A  
HETATM   14  H   UNL     1     -11.548  14.535  68.627  1.00  0.00     0.000 HD 
HETATM   15  N   UNL     1     -10.521   9.742  69.324  1.00  0.00    -0.208 N  
HETATM   16  N   UNL     1     -10.548  14.517  68.423  1.00  0.00    -0.238 NA 
HETATM   17  C   UNL     1     -10.473  12.136  68.766  1.00  0.00    -0.201 A  
HETATM   18  O   UNL     1     -11.727   9.890  69.572  1.00  0.00    -0.078 OA 
HETATM   19  O   UNL     1      -9.923   8.665  69.462  1.00  0.00    -0.187 OA 
HETATM   20  C   UNL     1      -9.847  13.311  68.344  1.00  0.00    -0.218 A  
BRANCH  12  21
HETATM   21  C   UNL     1      -7.543   9.625  68.550  1.00  0.00    -0.080 C  
HETATM   22  O   UNL     1      -7.100   9.427  69.881  1.00  0.00    -0.059 OA 
HETATM   23  H   UNL     1      -6.556   8.650  69.929  1.00  0.00     0.000 HD 
ENDBRANCH  12  21
ENDBRANCH   6   7
ENDBRANCH   4   6
ENDBRANCH   2   4
TORSDOF 4
ENDMDL
MODEL      141
REMARK 921   NORMALIZED FREE ENERGY PREDICTED BY IDOCK:   -3.88 KCAL/MOL
REMARK 922        TOTAL FREE ENERGY PREDICTED BY IDOCK:   -5.23 KCAL/MOL
REMARK 923 INTER-LIGAND FREE ENERGY PREDICTED BY IDOCK:   -4.87 KCAL/MOL
REMARK 924 INTRA-LIGAND FREE ENERGY PREDICTED BY IDOCK:   -0.36 KCAL/MOL
REMARK 927      BINDING AFFINITY PREDICTED BY RF-SCORE:    0.00 PKD
ROOT
HETATM    1  C   UNL     1      -8.426   5.457  70.396  1.00  0.00    -0.117 C  
HETATM    2  C   UNL     1      -7.653   6.130  71.533  1.00  0.00    -0.099 C  
HETATM    3  C   UNL     1      -6.418   6.833  70.961  1.00  0.00    -0.049 C  
ENDROOT
BRANCH   2   4
HETATM    4  N   UNL     1      -8.556   7.070  72.197  1.00  0.00    -0.112 NA 
HETATM    5  H   UNL     1      -8.138   8.000  72.231  1.00  0.00     0.000 HD 
BRANCH   4   6
HETATM    6  C   UNL     1      -9.902   7.137  71.616  1.00  0.00    -0.162 C  
BRANCH   6   7
HETATM    7  C   UNL     1     -10.290   8.605  71.317  1.00  0.00    -0.239 C  
HETATM    8  C   UNL     1     -11.806   8.776  71.247  1.00  0.00    -0.358 C  
HETATM    9  C   UNL     1     -12.120  10.264  71.099  1.00  0.00    -0.494 C  
HETATM   10  C   UNL     1     -11.308  10.887  69.993  1.00  0.00    -0.386 A  
HETATM   11  C   UNL     1     -11.689  12.138  69.478  1.00  0.00    -0.402 A  
HETATM   12  C   UNL     1     -10.971  12.764  68.441  1.00  0.00    -0.281 A  
HETATM   13  C   UNL     1      -9.854  12.080  67.913  1.00  0.00    -0.196 A  
HETATM   14  H   UNL     1      -8.900   8.556  69.636  1.00  0.00     0.000 HD 
HETATM   15  N   UNL     1      -9.024  12.627  66.819  1.00  0.00    -0.215 N  
HETATM   16  N   UNL     1      -9.669   9.070  70.067  1.00  0.00    -0.176 NA 
HETATM   17  C   UNL     1      -9.469  10.831  68.438  1.00  0.00    -0.174 A  
HETATM   18  O   UNL     1      -8.093  11.926  66.396  1.00  0.00    -0.058 OA 
HETATM   19  O   UNL     1      -9.290  13.752  66.372  1.00  0.00    -0.262 OA 
HETATM   20  C   UNL     1     -10.172  10.239  69.491  1.00  0.00    -0.236 A  
BRANCH  12  21
HETATM   21  C   UNL     1     -11.449  14.120  67.991  1.00  0.00    -0.312 C  
HETATM   22  O   UNL     1     -12.618  14.480  68.705  1.00  0.00    -0.545 OA 
HETATM   23  H   UNL     1     -12.920  15.335  68.422  1.00  0.00     0.000 HD 
ENDBRANCH  12  21
ENDBRANCH   6   7
ENDBRANCH   4   6
ENDBRANCH   2   4
TORSDOF 4
ENDMDL
MODEL      142
REMARK 921   NORMALIZED FREE ENERGY PREDICTED BY IDOCK:   -3.88 KCAL/MOL
REMARK 922        TOTAL FREE ENERGY PREDICTED BY IDOCK:   -5.23 KCAL/MOL
REMARK 923 INTER-LIGAND FREE ENERGY PREDICTED BY IDOCK:   -4.71 KCAL/MOL
REMARK 924 INTRA-LIGAND FREE ENERGY PREDICTED BY IDOCK:   -0.52 KCAL/MOL
REMARK 927      BINDING AFFINITY PREDICTED BY RF-SCORE:    0.00 PKD
ROOT
HETATM    1  C   UNL     1     -11.318  11.909  63.617  1.00  0.00    -0.536 C  
HETATM    2  C   UNL     1     -10.464  12.607  64.679  1.00  0.00    -0.337 C  
HETATM    3  C   UNL     1     -10.968  14.041  64.873  1.00  0.00    -0.398 C  
ENDROOT
BRANCH   2   4
HETATM    4  N   UNL     1     -10.551  11.827  65.913  1.00  0.00    -0.262 NA 
HETATM    5  H   UNL     1     -11.124  10.996  65.767  1.00  0.00     0.000 HD 
BRANCH   4   6
HETATM    6  C   UNL     1      -9.256  11.459  66.495  1.00  0.00    -0.189 C  
BRANCH   6   7
HETATM    7  C   UNL     1      -9.318  10.034  67.097  1.00  0.00    -0.149 C  
HETATM    8  C   UNL     1     -10.631   9.339  66.746  1.00  0.00    -0.207 C  
HETATM    9  C   UNL     1     -10.563   7.896  67.241  1.00  0.00    -0.365 C  
HETATM   10  C   UNL     1     -10.116   7.830  68.679  1.00  0.00    -0.211 A  
HETATM   11  C   UNL     1     -10.316   6.647  69.410  1.00  0.00    -0.228 A  
HETATM   12  C   UNL     1      -9.923   6.533  70.758  1.00  0.00    -0.205 A  
HETATM   13  C   UNL     1      -9.335   7.663  71.366  1.00  0.00    -0.140 A  
HETATM   14  H   UNL     1      -8.771  10.901  69.024  1.00  0.00     0.000 HD 
HETATM   15  N   UNL     1      -8.888   7.671  72.775  1.00  0.00    -0.140 N  
HETATM   16  N   UNL     1      -9.138  10.072  68.557  1.00  0.00    -0.124 NA 
HETATM   17  C   UNL     1      -9.128   8.844  70.628  1.00  0.00    -0.247 A  
HETATM   18  O   UNL     1      -8.426   8.729  73.227  1.00  0.00    -0.366 OA 
HETATM   19  O   UNL     1      -8.993   6.632  73.443  1.00  0.00    -0.123 OA 
HETATM   20  C   UNL     1      -9.491   8.930  69.281  1.00  0.00    -0.161 A  
BRANCH  12  21
HETATM   21  C   UNL     1     -10.154   5.206  71.434  1.00  0.00    -0.200 C  
HETATM   22  O   UNL     1      -8.938   4.483  71.506  1.00  0.00    -0.122 OA 
HETATM   23  H   UNL     1      -9.083   3.647  71.932  1.00  0.00     0.000 HD 
ENDBRANCH  12  21
ENDBRANCH   6   7
ENDBRANCH   4   6
ENDBRANCH   2   4
TORSDOF 4
ENDMDL
MODEL      143
REMARK 921   NORMALIZED FREE ENERGY PREDICTED BY IDOCK:   -3.88 KCAL/MOL
REMARK 922        TOTAL FREE ENERGY PREDICTED BY IDOCK:   -5.23 KCAL/MOL
REMARK 923 INTER-LIGAND FREE ENERGY PREDICTED BY IDOCK:   -4.69 KCAL/MOL
REMARK 924 INTRA-LIGAND FREE ENERGY PREDICTED BY IDOCK:   -0.53 KCAL/MOL
REMARK 927      BINDING AFFINITY PREDICTED BY RF-SCORE:    0.00 PKD
ROOT
HETATM    1  C   UNL     1     -10.392   7.963  66.844  1.00  0.00    -0.400 C  
HETATM    2  C   UNL     1     -10.784   9.336  67.394  1.00  0.00    -0.193 C  
HETATM    3  C   UNL     1     -10.604   9.344  68.915  1.00  0.00    -0.231 C  
ENDROOT
BRANCH   2   4
HETATM    4  N   UNL     1      -9.945  10.340  66.741  1.00  0.00    -0.200 NA 
HETATM    5  H   UNL     1      -9.716  10.049  65.791  1.00  0.00     0.000 HD 
BRANCH   4   6
HETATM    6  C   UNL     1     -10.508  11.696  66.737  1.00  0.00    -0.230 C  
BRANCH   6   7
HETATM    7  C   UNL     1      -9.376  12.752  66.793  1.00  0.00    -0.241 C  
HETATM    8  C   UNL     1      -8.194  12.256  67.622  1.00  0.00    -0.166 C  
HETATM    9  C   UNL     1      -7.063  13.277  67.512  1.00  0.00    -0.156 C  
HETATM   10  C   UNL     1      -7.557  14.674  67.788  1.00  0.00    -0.173 A  
HETATM   11  C   UNL     1      -6.629  15.691  68.070  1.00  0.00    -0.152 A  
HETATM   12  C   UNL     1      -7.035  17.011  68.341  1.00  0.00    -0.180 A  
HETATM   13  C   UNL     1      -8.420  17.283  68.342  1.00  0.00    -0.254 A  
HETATM   14  H   UNL     1     -10.873  14.220  67.395  1.00  0.00     0.000 HD 
HETATM   15  N   UNL     1      -8.972  18.626  68.619  1.00  0.00    -0.324 N  
HETATM   16  N   UNL     1      -9.874  14.027  67.330  1.00  0.00    -0.238 NA 
HETATM   17  C   UNL     1      -9.347  16.264  68.050  1.00  0.00    -0.214 A  
HETATM   18  O   UNL     1     -10.206  18.749  68.642  1.00  0.00    -0.381 OA 
HETATM   19  O   UNL     1      -8.189  19.565  68.819  1.00  0.00    -0.357 OA 
HETATM   20  C   UNL     1      -8.927  14.966  67.748  1.00  0.00    -0.177 A  
BRANCH  12  21
HETATM   21  C   UNL     1      -5.952  18.028  68.596  1.00  0.00    -0.189 C  
HETATM   22  O   UNL     1      -5.838  18.273  69.987  1.00  0.00    -0.237 OA 
HETATM   23  H   UNL     1      -5.156  18.913  70.147  1.00  0.00     0.000 HD 
ENDBRANCH  12  21
ENDBRANCH   6   7
ENDBRANCH   4   6
ENDBRANCH   2   4
TORSDOF 4
ENDMDL
MODEL      144
REMARK 921   NORMALIZED FREE ENERGY PREDICTED BY IDOCK:   -3.83 KCAL/MOL
REMARK 922        TOTAL FREE ENERGY PREDICTED BY IDOCK:   -5.17 KCAL/MOL
REMARK 923 INTER-LIGAND FREE ENERGY PREDICTED BY IDOCK:   -4.94 KCAL/MOL
REMARK 924 INTRA-LIGAND FREE ENERGY PREDICTED BY IDOCK:   -0.23 KCAL/MOL
REMARK 927      BINDING AFFINITY PREDICTED BY RF-SCORE:    0.00 PKD
ROOT
HETATM    1  C   UNL     1      -9.923   4.290  65.412  1.00  0.00    -0.233 C  
HETATM    2  C   UNL     1      -8.890   3.844  66.450  1.00  0.00    -0.125 C  
HETATM    3  C   UNL     1      -7.768   3.071  65.750  1.00  0.00    -0.081 C  
ENDROOT
BRANCH   2   4
HETATM    4  N   UNL     1      -8.387   5.039  67.128  1.00  0.00    -0.107 NA 
HETATM    5  H   UNL     1      -8.392   5.836  66.493  1.00  0.00     0.000 HD 
BRANCH   4   6
HETATM    6  C   UNL     1      -9.089   5.374  68.373  1.00  0.00    -0.109 C  
BRANCH   6   7
HETATM    7  C   UNL     1      -9.622   6.827  68.319  1.00  0.00    -0.127 C  
HETATM    8  C   UNL     1      -8.482   7.833  68.182  1.00  0.00    -0.124 C  
HETATM    9  C   UNL     1      -9.083   9.223  67.986  1.00  0.00    -0.132 C  
HETATM   10  C   UNL     1     -10.135   9.516  69.024  1.00  0.00    -0.201 A  
HETATM   11  C   UNL     1     -10.555  10.843  69.226  1.00  0.00    -0.251 A  
HETATM   12  C   UNL     1     -11.529  11.174  70.186  1.00  0.00    -0.361 A  
HETATM   13  C   UNL     1     -12.064  10.125  70.965  1.00  0.00    -0.377 A  
HETATM   14  H   UNL     1     -10.776   6.394  70.120  1.00  0.00     0.000 HD 
HETATM   15  N   UNL     1     -13.087  10.345  72.010  1.00  0.00    -0.457 N  
HETATM   16  N   UNL     1     -10.430   7.135  69.509  1.00  0.00    -0.219 NA 
HETATM   17  C   UNL     1     -11.648   8.796  70.754  1.00  0.00    -0.288 A  
HETATM   18  O   UNL     1     -13.457   9.364  72.670  1.00  0.00    -0.413 OA 
HETATM   19  O   UNL     1     -13.527  11.491  72.184  1.00  0.00    -0.410 OA 
HETATM   20  C   UNL     1     -10.706   8.479  69.773  1.00  0.00    -0.213 A  
BRANCH  12  21
HETATM   21  C   UNL     1     -11.929  12.624  70.292  1.00  0.00    -0.284 C  
HETATM   22  O   UNL     1     -11.053  13.423  69.517  1.00  0.00    -0.433 OA 
HETATM   23  H   UNL     1     -11.304  14.336  69.583  1.00  0.00     0.000 HD 
ENDBRANCH  12  21
ENDBRANCH   6   7
ENDBRANCH   4   6
ENDBRANCH   2   4
TORSDOF 4
ENDMDL
MODEL      145
REMARK 921   NORMALIZED FREE ENERGY PREDICTED BY IDOCK:   -3.83 KCAL/MOL
REMARK 922        TOTAL FREE ENERGY PREDICTED BY IDOCK:   -5.17 KCAL/MOL
REMARK 923 INTER-LIGAND FREE ENERGY PREDICTED BY IDOCK:   -4.72 KCAL/MOL
REMARK 924 INTRA-LIGAND FREE ENERGY PREDICTED BY IDOCK:   -0.45 KCAL/MOL
REMARK 927      BINDING AFFINITY PREDICTED BY RF-SCORE:    0.00 PKD
ROOT
HETATM    1  C   UNL     1      -8.664   9.359  67.559  1.00  0.00    -0.123 C  
HETATM    2  C   UNL     1      -7.923   9.927  68.773  1.00  0.00    -0.093 C  
HETATM    3  C   UNL     1      -6.414   9.754  68.573  1.00  0.00    -0.051 C  
ENDROOT
BRANCH   2   4
HETATM    4  N   UNL     1      -8.296  11.334  68.911  1.00  0.00    -0.311 NA 
HETATM    5  H   UNL     1      -7.591  11.837  69.451  1.00  0.00     0.000 HD 
BRANCH   4   6
HETATM    6  C   UNL     1      -8.555  12.024  67.643  1.00  0.00    -0.163 C  
BRANCH   6   7
HETATM    7  C   UNL     1      -9.196  13.410  67.901  1.00  0.00    -0.216 C  
HETATM    8  C   UNL     1     -10.006  13.881  66.696  1.00  0.00    -0.279 C  
HETATM    9  C   UNL     1     -10.726  15.174  67.072  1.00  0.00    -0.307 C  
HETATM   10  C   UNL     1      -9.778  16.169  67.692  1.00  0.00    -0.233 A  
HETATM   11  C   UNL     1     -10.161  17.518  67.789  1.00  0.00    -0.330 A  
HETATM   12  C   UNL     1      -9.313  18.490  68.353  1.00  0.00    -0.359 A  
HETATM   13  C   UNL     1      -8.043  18.068  68.805  1.00  0.00    -0.236 A  
HETATM   14  H   UNL     1      -7.228  14.126  68.515  1.00  0.00     0.000 HD 
HETATM   15  N   UNL     1      -7.061  18.993  69.409  1.00  0.00    -0.228 N  
HETATM   16  N   UNL     1      -8.170  14.407  68.244  1.00  0.00    -0.141 NA 
HETATM   17  C   UNL     1      -7.667  16.714  68.715  1.00  0.00    -0.233 A  
HETATM   18  O   UNL     1      -5.956  18.532  69.731  1.00  0.00    -0.246 OA 
HETATM   19  O   UNL     1      -7.376  20.182  69.566  1.00  0.00    -0.093 OA 
HETATM   20  C   UNL     1      -8.534  15.755  68.184  1.00  0.00    -0.162 A  
BRANCH  12  21
HETATM   21  C   UNL     1      -9.839  19.900  68.438  1.00  0.00    -0.377 C  
HETATM   22  O   UNL     1     -10.300  20.164  69.751  1.00  0.00    -0.541 OA 
HETATM   23  H   UNL     1     -10.632  21.052  69.805  1.00  0.00     0.000 HD 
ENDBRANCH  12  21
ENDBRANCH   6   7
ENDBRANCH   4   6
ENDBRANCH   2   4
TORSDOF 4
ENDMDL
MODEL      146
REMARK 921   NORMALIZED FREE ENERGY PREDICTED BY IDOCK:   -3.81 KCAL/MOL
REMARK 922        TOTAL FREE ENERGY PREDICTED BY IDOCK:   -5.14 KCAL/MOL
REMARK 923 INTER-LIGAND FREE ENERGY PREDICTED BY IDOCK:   -4.58 KCAL/MOL
REMARK 924 INTRA-LIGAND FREE ENERGY PREDICTED BY IDOCK:   -0.56 KCAL/MOL
REMARK 927      BINDING AFFINITY PREDICTED BY RF-SCORE:    0.00 PKD
ROOT
HETATM    1  C   UNL     1     -12.613  14.189  65.659  1.00  0.00    -0.495 C  
HETATM    2  C   UNL     1     -12.598  12.825  64.964  1.00  0.00    -0.468 C  
HETATM    3  C   UNL     1     -11.807  12.931  63.657  1.00  0.00    -0.599 C  
ENDROOT
BRANCH   2   4
HETATM    4  N   UNL     1     -12.004  11.856  65.884  1.00  0.00    -0.431 NA 
HETATM    5  H   UNL     1     -11.378  11.227  65.381  1.00  0.00     0.000 HD 
BRANCH   4   6
HETATM    6  C   UNL     1     -11.313  12.451  67.034  1.00  0.00    -0.327 C  
BRANCH   6   7
HETATM    7  C   UNL     1     -10.107  11.574  67.454  1.00  0.00    -0.191 C  
HETATM    8  C   UNL     1      -9.749  10.564  66.366  1.00  0.00    -0.245 C  
HETATM    9  C   UNL     1      -8.469   9.841  66.780  1.00  0.00    -0.125 C  
HETATM   10  C   UNL     1      -8.565   9.323  68.192  1.00  0.00    -0.125 A  
HETATM   11  C   UNL     1      -7.650   8.351  68.634  1.00  0.00    -0.102 A  
HETATM   12  C   UNL     1      -7.698   7.829  69.941  1.00  0.00    -0.095 A  
HETATM   13  C   UNL     1      -8.716   8.299  70.798  1.00  0.00    -0.140 A  
HETATM   14  H   UNL     1     -11.148  11.165  69.328  1.00  0.00     0.000 HD 
HETATM   15  N   UNL     1      -8.876   7.822  72.188  1.00  0.00    -0.125 N  
HETATM   16  N   UNL     1     -10.378  10.880  68.722  1.00  0.00    -0.189 NA 
HETATM   17  C   UNL     1      -9.626   9.279  70.354  1.00  0.00    -0.292 A  
HETATM   18  O   UNL     1      -9.832   8.264  72.843  1.00  0.00    -0.276 OA 
HETATM   19  O   UNL     1      -8.059   7.007  72.639  1.00  0.00    -0.106 OA 
HETATM   20  C   UNL     1      -9.544   9.814  69.066  1.00  0.00    -0.177 A  
BRANCH  12  21
HETATM   21  C   UNL     1      -6.646   6.817  70.318  1.00  0.00    -0.044 C  
HETATM   22  O   UNL     1      -5.632   7.440  71.088  1.00  0.00    -0.031 OA 
HETATM   23  H   UNL     1      -4.970   6.803  71.326  1.00  0.00     0.000 HD 
ENDBRANCH  12  21
ENDBRANCH   6   7
ENDBRANCH   4   6
ENDBRANCH   2   4
TORSDOF 4
ENDMDL
MODEL      147
REMARK 921   NORMALIZED FREE ENERGY PREDICTED BY IDOCK:   -3.67 KCAL/MOL
REMARK 922        TOTAL FREE ENERGY PREDICTED BY IDOCK:   -4.98 KCAL/MOL
REMARK 923 INTER-LIGAND FREE ENERGY PREDICTED BY IDOCK:   -4.65 KCAL/MOL
REMARK 924 INTRA-LIGAND FREE ENERGY PREDICTED BY IDOCK:   -0.32 KCAL/MOL
REMARK 927      BINDING AFFINITY PREDICTED BY RF-SCORE:    0.00 PKD
ROOT
HETATM    1  C   UNL     1      -8.043  10.541  65.528  1.00  0.00    -0.155 C  
HETATM    2  C   UNL     1      -9.444  11.021  65.916  1.00  0.00    -0.214 C  
HETATM    3  C   UNL     1     -10.383  10.870  64.716  1.00  0.00    -0.391 C  
ENDROOT
BRANCH   2   4
HETATM    4  N   UNL     1      -9.892  10.227  67.061  1.00  0.00    -0.185 NA 
HETATM    5  H   UNL     1     -10.430  10.806  67.705  1.00  0.00     0.000 HD 
BRANCH   4   6
HETATM    6  C   UNL     1     -10.647   9.020  66.708  1.00  0.00    -0.131 C  
BRANCH   6   7
HETATM    7  C   UNL     1     -10.191   7.822  67.577  1.00  0.00    -0.235 C  
HETATM    8  C   UNL     1     -10.836   6.519  67.110  1.00  0.00    -0.472 C  
HETATM    9  C   UNL     1     -10.232   5.367  67.909  1.00  0.00    -0.219 C  
HETATM   10  C   UNL     1     -10.258   5.653  69.389  1.00  0.00    -0.315 A  
HETATM   11  C   UNL     1     -10.071   4.598  70.299  1.00  0.00    -0.276 A  
HETATM   12  C   UNL     1     -10.091   4.808  71.691  1.00  0.00    -0.264 A  
HETATM   13  C   UNL     1     -10.330   6.120  72.152  1.00  0.00    -0.197 A  
HETATM   14  H   UNL     1     -10.728   8.989  69.341  1.00  0.00     0.000 HD 
HETATM   15  N   UNL     1     -10.383   6.467  73.588  1.00  0.00    -0.275 N  
HETATM   16  N   UNL     1     -10.494   8.058  68.997  1.00  0.00    -0.217 NA 
HETATM   17  C   UNL     1     -10.508   7.176  71.237  1.00  0.00    -0.219 A  
HETATM   18  O   UNL     1     -10.645   7.641  73.889  1.00  0.00    -0.195 OA 
HETATM   19  O   UNL     1     -10.168   5.580  74.426  1.00  0.00    -0.242 OA 
HETATM   20  C   UNL     1     -10.450   6.958  69.858  1.00  0.00    -0.216 A  
BRANCH  12  21
HETATM   21  C   UNL     1      -9.844   3.610  72.572  1.00  0.00    -0.154 C  
HETATM   22  O   UNL     1      -8.457   3.324  72.619  1.00  0.00    -0.082 OA 
HETATM   23  H   UNL     1      -8.301   2.570  73.174  1.00  0.00     0.000 HD 
ENDBRANCH  12  21
ENDBRANCH   6   7
ENDBRANCH   4   6
ENDBRANCH   2   4
TORSDOF 4
ENDMDL
MODEL      148
REMARK 921   NORMALIZED FREE ENERGY PREDICTED BY IDOCK:   -3.64 KCAL/MOL
REMARK 922        TOTAL FREE ENERGY PREDICTED BY IDOCK:   -4.94 KCAL/MOL
REMARK 923 INTER-LIGAND FREE ENERGY PREDICTED BY IDOCK:   -4.48 KCAL/MOL
REMARK 924 INTRA-LIGAND FREE ENERGY PREDICTED BY IDOCK:   -0.45 KCAL/MOL
REMARK 927      BINDING AFFINITY PREDICTED BY RF-SCORE:    0.00 PKD
ROOT
HETATM    1  C   UNL     1      -7.265   2.462  63.910  1.00  0.00    -0.052 C  
HETATM    2  C   UNL     1      -7.187   1.981  65.361  1.00  0.00    -0.057 C  
HETATM    3  C   UNL     1      -5.836   2.386  65.958  1.00  0.00    -0.022 C  
ENDROOT
BRANCH   2   4
HETATM    4  N   UNL     1      -8.306   2.573  66.094  1.00  0.00    -0.089 NA 
HETATM    5  H   UNL     1      -8.161   2.479  67.099  1.00  0.00     0.000 HD 
BRANCH   4   6
HETATM    6  C   UNL     1      -8.591   3.970  65.748  1.00  0.00    -0.110 C  
BRANCH   6   7
HETATM    7  C   UNL     1      -9.640   4.566  66.719  1.00  0.00    -0.190 C  
HETATM    8  C   UNL     1      -9.766   6.077  66.542  1.00  0.00    -0.183 C  
HETATM    9  C   UNL     1     -10.914   6.573  67.417  1.00  0.00    -0.458 C  
HETATM   10  C   UNL     1     -10.791   6.056  68.828  1.00  0.00    -0.391 A  
HETATM   11  C   UNL     1     -11.538   6.662  69.852  1.00  0.00    -0.393 A  
HETATM   12  C   UNL     1     -11.457   6.224  71.188  1.00  0.00    -0.362 A  
HETATM   13  C   UNL     1     -10.576   5.159  71.475  1.00  0.00    -0.147 A  
HETATM   14  H   UNL     1      -8.627   3.519  68.343  1.00  0.00     0.000 HD 
HETATM   15  N   UNL     1     -10.396   4.613  72.837  1.00  0.00    -0.178 N  
HETATM   16  N   UNL     1      -9.306   4.245  68.115  1.00  0.00    -0.142 NA 
HETATM   17  C   UNL     1      -9.835   4.548  70.444  1.00  0.00    -0.302 A  
HETATM   18  O   UNL     1      -9.563   3.708  72.990  1.00  0.00    -0.114 OA 
HETATM   19  O   UNL     1     -11.075   5.079  73.763  1.00  0.00    -0.308 OA 
HETATM   20  C   UNL     1      -9.954   4.971  69.118  1.00  0.00    -0.196 A  
BRANCH  12  21
HETATM   21  C   UNL     1     -12.329   6.923  72.198  1.00  0.00    -0.192 C  
HETATM   22  O   UNL     1     -11.543   7.792  72.995  1.00  0.00    -0.596 OA 
HETATM   23  H   UNL     1     -12.092   8.233  73.631  1.00  0.00     0.000 HD 
ENDBRANCH  12  21
ENDBRANCH   6   7
ENDBRANCH   4   6
ENDBRANCH   2   4
TORSDOF 4
ENDMDL
MODEL      149
REMARK 921   NORMALIZED FREE ENERGY PREDICTED BY IDOCK:   -3.63 KCAL/MOL
REMARK 922        TOTAL FREE ENERGY PREDICTED BY IDOCK:   -4.92 KCAL/MOL
REMARK 923 INTER-LIGAND FREE ENERGY PREDICTED BY IDOCK:   -4.39 KCAL/MOL
REMARK 924 INTRA-LIGAND FREE ENERGY PREDICTED BY IDOCK:   -0.53 KCAL/MOL
REMARK 927      BINDING AFFINITY PREDICTED BY RF-SCORE:    0.00 PKD
ROOT
HETATM    1  C   UNL     1     -11.834  14.771  64.670  1.00  0.00    -0.442 C  
HETATM    2  C   UNL     1     -10.342  14.751  65.009  1.00  0.00    -0.389 C  
HETATM    3  C   UNL     1     -10.092  15.614  66.249  1.00  0.00    -0.316 C  
ENDROOT
BRANCH   2   4
HETATM    4  N   UNL     1      -9.947  13.359  65.226  1.00  0.00    -0.505 NA 
HETATM    5  H   UNL     1      -8.957  13.304  65.467  1.00  0.00     0.000 HD 
BRANCH   4   6
HETATM    6  C   UNL     1     -10.754  12.644  66.221  1.00  0.00    -0.256 C  
BRANCH   6   7
HETATM    7  C   UNL     1      -9.847  11.795  67.145  1.00  0.00    -0.193 C  
HETATM    8  C   UNL     1      -8.502  11.499  66.485  1.00  0.00    -0.160 C  
HETATM    9  C   UNL     1      -7.609  10.792  67.502  1.00  0.00    -0.094 C  
HETATM   10  C   UNL     1      -8.325   9.634  68.149  1.00  0.00    -0.117 A  
HETATM   11  C   UNL     1      -7.581   8.665  68.844  1.00  0.00    -0.092 A  
HETATM   12  C   UNL     1      -8.197   7.561  69.462  1.00  0.00    -0.130 A  
HETATM   13  C   UNL     1      -9.599   7.442  69.345  1.00  0.00    -0.155 A  
HETATM   14  H   UNL     1     -11.516  10.411  67.394  1.00  0.00     0.000 HD 
HETATM   15  N   UNL     1     -10.361   6.325  69.942  1.00  0.00    -0.183 N  
HETATM   16  N   UNL     1     -10.512  10.540  67.527  1.00  0.00    -0.222 NA 
HETATM   17  C   UNL     1     -10.342   8.420  68.655  1.00  0.00    -0.222 A  
HETATM   18  O   UNL     1     -11.584   6.289  69.741  1.00  0.00    -0.436 OA 
HETATM   19  O   UNL     1      -9.754   5.477  70.611  1.00  0.00    -0.163 OA 
HETATM   20  C   UNL     1      -9.720   9.529  68.077  1.00  0.00    -0.147 A  
BRANCH  12  21
HETATM   21  C   UNL     1      -7.306   6.602  70.210  1.00  0.00    -0.085 C  
HETATM   22  O   UNL     1      -7.359   6.878  71.599  1.00  0.00    -0.082 OA 
HETATM   23  H   UNL     1      -6.798   6.274  72.070  1.00  0.00     0.000 HD 
ENDBRANCH  12  21
ENDBRANCH   6   7
ENDBRANCH   4   6
ENDBRANCH   2   4
TORSDOF 4
ENDMDL
MODEL      150
REMARK 921   NORMALIZED FREE ENERGY PREDICTED BY IDOCK:   -3.60 KCAL/MOL
REMARK 922        TOTAL FREE ENERGY PREDICTED BY IDOCK:   -4.88 KCAL/MOL
REMARK 923 INTER-LIGAND FREE ENERGY PREDICTED BY IDOCK:   -4.41 KCAL/MOL
REMARK 924 INTRA-LIGAND FREE ENERGY PREDICTED BY IDOCK:   -0.47 KCAL/MOL
REMARK 927      BINDING AFFINITY PREDICTED BY RF-SCORE:    0.00 PKD
ROOT
HETATM    1  C   UNL     1     -10.012   5.156  67.680  1.00  0.00    -0.203 C  
HETATM    2  C   UNL     1     -10.824   6.356  68.176  1.00  0.00    -0.308 C  
HETATM    3  C   UNL     1     -11.166   6.160  69.656  1.00  0.00    -0.488 C  
ENDROOT
BRANCH   2   4
HETATM    4  N   UNL     1     -10.027   7.562  67.956  1.00  0.00    -0.165 NA 
HETATM    5  H   UNL     1      -9.052   7.317  67.782  1.00  0.00     0.000 HD 
BRANCH   4   6
HETATM    6  C   UNL     1     -10.529   8.439  66.892  1.00  0.00    -0.289 C  
BRANCH   6   7
HETATM    7  C   UNL     1      -9.659   9.716  66.786  1.00  0.00    -0.173 C  
HETATM    8  C   UNL     1      -8.373   9.580  67.598  1.00  0.00    -0.125 C  
HETATM    9  C   UNL     1      -7.500  10.805  67.331  1.00  0.00    -0.098 C  
HETATM   10  C   UNL     1      -8.283  12.082  67.496  1.00  0.00    -0.159 A  
HETATM   11  C   UNL     1      -7.596  13.301  67.630  1.00  0.00    -0.171 A  
HETATM   12  C   UNL     1      -8.277  14.522  67.792  1.00  0.00    -0.171 A  
HETATM   13  C   UNL     1      -9.687  14.485  67.837  1.00  0.00    -0.218 A  
HETATM   14  H   UNL     1     -11.426  10.879  67.319  1.00  0.00     0.000 HD 
HETATM   15  N   UNL     1     -10.515  15.697  68.011  1.00  0.00    -0.257 N  
HETATM   16  N   UNL     1     -10.411  10.903  67.222  1.00  0.00    -0.219 NA 
HETATM   17  C   UNL     1     -10.373  13.263  67.693  1.00  0.00    -0.230 A  
HETATM   18  O   UNL     1     -11.744  15.551  68.084  1.00  0.00    -0.342 OA 
HETATM   19  O   UNL     1      -9.954  16.800  68.078  1.00  0.00    -0.256 OA 
HETATM   20  C   UNL     1      -9.684  12.064  67.498  1.00  0.00    -0.187 A  
BRANCH  12  21
HETATM   21  C   UNL     1      -7.439  15.771  67.891  1.00  0.00    -0.134 C  
HETATM   22  O   UNL     1      -7.335  16.176  69.244  1.00  0.00    -0.219 OA 
HETATM   23  H   UNL     1      -6.807  16.962  69.307  1.00  0.00     0.000 HD 
ENDBRANCH  12  21
ENDBRANCH   6   7
ENDBRANCH   4   6
ENDBRANCH   2   4
TORSDOF 4
ENDMDL
MODEL      151
REMARK 921   NORMALIZED FREE ENERGY PREDICTED BY IDOCK:   -3.57 KCAL/MOL
REMARK 922        TOTAL FREE ENERGY PREDICTED BY IDOCK:   -4.85 KCAL/MOL
REMARK 923 INTER-LIGAND FREE ENERGY PREDICTED BY IDOCK:   -4.52 KCAL/MOL
REMARK 924 INTRA-LIGAND FREE ENERGY PREDICTED BY IDOCK:   -0.33 KCAL/MOL
REMARK 927      BINDING AFFINITY PREDICTED BY RF-SCORE:    0.00 PKD
ROOT
HETATM    1  C   UNL     1      -8.315   7.605  64.753  1.00  0.00    -0.034 C  
HETATM    2  C   UNL     1      -8.549   8.494  65.977  1.00  0.00    -0.143 C  
HETATM    3  C   UNL     1      -7.483   9.593  66.018  1.00  0.00    -0.099 C  
ENDROOT
BRANCH   2   4
HETATM    4  N   UNL     1      -9.899   9.048  65.881  1.00  0.00    -0.431 NA 
HETATM    5  H   UNL     1     -10.478   8.708  66.649  1.00  0.00     0.000 HD 
BRANCH   4   6
HETATM    6  C   UNL     1      -9.953  10.513  65.812  1.00  0.00    -0.258 C  
BRANCH   6   7
HETATM    7  C   UNL     1     -10.261  11.110  67.207  1.00  0.00    -0.193 C  
HETATM    8  C   UNL     1     -11.634  10.671  67.710  1.00  0.00    -0.063 C  
HETATM    9  C   UNL     1     -11.808  11.169  69.142  1.00  0.00    -0.419 C  
HETATM   10  C   UNL     1     -11.473  12.634  69.257  1.00  0.00    -0.354 A  
HETATM   11  C   UNL     1     -11.890  13.351  70.392  1.00  0.00    -0.283 A  
HETATM   12  C   UNL     1     -11.610  14.722  70.548  1.00  0.00    -0.333 A  
HETATM   13  C   UNL     1     -10.907  15.368  69.508  1.00  0.00    -0.267 A  
HETATM   14  H   UNL     1      -9.725  13.069  66.409  1.00  0.00     0.000 HD 
HETATM   15  N   UNL     1     -10.559  16.805  69.550  1.00  0.00    -0.320 N  
HETATM   16  N   UNL     1     -10.176  12.578  67.181  1.00  0.00    -0.217 NA 
HETATM   17  C   UNL     1     -10.482  14.645  68.377  1.00  0.00    -0.243 A  
HETATM   18  O   UNL     1      -9.981  17.287  68.565  1.00  0.00    -0.283 OA 
HETATM   19  O   UNL     1     -10.858  17.464  70.556  1.00  0.00     0.492 OA 
HETATM   20  C   UNL     1     -10.737  13.277  68.253  1.00  0.00    -0.252 A  
BRANCH  12  21
HETATM   21  C   UNL     1     -12.075  15.381  71.821  1.00  0.00    -0.390 C  
HETATM   22  O   UNL     1     -13.241  16.145  71.570  1.00  0.00    -0.434 OA 
HETATM   23  H   UNL     1     -13.534  16.560  72.372  1.00  0.00     0.000 HD 
ENDBRANCH  12  21
ENDBRANCH   6   7
ENDBRANCH   4   6
ENDBRANCH   2   4
TORSDOF 4
ENDMDL
MODEL      152
REMARK 921   NORMALIZED FREE ENERGY PREDICTED BY IDOCK:   -3.53 KCAL/MOL
REMARK 922        TOTAL FREE ENERGY PREDICTED BY IDOCK:   -4.80 KCAL/MOL
REMARK 923 INTER-LIGAND FREE ENERGY PREDICTED BY IDOCK:   -4.25 KCAL/MOL
REMARK 924 INTRA-LIGAND FREE ENERGY PREDICTED BY IDOCK:   -0.55 KCAL/MOL
REMARK 927      BINDING AFFINITY PREDICTED BY RF-SCORE:    0.00 PKD
ROOT
HETATM    1  C   UNL     1     -11.127   9.630  66.510  1.00  0.00     0.477 C  
HETATM    2  C   UNL     1     -10.984   9.877  68.014  1.00  0.00    -0.213 C  
HETATM    3  C   UNL     1     -10.193   8.727  68.645  1.00  0.00    -0.214 C  
ENDROOT
BRANCH   2   4
HETATM    4  N   UNL     1     -10.315  11.165  68.199  1.00  0.00    -0.181 NA 
HETATM    5  H   UNL     1      -9.892  11.473  67.323  1.00  0.00     0.000 HD 
BRANCH   4   6
HETATM    6  C   UNL     1     -11.168  12.222  68.754  1.00  0.00    -0.265 C  
BRANCH   6   7
HETATM    7  C   UNL     1     -11.155  13.467  67.833  1.00  0.00    -0.265 C  
HETATM    8  C   UNL     1     -10.157  13.303  66.690  1.00  0.00    -0.266 C  
HETATM    9  C   UNL     1     -10.303  14.493  65.745  1.00  0.00    -0.347 C  
HETATM   10  C   UNL     1     -10.273  15.798  66.498  1.00  0.00    -0.294 A  
HETATM   11  C   UNL     1     -10.050  16.995  65.796  1.00  0.00    -0.219 A  
HETATM   12  C   UNL     1     -10.007  18.241  66.451  1.00  0.00    -0.385 A  
HETATM   13  C   UNL     1     -10.174  18.251  67.852  1.00  0.00    -0.384 A  
HETATM   14  H   UNL     1     -10.908  14.697  69.619  1.00  0.00     0.000 HD 
HETATM   15  N   UNL     1     -10.142  19.492  68.654  1.00  0.00    -0.442 N  
HETATM   16  N   UNL     1     -10.852  14.685  68.600  1.00  0.00    -0.247 NA 
HETATM   17  C   UNL     1     -10.407  17.050  68.551  1.00  0.00    -0.359 A  
HETATM   18  O   UNL     1     -10.253  19.388  69.884  1.00  0.00     0.097 OA 
HETATM   19  O   UNL     1     -10.003  20.577  68.071  1.00  0.00    -0.326 OA 
HETATM   20  C   UNL     1     -10.482  15.826  67.883  1.00  0.00    -0.270 A  
BRANCH  12  21
HETATM   21  C   UNL     1      -9.796  19.463  65.594  1.00  0.00     0.157 C  
HETATM   22  O   UNL     1     -11.045  20.054  65.283  1.00  0.00    -0.301 OA 
HETATM   23  H   UNL     1     -10.913  20.825  64.743  1.00  0.00     0.000 HD 
ENDBRANCH  12  21
ENDBRANCH   6   7
ENDBRANCH   4   6
ENDBRANCH   2   4
TORSDOF 4
ENDMDL
MODEL      153
REMARK 921   NORMALIZED FREE ENERGY PREDICTED BY IDOCK:   -3.52 KCAL/MOL
REMARK 922        TOTAL FREE ENERGY PREDICTED BY IDOCK:   -4.79 KCAL/MOL
REMARK 923 INTER-LIGAND FREE ENERGY PREDICTED BY IDOCK:   -4.28 KCAL/MOL
REMARK 924 INTRA-LIGAND FREE ENERGY PREDICTED BY IDOCK:   -0.51 KCAL/MOL
REMARK 927      BINDING AFFINITY PREDICTED BY RF-SCORE:    0.00 PKD
ROOT
HETATM    1  C   UNL     1     -12.047  12.404  63.343  1.00  0.00    -0.620 C  
HETATM    2  C   UNL     1     -11.227  13.413  64.151  1.00  0.00    -0.350 C  
HETATM    3  C   UNL     1     -12.058  13.907  65.339  1.00  0.00    -0.423 C  
ENDROOT
BRANCH   2   4
HETATM    4  N   UNL     1      -9.997  12.751  64.584  1.00  0.00    -0.538 NA 
HETATM    5  H   UNL     1      -9.794  12.980  65.557  1.00  0.00     0.000 HD 
BRANCH   4   6
HETATM    6  C   UNL     1      -9.986  11.297  64.389  1.00  0.00    -0.288 C  
BRANCH   6   7
HETATM    7  C   UNL     1      -9.722  10.572  65.732  1.00  0.00    -0.223 C  
HETATM    8  C   UNL     1      -8.440  11.075  66.392  1.00  0.00    -0.164 C  
HETATM    9  C   UNL     1      -8.321  10.431  67.772  1.00  0.00    -0.114 C  
HETATM   10  C   UNL     1      -8.515   8.938  67.699  1.00  0.00    -0.121 A  
HETATM   11  C   UNL     1      -8.111   8.136  68.780  1.00  0.00    -0.120 A  
HETATM   12  C   UNL     1      -8.263   6.737  68.763  1.00  0.00    -0.121 A  
HETATM   13  C   UNL     1      -8.820   6.153  67.604  1.00  0.00    -0.103 A  
HETATM   14  H   UNL     1      -9.999   8.679  64.685  1.00  0.00     0.000 HD 
HETATM   15  N   UNL     1      -9.025   4.696  67.461  1.00  0.00    -0.109 N  
HETATM   16  N   UNL     1      -9.656   9.116  65.541  1.00  0.00    -0.231 NA 
HETATM   17  C   UNL     1      -9.232   6.961  66.526  1.00  0.00    -0.195 A  
HETATM   18  O   UNL     1      -9.478   4.280  66.385  1.00  0.00    -0.154 OA 
HETATM   19  O   UNL     1      -8.735   3.955  68.411  1.00  0.00    -0.092 OA 
HETATM   20  C   UNL     1      -9.107   8.351  66.573  1.00  0.00    -0.176 A  
BRANCH  12  21
HETATM   21  C   UNL     1      -7.828   5.980  69.991  1.00  0.00    -0.105 C  
HETATM   22  O   UNL     1      -6.518   5.473  69.806  1.00  0.00    -0.037 OA 
HETATM   23  H   UNL     1      -6.243   4.997  70.580  1.00  0.00     0.000 HD 
ENDBRANCH  12  21
ENDBRANCH   6   7
ENDBRANCH   4   6
ENDBRANCH   2   4
TORSDOF 4
ENDMDL
MODEL      154
REMARK 921   NORMALIZED FREE ENERGY PREDICTED BY IDOCK:   -3.37 KCAL/MOL
REMARK 922        TOTAL FREE ENERGY PREDICTED BY IDOCK:   -4.60 KCAL/MOL
REMARK 923 INTER-LIGAND FREE ENERGY PREDICTED BY IDOCK:   -4.10 KCAL/MOL
REMARK 924 INTRA-LIGAND FREE ENERGY PREDICTED BY IDOCK:   -0.50 KCAL/MOL
REMARK 927      BINDING AFFINITY PREDICTED BY RF-SCORE:    0.00 PKD
ROOT
HETATM    1  C   UNL     1      -5.488   5.698  69.398  1.00  0.00    -0.004 C  
HETATM    2  C   UNL     1      -6.359   4.860  68.458  1.00  0.00    -0.036 C  
HETATM    3  C   UNL     1      -7.173   3.856  69.279  1.00  0.00    -0.053 C  
ENDROOT
BRANCH   2   4
HETATM    4  N   UNL     1      -7.219   5.773  67.706  1.00  0.00    -0.074 NA 
HETATM    5  H   UNL     1      -7.488   5.355  66.815  1.00  0.00     0.000 HD 
BRANCH   4   6
HETATM    6  C   UNL     1      -8.408   6.230  68.434  1.00  0.00    -0.115 C  
BRANCH   6   7
HETATM    7  C   UNL     1      -9.133   7.346  67.643  1.00  0.00    -0.125 C  
HETATM    8  C   UNL     1      -8.256   7.888  66.517  1.00  0.00    -0.113 C  
HETATM    9  C   UNL     1      -9.082   8.872  65.690  1.00  0.00    -0.269 C  
HETATM   10  C   UNL     1      -9.772   9.883  66.570  1.00  0.00    -0.260 A  
HETATM   11  C   UNL     1     -10.290  11.057  65.996  1.00  0.00    -0.311 A  
HETATM   12  C   UNL     1     -10.938  12.037  66.771  1.00  0.00    -0.329 A  
HETATM   13  C   UNL     1     -11.035  11.813  68.162  1.00  0.00    -0.228 A  
HETATM   14  H   UNL     1      -9.567   8.318  69.547  1.00  0.00     0.000 HD 
HETATM   15  N   UNL     1     -11.685  12.770  69.083  1.00  0.00    -0.309 N  
HETATM   16  N   UNL     1      -9.548   8.439  68.534  1.00  0.00    -0.147 NA 
HETATM   17  C   UNL     1     -10.523  10.632  68.732  1.00  0.00    -0.215 A  
HETATM   18  O   UNL     1     -11.676  12.502  70.293  1.00  0.00    -0.258 OA 
HETATM   19  O   UNL     1     -12.205  13.793  68.615  1.00  0.00    -0.347 OA 
HETATM   20  C   UNL     1      -9.914   9.652  67.944  1.00  0.00    -0.166 A  
BRANCH  12  21
HETATM   21  C   UNL     1     -11.485  13.239  66.046  1.00  0.00    -0.330 C  
HETATM   22  O   UNL     1     -12.871  13.069  65.808  1.00  0.00    -0.411 OA 
HETATM   23  H   UNL     1     -13.217  13.827  65.352  1.00  0.00     0.000 HD 
ENDBRANCH  12  21
ENDBRANCH   6   7
ENDBRANCH   4   6
ENDBRANCH   2   4
TORSDOF 4
ENDMDL
MODEL      155
REMARK 921   NORMALIZED FREE ENERGY PREDICTED BY IDOCK:   -3.36 KCAL/MOL
REMARK 922        TOTAL FREE ENERGY PREDICTED BY IDOCK:   -4.59 KCAL/MOL
REMARK 923 INTER-LIGAND FREE ENERGY PREDICTED BY IDOCK:   -4.17 KCAL/MOL
REMARK 924 INTRA-LIGAND FREE ENERGY PREDICTED BY IDOCK:   -0.42 KCAL/MOL
REMARK 927      BINDING AFFINITY PREDICTED BY RF-SCORE:    0.00 PKD
ROOT
HETATM    1  C   UNL     1      -8.934   3.795  66.097  1.00  0.00    -0.135 C  
HETATM    2  C   UNL     1      -9.152   5.268  66.449  1.00  0.00    -0.137 C  
HETATM    3  C   UNL     1      -8.054   5.728  67.413  1.00  0.00    -0.102 C  
ENDROOT
BRANCH   2   4
HETATM    4  N   UNL     1      -9.140   6.036  65.204  1.00  0.00    -0.363 NA 
HETATM    5  H   UNL     1     -10.047   6.477  65.051  1.00  0.00     0.000 HD 
BRANCH   4   6
HETATM    6  C   UNL     1      -8.066   7.032  65.112  1.00  0.00    -0.124 C  
BRANCH   6   7
HETATM    7  C   UNL     1      -8.656   8.464  65.094  1.00  0.00    -0.132 C  
HETATM    8  C   UNL     1      -7.568   9.510  64.860  1.00  0.00    -0.111 C  
HETATM    9  C   UNL     1      -8.234  10.875  64.706  1.00  0.00     0.146 C  
HETATM   10  C   UNL     1      -9.210  11.139  65.824  1.00  0.00    -0.234 A  
HETATM   11  C   UNL     1      -9.660  12.450  66.052  1.00  0.00    -0.214 A  
HETATM   12  C   UNL     1     -10.566  12.754  67.086  1.00  0.00    -0.249 A  
HETATM   13  C   UNL     1     -10.998  11.692  67.911  1.00  0.00    -0.225 A  
HETATM   14  H   UNL     1      -9.645   8.004  66.984  1.00  0.00     0.000 HD 
HETATM   15  N   UNL     1     -11.941  11.883  69.033  1.00  0.00    -0.290 N  
HETATM   16  N   UNL     1      -9.376   8.752  66.343  1.00  0.00    -0.187 NA 
HETATM   17  C   UNL     1     -10.551  10.378  67.674  1.00  0.00    -0.304 A  
HETATM   18  O   UNL     1     -12.221  10.894  69.726  1.00  0.00    -0.326 OA 
HETATM   19  O   UNL     1     -12.408  13.013  69.237  1.00  0.00    -0.154 OA 
HETATM   20  C   UNL     1      -9.680  10.087  66.622  1.00  0.00    -0.194 A  
BRANCH  12  21
HETATM   21  C   UNL     1     -11.009  14.189  67.216  1.00  0.00    -0.297 C  
HETATM   22  O   UNL     1     -12.345  14.324  66.764  1.00  0.00    -0.540 OA 
HETATM   23  H   UNL     1     -12.624  15.228  66.846  1.00  0.00     0.000 HD 
ENDBRANCH  12  21
ENDBRANCH   6   7
ENDBRANCH   4   6
ENDBRANCH   2   4
TORSDOF 4
ENDMDL
MODEL      156
REMARK 921   NORMALIZED FREE ENERGY PREDICTED BY IDOCK:   -3.36 KCAL/MOL
REMARK 922        TOTAL FREE ENERGY PREDICTED BY IDOCK:   -4.59 KCAL/MOL
REMARK 923 INTER-LIGAND FREE ENERGY PREDICTED BY IDOCK:   -4.35 KCAL/MOL
REMARK 924 INTRA-LIGAND FREE ENERGY PREDICTED BY IDOCK:   -0.24 KCAL/MOL
REMARK 927      BINDING AFFINITY PREDICTED BY RF-SCORE:    0.00 PKD
ROOT
HETATM    1  C   UNL     1     -11.230  15.363  64.615  1.00  0.00    -0.374 C  
HETATM    2  C   UNL     1      -9.917  15.571  65.374  1.00  0.00    -0.304 C  
HETATM    3  C   UNL     1     -10.115  16.651  66.443  1.00  0.00    -0.325 C  
ENDROOT
BRANCH   2   4
HETATM    4  N   UNL     1      -9.527  14.289  65.961  1.00  0.00    -0.499 NA 
HETATM    5  H   UNL     1      -9.212  14.420  66.922  1.00  0.00     0.000 HD 
BRANCH   4   6
HETATM    6  C   UNL     1     -10.561  13.250  65.900  1.00  0.00    -0.281 C  
BRANCH   6   7
HETATM    7  C   UNL     1      -9.914  11.849  65.775  1.00  0.00    -0.236 C  
HETATM    8  C   UNL     1     -10.441  11.101  64.552  1.00  0.00    -0.415 C  
HETATM    9  C   UNL     1      -9.657   9.798  64.407  1.00  0.00    -0.160 C  
HETATM   10  C   UNL     1      -9.611   9.039  65.708  1.00  0.00    -0.287 A  
HETATM   11  C   UNL     1      -9.243   7.682  65.703  1.00  0.00     0.114 A  
HETATM   12  C   UNL     1      -9.188   6.924  66.888  1.00  0.00    -0.167 A  
HETATM   13  C   UNL     1      -9.539   7.568  68.094  1.00  0.00    -0.148 A  
HETATM   14  H   UNL     1     -10.453  11.493  67.859  1.00  0.00     0.000 HD 
HETATM   15  N   UNL     1      -9.529   6.879  69.402  1.00  0.00    -0.149 N  
HETATM   16  N   UNL     1     -10.141  11.055  66.992  1.00  0.00    -0.190 NA 
HETATM   17  C   UNL     1      -9.898   8.930  68.097  1.00  0.00    -0.193 A  
HETATM   18  O   UNL     1      -9.899   7.521  70.395  1.00  0.00    -0.183 OA 
HETATM   19  O   UNL     1      -9.158   5.697  69.452  1.00  0.00    -0.116 OA 
HETATM   20  C   UNL     1      -9.913   9.678  66.917  1.00  0.00    -0.212 A  
BRANCH  12  21
HETATM   21  C   UNL     1      -8.747   5.488  66.768  1.00  0.00    -0.114 C  
HETATM   22  O   UNL     1      -8.082   5.289  65.533  1.00  0.00    -0.110 OA 
HETATM   23  H   UNL     1      -7.804   4.384  65.458  1.00  0.00     0.000 HD 
ENDBRANCH  12  21
ENDBRANCH   6   7
ENDBRANCH   4   6
ENDBRANCH   2   4
TORSDOF 4
ENDMDL
MODEL      157
REMARK 921   NORMALIZED FREE ENERGY PREDICTED BY IDOCK:   -3.36 KCAL/MOL
REMARK 922        TOTAL FREE ENERGY PREDICTED BY IDOCK:   -4.59 KCAL/MOL
REMARK 923 INTER-LIGAND FREE ENERGY PREDICTED BY IDOCK:   -4.46 KCAL/MOL
REMARK 924 INTRA-LIGAND FREE ENERGY PREDICTED BY IDOCK:   -0.12 KCAL/MOL
REMARK 927      BINDING AFFINITY PREDICTED BY RF-SCORE:    0.00 PKD
ROOT
HETATM    1  C   UNL     1      -5.492  18.904  64.260  1.00  0.00    -0.279 C  
HETATM    2  C   UNL     1      -5.772  19.953  65.338  1.00  0.00    -0.175 C  
HETATM    3  C   UNL     1      -7.282  20.192  65.434  1.00  0.00    -0.247 C  
ENDROOT
BRANCH   2   4
HETATM    4  N   UNL     1      -5.217  19.463  66.600  1.00  0.00    -0.163 NA 
HETATM    5  H   UNL     1      -5.627  19.965  67.387  1.00  0.00     0.000 HD 
BRANCH   4   6
HETATM    6  C   UNL     1      -5.342  18.015  66.799  1.00  0.00    -0.138 C  
BRANCH   6   7
HETATM    7  C   UNL     1      -6.797  17.642  67.174  1.00  0.00    -0.165 C  
HETATM    8  C   UNL     1      -7.039  17.786  68.674  1.00  0.00    -0.257 C  
HETATM    9  C   UNL     1      -8.522  17.550  68.951  1.00  0.00    -0.139 C  
HETATM   10  C   UNL     1      -9.006  16.281  68.297  1.00  0.00    -0.192 A  
HETATM   11  C   UNL     1     -10.226  15.716  68.707  1.00  0.00    -0.215 A  
HETATM   12  C   UNL     1     -10.723  14.529  68.134  1.00  0.00    -0.240 A  
HETATM   13  C   UNL     1      -9.940  13.905  67.139  1.00  0.00    -0.239 A  
HETATM   14  H   UNL     1      -6.533  15.783  66.063  1.00  0.00     0.000 HD 
HETATM   15  N   UNL     1     -10.348  12.652  66.468  1.00  0.00    -0.239 N  
HETATM   16  N   UNL     1      -7.120  16.276  66.736  1.00  0.00    -0.202 NA 
HETATM   17  C   UNL     1      -8.722  14.479  66.725  1.00  0.00    -0.214 A  
HETATM   18  O   UNL     1      -9.567  12.160  65.641  1.00  0.00    -0.234 OA 
HETATM   19  O   UNL     1     -11.442  12.148  66.758  1.00  0.00    -0.330 OA 
HETATM   20  C   UNL     1      -8.260  15.676  67.278  1.00  0.00    -0.191 A  
BRANCH  12  21
HETATM   21  C   UNL     1     -12.058  14.033  68.625  1.00  0.00    -0.297 C  
HETATM   22  O   UNL     1     -11.868  13.061  69.638  1.00  0.00    -0.305 OA 
HETATM   23  H   UNL     1     -12.709  12.748  69.948  1.00  0.00     0.000 HD 
ENDBRANCH  12  21
ENDBRANCH   6   7
ENDBRANCH   4   6
ENDBRANCH   2   4
TORSDOF 4
ENDMDL
MODEL      158
REMARK 921   NORMALIZED FREE ENERGY PREDICTED BY IDOCK:   -3.30 KCAL/MOL
REMARK 922        TOTAL FREE ENERGY PREDICTED BY IDOCK:   -4.52 KCAL/MOL
REMARK 923 INTER-LIGAND FREE ENERGY PREDICTED BY IDOCK:   -3.96 KCAL/MOL
REMARK 924 INTRA-LIGAND FREE ENERGY PREDICTED BY IDOCK:   -0.56 KCAL/MOL
REMARK 927      BINDING AFFINITY PREDICTED BY RF-SCORE:    0.00 PKD
ROOT
HETATM    1  C   UNL     1      -5.270   3.887  65.211  1.00  0.00    -0.009 C  
HETATM    2  C   UNL     1      -6.706   4.254  65.591  1.00  0.00    -0.052 C  
HETATM    3  C   UNL     1      -7.011   3.722  66.995  1.00  0.00    -0.055 C  
ENDROOT
BRANCH   2   4
HETATM    4  N   UNL     1      -6.835   5.709  65.521  1.00  0.00    -0.055 NA 
HETATM    5  H   UNL     1      -7.790   5.970  65.277  1.00  0.00     0.000 HD 
BRANCH   4   6
HETATM    6  C   UNL     1      -6.405   6.419  66.732  1.00  0.00    -0.041 C  
BRANCH   6   7
HETATM    7  C   UNL     1      -7.322   7.638  66.998  1.00  0.00    -0.090 C  
HETATM    8  C   UNL     1      -8.587   7.229  67.749  1.00  0.00    -0.120 C  
HETATM    9  C   UNL     1      -9.367   8.492  68.108  1.00  0.00    -0.145 C  
HETATM   10  C   UNL     1      -9.542   9.387  66.908  1.00  0.00    -0.217 A  
HETATM   11  C   UNL     1     -10.506  10.409  66.944  1.00  0.00    -0.300 A  
HETATM   12  C   UNL     1     -10.715  11.270  65.850  1.00  0.00    -0.291 A  
HETATM   13  C   UNL     1      -9.933  11.061  64.693  1.00  0.00    -0.301 A  
HETATM   14  H   UNL     1      -7.161   8.133  64.879  1.00  0.00     0.000 HD 
HETATM   15  N   UNL     1     -10.063  11.892  63.478  1.00  0.00    -0.421 N  
HETATM   16  N   UNL     1      -7.675   8.315  65.741  1.00  0.00    -0.088 NA 
HETATM   17  C   UNL     1      -8.962  10.041  64.664  1.00  0.00    -0.249 A  
HETATM   18  O   UNL     1      -9.363  11.596  62.499  1.00  0.00    -0.267 OA 
HETATM   19  O   UNL     1     -10.862  12.840  63.484  1.00  0.00    -0.396 OA 
HETATM   20  C   UNL     1      -8.742   9.218  65.770  1.00  0.00    -0.156 A  
BRANCH  12  21
HETATM   21  C   UNL     1     -11.750  12.354  66.012  1.00  0.00    -0.410 C  
HETATM   22  O   UNL     1     -11.130  13.553  66.440  1.00  0.00    -0.298 OA 
HETATM   23  H   UNL     1     -11.782  14.236  66.543  1.00  0.00     0.000 HD 
ENDBRANCH  12  21
ENDBRANCH   6   7
ENDBRANCH   4   6
ENDBRANCH   2   4
TORSDOF 4
ENDMDL
MODEL      159
REMARK 921   NORMALIZED FREE ENERGY PREDICTED BY IDOCK:   -3.24 KCAL/MOL
REMARK 922        TOTAL FREE ENERGY PREDICTED BY IDOCK:   -4.45 KCAL/MOL
REMARK 923 INTER-LIGAND FREE ENERGY PREDICTED BY IDOCK:   -3.91 KCAL/MOL
REMARK 924 INTRA-LIGAND FREE ENERGY PREDICTED BY IDOCK:   -0.54 KCAL/MOL
REMARK 927      BINDING AFFINITY PREDICTED BY RF-SCORE:    0.00 PKD
ROOT
HETATM    1  C   UNL     1      -6.406  10.985  66.231  1.00  0.00    -0.119 C  
HETATM    2  C   UNL     1      -5.567  11.774  67.240  1.00  0.00    -0.115 C  
HETATM    3  C   UNL     1      -6.204  13.149  67.464  1.00  0.00    -0.129 C  
ENDROOT
BRANCH   2   4
HETATM    4  N   UNL     1      -5.501  10.997  68.477  1.00  0.00    -0.043 NA 
HETATM    5  H   UNL     1      -4.557  11.024  68.863  1.00  0.00     0.000 HD 
BRANCH   4   6
HETATM    6  C   UNL     1      -6.480  11.390  69.497  1.00  0.00    -0.122 C  
BRANCH   6   7
HETATM    7  C   UNL     1      -7.694  10.429  69.481  1.00  0.00    -0.156 C  
HETATM    8  C   UNL     1      -8.993  11.180  69.197  1.00  0.00     0.057 C  
HETATM    9  C   UNL     1     -10.120  10.160  69.048  1.00  0.00    -0.216 C  
HETATM   10  C   UNL     1     -10.129   9.182  70.195  1.00  0.00    -0.233 A  
HETATM   11  C   UNL     1     -11.271   8.395  70.421  1.00  0.00    -0.220 A  
HETATM   12  C   UNL     1     -11.337   7.470  71.481  1.00  0.00    -0.283 A  
HETATM   13  C   UNL     1     -10.216   7.371  72.333  1.00  0.00    -0.199 A  
HETATM   14  H   UNL     1      -7.022   9.659  71.409  1.00  0.00     0.000 HD 
HETATM   15  N   UNL     1     -10.165   6.445  73.484  1.00  0.00    -0.224 N  
HETATM   16  N   UNL     1      -7.800   9.693  70.750  1.00  0.00    -0.311 NA 
HETATM   17  C   UNL     1      -9.069   8.155  72.099  1.00  0.00    -0.249 A  
HETATM   18  O   UNL     1      -9.152   6.468  74.199  1.00  0.00    -0.146 OA 
HETATM   19  O   UNL     1     -11.127   5.691  73.689  1.00  0.00    -0.224 OA 
HETATM   20  C   UNL     1      -9.007   9.043  71.021  1.00  0.00    -0.241 A  
BRANCH  12  21
HETATM   21  C   UNL     1     -12.597   6.654  71.608  1.00  0.00    -0.264 C  
HETATM   22  O   UNL     1     -13.525   7.326  72.441  1.00  0.00    -0.472 OA 
HETATM   23  H   UNL     1     -14.319   6.812  72.521  1.00  0.00     0.000 HD 
ENDBRANCH  12  21
ENDBRANCH   6   7
ENDBRANCH   4   6
ENDBRANCH   2   4
TORSDOF 4
ENDMDL
MODEL      160
REMARK 921   NORMALIZED FREE ENERGY PREDICTED BY IDOCK:   -3.24 KCAL/MOL
REMARK 922        TOTAL FREE ENERGY PREDICTED BY IDOCK:   -4.44 KCAL/MOL
REMARK 923 INTER-LIGAND FREE ENERGY PREDICTED BY IDOCK:   -4.82 KCAL/MOL
REMARK 924 INTRA-LIGAND FREE ENERGY PREDICTED BY IDOCK:    0.39 KCAL/MOL
REMARK 927      BINDING AFFINITY PREDICTED BY RF-SCORE:    0.00 PKD
ROOT
HETATM    1  C   UNL     1      -7.312   7.471  66.731  1.00  0.00    -0.092 C  
HETATM    2  C   UNL     1      -7.408   8.565  67.798  1.00  0.00    -0.093 C  
HETATM    3  C   UNL     1      -6.188   9.485  67.692  1.00  0.00    -0.053 C  
ENDROOT
BRANCH   2   4
HETATM    4  N   UNL     1      -8.659   9.292  67.587  1.00  0.00    -0.116 NA 
HETATM    5  H   UNL     1      -8.535  10.281  67.803  1.00  0.00     0.000 HD 
BRANCH   4   6
HETATM    6  C   UNL     1      -9.240   9.132  66.249  1.00  0.00    -0.194 C  
BRANCH   6   7
HETATM    7  C   UNL     1      -9.896  10.454  65.782  1.00  0.00    -0.239 C  
HETATM    8  C   UNL     1      -9.393  10.866  64.400  1.00  0.00    -0.256 C  
HETATM    9  C   UNL     1     -10.186  12.087  63.940  1.00  0.00    -0.424 C  
HETATM   10  C   UNL     1     -10.217  13.154  65.005  1.00  0.00    -0.296 A  
HETATM   11  C   UNL     1     -10.592  14.463  64.660  1.00  0.00    -0.331 A  
HETATM   12  C   UNL     1     -10.632  15.499  65.613  1.00  0.00    -0.389 A  
HETATM   13  C   UNL     1     -10.259  15.184  66.937  1.00  0.00    -0.259 A  
HETATM   14  H   UNL     1      -9.327  11.331  67.697  1.00  0.00     0.000 HD 
HETATM   15  N   UNL     1     -10.252  16.184  68.026  1.00  0.00    -0.246 N  
HETATM   16  N   UNL     1      -9.655  11.533  66.752  1.00  0.00    -0.184 NA 
HETATM   17  C   UNL     1      -9.892  13.869  67.282  1.00  0.00    -0.244 A  
HETATM   18  O   UNL     1      -9.863  15.817  69.144  1.00  0.00    -0.214 OA 
HETATM   19  O   UNL     1     -10.629  17.339  67.780  1.00  0.00    -0.361 OA 
HETATM   20  C   UNL     1      -9.892  12.844  66.332  1.00  0.00    -0.268 A  
BRANCH  12  21
HETATM   21  C   UNL     1     -11.083  16.856  65.138  1.00  0.00     0.022 C  
HETATM   22  O   UNL     1     -10.190  17.852  65.605  1.00  0.00    -0.589 OA 
HETATM   23  H   UNL     1     -10.474  18.707  65.306  1.00  0.00     0.000 HD 
ENDBRANCH  12  21
ENDBRANCH   6   7
ENDBRANCH   4   6
ENDBRANCH   2   4
TORSDOF 4
ENDMDL
MODEL      161
REMARK 921   NORMALIZED FREE ENERGY PREDICTED BY IDOCK:   -3.22 KCAL/MOL
REMARK 922        TOTAL FREE ENERGY PREDICTED BY IDOCK:   -4.42 KCAL/MOL
REMARK 923 INTER-LIGAND FREE ENERGY PREDICTED BY IDOCK:   -4.07 KCAL/MOL
REMARK 924 INTRA-LIGAND FREE ENERGY PREDICTED BY IDOCK:   -0.35 KCAL/MOL
REMARK 927      BINDING AFFINITY PREDICTED BY RF-SCORE:    0.00 PKD
ROOT
HETATM    1  C   UNL     1     -12.586  12.040  63.653  1.00  0.00    -0.605 C  
HETATM    2  C   UNL     1     -11.509  13.093  63.925  1.00  0.00    -0.401 C  
HETATM    3  C   UNL     1     -12.156  14.329  64.559  1.00  0.00    -0.499 C  
ENDROOT
BRANCH   2   4
HETATM    4  N   UNL     1     -10.504  12.495  64.803  1.00  0.00    -0.299 NA 
HETATM    5  H   UNL     1     -10.834  12.489  65.768  1.00  0.00     0.000 HD 
BRANCH   4   6
HETATM    6  C   UNL     1     -10.069  11.151  64.405  1.00  0.00    -0.320 C  
BRANCH   6   7
HETATM    7  C   UNL     1      -9.790  10.280  65.654  1.00  0.00    -0.268 C  
HETATM    8  C   UNL     1     -11.068  10.019  66.447  1.00  0.00     0.359 C  
HETATM    9  C   UNL     1     -10.748   9.038  67.573  1.00  0.00    -0.239 C  
HETATM   10  C   UNL     1      -9.535   9.476  68.353  1.00  0.00    -0.144 A  
HETATM   11  C   UNL     1      -9.284   8.910  69.615  1.00  0.00    -0.152 A  
HETATM   12  C   UNL     1      -8.170   9.286  70.388  1.00  0.00    -0.199 A  
HETATM   13  C   UNL     1      -7.312  10.277  69.862  1.00  0.00    -0.160 A  
HETATM   14  H   UNL     1      -8.187  11.666  66.174  1.00  0.00     0.000 HD 
HETATM   15  N   UNL     1      -6.114  10.762  70.580  1.00  0.00    -0.129 N  
HETATM   16  N   UNL     1      -8.777  10.907  66.516  1.00  0.00    -0.157 NA 
HETATM   17  C   UNL     1      -7.561  10.835  68.593  1.00  0.00    -0.106 A  
HETATM   18  O   UNL     1      -5.453  11.668  70.052  1.00  0.00    -0.075 OA 
HETATM   19  O   UNL     1      -5.823  10.252  71.671  1.00  0.00    -0.302 OA 
HETATM   20  C   UNL     1      -8.652  10.425  67.822  1.00  0.00    -0.122 A  
BRANCH  12  21
HETATM   21  C   UNL     1      -7.980   8.589  71.710  1.00  0.00    -0.131 C  
HETATM   22  O   UNL     1      -8.572   7.302  71.666  1.00  0.00    -0.117 OA 
HETATM   23  H   UNL     1      -8.452   6.862  72.499  1.00  0.00     0.000 HD 
ENDBRANCH  12  21
ENDBRANCH   6   7
ENDBRANCH   4   6
ENDBRANCH   2   4
TORSDOF 4
ENDMDL
MODEL      162
REMARK 921   NORMALIZED FREE ENERGY PREDICTED BY IDOCK:   -3.21 KCAL/MOL
REMARK 922        TOTAL FREE ENERGY PREDICTED BY IDOCK:   -4.40 KCAL/MOL
REMARK 923 INTER-LIGAND FREE ENERGY PREDICTED BY IDOCK:   -4.10 KCAL/MOL
REMARK 924 INTRA-LIGAND FREE ENERGY PREDICTED BY IDOCK:   -0.31 KCAL/MOL
REMARK 927      BINDING AFFINITY PREDICTED BY RF-SCORE:    0.00 PKD
ROOT
HETATM    1  C   UNL     1     -12.579  12.613  64.722  1.00  0.00    -0.530 C  
HETATM    2  C   UNL     1     -12.058  13.956  65.238  1.00  0.00    -0.410 C  
HETATM    3  C   UNL     1     -12.232  15.020  64.149  1.00  0.00    -0.234 C  
ENDROOT
BRANCH   2   4
HETATM    4  N   UNL     1     -12.801  14.293  66.452  1.00  0.00    -0.363 NA 
HETATM    5  H   UNL     1     -13.672  13.765  66.493  1.00  0.00     0.000 HD 
BRANCH   4   6
HETATM    6  C   UNL     1     -12.043  14.126  67.697  1.00  0.00    -0.302 C  
BRANCH   6   7
HETATM    7  C   UNL     1     -11.652  12.641  67.897  1.00  0.00    -0.349 C  
HETATM    8  C   UNL     1     -12.177  12.102  69.226  1.00  0.00    -0.106 C  
HETATM    9  C   UNL     1     -11.887  10.604  69.290  1.00  0.00    -0.309 C  
HETATM   10  C   UNL     1     -10.449  10.309  68.951  1.00  0.00    -0.231 A  
HETATM   11  C   UNL     1      -9.905   9.056  69.282  1.00  0.00    -0.179 A  
HETATM   12  C   UNL     1      -8.566   8.729  68.994  1.00  0.00    -0.132 A  
HETATM   13  C   UNL     1      -7.770   9.717  68.375  1.00  0.00    -0.081 A  
HETATM   14  H   UNL     1      -9.593  13.192  67.430  1.00  0.00     0.000 HD 
HETATM   15  N   UNL     1      -6.349   9.499  68.029  1.00  0.00    -0.057 N  
HETATM   16  N   UNL     1     -10.194  12.465  67.819  1.00  0.00    -0.207 NA 
HETATM   17  C   UNL     1      -8.320  10.969  68.037  1.00  0.00    -0.125 A  
HETATM   18  O   UNL     1      -5.725  10.447  67.530  1.00  0.00    -0.044 OA 
HETATM   19  O   UNL     1      -5.843   8.390  68.251  1.00  0.00    -0.040 OA 
HETATM   20  C   UNL     1      -9.661  11.265  68.297  1.00  0.00    -0.193 A  
BRANCH  12  21
HETATM   21  C   UNL     1      -8.099   7.344  69.361  1.00  0.00    -0.129 C  
HETATM   22  O   UNL     1      -7.450   7.372  70.619  1.00  0.00    -0.076 OA 
HETATM   23  H   UNL     1      -7.156   6.499  70.851  1.00  0.00     0.000 HD 
ENDBRANCH  12  21
ENDBRANCH   6   7
ENDBRANCH   4   6
ENDBRANCH   2   4
TORSDOF 4
ENDMDL
MODEL      163
REMARK 921   NORMALIZED FREE ENERGY PREDICTED BY IDOCK:   -3.03 KCAL/MOL
REMARK 922        TOTAL FREE ENERGY PREDICTED BY IDOCK:   -4.19 KCAL/MOL
REMARK 923 INTER-LIGAND FREE ENERGY PREDICTED BY IDOCK:   -3.86 KCAL/MOL
REMARK 924 INTRA-LIGAND FREE ENERGY PREDICTED BY IDOCK:   -0.32 KCAL/MOL
REMARK 927      BINDING AFFINITY PREDICTED BY RF-SCORE:    0.00 PKD
ROOT
HETATM    1  C   UNL     1      -7.147   2.765  64.140  1.00  0.00    -0.049 C  
HETATM    2  C   UNL     1      -7.608   2.142  65.460  1.00  0.00    -0.071 C  
HETATM    3  C   UNL     1      -6.383   1.772  66.302  1.00  0.00    -0.023 C  
ENDROOT
BRANCH   2   4
HETATM    4  N   UNL     1      -8.464   3.113  66.142  1.00  0.00    -0.105 NA 
HETATM    5  H   UNL     1      -7.916   3.675  66.792  1.00  0.00     0.000 HD 
BRANCH   4   6
HETATM    6  C   UNL     1      -9.237   3.980  65.245  1.00  0.00    -0.151 C  
BRANCH   6   7
HETATM    7  C   UNL     1      -9.591   5.312  65.951  1.00  0.00    -0.125 C  
HETATM    8  C   UNL     1      -8.425   6.296  65.897  1.00  0.00    -0.146 C  
HETATM    9  C   UNL     1      -8.890   7.631  66.476  1.00  0.00    -0.167 C  
HETATM   10  C   UNL     1      -9.568   7.443  67.809  1.00  0.00    -0.162 A  
HETATM   11  C   UNL     1      -9.757   8.554  68.649  1.00  0.00    -0.171 A  
HETATM   12  C   UNL     1     -10.379   8.435  69.906  1.00  0.00    -0.210 A  
HETATM   13  C   UNL     1     -10.793   7.149  70.313  1.00  0.00    -0.249 A  
HETATM   14  H   UNL     1     -10.239   4.143  67.676  1.00  0.00     0.000 HD 
HETATM   15  N   UNL     1     -11.451   6.893  71.612  1.00  0.00    -0.262 N  
HETATM   16  N   UNL     1      -9.992   5.077  67.346  1.00  0.00    -0.176 NA 
HETATM   17  C   UNL     1     -10.611   6.039  69.464  1.00  0.00    -0.363 A  
HETATM   18  O   UNL     1     -11.734   5.719  71.894  1.00  0.00    -0.204 OA 
HETATM   19  O   UNL     1     -11.688   7.851  72.362  1.00  0.00    -0.333 OA 
HETATM   20  C   UNL     1     -10.024   6.179  68.204  1.00  0.00    -0.142 A  
BRANCH  12  21
HETATM   21  C   UNL     1     -10.560   9.699  70.708  1.00  0.00    -0.322 C  
HETATM   22  O   UNL     1     -10.515  10.825  69.851  1.00  0.00    -0.432 OA 
HETATM   23  H   UNL     1     -10.630  11.621  70.356  1.00  0.00     0.000 HD 
ENDBRANCH  12  21
ENDBRANCH   6   7
ENDBRANCH   4   6
ENDBRANCH   2   4
TORSDOF 4
ENDMDL
MODEL      164
REMARK 921   NORMALIZED FREE ENERGY PREDICTED BY IDOCK:   -2.97 KCAL/MOL
REMARK 922        TOTAL FREE ENERGY PREDICTED BY IDOCK:   -4.11 KCAL/MOL
REMARK 923 INTER-LIGAND FREE ENERGY PREDICTED BY IDOCK:   -3.63 KCAL/MOL
REMARK 924 INTRA-LIGAND FREE ENERGY PREDICTED BY IDOCK:   -0.48 KCAL/MOL
REMARK 927      BINDING AFFINITY PREDICTED BY RF-SCORE:    0.00 PKD
ROOT
HETATM    1  C   UNL     1      -8.152   6.783  73.154  1.00  0.00    -0.114 C  
HETATM    2  C   UNL     1      -9.476   6.909  72.396  1.00  0.00    -0.139 C  
HETATM    3  C   UNL     1     -10.605   7.193  73.392  1.00  0.00    -0.424 C  
ENDROOT
BRANCH   2   4
HETATM    4  N   UNL     1      -9.334   7.982  71.413  1.00  0.00    -0.139 NA 
HETATM    5  H   UNL     1      -8.770   8.741  71.795  1.00  0.00     0.000 HD 
BRANCH   4   6
HETATM    6  C   UNL     1      -8.800   7.553  70.115  1.00  0.00    -0.147 C  
BRANCH   6   7
HETATM    7  C   UNL     1      -8.565   8.776  69.195  1.00  0.00    -0.128 C  
HETATM    8  C   UNL     1      -7.268   9.499  69.551  1.00  0.00    -0.074 C  
HETATM    9  C   UNL     1      -7.026  10.596  68.517  1.00  0.00    -0.067 C  
HETATM   10  C   UNL     1      -8.254  11.448  68.324  1.00  0.00    -0.150 A  
HETATM   11  C   UNL     1      -8.136  12.695  67.686  1.00  0.00    -0.173 A  
HETATM   12  C   UNL     1      -9.249  13.534  67.485  1.00  0.00    -0.219 A  
HETATM   13  C   UNL     1     -10.499  13.089  67.967  1.00  0.00    -0.228 A  
HETATM   14  H   UNL     1     -10.595   9.427  69.661  1.00  0.00     0.000 HD 
HETATM   15  N   UNL     1     -11.739  13.880  67.824  1.00  0.00    -0.346 N  
HETATM   16  N   UNL     1      -9.700   9.709  69.261  1.00  0.00    -0.175 NA 
HETATM   17  C   UNL     1     -10.616  11.835  68.597  1.00  0.00    -0.250 A  
HETATM   18  O   UNL     1     -12.777  13.421  68.322  1.00  0.00     0.454 OA 
HETATM   19  O   UNL     1     -11.693  14.961  67.219  1.00  0.00    -0.362 OA 
HETATM   20  C   UNL     1      -9.508  10.998  68.757  1.00  0.00    -0.183 A  
BRANCH  12  21
HETATM   21  C   UNL     1      -9.011  14.833  66.759  1.00  0.00    -0.266 C  
HETATM   22  O   UNL     1      -9.417  14.711  65.407  1.00  0.00    -0.498 OA 
HETATM   23  H   UNL     1      -9.267  15.530  64.950  1.00  0.00     0.000 HD 
ENDBRANCH  12  21
ENDBRANCH   6   7
ENDBRANCH   4   6
ENDBRANCH   2   4
TORSDOF 4
ENDMDL
MODEL      165
REMARK 921   NORMALIZED FREE ENERGY PREDICTED BY IDOCK:   -2.96 KCAL/MOL
REMARK 922        TOTAL FREE ENERGY PREDICTED BY IDOCK:   -4.10 KCAL/MOL
REMARK 923 INTER-LIGAND FREE ENERGY PREDICTED BY IDOCK:   -3.76 KCAL/MOL
REMARK 924 INTRA-LIGAND FREE ENERGY PREDICTED BY IDOCK:   -0.33 KCAL/MOL
REMARK 927      BINDING AFFINITY PREDICTED BY RF-SCORE:    0.00 PKD
ROOT
HETATM    1  C   UNL     1      -7.759   7.682  72.810  1.00  0.00    -0.118 C  
HETATM    2  C   UNL     1      -8.496   6.347  72.677  1.00  0.00    -0.122 C  
HETATM    3  C   UNL     1      -9.985   6.557  72.970  1.00  0.00    -0.185 C  
ENDROOT
BRANCH   2   4
HETATM    4  N   UNL     1      -8.274   5.842  71.323  1.00  0.00    -0.121 NA 
HETATM    5  H   UNL     1      -7.866   4.908  71.355  1.00  0.00     0.000 HD 
BRANCH   4   6
HETATM    6  C   UNL     1      -9.465   5.849  70.466  1.00  0.00    -0.167 C  
BRANCH   6   7
HETATM    7  C   UNL     1      -9.599   7.208  69.736  1.00  0.00    -0.155 C  
HETATM    8  C   UNL     1     -11.041   7.710  69.758  1.00  0.00    -0.115 C  
HETATM    9  C   UNL     1     -11.074   9.114  69.157  1.00  0.00     0.036 C  
HETATM   10  C   UNL     1     -10.351   9.161  67.835  1.00  0.00    -0.285 A  
HETATM   11  C   UNL     1     -10.558  10.253  66.974  1.00  0.00    -0.302 A  
HETATM   12  C   UNL     1      -9.913  10.345  65.726  1.00  0.00    -0.334 A  
HETATM   13  C   UNL     1      -9.059   9.286  65.351  1.00  0.00    -0.222 A  
HETATM   14  H   UNL     1      -8.547   6.322  68.042  1.00  0.00     0.000 HD 
HETATM   15  N   UNL     1      -8.331   9.262  64.064  1.00  0.00    -0.168 N  
HETATM   16  N   UNL     1      -9.117   7.111  68.350  1.00  0.00    -0.128 NA 
HETATM   17  C   UNL     1      -8.847   8.198  66.220  1.00  0.00    -0.193 A  
HETATM   18  O   UNL     1      -7.642   8.264  63.809  1.00  0.00    -0.117 OA 
HETATM   19  O   UNL     1      -8.440  10.230  63.297  1.00  0.00    -0.162 OA 
HETATM   20  C   UNL     1      -9.466   8.138  67.470  1.00  0.00    -0.152 A  
BRANCH  12  21
HETATM   21  C   UNL     1     -10.182  11.577  64.900  1.00  0.00    -0.275 C  
HETATM   22  O   UNL     1     -11.171  11.297  63.926  1.00  0.00    -0.476 OA 
HETATM   23  H   UNL     1     -11.341  12.073  63.405  1.00  0.00     0.000 HD 
ENDBRANCH  12  21
ENDBRANCH   6   7
ENDBRANCH   4   6
ENDBRANCH   2   4
TORSDOF 4
ENDMDL
MODEL      166
REMARK 921   NORMALIZED FREE ENERGY PREDICTED BY IDOCK:   -2.94 KCAL/MOL
REMARK 922        TOTAL FREE ENERGY PREDICTED BY IDOCK:   -4.07 KCAL/MOL
REMARK 923 INTER-LIGAND FREE ENERGY PREDICTED BY IDOCK:   -3.59 KCAL/MOL
REMARK 924 INTRA-LIGAND FREE ENERGY PREDICTED BY IDOCK:   -0.48 KCAL/MOL
REMARK 927      BINDING AFFINITY PREDICTED BY RF-SCORE:    0.00 PKD
ROOT
HETATM    1  C   UNL     1      -9.086  15.853  67.311  1.00  0.00    -0.218 C  
HETATM    2  C   UNL     1     -10.544  15.728  66.861  1.00  0.00    -0.317 C  
HETATM    3  C   UNL     1     -10.712  16.398  65.494  1.00  0.00    -0.300 C  
ENDROOT
BRANCH   2   4
HETATM    4  N   UNL     1     -10.881  14.305  66.815  1.00  0.00    -0.295 NA 
HETATM    5  H   UNL     1     -10.073  13.758  66.519  1.00  0.00     0.000 HD 
BRANCH   4   6
HETATM    6  C   UNL     1     -11.431  13.768  68.065  1.00  0.00    -0.310 C  
BRANCH   6   7
HETATM    7  C   UNL     1     -11.157  12.248  68.168  1.00  0.00    -0.240 C  
HETATM    8  C   UNL     1     -11.231  11.767  69.615  1.00  0.00    -0.225 C  
HETATM    9  C   UNL     1     -11.100  10.245  69.627  1.00  0.00    -0.323 C  
HETATM   10  C   UNL     1      -9.916   9.791  68.812  1.00  0.00    -0.179 A  
HETATM   11  C   UNL     1      -9.428   8.482  68.975  1.00  0.00    -0.150 A  
HETATM   12  C   UNL     1      -8.322   8.008  68.244  1.00  0.00    -0.123 A  
HETATM   13  C   UNL     1      -7.696   8.902  67.349  1.00  0.00    -0.096 A  
HETATM   14  H   UNL     1      -9.352  12.565  66.984  1.00  0.00     0.000 HD 
HETATM   15  N   UNL     1      -6.523   8.526  66.531  1.00  0.00    -0.058 N  
HETATM   16  N   UNL     1      -9.850  11.908  67.586  1.00  0.00    -0.184 NA 
HETATM   17  C   UNL     1      -8.193  10.209  67.182  1.00  0.00    -0.121 A  
HETATM   18  O   UNL     1      -6.019   9.399  65.810  1.00  0.00    -0.053 OA 
HETATM   19  O   UNL     1      -6.093   7.365  66.600  1.00  0.00    -0.040 OA 
HETATM   20  C   UNL     1      -9.313  10.654  67.888  1.00  0.00    -0.148 A  
BRANCH  12  21
HETATM   21  C   UNL     1      -7.907   6.577  68.473  1.00  0.00    -0.106 C  
HETATM   22  O   UNL     1      -8.269   5.786  67.355  1.00  0.00    -0.102 OA 
HETATM   23  H   UNL     1      -8.008   4.884  67.498  1.00  0.00     0.000 HD 
ENDBRANCH  12  21
ENDBRANCH   6   7
ENDBRANCH   4   6
ENDBRANCH   2   4
TORSDOF 4
ENDMDL
MODEL      167
REMARK 921   NORMALIZED FREE ENERGY PREDICTED BY IDOCK:   -2.90 KCAL/MOL
REMARK 922        TOTAL FREE ENERGY PREDICTED BY IDOCK:   -4.02 KCAL/MOL
REMARK 923 INTER-LIGAND FREE ENERGY PREDICTED BY IDOCK:   -3.43 KCAL/MOL
REMARK 924 INTRA-LIGAND FREE ENERGY PREDICTED BY IDOCK:   -0.59 KCAL/MOL
REMARK 927      BINDING AFFINITY PREDICTED BY RF-SCORE:    0.00 PKD
ROOT
HETATM    1  C   UNL     1      -7.504  11.333  67.034  1.00  0.00    -0.139 C  
HETATM    2  C   UNL     1      -8.536  12.084  67.879  1.00  0.00    -0.165 C  
HETATM    3  C   UNL     1      -9.580  12.721  66.956  1.00  0.00    -0.229 C  
ENDROOT
BRANCH   2   4
HETATM    4  N   UNL     1      -9.141  11.129  68.807  1.00  0.00    -0.275 NA 
HETATM    5  H   UNL     1      -9.228  11.543  69.735  1.00  0.00     0.000 HD 
BRANCH   4   6
HETATM    6  C   UNL     1     -10.431  10.585  68.368  1.00  0.00    -0.186 C  
BRANCH   6   7
HETATM    7  C   UNL     1     -10.505   9.065  68.657  1.00  0.00    -0.200 C  
HETATM    8  C   UNL     1      -9.705   8.698  69.905  1.00  0.00    -0.175 C  
HETATM    9  C   UNL     1      -9.942   7.222  70.215  1.00  0.00    -0.188 C  
HETATM   10  C   UNL     1      -9.736   6.365  68.992  1.00  0.00    -0.145 A  
HETATM   11  C   UNL     1      -9.571   4.977  69.142  1.00  0.00    -0.220 A  
HETATM   12  C   UNL     1      -9.369   4.131  68.035  1.00  0.00    -0.213 A  
HETATM   13  C   UNL     1      -9.316   4.727  66.757  1.00  0.00    -0.143 A  
HETATM   14  H   UNL     1      -9.927   8.713  66.583  1.00  0.00     0.000 HD 
HETATM   15  N   UNL     1      -9.103   3.948  65.518  1.00  0.00    -0.136 N  
HETATM   16  N   UNL     1     -10.030   8.286  67.504  1.00  0.00    -0.177 NA 
HETATM   17  C   UNL     1      -9.491   6.117  66.609  1.00  0.00    -0.173 A  
HETATM   18  O   UNL     1      -9.026   4.573  64.450  1.00  0.00    -0.147 OA 
HETATM   19  O   UNL     1      -9.007   2.715  65.596  1.00  0.00    -0.131 OA 
HETATM   20  C   UNL     1      -9.726   6.939  67.715  1.00  0.00    -0.129 A  
BRANCH  12  21
HETATM   21  C   UNL     1      -9.239   2.655  68.310  1.00  0.00    -0.201 C  
HETATM   22  O   UNL     1      -7.879   2.267  68.226  1.00  0.00    -0.054 OA 
HETATM   23  H   UNL     1      -7.797   1.337  68.399  1.00  0.00     0.000 HD 
ENDBRANCH  12  21
ENDBRANCH   6   7
ENDBRANCH   4   6
ENDBRANCH   2   4
TORSDOF 4
ENDMDL
MODEL      168
REMARK 921   NORMALIZED FREE ENERGY PREDICTED BY IDOCK:   -2.89 KCAL/MOL
REMARK 922        TOTAL FREE ENERGY PREDICTED BY IDOCK:   -4.01 KCAL/MOL
REMARK 923 INTER-LIGAND FREE ENERGY PREDICTED BY IDOCK:   -3.59 KCAL/MOL
REMARK 924 INTRA-LIGAND FREE ENERGY PREDICTED BY IDOCK:   -0.42 KCAL/MOL
REMARK 927      BINDING AFFINITY PREDICTED BY RF-SCORE:    0.00 PKD
ROOT
HETATM    1  C   UNL     1      -9.619   8.062  66.405  1.00  0.00    -0.267 C  
HETATM    2  C   UNL     1      -9.221   7.519  67.780  1.00  0.00    -0.135 C  
HETATM    3  C   UNL     1      -8.030   6.569  67.625  1.00  0.00    -0.114 C  
ENDROOT
BRANCH   2   4
HETATM    4  N   UNL     1      -8.900   8.658  68.640  1.00  0.00    -0.141 NA 
HETATM    5  H   UNL     1      -7.998   9.055  68.381  1.00  0.00     0.000 HD 
BRANCH   4   6
HETATM    6  C   UNL     1      -9.928   9.705  68.673  1.00  0.00    -0.165 C  
BRANCH   6   7
HETATM    7  C   UNL     1      -9.356  11.042  68.139  1.00  0.00    -0.173 C  
HETATM    8  C   UNL     1      -7.920  11.260  68.611  1.00  0.00    -0.145 C  
HETATM    9  C   UNL     1      -7.372  12.513  67.932  1.00  0.00    -0.115 C  
HETATM   10  C   UNL     1      -8.323  13.673  68.073  1.00  0.00    -0.170 A  
HETATM   11  C   UNL     1      -7.862  14.977  67.824  1.00  0.00    -0.161 A  
HETATM   12  C   UNL     1      -8.706  16.098  67.945  1.00  0.00    -0.174 A  
HETATM   13  C   UNL     1     -10.039  15.872  68.351  1.00  0.00    -0.223 A  
HETATM   14  H   UNL     1     -11.147  12.030  68.899  1.00  0.00     0.000 HD 
HETATM   15  N   UNL     1     -11.020  16.966  68.522  1.00  0.00    -0.331 N  
HETATM   16  N   UNL     1     -10.201  12.175  68.546  1.00  0.00    -0.219 NA 
HETATM   17  C   UNL     1     -10.500  14.563  68.591  1.00  0.00    -0.247 A  
HETATM   18  O   UNL     1     -12.152  16.666  68.927  1.00  0.00     0.262 OA 
HETATM   19  O   UNL     1     -10.673  18.127  68.260  1.00  0.00    -0.303 OA 
HETATM   20  C   UNL     1      -9.660  13.459  68.431  1.00  0.00    -0.188 A  
BRANCH  12  21
HETATM   21  C   UNL     1      -8.115  17.446  67.620  1.00  0.00    -0.197 C  
HETATM   22  O   UNL     1      -8.518  17.848  66.323  1.00  0.00    -0.378 OA 
HETATM   23  H   UNL     1      -8.146  18.697  66.118  1.00  0.00     0.000 HD 
ENDBRANCH  12  21
ENDBRANCH   6   7
ENDBRANCH   4   6
ENDBRANCH   2   4
TORSDOF 4
ENDMDL
MODEL      169
REMARK 921   NORMALIZED FREE ENERGY PREDICTED BY IDOCK:   -2.82 KCAL/MOL
REMARK 922        TOTAL FREE ENERGY PREDICTED BY IDOCK:   -3.92 KCAL/MOL
REMARK 923 INTER-LIGAND FREE ENERGY PREDICTED BY IDOCK:   -3.76 KCAL/MOL
REMARK 924 INTRA-LIGAND FREE ENERGY PREDICTED BY IDOCK:   -0.16 KCAL/MOL
REMARK 927      BINDING AFFINITY PREDICTED BY RF-SCORE:    0.00 PKD
ROOT
HETATM    1  C   UNL     1     -10.400  17.755  68.739  1.00  0.00    -0.332 C  
HETATM    2  C   UNL     1      -9.636  17.245  67.515  1.00  0.00    -0.259 C  
HETATM    3  C   UNL     1     -10.305  17.773  66.243  1.00  0.00    -0.358 C  
ENDROOT
BRANCH   2   4
HETATM    4  N   UNL     1      -8.249  17.696  67.628  1.00  0.00    -0.222 NA 
HETATM    5  H   UNL     1      -8.060  18.029  68.574  1.00  0.00     0.000 HD 
BRANCH   4   6
HETATM    6  C   UNL     1      -7.249  16.700  67.229  1.00  0.00    -0.166 C  
BRANCH   6   7
HETATM    7  C   UNL     1      -7.541  15.338  67.906  1.00  0.00    -0.139 C  
HETATM    8  C   UNL     1      -6.272  14.729  68.499  1.00  0.00    -0.088 C  
HETATM    9  C   UNL     1      -6.655  13.471  69.275  1.00  0.00    -0.103 C  
HETATM   10  C   UNL     1      -7.530  12.563  68.449  1.00  0.00    -0.127 A  
HETATM   11  C   UNL     1      -7.704  11.226  68.844  1.00  0.00    -0.125 A  
HETATM   12  C   UNL     1      -8.505  10.333  68.107  1.00  0.00    -0.123 A  
HETATM   13  C   UNL     1      -9.119  10.821  66.933  1.00  0.00    -0.149 A  
HETATM   14  H   UNL     1      -8.554  14.724  66.074  1.00  0.00     0.000 HD 
HETATM   15  N   UNL     1      -9.977   9.981  66.070  1.00  0.00    -0.258 N  
HETATM   16  N   UNL     1      -8.158  14.400  66.956  1.00  0.00    -0.138 NA 
HETATM   17  C   UNL     1      -8.951  12.164  66.545  1.00  0.00    -0.179 A  
HETATM   18  O   UNL     1     -10.432  10.492  65.036  1.00  0.00    -0.286 OA 
HETATM   19  O   UNL     1     -10.203   8.810  66.409  1.00  0.00    -0.289 OA 
HETATM   20  C   UNL     1      -8.181  13.047  67.307  1.00  0.00    -0.172 A  
BRANCH  12  21
HETATM   21  C   UNL     1      -8.649   8.931  68.643  1.00  0.00    -0.133 C  
HETATM   22  O   UNL     1      -8.374   8.916  70.032  1.00  0.00    -0.115 OA 
HETATM   23  H   UNL     1      -8.465   8.033  70.370  1.00  0.00     0.000 HD 
ENDBRANCH  12  21
ENDBRANCH   6   7
ENDBRANCH   4   6
ENDBRANCH   2   4
TORSDOF 4
ENDMDL
MODEL      170
REMARK 921   NORMALIZED FREE ENERGY PREDICTED BY IDOCK:   -2.77 KCAL/MOL
REMARK 922        TOTAL FREE ENERGY PREDICTED BY IDOCK:   -3.86 KCAL/MOL
REMARK 923 INTER-LIGAND FREE ENERGY PREDICTED BY IDOCK:   -3.42 KCAL/MOL
REMARK 924 INTRA-LIGAND FREE ENERGY PREDICTED BY IDOCK:   -0.44 KCAL/MOL
REMARK 927      BINDING AFFINITY PREDICTED BY RF-SCORE:    0.00 PKD
ROOT
HETATM    1  C   UNL     1      -6.920   4.856  70.201  1.00  0.00    -0.049 C  
HETATM    2  C   UNL     1      -8.056   3.833  70.274  1.00  0.00    -0.049 C  
HETATM    3  C   UNL     1      -9.231   4.434  71.052  1.00  0.00    -0.201 C  
ENDROOT
BRANCH   2   4
HETATM    4  N   UNL     1      -8.433   3.478  68.906  1.00  0.00    -0.075 NA 
HETATM    5  H   UNL     1      -8.257   2.488  68.735  1.00  0.00     0.000 HD 
BRANCH   4   6
HETATM    6  C   UNL     1      -9.814   3.820  68.546  1.00  0.00     0.103 C  
BRANCH   6   7
HETATM    7  C   UNL     1      -9.833   4.931  67.467  1.00  0.00    -0.167 C  
HETATM    8  C   UNL     1      -8.439   5.170  66.891  1.00  0.00    -0.106 C  
HETATM    9  C   UNL     1      -8.555   6.164  65.737  1.00  0.00    -0.153 C  
HETATM   10  C   UNL     1      -9.348   7.380  66.140  1.00  0.00    -0.111 A  
HETATM   11  C   UNL     1      -9.279   8.541  65.351  1.00  0.00    -0.043 A  
HETATM   12  C   UNL     1      -9.994   9.708  65.684  1.00  0.00    -0.321 A  
HETATM   13  C   UNL     1     -10.775   9.683  66.860  1.00  0.00    -0.115 A  
HETATM   14  H   UNL     1     -10.894   6.198  68.892  1.00  0.00     0.000 HD 
HETATM   15  N   UNL     1     -11.565  10.845  67.320  1.00  0.00    -0.026 N  
HETATM   16  N   UNL     1     -10.378   6.184  68.012  1.00  0.00    -0.175 NA 
HETATM   17  C   UNL     1     -10.850   8.515  67.643  1.00  0.00    -0.072 A  
HETATM   18  O   UNL     1     -12.181  10.737  68.391  1.00  0.00    -0.470 OA 
HETATM   19  O   UNL     1     -11.579  11.872  66.627  1.00  0.00    -0.465 OA 
HETATM   20  C   UNL     1     -10.162   7.355  67.280  1.00  0.00    -0.260 A  
BRANCH  12  21
HETATM   21  C   UNL     1      -9.874  10.882  64.747  1.00  0.00    -0.288 C  
HETATM   22  O   UNL     1      -8.516  11.079  64.394  1.00  0.00    -0.373 OA 
HETATM   23  H   UNL     1      -8.440  11.819  63.804  1.00  0.00     0.000 HD 
ENDBRANCH  12  21
ENDBRANCH   6   7
ENDBRANCH   4   6
ENDBRANCH   2   4
TORSDOF 4
ENDMDL
MODEL      171
REMARK 921   NORMALIZED FREE ENERGY PREDICTED BY IDOCK:   -2.72 KCAL/MOL
REMARK 922        TOTAL FREE ENERGY PREDICTED BY IDOCK:   -3.79 KCAL/MOL
REMARK 923 INTER-LIGAND FREE ENERGY PREDICTED BY IDOCK:   -3.53 KCAL/MOL
REMARK 924 INTRA-LIGAND FREE ENERGY PREDICTED BY IDOCK:   -0.27 KCAL/MOL
REMARK 927      BINDING AFFINITY PREDICTED BY RF-SCORE:    0.00 PKD
ROOT
HETATM    1  C   UNL     1      -6.157   4.238  73.059  1.00  0.00    -0.016 C  
HETATM    2  C   UNL     1      -7.463   3.493  72.775  1.00  0.00    -0.059 C  
HETATM    3  C   UNL     1      -8.234   3.301  74.085  1.00  0.00    -0.070 C  
ENDROOT
BRANCH   2   4
HETATM    4  N   UNL     1      -8.227   4.275  71.803  1.00  0.00    -0.094 NA 
HETATM    5  H   UNL     1      -8.672   3.659  71.123  1.00  0.00     0.000 HD 
BRANCH   4   6
HETATM    6  C   UNL     1      -9.218   5.181  72.394  1.00  0.00    -0.133 C  
BRANCH   6   7
HETATM    7  C   UNL     1      -9.830   6.098  71.306  1.00  0.00    -0.176 C  
HETATM    8  C   UNL     1     -10.149   5.315  70.035  1.00  0.00    -0.336 C  
HETATM    9  C   UNL     1     -10.881   6.242  69.066  1.00  0.00    -0.400 C  
HETATM   10  C   UNL     1     -10.151   7.550  68.901  1.00  0.00    -0.195 A  
HETATM   11  C   UNL     1     -10.467   8.384  67.815  1.00  0.00    -0.284 A  
HETATM   12  C   UNL     1      -9.812   9.613  67.609  1.00  0.00    -0.202 A  
HETATM   13  C   UNL     1      -8.801   9.978  68.525  1.00  0.00    -0.120 A  
HETATM   14  H   UNL     1      -8.157   7.464  71.617  1.00  0.00     0.000 HD 
HETATM   15  N   UNL     1      -8.037  11.238  68.413  1.00  0.00    -0.136 N  
HETATM   16  N   UNL     1      -8.931   7.221  70.998  1.00  0.00    -0.148 NA 
HETATM   17  C   UNL     1      -8.493   9.143  69.617  1.00  0.00    -0.133 A  
HETATM   18  O   UNL     1      -7.138  11.443  69.242  1.00  0.00    -0.118 OA 
HETATM   19  O   UNL     1      -8.319  12.031  67.503  1.00  0.00    -0.148 OA 
HETATM   20  C   UNL     1      -9.177   7.943  69.828  1.00  0.00    -0.150 A  
BRANCH  12  21
HETATM   21  C   UNL     1     -10.256  10.443  66.432  1.00  0.00    -0.230 C  
HETATM   22  O   UNL     1     -10.150   9.685  65.240  1.00  0.00    -0.379 OA 
HETATM   23  H   UNL     1     -10.430  10.207  64.499  1.00  0.00     0.000 HD 
ENDBRANCH  12  21
ENDBRANCH   6   7
ENDBRANCH   4   6
ENDBRANCH   2   4
TORSDOF 4
ENDMDL
MODEL      172
REMARK 921   NORMALIZED FREE ENERGY PREDICTED BY IDOCK:   -2.51 KCAL/MOL
REMARK 922        TOTAL FREE ENERGY PREDICTED BY IDOCK:   -3.54 KCAL/MOL
REMARK 923 INTER-LIGAND FREE ENERGY PREDICTED BY IDOCK:   -3.18 KCAL/MOL
REMARK 924 INTRA-LIGAND FREE ENERGY PREDICTED BY IDOCK:   -0.36 KCAL/MOL
REMARK 927      BINDING AFFINITY PREDICTED BY RF-SCORE:    0.00 PKD
ROOT
HETATM    1  C   UNL     1     -12.302  15.065  64.735  1.00  0.00    -0.162 C  
HETATM    2  C   UNL     1     -12.682  13.852  65.588  1.00  0.00    -0.495 C  
HETATM    3  C   UNL     1     -13.133  12.709  64.673  1.00  0.00    -0.036 C  
ENDROOT
BRANCH   2   4
HETATM    4  N   UNL     1     -11.516  13.481  66.390  1.00  0.00    -0.320 NA 
HETATM    5  H   UNL     1     -11.012  14.315  66.689  1.00  0.00     0.000 HD 
BRANCH   4   6
HETATM    6  C   UNL     1     -11.817  12.624  67.542  1.00  0.00    -0.334 C  
BRANCH   6   7
HETATM    7  C   UNL     1     -10.750  11.511  67.682  1.00  0.00    -0.211 C  
HETATM    8  C   UNL     1      -9.563  11.981  68.520  1.00  0.00    -0.146 C  
HETATM    9  C   UNL     1      -8.626  10.795  68.741  1.00  0.00    -0.156 C  
HETATM   10  C   UNL     1      -8.315  10.094  67.444  1.00  0.00    -0.118 A  
HETATM   11  C   UNL     1      -7.223   9.210  67.383  1.00  0.00    -0.080 A  
HETATM   12  C   UNL     1      -6.884   8.533  66.196  1.00  0.00    -0.072 A  
HETATM   13  C   UNL     1      -7.668   8.787  65.050  1.00  0.00    -0.105 A  
HETATM   14  H   UNL     1     -10.810  11.279  65.514  1.00  0.00     0.000 HD 
HETATM   15  N   UNL     1      -7.409   8.145  63.744  1.00  0.00    -0.095 N  
HETATM   16  N   UNL     1     -10.289  11.055  66.362  1.00  0.00    -0.243 NA 
HETATM   17  C   UNL     1      -8.767   9.666  65.118  1.00  0.00    -0.192 A  
HETATM   18  O   UNL     1      -8.127   8.471  62.788  1.00  0.00    -0.160 OA 
HETATM   19  O   UNL     1      -6.491   7.316  63.656  1.00  0.00    -0.047 OA 
HETATM   20  C   UNL     1      -9.112  10.303  66.312  1.00  0.00    -0.154 A  
BRANCH  12  21
HETATM   21  C   UNL     1      -5.715   7.583  66.254  1.00  0.00    -0.036 C  
HETATM   22  O   UNL     1      -6.044   6.463  67.057  1.00  0.00    -0.023 OA 
HETATM   23  H   UNL     1      -5.308   5.864  67.093  1.00  0.00     0.000 HD 
ENDBRANCH  12  21
ENDBRANCH   6   7
ENDBRANCH   4   6
ENDBRANCH   2   4
TORSDOF 4
ENDMDL
MODEL      173
REMARK 921   NORMALIZED FREE ENERGY PREDICTED BY IDOCK:   -2.48 KCAL/MOL
REMARK 922        TOTAL FREE ENERGY PREDICTED BY IDOCK:   -3.51 KCAL/MOL
REMARK 923 INTER-LIGAND FREE ENERGY PREDICTED BY IDOCK:   -3.19 KCAL/MOL
REMARK 924 INTRA-LIGAND FREE ENERGY PREDICTED BY IDOCK:   -0.32 KCAL/MOL
REMARK 927      BINDING AFFINITY PREDICTED BY RF-SCORE:    0.00 PKD
ROOT
HETATM    1  C   UNL     1      -8.268   7.554  72.942  1.00  0.00    -0.149 C  
HETATM    2  C   UNL     1      -9.246   7.907  71.818  1.00  0.00    -0.150 C  
HETATM    3  C   UNL     1     -10.682   7.702  72.311  1.00  0.00    -0.311 C  
ENDROOT
BRANCH   2   4
HETATM    4  N   UNL     1      -8.999   9.293  71.423  1.00  0.00    -0.307 NA 
HETATM    5  H   UNL     1      -9.123   9.917  72.220  1.00  0.00     0.000 HD 
BRANCH   4   6
HETATM    6  C   UNL     1      -7.694   9.524  70.793  1.00  0.00    -0.061 C  
BRANCH   6   7
HETATM    7  C   UNL     1      -7.875  10.054  69.350  1.00  0.00    -0.141 C  
HETATM    8  C   UNL     1      -9.341  10.357  69.049  1.00  0.00    -0.201 C  
HETATM    9  C   UNL     1      -9.428  11.011  67.672  1.00  0.00    -0.173 C  
HETATM   10  C   UNL     1      -8.666  10.220  66.640  1.00  0.00    -0.134 A  
HETATM   11  C   UNL     1      -8.902  10.459  65.275  1.00  0.00    -0.203 A  
HETATM   12  C   UNL     1      -8.223   9.745  64.270  1.00  0.00    -0.160 A  
HETATM   13  C   UNL     1      -7.303   8.755  64.677  1.00  0.00    -0.098 A  
HETATM   14  H   UNL     1      -6.724   8.338  68.650  1.00  0.00     0.000 HD 
HETATM   15  N   UNL     1      -6.533   7.934  63.718  1.00  0.00    -0.062 N  
HETATM   16  N   UNL     1      -7.343   9.097  68.367  1.00  0.00    -0.077 NA 
HETATM   17  C   UNL     1      -7.062   8.525  66.046  1.00  0.00    -0.076 A  
HETATM   18  O   UNL     1      -5.785   7.059  64.179  1.00  0.00    -0.031 OA 
HETATM   19  O   UNL     1      -6.668   8.147  62.505  1.00  0.00    -0.086 OA 
HETATM   20  C   UNL     1      -7.718   9.267  67.032  1.00  0.00    -0.095 A  
BRANCH  12  21
HETATM   21  C   UNL     1      -8.529  10.108  62.839  1.00  0.00    -0.178 C  
HETATM   22  O   UNL     1      -9.810   9.620  62.482  1.00  0.00    -0.495 OA 
HETATM   23  H   UNL     1     -10.003   9.848  61.581  1.00  0.00     0.000 HD 
ENDBRANCH  12  21
ENDBRANCH   6   7
ENDBRANCH   4   6
ENDBRANCH   2   4
TORSDOF 4
ENDMDL
MODEL      174
REMARK 921   NORMALIZED FREE ENERGY PREDICTED BY IDOCK:   -2.47 KCAL/MOL
REMARK 922        TOTAL FREE ENERGY PREDICTED BY IDOCK:   -3.49 KCAL/MOL
REMARK 923 INTER-LIGAND FREE ENERGY PREDICTED BY IDOCK:   -3.26 KCAL/MOL
REMARK 924 INTRA-LIGAND FREE ENERGY PREDICTED BY IDOCK:   -0.23 KCAL/MOL
REMARK 927      BINDING AFFINITY PREDICTED BY RF-SCORE:    0.00 PKD
ROOT
HETATM    1  C   UNL     1      -9.509   3.970  70.757  1.00  0.00    -0.240 C  
HETATM    2  C   UNL     1      -8.240   4.757  70.418  1.00  0.00    -0.083 C  
HETATM    3  C   UNL     1      -7.516   4.075  69.253  1.00  0.00    -0.054 C  
ENDROOT
BRANCH   2   4
HETATM    4  N   UNL     1      -8.633   6.127  70.089  1.00  0.00    -0.132 NA 
HETATM    5  H   UNL     1      -7.808   6.707  69.944  1.00  0.00     0.000 HD 
BRANCH   4   6
HETATM    6  C   UNL     1      -9.545   6.241  68.944  1.00  0.00    -0.126 C  
BRANCH   6   7
HETATM    7  C   UNL     1      -9.879   7.727  68.665  1.00  0.00    -0.169 C  
HETATM    8  C   UNL     1     -10.324   7.934  67.219  1.00  0.00    -0.377 C  
HETATM    9  C   UNL     1     -10.778   9.383  67.055  1.00  0.00    -0.207 C  
HETATM   10  C   UNL     1      -9.753  10.344  67.601  1.00  0.00    -0.191 A  
HETATM   11  C   UNL     1      -9.821  11.701  67.244  1.00  0.00    -0.203 A  
HETATM   12  C   UNL     1      -8.887  12.640  67.720  1.00  0.00    -0.179 A  
HETATM   13  C   UNL     1      -7.855  12.169  68.561  1.00  0.00    -0.122 A  
HETATM   14  H   UNL     1      -7.945   8.251  69.527  1.00  0.00     0.000 HD 
HETATM   15  N   UNL     1      -6.810  13.054  69.119  1.00  0.00    -0.090 N  
HETATM   16  N   UNL     1      -8.730   8.591  68.971  1.00  0.00    -0.134 NA 
HETATM   17  C   UNL     1      -7.796  10.810  68.925  1.00  0.00    -0.136 A  
HETATM   18  O   UNL     1      -5.922  12.533  69.809  1.00  0.00    -0.111 OA 
HETATM   19  O   UNL     1      -6.862  14.268  68.876  1.00  0.00    -0.093 OA 
HETATM   20  C   UNL     1      -8.751   9.896  68.472  1.00  0.00    -0.121 A  
BRANCH  12  21
HETATM   21  C   UNL     1      -9.076  14.076  67.301  1.00  0.00    -0.220 C  
HETATM   22  O   UNL     1     -10.177  14.178  66.416  1.00  0.00    -0.276 OA 
HETATM   23  H   UNL     1     -10.297  15.082  66.151  1.00  0.00     0.000 HD 
ENDBRANCH  12  21
ENDBRANCH   6   7
ENDBRANCH   4   6
ENDBRANCH   2   4
TORSDOF 4
ENDMDL
MODEL      175
REMARK 921   NORMALIZED FREE ENERGY PREDICTED BY IDOCK:   -2.24 KCAL/MOL
REMARK 922        TOTAL FREE ENERGY PREDICTED BY IDOCK:   -3.21 KCAL/MOL
REMARK 923 INTER-LIGAND FREE ENERGY PREDICTED BY IDOCK:   -2.62 KCAL/MOL
REMARK 924 INTRA-LIGAND FREE ENERGY PREDICTED BY IDOCK:   -0.59 KCAL/MOL
REMARK 927      BINDING AFFINITY PREDICTED BY RF-SCORE:    0.00 PKD
ROOT
HETATM    1  C   UNL     1      -9.235   8.006  72.826  1.00  0.00    -0.318 C  
HETATM    2  C   UNL     1      -9.357   6.550  73.283  1.00  0.00    -0.131 C  
HETATM    3  C   UNL     1     -10.812   6.258  73.665  1.00  0.00    -0.139 C  
ENDROOT
BRANCH   2   4
HETATM    4  N   UNL     1      -8.899   5.694  72.189  1.00  0.00    -0.137 NA 
HETATM    5  H   UNL     1      -8.376   4.899  72.556  1.00  0.00     0.000 HD 
BRANCH   4   6
HETATM    6  C   UNL     1      -9.963   5.232  71.290  1.00  0.00    -0.194 C  
BRANCH   6   7
HETATM    7  C   UNL     1      -9.543   5.425  69.812  1.00  0.00    -0.168 C  
HETATM    8  C   UNL     1      -8.216   4.729  69.516  1.00  0.00    -0.076 C  
HETATM    9  C   UNL     1      -7.939   4.832  68.017  1.00  0.00    -0.085 C  
HETATM   10  C   UNL     1      -8.095   6.249  67.527  1.00  0.00    -0.113 A  
HETATM   11  C   UNL     1      -7.560   6.609  66.278  1.00  0.00    -0.090 A  
HETATM   12  C   UNL     1      -7.672   7.919  65.775  1.00  0.00    -0.090 A  
HETATM   13  C   UNL     1      -8.326   8.877  66.580  1.00  0.00    -0.115 A  
HETATM   14  H   UNL     1      -9.868   7.567  70.072  1.00  0.00     0.000 HD 
HETATM   15  N   UNL     1      -8.500  10.285  66.166  1.00  0.00    -0.137 N  
HETATM   16  N   UNL     1      -9.454   6.853  69.472  1.00  0.00    -0.147 NA 
HETATM   17  C   UNL     1      -8.869   8.510  67.826  1.00  0.00    -0.137 A  
HETATM   18  O   UNL     1      -9.048  11.058  66.966  1.00  0.00    -0.146 OA 
HETATM   19  O   UNL     1      -8.094  10.636  65.049  1.00  0.00    -0.132 OA 
HETATM   20  C   UNL     1      -8.781   7.197  68.297  1.00  0.00    -0.128 A  
BRANCH  12  21
HETATM   21  C   UNL     1      -7.092   8.185  64.409  1.00  0.00    -0.078 C  
HETATM   22  O   UNL     1      -5.864   8.880  64.534  1.00  0.00    -0.063 OA 
HETATM   23  H   UNL     1      -5.498   9.047  63.673  1.00  0.00     0.000 HD 
ENDBRANCH  12  21
ENDBRANCH   6   7
ENDBRANCH   4   6
ENDBRANCH   2   4
TORSDOF 4
ENDMDL
MODEL      176
REMARK 921   NORMALIZED FREE ENERGY PREDICTED BY IDOCK:   -2.11 KCAL/MOL
REMARK 922        TOTAL FREE ENERGY PREDICTED BY IDOCK:   -3.05 KCAL/MOL
REMARK 923 INTER-LIGAND FREE ENERGY PREDICTED BY IDOCK:   -2.72 KCAL/MOL
REMARK 924 INTRA-LIGAND FREE ENERGY PREDICTED BY IDOCK:   -0.34 KCAL/MOL
REMARK 927      BINDING AFFINITY PREDICTED BY RF-SCORE:    0.00 PKD
ROOT
HETATM    1  C   UNL     1      -7.041  11.707  67.126  1.00  0.00    -0.143 C  
HETATM    2  C   UNL     1      -7.157  12.313  68.527  1.00  0.00    -0.099 C  
HETATM    3  C   UNL     1      -7.810  13.695  68.429  1.00  0.00    -0.140 C  
ENDROOT
BRANCH   2   4
HETATM    4  N   UNL     1      -7.944  11.396  69.351  1.00  0.00    -0.356 NA 
HETATM    5  H   UNL     1      -8.139  11.815  70.260  1.00  0.00     0.000 HD 
BRANCH   4   6
HETATM    6  C   UNL     1      -9.187  10.929  68.727  1.00  0.00    -0.183 C  
BRANCH   6   7
HETATM    7  C   UNL     1      -9.447   9.444  69.084  1.00  0.00    -0.163 C  
HETATM    8  C   UNL     1      -9.474   9.232  70.596  1.00  0.00    -0.333 C  
HETATM    9  C   UNL     1      -9.880   7.787  70.875  1.00  0.00    -0.182 C  
HETATM   10  C   UNL     1      -9.059   6.820  70.062  1.00  0.00    -0.148 A  
HETATM   11  C   UNL     1      -9.039   5.461  70.419  1.00  0.00    -0.170 A  
HETATM   12  C   UNL     1      -8.285   4.515  69.698  1.00  0.00    -0.066 A  
HETATM   13  C   UNL     1      -7.524   4.982  68.605  1.00  0.00    -0.070 A  
HETATM   14  H   UNL     1      -7.835   8.906  67.715  1.00  0.00     0.000 HD 
HETATM   15  N   UNL     1      -6.686   4.090  67.775  1.00  0.00    -0.046 N  
HETATM   16  N   UNL     1      -8.438   8.570  68.467  1.00  0.00    -0.130 NA 
HETATM   17  C   UNL     1      -7.553   6.343  68.244  1.00  0.00    -0.103 A  
HETATM   18  O   UNL     1      -6.019   4.607  66.866  1.00  0.00    -0.025 OA 
HETATM   19  O   UNL     1      -6.681   2.875  68.019  1.00  0.00    -0.036 OA 
HETATM   20  C   UNL     1      -8.334   7.262  68.948  1.00  0.00    -0.126 A  
BRANCH  12  21
HETATM   21  C   UNL     1      -8.366   3.079  70.149  1.00  0.00    -0.044 C  
HETATM   22  O   UNL     1      -9.658   2.807  70.662  1.00  0.00    -0.153 OA 
HETATM   23  H   UNL     1      -9.709   1.902  70.946  1.00  0.00     0.000 HD 
ENDBRANCH  12  21
ENDBRANCH   6   7
ENDBRANCH   4   6
ENDBRANCH   2   4
TORSDOF 4
ENDMDL
MODEL      177
REMARK 921   NORMALIZED FREE ENERGY PREDICTED BY IDOCK:   -2.09 KCAL/MOL
REMARK 922        TOTAL FREE ENERGY PREDICTED BY IDOCK:   -3.03 KCAL/MOL
REMARK 923 INTER-LIGAND FREE ENERGY PREDICTED BY IDOCK:   -2.80 KCAL/MOL
REMARK 924 INTRA-LIGAND FREE ENERGY PREDICTED BY IDOCK:   -0.23 KCAL/MOL
REMARK 927      BINDING AFFINITY PREDICTED BY RF-SCORE:    0.00 PKD
ROOT
HETATM    1  C   UNL     1      -6.463  10.800  66.163  1.00  0.00    -0.129 C  
HETATM    2  C   UNL     1      -7.519  11.325  67.138  1.00  0.00    -0.130 C  
HETATM    3  C   UNL     1      -8.715  11.866  66.349  1.00  0.00    -0.118 C  
ENDROOT
BRANCH   2   4
HETATM    4  N   UNL     1      -7.903  10.226  68.023  1.00  0.00    -0.099 NA 
HETATM    5  H   UNL     1      -8.912  10.226  68.172  1.00  0.00     0.000 HD 
BRANCH   4   6
HETATM    6  C   UNL     1      -7.453   8.901  67.580  1.00  0.00    -0.092 C  
BRANCH   6   7
HETATM    7  C   UNL     1      -7.437   7.909  68.769  1.00  0.00    -0.095 C  
HETATM    8  C   UNL     1      -6.820   6.571  68.368  1.00  0.00    -0.071 C  
HETATM    9  C   UNL     1      -6.701   5.700  69.617  1.00  0.00    -0.055 C  
HETATM   10  C   UNL     1      -8.000   5.654  70.380  1.00  0.00    -0.104 A  
HETATM   11  C   UNL     1      -8.197   4.655  71.348  1.00  0.00    -0.102 A  
HETATM   12  C   UNL     1      -9.392   4.562  72.085  1.00  0.00    -0.175 A  
HETATM   13  C   UNL     1     -10.408   5.502  71.806  1.00  0.00    -0.216 A  
HETATM   14  H   UNL     1      -9.557   8.337  69.062  1.00  0.00     0.000 HD 
HETATM   15  N   UNL     1     -11.710   5.505  72.506  1.00  0.00    -0.232 N  
HETATM   16  N   UNL     1      -8.793   7.703  69.300  1.00  0.00    -0.136 NA 
HETATM   17  C   UNL     1     -10.204   6.508  70.842  1.00  0.00    -0.220 A  
HETATM   18  O   UNL     1     -12.553   6.344  72.154  1.00  0.00    -0.268 OA 
HETATM   19  O   UNL     1     -11.908   4.676  73.406  1.00  0.00    -0.225 OA 
HETATM   20  C   UNL     1      -8.998   6.608  70.143  1.00  0.00    -0.152 A  
BRANCH  12  21
HETATM   21  C   UNL     1      -9.481   3.472  73.122  1.00  0.00    -0.106 C  
HETATM   22  O   UNL     1      -8.222   3.298  73.747  1.00  0.00    -0.073 OA 
HETATM   23  H   UNL     1      -8.277   2.611  74.401  1.00  0.00     0.000 HD 
ENDBRANCH  12  21
ENDBRANCH   6   7
ENDBRANCH   4   6
ENDBRANCH   2   4
TORSDOF 4
ENDMDL
MODEL      178
REMARK 921   NORMALIZED FREE ENERGY PREDICTED BY IDOCK:   -1.89 KCAL/MOL
REMARK 922        TOTAL FREE ENERGY PREDICTED BY IDOCK:   -2.78 KCAL/MOL
REMARK 923 INTER-LIGAND FREE ENERGY PREDICTED BY IDOCK:   -2.16 KCAL/MOL
REMARK 924 INTRA-LIGAND FREE ENERGY PREDICTED BY IDOCK:   -0.62 KCAL/MOL
REMARK 927      BINDING AFFINITY PREDICTED BY RF-SCORE:    0.00 PKD
ROOT
HETATM    1  C   UNL     1      -7.039   8.387  73.479  1.00  0.00    -0.124 C  
HETATM    2  C   UNL     1      -8.126   7.314  73.566  1.00  0.00    -0.116 C  
HETATM    3  C   UNL     1      -9.496   7.958  73.328  1.00  0.00    -0.350 C  
ENDROOT
BRANCH   2   4
HETATM    4  N   UNL     1      -7.827   6.286  72.569  1.00  0.00    -0.102 NA 
HETATM    5  H   UNL     1      -7.793   5.366  73.007  1.00  0.00     0.000 HD 
BRANCH   4   6
HETATM    6  C   UNL     1      -8.737   6.270  71.418  1.00  0.00    -0.135 C  
BRANCH   6   7
HETATM    7  C   UNL     1      -8.005   6.752  70.142  1.00  0.00    -0.112 C  
HETATM    8  C   UNL     1      -8.307   8.220  69.849  1.00  0.00    -0.125 C  
HETATM    9  C   UNL     1      -7.442   8.667  68.672  1.00  0.00    -0.096 C  
HETATM   10  C   UNL     1      -7.545   7.702  67.518  1.00  0.00    -0.109 A  
HETATM   11  C   UNL     1      -7.108   8.102  66.244  1.00  0.00    -0.073 A  
HETATM   12  C   UNL     1      -7.187   7.244  65.131  1.00  0.00    -0.070 A  
HETATM   13  C   UNL     1      -7.744   5.962  65.330  1.00  0.00    -0.095 A  
HETATM   14  H   UNL     1      -8.822   5.016  69.103  1.00  0.00     0.000 HD 
HETATM   15  N   UNL     1      -7.888   4.974  64.240  1.00  0.00    -0.086 N  
HETATM   16  N   UNL     1      -8.364   5.920  68.983  1.00  0.00    -0.106 NA 
HETATM   17  C   UNL     1      -8.172   5.562  66.610  1.00  0.00    -0.105 A  
HETATM   18  O   UNL     1      -8.432   3.893  64.509  1.00  0.00    -0.100 OA 
HETATM   19  O   UNL     1      -7.465   5.262  63.111  1.00  0.00    -0.048 OA 
HETATM   20  C   UNL     1      -8.054   6.412  67.713  1.00  0.00    -0.115 A  
BRANCH  12  21
HETATM   21  C   UNL     1      -6.657   7.765  63.819  1.00  0.00    -0.062 C  
HETATM   22  O   UNL     1      -5.293   7.409  63.675  1.00  0.00    -0.032 OA 
HETATM   23  H   UNL     1      -4.959   7.737  62.849  1.00  0.00     0.000 HD 
ENDBRANCH  12  21
ENDBRANCH   6   7
ENDBRANCH   4   6
ENDBRANCH   2   4
TORSDOF 4
ENDMDL
MODEL      179
REMARK 921   NORMALIZED FREE ENERGY PREDICTED BY IDOCK:   -1.08 KCAL/MOL
REMARK 922        TOTAL FREE ENERGY PREDICTED BY IDOCK:   -1.78 KCAL/MOL
REMARK 923 INTER-LIGAND FREE ENERGY PREDICTED BY IDOCK:   -2.26 KCAL/MOL
REMARK 924 INTRA-LIGAND FREE ENERGY PREDICTED BY IDOCK:    0.48 KCAL/MOL
REMARK 927      BINDING AFFINITY PREDICTED BY RF-SCORE:    0.00 PKD
ROOT
HETATM    1  C   UNL     1     -10.908  11.481  65.238  1.00  0.00    -0.319 C  
HETATM    2  C   UNL     1     -12.034  12.239  65.945  1.00  0.00    -0.287 C  
HETATM    3  C   UNL     1     -11.968  11.960  67.449  1.00  0.00    -0.090 C  
ENDROOT
BRANCH   2   4
HETATM    4  N   UNL     1     -11.877  13.662  65.647  1.00  0.00    -0.347 NA 
HETATM    5  H   UNL     1     -12.178  13.861  64.693  1.00  0.00     0.000 HD 
BRANCH   4   6
HETATM    6  C   UNL     1     -12.551  14.561  66.592  1.00  0.00     0.230 C  
BRANCH   6   7
HETATM    7  C   UNL     1     -11.513  15.285  67.484  1.00  0.00    -0.265 C  
HETATM    8  C   UNL     1     -10.886  16.472  66.757  1.00  0.00    -0.070 C  
HETATM    9  C   UNL     1      -9.990  17.223  67.739  1.00  0.00    -0.301 C  
HETATM   10  C   UNL     1      -9.052  16.284  68.454  1.00  0.00    -0.203 A  
HETATM   11  C   UNL     1      -7.936  16.807  69.130  1.00  0.00    -0.126 A  
HETATM   12  C   UNL     1      -7.025  15.975  69.808  1.00  0.00    -0.040 A  
HETATM   13  C   UNL     1      -7.256  14.583  69.772  1.00  0.00    -0.005 A  
HETATM   14  H   UNL     1     -10.588  13.344  67.861  1.00  0.00     0.000 HD 
HETATM   15  N   UNL     1      -6.369  13.606  70.439  1.00  0.00    -0.041 N  
HETATM   16  N   UNL     1     -10.466  14.355  67.933  1.00  0.00    -0.237 NA 
HETATM   17  C   UNL     1      -8.381  14.064  69.102  1.00  0.00     0.247 A  
HETATM   18  O   UNL     1      -6.635  12.403  70.308  1.00  0.00     0.051 OA 
HETATM   19  O   UNL     1      -5.403  14.025  71.093  1.00  0.00    -0.132 OA 
HETATM   20  C   UNL     1      -9.296  14.905  68.463  1.00  0.00    -0.196 A  
BRANCH  12  21
HETATM   21  C   UNL     1      -5.883  16.646  70.528  1.00  0.00     0.059 C  
HETATM   22  O   UNL     1      -5.475  17.800  69.815  1.00  0.00    -0.192 OA 
HETATM   23  H   UNL     1      -4.755  18.222  70.268  1.00  0.00     0.000 HD 
ENDBRANCH  12  21
ENDBRANCH   6   7
ENDBRANCH   4   6
ENDBRANCH   2   4
TORSDOF 4
ENDMDL
MODEL      180
REMARK 921   NORMALIZED FREE ENERGY PREDICTED BY IDOCK:   -1.01 KCAL/MOL
REMARK 922        TOTAL FREE ENERGY PREDICTED BY IDOCK:   -1.69 KCAL/MOL
REMARK 923 INTER-LIGAND FREE ENERGY PREDICTED BY IDOCK:   -1.29 KCAL/MOL
REMARK 924 INTRA-LIGAND FREE ENERGY PREDICTED BY IDOCK:   -0.40 KCAL/MOL
REMARK 927      BINDING AFFINITY PREDICTED BY RF-SCORE:    0.00 PKD
ROOT
HETATM    1  C   UNL     1      -6.437  10.983  66.075  1.00  0.00    -0.046 C  
HETATM    2  C   UNL     1      -6.142  11.766  67.356  1.00  0.00    -0.108 C  
HETATM    3  C   UNL     1      -7.175  12.886  67.516  1.00  0.00    -0.149 C  
ENDROOT
BRANCH   2   4
HETATM    4  N   UNL     1      -6.178  10.828  68.477  1.00  0.00    -0.046 NA 
HETATM    5  H   UNL     1      -5.571  11.152  69.230  1.00  0.00     0.000 HD 
BRANCH   4   6
HETATM    6  C   UNL     1      -7.522  10.544  68.992  1.00  0.00    -0.112 C  
BRANCH   6   7
HETATM    7  C   UNL     1      -7.793   9.019  68.987  1.00  0.00    -0.090 C  
HETATM    8  C   UNL     1      -7.348   8.371  70.296  1.00  0.00    -0.055 C  
HETATM    9  C   UNL     1      -7.777   6.906  70.281  1.00  0.00    -0.100 C  
HETATM   10  C   UNL     1      -7.361   6.225  69.003  1.00  0.00    -0.085 A  
HETATM   11  C   UNL     1      -7.356   4.821  68.939  1.00  0.00    -0.057 A  
HETATM   12  C   UNL     1      -6.970   4.134  67.773  1.00  0.00    -0.056 A  
HETATM   13  C   UNL     1      -6.563   4.905  66.662  1.00  0.00    -0.046 A  
HETATM   14  H   UNL     1      -6.771   8.916  67.062  1.00  0.00     0.000 HD 
HETATM   15  N   UNL     1      -6.129   4.301  65.385  1.00  0.00    -0.023 N  
HETATM   16  N   UNL     1      -7.127   8.370  67.847  1.00  0.00    -0.081 NA 
HETATM   17  C   UNL     1      -6.578   6.311  66.727  1.00  0.00    -0.055 A  
HETATM   18  O   UNL     1      -5.746   5.065  64.486  1.00  0.00    -0.016 OA 
HETATM   19  O   UNL     1      -6.161   3.068  65.264  1.00  0.00    -0.019 OA 
HETATM   20  C   UNL     1      -6.997   6.980  67.880  1.00  0.00    -0.083 A  
BRANCH  12  21
HETATM   21  C   UNL     1      -7.036   2.628  67.805  1.00  0.00    -0.048 C  
HETATM   22  O   UNL     1      -5.745   2.094  68.037  1.00  0.00    -0.018 OA 
HETATM   23  H   UNL     1      -5.786   1.145  68.058  1.00  0.00     0.000 HD 
ENDBRANCH  12  21
ENDBRANCH   6   7
ENDBRANCH   4   6
ENDBRANCH   2   4
TORSDOF 4
ENDMDL
MODEL      181
REMARK 921   NORMALIZED FREE ENERGY PREDICTED BY IDOCK:   -0.83 KCAL/MOL
REMARK 922        TOTAL FREE ENERGY PREDICTED BY IDOCK:   -1.46 KCAL/MOL
REMARK 923 INTER-LIGAND FREE ENERGY PREDICTED BY IDOCK:   -2.86 KCAL/MOL
REMARK 924 INTRA-LIGAND FREE ENERGY PREDICTED BY IDOCK:    1.39 KCAL/MOL
REMARK 927      BINDING AFFINITY PREDICTED BY RF-SCORE:    0.00 PKD
ROOT
HETATM    1  C   UNL     1      -9.482   3.964  68.561  1.00  0.00    -0.213 C  
HETATM    2  C   UNL     1      -8.221   3.272  69.084  1.00  0.00    -0.059 C  
HETATM    3  C   UNL     1      -8.162   1.842  68.535  1.00  0.00    -0.072 C  
ENDROOT
BRANCH   2   4
HETATM    4  N   UNL     1      -7.064   4.063  68.665  1.00  0.00    -0.054 NA 
HETATM    5  H   UNL     1      -6.198   3.578  68.898  1.00  0.00     0.000 HD 
BRANCH   4   6
HETATM    6  C   UNL     1      -7.069   4.446  67.248  1.00  0.00    -0.068 C  
BRANCH   6   7
HETATM    7  C   UNL     1      -7.553   5.907  67.083  1.00  0.00    -0.096 C  
HETATM    8  C   UNL     1      -6.380   6.885  67.082  1.00  0.00    -0.044 C  
HETATM    9  C   UNL     1      -6.913   8.281  66.768  1.00  0.00    -0.070 C  
HETATM   10  C   UNL     1      -8.092   8.627  67.641  1.00  0.00    -0.107 A  
HETATM   11  C   UNL     1      -8.502   9.967  67.748  1.00  0.00    -0.118 A  
HETATM   12  C   UNL     1      -9.592  10.346  68.554  1.00  0.00    -0.161 A  
HETATM   13  C   UNL     1     -10.257   9.331  69.277  1.00  0.00    -0.206 A  
HETATM   14  H   UNL     1      -8.957   5.552  68.715  1.00  0.00     0.000 HD 
HETATM   15  N   UNL     1     -11.409   9.603  70.162  1.00  0.00    -0.243 N  
HETATM   16  N   UNL     1      -8.511   6.267  68.140  1.00  0.00    -0.114 NA 
HETATM   17  C   UNL     1      -9.849   7.988  69.160  1.00  0.00    -0.178 A  
HETATM   18  O   UNL     1     -11.893   8.649  70.788  1.00  0.00    -0.265 OA 
HETATM   19  O   UNL     1     -11.841  10.762  70.244  1.00  0.00    -0.288 OA 
HETATM   20  C   UNL     1      -8.787   7.623  68.329  1.00  0.00    -0.125 A  
BRANCH  12  21
HETATM   21  C   UNL     1      -9.966  11.806  68.566  1.00  0.00    -0.199 C  
HETATM   22  O   UNL     1      -9.257  12.494  67.551  1.00  0.00    -0.176 OA 
HETATM   23  H   UNL     1      -9.493  13.413  67.558  1.00  0.00     0.000 HD 
ENDBRANCH  12  21
ENDBRANCH   6   7
ENDBRANCH   4   6
ENDBRANCH   2   4
TORSDOF 4
ENDMDL
MODEL      182
REMARK 921   NORMALIZED FREE ENERGY PREDICTED BY IDOCK:   -0.50 KCAL/MOL
REMARK 922        TOTAL FREE ENERGY PREDICTED BY IDOCK:   -1.06 KCAL/MOL
REMARK 923 INTER-LIGAND FREE ENERGY PREDICTED BY IDOCK:   -5.04 KCAL/MOL
REMARK 924 INTRA-LIGAND FREE ENERGY PREDICTED BY IDOCK:    3.97 KCAL/MOL
REMARK 927      BINDING AFFINITY PREDICTED BY RF-SCORE:    0.00 PKD
ROOT
HETATM    1  C   UNL     1     -10.241  17.372  67.326  1.00  0.00    -0.324 C  
HETATM    2  C   UNL     1      -9.945  16.089  66.546  1.00  0.00    -0.279 C  
HETATM    3  C   UNL     1     -10.470  16.233  65.114  1.00  0.00    -0.254 C  
ENDROOT
BRANCH   2   4
HETATM    4  N   UNL     1      -8.499  15.866  66.575  1.00  0.00    -0.293 NA 
HETATM    5  H   UNL     1      -8.060  16.476  67.264  1.00  0.00     0.000 HD 
BRANCH   4   6
HETATM    6  C   UNL     1      -8.102  14.471  66.802  1.00  0.00     0.163 C  
BRANCH   6   7
HETATM    7  C   UNL     1      -9.029  13.808  67.850  1.00  0.00    -0.193 C  
HETATM    8  C   UNL     1     -10.128  12.986  67.180  1.00  0.00    -0.244 C  
HETATM    9  C   UNL     1     -10.908  12.245  68.263  1.00  0.00    -0.254 C  
HETATM   10  C   UNL     1     -11.329  13.177  69.370  1.00  0.00    -0.276 A  
HETATM   11  C   UNL     1     -12.329  12.772  70.270  1.00  0.00    -0.277 A  
HETATM   12  C   UNL     1     -12.764  13.605  71.319  1.00  0.00    -0.443 A  
HETATM   13  C   UNL     1     -12.174  14.882  71.428  1.00  0.00    -0.333 A  
HETATM   14  H   UNL     1      -9.249  15.764  68.791  1.00  0.00     0.000 HD 
HETATM   15  N   UNL     1     -12.550  15.850  72.481  1.00  0.00    -0.435 N  
HETATM   16  N   UNL     1      -9.623  14.817  68.741  1.00  0.00    -0.213 NA 
HETATM   17  C   UNL     1     -11.165  15.281  70.530  1.00  0.00    -0.338 A  
HETATM   18  O   UNL     1     -12.005  16.963  72.461  1.00  0.00    -0.209 OA 
HETATM   19  O   UNL     1     -13.388  15.515  73.330  1.00  0.00    -0.498 OA 
HETATM   20  C   UNL     1     -10.719  14.430  69.516  1.00  0.00    -0.107 A  
BRANCH  12  21
HETATM   21  C   UNL     1     -13.818  13.054  72.245  1.00  0.00    -0.434 C  
HETATM   22  O   UNL     1     -14.129  14.010  73.243  1.00  0.00     0.205 OA 
HETATM   23  H   UNL     1     -14.793  13.663  73.827  1.00  0.00     0.000 HD 
ENDBRANCH  12  21
ENDBRANCH   6   7
ENDBRANCH   4   6
ENDBRANCH   2   4
TORSDOF 4
ENDMDL
MODEL      183
REMARK 921   NORMALIZED FREE ENERGY PREDICTED BY IDOCK:    1.62 KCAL/MOL
REMARK 922        TOTAL FREE ENERGY PREDICTED BY IDOCK:    1.55 KCAL/MOL
REMARK 923 INTER-LIGAND FREE ENERGY PREDICTED BY IDOCK:    1.01 KCAL/MOL
REMARK 924 INTRA-LIGAND FREE ENERGY PREDICTED BY IDOCK:    0.55 KCAL/MOL
REMARK 927      BINDING AFFINITY PREDICTED BY RF-SCORE:    0.00 PKD
ROOT
HETATM    1  C   UNL     1     -12.068  20.162  67.350  1.00  0.00     2.864 C  
HETATM    2  C   UNL     1     -10.765  20.455  68.099  1.00  0.00     0.207 C  
HETATM    3  C   UNL     1     -10.628  19.486  69.277  1.00  0.00     0.443 C  
ENDROOT
BRANCH   2   4
HETATM    4  N   UNL     1      -9.659  20.321  67.151  1.00  0.00    -0.418 NA 
HETATM    5  H   UNL     1      -9.766  20.985  66.384  1.00  0.00     0.000 HD 
BRANCH   4   6
HETATM    6  C   UNL     1      -8.325  20.443  67.749  1.00  0.00    -0.164 C  
BRANCH   6   7
HETATM    7  C   UNL     1      -7.613  19.069  67.771  1.00  0.00    -0.245 C  
HETATM    8  C   UNL     1      -6.950  18.765  66.429  1.00  0.00    -0.249 C  
HETATM    9  C   UNL     1      -6.147  17.473  66.567  1.00  0.00    -0.248 C  
HETATM   10  C   UNL     1      -6.975  16.377  67.187  1.00  0.00    -0.239 A  
HETATM   11  C   UNL     1      -6.541  15.044  67.086  1.00  0.00     0.283 A  
HETATM   12  C   UNL     1      -7.278  13.980  67.640  1.00  0.00    -0.190 A  
HETATM   13  C   UNL     1      -8.491  14.293  68.291  1.00  0.00    -0.167 A  
HETATM   14  H   UNL     1      -9.461  18.203  68.543  1.00  0.00     0.000 HD 
HETATM   15  N   UNL     1      -9.357  13.266  68.907  1.00  0.00     0.142 N  
HETATM   16  N   UNL     1      -8.553  17.995  68.127  1.00  0.00    -0.266 NA 
HETATM   17  C   UNL     1      -8.918  15.631  68.399  1.00  0.00    -0.185 A  
HETATM   18  O   UNL     1     -10.425  13.640  69.413  1.00  0.00     0.009 OA 
HETATM   19  O   UNL     1      -8.987  12.083  68.891  1.00  0.00     0.023 OA 
HETATM   20  C   UNL     1      -8.158  16.679  67.874  1.00  0.00    -0.172 A  
BRANCH  12  21
HETATM   21  C   UNL     1      -6.700  12.595  67.503  1.00  0.00    -0.156 C  
HETATM   22  O   UNL     1      -5.300  12.674  67.303  1.00  0.00    -0.265 OA 
HETATM   23  H   UNL     1      -4.936  11.801  67.216  1.00  0.00     0.000 HD 
ENDBRANCH  12  21
ENDBRANCH   6   7
ENDBRANCH   4   6
ENDBRANCH   2   4
TORSDOF 4
ENDMDL
MODEL      184
REMARK 921   NORMALIZED FREE ENERGY PREDICTED BY IDOCK:    7.94 KCAL/MOL
REMARK 922        TOTAL FREE ENERGY PREDICTED BY IDOCK:    9.35 KCAL/MOL
REMARK 923 INTER-LIGAND FREE ENERGY PREDICTED BY IDOCK:    9.21 KCAL/MOL
REMARK 924 INTRA-LIGAND FREE ENERGY PREDICTED BY IDOCK:    0.13 KCAL/MOL
REMARK 927      BINDING AFFINITY PREDICTED BY RF-SCORE:    0.00 PKD
ROOT
HETATM    1  C   UNL     1     -13.935  11.460  72.649  1.00  0.00     1.140 C  
HETATM    2  C   UNL     1     -13.200  12.754  72.291  1.00  0.00    -0.386 C  
HETATM    3  C   UNL     1     -13.350  13.757  73.439  1.00  0.00     1.100 C  
ENDROOT
BRANCH   2   4
HETATM    4  N   UNL     1     -11.798  12.422  72.037  1.00  0.00     1.565 NA 
HETATM    5  H   UNL     1     -11.560  11.531  72.471  1.00  0.00     0.000 HD 
BRANCH   4   6
HETATM    6  C   UNL     1     -11.420  12.416  70.619  1.00  0.00     0.824 C  
BRANCH   6   7
HETATM    7  C   UNL     1     -10.711  13.740  70.242  1.00  0.00     0.987 C  
HETATM    8  C   UNL     1     -11.344  14.932  70.957  1.00  0.00    -0.259 C  
HETATM    9  C   UNL     1     -10.508  16.175  70.658  1.00  0.00     0.342 C  
HETATM   10  C   UNL     1     -10.250  16.320  69.180  1.00  0.00    -0.266 A  
HETATM   11  C   UNL     1      -9.805  17.553  68.675  1.00  0.00    -0.338 A  
HETATM   12  C   UNL     1      -9.554  17.746  67.303  1.00  0.00    -0.272 A  
HETATM   13  C   UNL     1      -9.786  16.656  66.436  1.00  0.00    -0.292 A  
HETATM   14  H   UNL     1     -10.957  13.191  68.145  1.00  0.00     0.000 HD 
HETATM   15  N   UNL     1      -9.568  16.734  64.976  1.00  0.00     1.191 N  
HETATM   16  N   UNL     1     -10.732  13.952  68.787  1.00  0.00    -0.260 NA 
HETATM   17  C   UNL     1     -10.223  15.418  66.947  1.00  0.00    -0.273 A  
HETATM   18  O   UNL     1      -9.846  15.735  64.297  1.00  0.00     0.949 OA 
HETATM   19  O   UNL     1      -9.123  17.785  64.493  1.00  0.00     4.257 OA 
HETATM   20  C   UNL     1     -10.434  15.233  68.315  1.00  0.00    -0.244 A  
BRANCH  12  21
HETATM   21  C   UNL     1      -9.047  19.099  66.877  1.00  0.00    -0.307 C  
HETATM   22  O   UNL     1      -7.697  19.256  67.280  1.00  0.00    -0.242 OA 
HETATM   23  H   UNL     1      -7.377  20.109  67.011  1.00  0.00     0.000 HD 
ENDBRANCH  12  21
ENDBRANCH   6   7
ENDBRANCH   4   6
ENDBRANCH   2   4
TORSDOF 4
ENDMDL
