MODEL        1
REMARK 921   NORMALIZED FREE ENERGY PREDICTED BY IDOCK:   -8.44 KCAL/MOL
REMARK 922        TOTAL FREE ENERGY PREDICTED BY IDOCK:  -11.22 KCAL/MOL
REMARK 923 INTER-LIGAND FREE ENERGY PREDICTED BY IDOCK:  -10.41 KCAL/MOL
REMARK 924 INTRA-LIGAND FREE ENERGY PREDICTED BY IDOCK:   -0.81 KCAL/MOL
REMARK 927      BINDING AFFINITY PREDICTED BY RF-SCORE:    0.00 PKD
ROOT
HETATM    1  O   UNL     1     -12.136  16.067  64.078  1.00  0.00    -0.810 OA 
HETATM    2  C   UNL     1     -12.200  14.738  64.318  1.00  0.00    -0.379 C  
HETATM    3  O   UNL     1     -12.536  13.938  63.459  1.00  0.00    -0.842 OA 
HETATM    4  C   UNL     1     -11.834  14.389  65.736  1.00  0.00    -0.365 C  
ENDROOT
BRANCH   4   5
HETATM    5  C   UNL     1     -11.917  12.880  65.962  1.00  0.00    -0.505 C  
BRANCH   5   6
HETATM    6  C   UNL     1     -11.899  12.542  67.408  1.00  0.00    -0.312 A  
HETATM    7  N   UNL     1     -11.828  11.369  67.994  1.00  0.00    -0.622 NA 
HETATM    8  C   UNL     1     -11.901  11.661  69.349  1.00  0.00    -0.342 A  
HETATM    9  C   UNL     1     -12.030  13.031  69.521  1.00  0.00    -0.289 A  
HETATM   10  O   UNL     1     -12.003  13.593  68.266  1.00  0.00    -0.354 OA 
BRANCH   8  11
HETATM   11  C   UNL     1     -11.846  10.615  70.361  1.00  0.00    -0.441 A  
HETATM   12  C   UNL     1     -10.653   9.954  70.686  1.00  0.00    -0.341 A  
HETATM   13  C   UNL     1     -13.027  10.212  71.003  1.00  0.00    -0.473 A  
HETATM   14  C   UNL     1     -10.636   8.938  71.647  1.00  0.00    -0.422 A  
HETATM   15  C   UNL     1     -13.014   9.185  71.954  1.00  0.00    -0.473 A  
HETATM   16  C   UNL     1     -11.817   8.552  72.277  1.00  0.00    -0.453 A  
ENDBRANCH   8  11
BRANCH   9  17
HETATM   17  C   UNL     1     -12.242  13.997  70.590  1.00  0.00    -0.442 A  
HETATM   18  C   UNL     1     -12.539  15.748  72.773  1.00  0.00    -0.547 A  
HETATM   19  C   UNL     1     -13.102  13.686  71.657  1.00  0.00    -0.455 A  
HETATM   20  C   UNL     1     -11.700  16.085  71.714  1.00  0.00    -0.593 A  
HETATM   21  C   UNL     1     -13.244  14.549  72.745  1.00  0.00    -0.600 A  
HETATM   22  C   UNL     1     -11.547  15.213  70.631  1.00  0.00    -0.351 A  
ENDBRANCH   9  17
ENDBRANCH   5   6
ENDBRANCH   4   5
TORSDOF 4
ENDMDL
MODEL        2
REMARK 921   NORMALIZED FREE ENERGY PREDICTED BY IDOCK:   -8.36 KCAL/MOL
REMARK 922        TOTAL FREE ENERGY PREDICTED BY IDOCK:  -11.13 KCAL/MOL
REMARK 923 INTER-LIGAND FREE ENERGY PREDICTED BY IDOCK:  -10.31 KCAL/MOL
REMARK 924 INTRA-LIGAND FREE ENERGY PREDICTED BY IDOCK:   -0.82 KCAL/MOL
REMARK 927      BINDING AFFINITY PREDICTED BY RF-SCORE:    0.00 PKD
ROOT
HETATM    1  O   UNL     1     -11.212  16.371  64.321  1.00  0.00    -0.861 OA 
HETATM    2  C   UNL     1     -11.742  15.146  64.533  1.00  0.00    -0.328 C  
HETATM    3  O   UNL     1     -12.484  14.610  63.724  1.00  0.00    -0.799 OA 
HETATM    4  C   UNL     1     -11.330  14.559  65.857  1.00  0.00    -0.341 C  
ENDROOT
BRANCH   4   5
HETATM    5  C   UNL     1     -11.950  13.176  66.053  1.00  0.00    -0.488 C  
BRANCH   5   6
HETATM    6  C   UNL     1     -11.895  12.750  67.474  1.00  0.00    -0.343 A  
HETATM    7  N   UNL     1     -11.791  11.544  67.985  1.00  0.00    -0.601 NA 
HETATM    8  C   UNL     1     -11.841  11.751  69.356  1.00  0.00    -0.334 A  
HETATM    9  C   UNL     1     -11.991  13.105  69.616  1.00  0.00    -0.306 A  
HETATM   10  O   UNL     1     -12.000  13.744  68.398  1.00  0.00    -0.355 OA 
BRANCH   8  11
HETATM   11  C   UNL     1     -11.746  10.645  70.300  1.00  0.00    -0.433 A  
HETATM   12  C   UNL     1     -10.567   9.908  70.469  1.00  0.00    -0.359 A  
HETATM   13  C   UNL     1     -12.881  10.264  71.034  1.00  0.00    -0.490 A  
HETATM   14  C   UNL     1     -10.513   8.837  71.368  1.00  0.00    -0.354 A  
HETATM   15  C   UNL     1     -12.832   9.185  71.923  1.00  0.00    -0.466 A  
HETATM   16  C   UNL     1     -11.646   8.474  72.091  1.00  0.00    -0.447 A  
ENDBRANCH   8  11
BRANCH   9  17
HETATM   17  C   UNL     1     -12.199  13.999  70.747  1.00  0.00    -0.438 A  
HETATM   18  C   UNL     1     -12.711  15.842  72.811  1.00  0.00    -0.553 A  
HETATM   19  C   UNL     1     -11.543  15.242  70.789  1.00  0.00    -0.371 A  
HETATM   20  C   UNL     1     -13.352  14.606  72.801  1.00  0.00    -0.593 A  
HETATM   21  C   UNL     1     -11.802  16.161  71.807  1.00  0.00    -0.581 A  
HETATM   22  C   UNL     1     -13.103  13.692  71.771  1.00  0.00    -0.468 A  
ENDBRANCH   9  17
ENDBRANCH   5   6
ENDBRANCH   4   5
TORSDOF 4
ENDMDL
MODEL        3
REMARK 921   NORMALIZED FREE ENERGY PREDICTED BY IDOCK:   -8.22 KCAL/MOL
REMARK 922        TOTAL FREE ENERGY PREDICTED BY IDOCK:  -10.95 KCAL/MOL
REMARK 923 INTER-LIGAND FREE ENERGY PREDICTED BY IDOCK:  -10.05 KCAL/MOL
REMARK 924 INTRA-LIGAND FREE ENERGY PREDICTED BY IDOCK:   -0.90 KCAL/MOL
REMARK 927      BINDING AFFINITY PREDICTED BY RF-SCORE:    0.00 PKD
ROOT
HETATM    1  O   UNL     1     -12.240  15.972  63.880  1.00  0.00    -0.883 OA 
HETATM    2  C   UNL     1     -12.105  14.758  64.460  1.00  0.00    -0.446 C  
HETATM    3  O   UNL     1     -12.705  13.775  64.053  1.00  0.00    -0.669 OA 
HETATM    4  C   UNL     1     -11.171  14.780  65.640  1.00  0.00    -0.343 C  
ENDROOT
BRANCH   4   5
HETATM    5  C   UNL     1     -11.048  13.390  66.260  1.00  0.00    -0.305 C  
BRANCH   5   6
HETATM    6  C   UNL     1     -11.483  13.385  67.680  1.00  0.00    -0.319 A  
HETATM    7  N   UNL     1     -11.794  14.390  68.466  1.00  0.00    -0.338 NA 
HETATM    8  C   UNL     1     -12.072  13.793  69.687  1.00  0.00    -0.336 A  
HETATM    9  C   UNL     1     -11.899  12.421  69.582  1.00  0.00    -0.311 A  
HETATM   10  O   UNL     1     -11.543  12.164  68.279  1.00  0.00    -0.283 OA 
BRANCH   8  11
HETATM   11  C   UNL     1     -12.475  14.576  70.847  1.00  0.00    -0.415 A  
HETATM   12  C   UNL     1     -11.541  15.158  71.715  1.00  0.00    -0.478 A  
HETATM   13  C   UNL     1     -13.840  14.718  71.145  1.00  0.00    -0.388 A  
HETATM   14  C   UNL     1     -11.959  15.887  72.833  1.00  0.00    -0.609 A  
HETATM   15  C   UNL     1     -14.258  15.434  72.272  1.00  0.00    -0.639 A  
HETATM   16  C   UNL     1     -13.316  16.021  73.113  1.00  0.00    -0.624 A  
ENDBRANCH   8  11
BRANCH   9  17
HETATM   17  C   UNL     1     -11.918  11.235  70.427  1.00  0.00    -0.471 A  
HETATM   18  C   UNL     1     -12.104   8.872  71.945  1.00  0.00    -0.443 A  
HETATM   19  C   UNL     1     -12.972  11.038  71.337  1.00  0.00    -0.517 A  
HETATM   20  C   UNL     1     -11.039   9.059  71.068  1.00  0.00    -0.356 A  
HETATM   21  C   UNL     1     -13.070   9.863  72.085  1.00  0.00    -0.497 A  
HETATM   22  C   UNL     1     -10.950  10.230  70.308  1.00  0.00    -0.375 A  
ENDBRANCH   9  17
ENDBRANCH   5   6
ENDBRANCH   4   5
TORSDOF 4
ENDMDL
MODEL        4
REMARK 921   NORMALIZED FREE ENERGY PREDICTED BY IDOCK:   -8.14 KCAL/MOL
REMARK 922        TOTAL FREE ENERGY PREDICTED BY IDOCK:  -10.85 KCAL/MOL
REMARK 923 INTER-LIGAND FREE ENERGY PREDICTED BY IDOCK:  -10.08 KCAL/MOL
REMARK 924 INTRA-LIGAND FREE ENERGY PREDICTED BY IDOCK:   -0.77 KCAL/MOL
REMARK 927      BINDING AFFINITY PREDICTED BY RF-SCORE:    0.00 PKD
ROOT
HETATM    1  O   UNL     1     -12.769  14.862  63.922  1.00  0.00    -0.789 OA 
HETATM    2  C   UNL     1     -11.889  14.151  64.661  1.00  0.00    -0.431 C  
HETATM    3  O   UNL     1     -10.701  14.433  64.706  1.00  0.00    -0.408 OA 
HETATM    4  C   UNL     1     -12.535  12.996  65.378  1.00  0.00    -0.531 C  
ENDROOT
BRANCH   4   5
HETATM    5  C   UNL     1     -11.506  12.223  66.201  1.00  0.00    -0.429 C  
BRANCH   5   6
HETATM    6  C   UNL     1     -11.768  12.343  67.657  1.00  0.00    -0.346 A  
HETATM    7  N   UNL     1     -11.918  13.419  68.396  1.00  0.00    -0.353 NA 
HETATM    8  C   UNL     1     -12.085  12.926  69.683  1.00  0.00    -0.226 A  
HETATM    9  C   UNL     1     -12.013  11.541  69.661  1.00  0.00    -0.339 A  
HETATM   10  O   UNL     1     -11.833  11.173  68.349  1.00  0.00    -0.495 OA 
BRANCH   8  11
HETATM   11  C   UNL     1     -12.295  13.811  70.820  1.00  0.00    -0.451 A  
HETATM   12  C   UNL     1     -11.589  15.012  70.970  1.00  0.00    -0.367 A  
HETATM   13  C   UNL     1     -13.195  13.437  71.830  1.00  0.00    -0.522 A  
HETATM   14  C   UNL     1     -11.797  15.832  72.085  1.00  0.00    -0.593 A  
HETATM   15  C   UNL     1     -13.393  14.248  72.953  1.00  0.00    -0.561 A  
HETATM   16  C   UNL     1     -12.696  15.447  73.077  1.00  0.00    -0.561 A  
ENDBRANCH   8  11
BRANCH   9  17
HETATM   17  C   UNL     1     -12.006  10.418  70.589  1.00  0.00    -0.448 A  
HETATM   18  C   UNL     1     -11.905   8.370  72.516  1.00  0.00    -0.427 A  
HETATM   19  C   UNL     1     -10.800   9.758  70.884  1.00  0.00    -0.399 A  
HETATM   20  C   UNL     1     -13.114   8.994  72.220  1.00  0.00    -0.508 A  
HETATM   21  C   UNL     1     -10.747   8.748  71.846  1.00  0.00    -0.429 A  
HETATM   22  C   UNL     1     -13.164  10.017  71.267  1.00  0.00    -0.469 A  
ENDBRANCH   9  17
ENDBRANCH   5   6
ENDBRANCH   4   5
TORSDOF 4
ENDMDL
MODEL        5
REMARK 921   NORMALIZED FREE ENERGY PREDICTED BY IDOCK:   -7.97 KCAL/MOL
REMARK 922        TOTAL FREE ENERGY PREDICTED BY IDOCK:  -10.64 KCAL/MOL
REMARK 923 INTER-LIGAND FREE ENERGY PREDICTED BY IDOCK:   -9.76 KCAL/MOL
REMARK 924 INTRA-LIGAND FREE ENERGY PREDICTED BY IDOCK:   -0.87 KCAL/MOL
REMARK 927      BINDING AFFINITY PREDICTED BY RF-SCORE:    0.00 PKD
ROOT
HETATM    1  O   UNL     1     -12.209  16.155  64.059  1.00  0.00    -0.855 OA 
HETATM    2  C   UNL     1     -12.112  14.918  64.596  1.00  0.00    -0.378 C  
HETATM    3  O   UNL     1     -12.855  14.006  64.265  1.00  0.00    -0.612 OA 
HETATM    4  C   UNL     1     -11.024  14.820  65.631  1.00  0.00    -0.345 C  
ENDROOT
BRANCH   4   5
HETATM    5  C   UNL     1     -10.949  13.408  66.209  1.00  0.00    -0.296 C  
BRANCH   5   6
HETATM    6  C   UNL     1     -11.406  13.370  67.621  1.00  0.00    -0.290 A  
HETATM    7  N   UNL     1     -11.740  14.356  68.422  1.00  0.00    -0.319 NA 
HETATM    8  C   UNL     1     -12.030  13.731  69.626  1.00  0.00    -0.342 A  
HETATM    9  C   UNL     1     -11.840  12.363  69.497  1.00  0.00    -0.303 A  
HETATM   10  O   UNL     1     -11.463  12.137  68.195  1.00  0.00    -0.271 OA 
BRANCH   8  11
HETATM   11  C   UNL     1     -12.458  14.487  70.796  1.00  0.00    -0.420 A  
HETATM   12  C   UNL     1     -13.744  14.356  71.339  1.00  0.00    -0.419 A  
HETATM   13  C   UNL     1     -11.581  15.417  71.376  1.00  0.00    -0.461 A  
HETATM   14  C   UNL     1     -14.133  15.112  72.450  1.00  0.00    -0.593 A  
HETATM   15  C   UNL     1     -11.975  16.184  72.478  1.00  0.00    -0.660 A  
HETATM   16  C   UNL     1     -13.250  16.027  73.016  1.00  0.00    -0.590 A  
ENDBRANCH   8  11
BRANCH   9  17
HETATM   17  C   UNL     1     -11.860  11.161  70.318  1.00  0.00    -0.455 A  
HETATM   18  C   UNL     1     -11.761   8.923  72.022  1.00  0.00    -0.438 A  
HETATM   19  C   UNL     1     -10.780  10.262  70.272  1.00  0.00    -0.310 A  
HETATM   20  C   UNL     1     -12.851   9.788  72.064  1.00  0.00    -0.491 A  
HETATM   21  C   UNL     1     -10.725   9.156  71.123  1.00  0.00    -0.380 A  
HETATM   22  C   UNL     1     -12.898  10.904  71.223  1.00  0.00    -0.536 A  
ENDBRANCH   9  17
ENDBRANCH   5   6
ENDBRANCH   4   5
TORSDOF 4
ENDMDL
MODEL        6
REMARK 921   NORMALIZED FREE ENERGY PREDICTED BY IDOCK:   -7.69 KCAL/MOL
REMARK 922        TOTAL FREE ENERGY PREDICTED BY IDOCK:  -10.29 KCAL/MOL
REMARK 923 INTER-LIGAND FREE ENERGY PREDICTED BY IDOCK:   -9.36 KCAL/MOL
REMARK 924 INTRA-LIGAND FREE ENERGY PREDICTED BY IDOCK:   -0.93 KCAL/MOL
REMARK 927      BINDING AFFINITY PREDICTED BY RF-SCORE:    0.00 PKD
ROOT
HETATM    1  O   UNL     1     -11.655  12.504  63.222  1.00  0.00    -0.468 OA 
HETATM    2  C   UNL     1     -12.143  12.502  64.483  1.00  0.00    -0.425 C  
HETATM    3  O   UNL     1     -13.337  12.621  64.717  1.00  0.00    -0.787 OA 
HETATM    4  C   UNL     1     -11.063  12.361  65.522  1.00  0.00    -0.338 C  
ENDROOT
BRANCH   4   5
HETATM    5  C   UNL     1     -11.659  12.362  66.928  1.00  0.00    -0.437 C  
BRANCH   5   6
HETATM    6  C   UNL     1     -11.444  13.662  67.612  1.00  0.00    -0.325 A  
HETATM    7  N   UNL     1     -10.650  14.658  67.291  1.00  0.00    -0.280 NA 
HETATM    8  C   UNL     1     -10.827  15.577  68.314  1.00  0.00    -0.292 A  
HETATM    9  C   UNL     1     -11.734  15.075  69.237  1.00  0.00    -0.323 A  
HETATM   10  O   UNL     1     -12.145  13.852  68.763  1.00  0.00    -0.354 OA 
BRANCH   8  11
HETATM   11  C   UNL     1     -10.119  16.850  68.330  1.00  0.00    -0.304 A  
HETATM   12  C   UNL     1     -10.780  18.074  68.155  1.00  0.00    -0.267 A  
HETATM   13  C   UNL     1      -8.723  16.862  68.474  1.00  0.00    -0.251 A  
HETATM   14  C   UNL     1     -10.069  19.279  68.153  1.00  0.00    -0.507 A  
HETATM   15  C   UNL     1      -8.009  18.066  68.458  1.00  0.00    -0.310 A  
HETATM   16  C   UNL     1      -8.685  19.273  68.301  1.00  0.00    -0.377 A  
ENDBRANCH   8  11
BRANCH   9  17
HETATM   17  C   UNL     1     -12.301  15.421  70.533  1.00  0.00    -0.452 A  
HETATM   18  C   UNL     1     -13.372  15.898  73.091  1.00  0.00    -0.681 A  
HETATM   19  C   UNL     1     -13.605  15.012  70.860  1.00  0.00    -0.363 A  
HETATM   20  C   UNL     1     -12.087  16.333  72.777  1.00  0.00    -0.637 A  
HETATM   21  C   UNL     1     -14.135  15.240  72.132  1.00  0.00    -0.658 A  
HETATM   22  C   UNL     1     -11.551  16.091  71.508  1.00  0.00    -0.529 A  
ENDBRANCH   9  17
ENDBRANCH   5   6
ENDBRANCH   4   5
TORSDOF 4
ENDMDL
MODEL        7
REMARK 921   NORMALIZED FREE ENERGY PREDICTED BY IDOCK:   -7.59 KCAL/MOL
REMARK 922        TOTAL FREE ENERGY PREDICTED BY IDOCK:  -10.17 KCAL/MOL
REMARK 923 INTER-LIGAND FREE ENERGY PREDICTED BY IDOCK:   -9.39 KCAL/MOL
REMARK 924 INTRA-LIGAND FREE ENERGY PREDICTED BY IDOCK:   -0.78 KCAL/MOL
REMARK 927      BINDING AFFINITY PREDICTED BY RF-SCORE:    0.00 PKD
ROOT
HETATM    1  O   UNL     1     -12.575  13.596  63.085  1.00  0.00    -0.792 OA 
HETATM    2  C   UNL     1     -12.254  13.121  64.309  1.00  0.00    -0.396 C  
HETATM    3  O   UNL     1     -13.043  12.478  64.984  1.00  0.00    -0.765 OA 
HETATM    4  C   UNL     1     -10.855  13.491  64.724  1.00  0.00    -0.392 C  
ENDROOT
BRANCH   4   5
HETATM    5  C   UNL     1     -10.535  12.933  66.110  1.00  0.00    -0.283 C  
BRANCH   5   6
HETATM    6  C   UNL     1     -10.813  13.926  67.177  1.00  0.00    -0.284 A  
HETATM    7  N   UNL     1     -11.461  13.781  68.311  1.00  0.00    -0.292 NA 
HETATM    8  C   UNL     1     -11.451  15.049  68.873  1.00  0.00    -0.314 A  
HETATM    9  C   UNL     1     -10.792  15.927  68.025  1.00  0.00    -0.317 A  
HETATM   10  O   UNL     1     -10.363  15.190  66.946  1.00  0.00    -0.263 OA 
BRANCH   8  11
HETATM   11  C   UNL     1     -12.069  15.318  70.164  1.00  0.00    -0.394 A  
HETATM   12  C   UNL     1     -11.369  15.928  71.214  1.00  0.00    -0.425 A  
HETATM   13  C   UNL     1     -13.394  14.913  70.393  1.00  0.00    -0.019 A  
HETATM   14  C   UNL     1     -11.985  16.154  72.450  1.00  0.00    -0.649 A  
HETATM   15  C   UNL     1     -14.005  15.125  71.634  1.00  0.00    -0.618 A  
HETATM   16  C   UNL     1     -13.300  15.749  72.660  1.00  0.00    -0.607 A  
ENDBRANCH   8  11
BRANCH   9  17
HETATM   17  C   UNL     1     -10.494  17.349  67.917  1.00  0.00    -0.383 A  
HETATM   18  C   UNL     1     -10.116  20.129  67.699  1.00  0.00    -0.542 A  
HETATM   19  C   UNL     1     -10.646  18.007  66.684  1.00  0.00    -0.268 A  
HETATM   20  C   UNL     1      -9.937  19.492  68.924  1.00  0.00    -0.529 A  
HETATM   21  C   UNL     1     -10.467  19.387  66.575  1.00  0.00    -0.572 A  
HETATM   22  C   UNL     1     -10.131  18.111  69.035  1.00  0.00    -0.290 A  
ENDBRANCH   9  17
ENDBRANCH   5   6
ENDBRANCH   4   5
TORSDOF 4
ENDMDL
MODEL        8
REMARK 921   NORMALIZED FREE ENERGY PREDICTED BY IDOCK:   -7.41 KCAL/MOL
REMARK 922        TOTAL FREE ENERGY PREDICTED BY IDOCK:   -9.95 KCAL/MOL
REMARK 923 INTER-LIGAND FREE ENERGY PREDICTED BY IDOCK:   -9.01 KCAL/MOL
REMARK 924 INTRA-LIGAND FREE ENERGY PREDICTED BY IDOCK:   -0.93 KCAL/MOL
REMARK 927      BINDING AFFINITY PREDICTED BY RF-SCORE:    0.00 PKD
ROOT
HETATM    1  O   UNL     1     -10.358  10.961  63.645  1.00  0.00    -0.355 OA 
HETATM    2  C   UNL     1     -11.170  11.937  64.110  1.00  0.00    -0.376 C  
HETATM    3  O   UNL     1     -12.161  12.304  63.498  1.00  0.00    -0.509 OA 
HETATM    4  C   UNL     1     -10.699  12.505  65.422  1.00  0.00    -0.312 C  
ENDROOT
BRANCH   4   5
HETATM    5  C   UNL     1     -11.645  13.600  65.910  1.00  0.00    -0.346 C  
BRANCH   5   6
HETATM    6  C   UNL     1     -11.881  13.508  67.373  1.00  0.00    -0.384 A  
HETATM    7  N   UNL     1     -12.138  14.457  68.243  1.00  0.00    -0.277 NA 
HETATM    8  C   UNL     1     -12.212  13.793  69.459  1.00  0.00    -0.293 A  
HETATM    9  C   UNL     1     -11.977  12.440  69.263  1.00  0.00    -0.253 A  
HETATM   10  O   UNL     1     -11.789  12.261  67.913  1.00  0.00    -0.383 OA 
BRANCH   8  11
HETATM   11  C   UNL     1     -12.496  14.499  70.701  1.00  0.00    -0.409 A  
HETATM   12  C   UNL     1     -13.788  14.573  71.238  1.00  0.00    -0.381 A  
HETATM   13  C   UNL     1     -11.459  15.175  71.364  1.00  0.00    -0.405 A  
HETATM   14  C   UNL     1     -14.033  15.277  72.422  1.00  0.00    -0.642 A  
HETATM   15  C   UNL     1     -11.706  15.892  72.539  1.00  0.00    -0.564 A  
HETATM   16  C   UNL     1     -12.993  15.939  73.069  1.00  0.00    -0.630 A  
ENDBRANCH   8  11
BRANCH   9  17
HETATM   17  C   UNL     1     -11.813  11.220  70.042  1.00  0.00    -0.448 A  
HETATM   18  C   UNL     1     -11.366   8.964  71.664  1.00  0.00    -0.407 A  
HETATM   19  C   UNL     1     -10.628  10.471  69.933  1.00  0.00    -0.261 A  
HETATM   20  C   UNL     1     -12.557   9.679  71.770  1.00  0.00    -0.497 A  
HETATM   21  C   UNL     1     -10.401   9.357  70.743  1.00  0.00    -0.366 A  
HETATM   22  C   UNL     1     -12.777  10.804  70.968  1.00  0.00    -0.513 A  
ENDBRANCH   9  17
ENDBRANCH   5   6
ENDBRANCH   4   5
TORSDOF 4
ENDMDL
MODEL        9
REMARK 921   NORMALIZED FREE ENERGY PREDICTED BY IDOCK:   -7.37 KCAL/MOL
REMARK 922        TOTAL FREE ENERGY PREDICTED BY IDOCK:   -9.90 KCAL/MOL
REMARK 923 INTER-LIGAND FREE ENERGY PREDICTED BY IDOCK:   -9.05 KCAL/MOL
REMARK 924 INTRA-LIGAND FREE ENERGY PREDICTED BY IDOCK:   -0.86 KCAL/MOL
REMARK 927      BINDING AFFINITY PREDICTED BY RF-SCORE:    0.00 PKD
ROOT
HETATM    1  O   UNL     1     -12.438  16.727  74.341  1.00  0.00    -0.683 OA 
HETATM    2  C   UNL     1     -12.887  16.075  73.246  1.00  0.00    -0.543 C  
HETATM    3  O   UNL     1     -14.077  15.888  73.043  1.00  0.00    -0.518 OA 
HETATM    4  C   UNL     1     -11.770  15.608  72.351  1.00  0.00    -0.574 C  
ENDROOT
BRANCH   4   5
HETATM    5  C   UNL     1     -12.322  14.879  71.128  1.00  0.00    -0.387 C  
BRANCH   5   6
HETATM    6  C   UNL     1     -11.719  15.387  69.870  1.00  0.00    -0.336 A  
HETATM    7  N   UNL     1     -11.145  16.542  69.622  1.00  0.00    -0.292 NA 
HETATM    8  C   UNL     1     -10.822  16.478  68.274  1.00  0.00    -0.352 A  
HETATM    9  C   UNL     1     -11.239  15.261  67.755  1.00  0.00    -0.326 A  
HETATM   10  O   UNL     1     -11.794  14.554  68.796  1.00  0.00    -0.308 OA 
BRANCH   8  11
HETATM   11  C   UNL     1     -10.149  17.577  67.596  1.00  0.00    -0.328 A  
HETATM   12  C   UNL     1      -8.825  17.477  67.145  1.00  0.00    -0.246 A  
HETATM   13  C   UNL     1     -10.820  18.799  67.426  1.00  0.00    -0.414 A  
HETATM   14  C   UNL     1      -8.199  18.558  66.516  1.00  0.00    -0.299 A  
HETATM   15  C   UNL     1     -10.189  19.885  66.811  1.00  0.00    -0.603 A  
HETATM   16  C   UNL     1      -8.880  19.762  66.353  1.00  0.00    -0.428 A  
ENDBRANCH   8  11
BRANCH   9  17
HETATM   17  C   UNL     1     -11.316  14.572  66.474  1.00  0.00    -0.354 A  
HETATM   18  C   UNL     1     -11.366  13.089  64.083  1.00  0.00    -0.442 A  
HETATM   19  C   UNL     1     -10.169  14.452  65.670  1.00  0.00    -0.371 A  
HETATM   20  C   UNL     1     -12.520  13.216  64.853  1.00  0.00    -0.490 A  
HETATM   21  C   UNL     1     -10.189  13.710  64.489  1.00  0.00    -0.253 A  
HETATM   22  C   UNL     1     -12.494  13.948  66.045  1.00  0.00    -0.501 A  
ENDBRANCH   9  17
ENDBRANCH   5   6
ENDBRANCH   4   5
TORSDOF 4
ENDMDL
MODEL       10
REMARK 921   NORMALIZED FREE ENERGY PREDICTED BY IDOCK:   -7.36 KCAL/MOL
REMARK 922        TOTAL FREE ENERGY PREDICTED BY IDOCK:   -9.89 KCAL/MOL
REMARK 923 INTER-LIGAND FREE ENERGY PREDICTED BY IDOCK:   -8.97 KCAL/MOL
REMARK 924 INTRA-LIGAND FREE ENERGY PREDICTED BY IDOCK:   -0.91 KCAL/MOL
REMARK 927      BINDING AFFINITY PREDICTED BY RF-SCORE:    0.00 PKD
ROOT
HETATM    1  O   UNL     1     -11.882  13.191  63.092  1.00  0.00    -0.459 OA 
HETATM    2  C   UNL     1     -12.202  12.704  64.312  1.00  0.00    -0.445 C  
HETATM    3  O   UNL     1     -13.325  12.301  64.576  1.00  0.00    -0.769 OA 
HETATM    4  C   UNL     1     -11.043  12.741  65.272  1.00  0.00    -0.320 C  
ENDROOT
BRANCH   4   5
HETATM    5  C   UNL     1     -11.449  12.181  66.634  1.00  0.00    -0.426 C  
BRANCH   5   6
HETATM    6  C   UNL     1     -11.450  13.235  67.680  1.00  0.00    -0.321 A  
HETATM    7  N   UNL     1     -12.124  13.298  68.806  1.00  0.00    -0.290 NA 
HETATM    8  C   UNL     1     -11.766  14.525  69.347  1.00  0.00    -0.318 A  
HETATM    9  C   UNL     1     -10.880  15.167  68.494  1.00  0.00    -0.247 A  
HETATM   10  O   UNL     1     -10.663  14.318  67.435  1.00  0.00    -0.277 OA 
BRANCH   8  11
HETATM   11  C   UNL     1     -12.298  14.983  70.623  1.00  0.00    -0.404 A  
HETATM   12  C   UNL     1     -13.620  14.729  71.014  1.00  0.00    -0.364 A  
HETATM   13  C   UNL     1     -11.486  15.746  71.476  1.00  0.00    -0.504 A  
HETATM   14  C   UNL     1     -14.108  15.200  72.238  1.00  0.00    -0.633 A  
HETATM   15  C   UNL     1     -11.978  16.231  72.693  1.00  0.00    -0.644 A  
HETATM   16  C   UNL     1     -13.288  15.954  73.074  1.00  0.00    -0.663 A  
ENDBRANCH   8  11
BRANCH   9  17
HETATM   17  C   UNL     1     -10.196  16.447  68.367  1.00  0.00    -0.259 A  
HETATM   18  C   UNL     1      -8.972  18.979  68.287  1.00  0.00    -0.372 A  
HETATM   19  C   UNL     1     -10.905  17.582  67.936  1.00  0.00    -0.255 A  
HETATM   20  C   UNL     1      -8.246  17.862  68.693  1.00  0.00    -0.281 A  
HETATM   21  C   UNL     1     -10.302  18.840  67.904  1.00  0.00    -0.461 A  
HETATM   22  C   UNL     1      -8.856  16.605  68.740  1.00  0.00    -0.264 A  
ENDBRANCH   9  17
ENDBRANCH   5   6
ENDBRANCH   4   5
TORSDOF 4
ENDMDL
MODEL       11
REMARK 921   NORMALIZED FREE ENERGY PREDICTED BY IDOCK:   -7.31 KCAL/MOL
REMARK 922        TOTAL FREE ENERGY PREDICTED BY IDOCK:   -9.83 KCAL/MOL
REMARK 923 INTER-LIGAND FREE ENERGY PREDICTED BY IDOCK:   -8.92 KCAL/MOL
REMARK 924 INTRA-LIGAND FREE ENERGY PREDICTED BY IDOCK:   -0.91 KCAL/MOL
REMARK 927      BINDING AFFINITY PREDICTED BY RF-SCORE:    0.00 PKD
ROOT
HETATM    1  O   UNL     1     -11.730  12.617  63.100  1.00  0.00    -0.452 OA 
HETATM    2  C   UNL     1     -12.104  12.536  64.396  1.00  0.00    -0.424 C  
HETATM    3  O   UNL     1     -13.275  12.602  64.739  1.00  0.00    -0.846 OA 
HETATM    4  C   UNL     1     -10.932  12.381  65.328  1.00  0.00    -0.335 C  
ENDROOT
BRANCH   4   5
HETATM    5  C   UNL     1     -11.402  12.293  66.779  1.00  0.00    -0.395 C  
BRANCH   5   6
HETATM    6  C   UNL     1     -11.333  13.611  67.458  1.00  0.00    -0.308 A  
HETATM    7  N   UNL     1     -10.712  14.710  67.095  1.00  0.00    -0.287 NA 
HETATM    8  C   UNL     1     -10.956  15.597  68.134  1.00  0.00    -0.314 A  
HETATM    9  C   UNL     1     -11.722  14.972  69.107  1.00  0.00    -0.319 A  
HETATM   10  O   UNL     1     -11.981  13.701  68.651  1.00  0.00    -0.350 OA 
BRANCH   8  11
HETATM   11  C   UNL     1     -10.438  16.958  68.115  1.00  0.00    -0.350 A  
HETATM   12  C   UNL     1      -9.276  17.325  68.808  1.00  0.00    -0.238 A  
HETATM   13  C   UNL     1     -11.145  17.957  67.425  1.00  0.00     0.104 A  
HETATM   14  C   UNL     1      -8.816  18.646  68.788  1.00  0.00    -0.287 A  
HETATM   15  C   UNL     1     -10.694  19.281  67.417  1.00  0.00    -0.594 A  
HETATM   16  C   UNL     1      -9.527  19.623  68.096  1.00  0.00    -0.449 A  
ENDBRANCH   8  11
BRANCH   9  17
HETATM   17  C   UNL     1     -12.251  15.235  70.438  1.00  0.00    -0.404 A  
HETATM   18  C   UNL     1     -13.292  15.937  72.957  1.00  0.00    -0.663 A  
HETATM   19  C   UNL     1     -11.463  15.912  71.386  1.00  0.00    -0.484 A  
HETATM   20  C   UNL     1     -14.081  15.246  72.040  1.00  0.00    -0.662 A  
HETATM   21  C   UNL     1     -11.980  16.268  72.632  1.00  0.00    -0.644 A  
HETATM   22  C   UNL     1     -13.566  14.902  70.786  1.00  0.00    -0.221 A  
ENDBRANCH   9  17
ENDBRANCH   5   6
ENDBRANCH   4   5
TORSDOF 4
ENDMDL
MODEL       12
REMARK 921   NORMALIZED FREE ENERGY PREDICTED BY IDOCK:   -7.31 KCAL/MOL
REMARK 922        TOTAL FREE ENERGY PREDICTED BY IDOCK:   -9.82 KCAL/MOL
REMARK 923 INTER-LIGAND FREE ENERGY PREDICTED BY IDOCK:   -8.97 KCAL/MOL
REMARK 924 INTRA-LIGAND FREE ENERGY PREDICTED BY IDOCK:   -0.85 KCAL/MOL
REMARK 927      BINDING AFFINITY PREDICTED BY RF-SCORE:    0.00 PKD
ROOT
HETATM    1  O   UNL     1     -10.738  19.950  65.343  1.00  0.00    -0.421 OA 
HETATM    2  C   UNL     1     -10.077  19.139  66.199  1.00  0.00    -0.426 C  
HETATM    3  O   UNL     1      -9.048  18.561  65.883  1.00  0.00    -0.477 OA 
HETATM    4  C   UNL     1     -10.759  19.031  67.537  1.00  0.00    -0.532 C  
ENDROOT
BRANCH   4   5
HETATM    5  C   UNL     1      -9.978  18.109  68.471  1.00  0.00    -0.408 C  
BRANCH   5   6
HETATM    6  C   UNL     1     -10.666  16.806  68.654  1.00  0.00    -0.352 A  
HETATM    7  N   UNL     1     -11.127  16.248  69.751  1.00  0.00    -0.341 NA 
HETATM    8  C   UNL     1     -11.618  15.021  69.326  1.00  0.00    -0.315 A  
HETATM    9  C   UNL     1     -11.411  14.886  67.961  1.00  0.00    -0.337 A  
HETATM   10  O   UNL     1     -10.820  16.051  67.532  1.00  0.00    -0.317 OA 
BRANCH   8  11
HETATM   11  C   UNL     1     -12.235  14.083  70.253  1.00  0.00    -0.430 A  
HETATM   12  C   UNL     1     -13.075  14.504  71.293  1.00  0.00    -0.417 A  
HETATM   13  C   UNL     1     -11.947  12.712  70.143  1.00  0.00    -0.375 A  
HETATM   14  C   UNL     1     -13.636  13.580  72.181  1.00  0.00    -0.651 A  
HETATM   15  C   UNL     1     -12.497  11.789  71.040  1.00  0.00    -0.411 A  
HETATM   16  C   UNL     1     -13.344  12.225  72.056  1.00  0.00    -0.491 A  
ENDBRANCH   8  11
BRANCH   9  17
HETATM   17  C   UNL     1     -11.571  13.891  66.911  1.00  0.00    -0.400 A  
HETATM   18  C   UNL     1     -11.806  12.101  64.751  1.00  0.00    -0.385 A  
HETATM   19  C   UNL     1     -12.600  14.029  65.963  1.00  0.00    -0.452 A  
HETATM   20  C   UNL     1     -10.795  11.933  65.694  1.00  0.00    -0.333 A  
HETATM   21  C   UNL     1     -12.713  13.147  64.886  1.00  0.00    -0.421 A  
HETATM   22  C   UNL     1     -10.673  12.826  66.764  1.00  0.00    -0.278 A  
ENDBRANCH   9  17
ENDBRANCH   5   6
ENDBRANCH   4   5
TORSDOF 4
ENDMDL
MODEL       13
REMARK 921   NORMALIZED FREE ENERGY PREDICTED BY IDOCK:   -7.27 KCAL/MOL
REMARK 922        TOTAL FREE ENERGY PREDICTED BY IDOCK:   -9.78 KCAL/MOL
REMARK 923 INTER-LIGAND FREE ENERGY PREDICTED BY IDOCK:   -8.89 KCAL/MOL
REMARK 924 INTRA-LIGAND FREE ENERGY PREDICTED BY IDOCK:   -0.89 KCAL/MOL
REMARK 927      BINDING AFFINITY PREDICTED BY RF-SCORE:    0.00 PKD
ROOT
HETATM    1  O   UNL     1     -10.705  20.071  65.333  1.00  0.00    -0.388 OA 
HETATM    2  C   UNL     1     -10.059  19.317  66.250  1.00  0.00    -0.442 C  
HETATM    3  O   UNL     1      -8.991  18.774  66.010  1.00  0.00    -0.479 OA 
HETATM    4  C   UNL     1     -10.810  19.221  67.552  1.00  0.00    -0.524 C  
ENDROOT
BRANCH   4   5
HETATM    5  C   UNL     1     -10.045  18.363  68.557  1.00  0.00    -0.413 C  
BRANCH   5   6
HETATM    6  C   UNL     1     -10.641  17.009  68.687  1.00  0.00    -0.362 A  
HETATM    7  N   UNL     1     -11.073  16.382  69.757  1.00  0.00    -0.335 NA 
HETATM    8  C   UNL     1     -11.472  15.139  69.285  1.00  0.00    -0.311 A  
HETATM    9  C   UNL     1     -11.243  15.068  67.918  1.00  0.00    -0.323 A  
HETATM   10  O   UNL     1     -10.731  16.286  67.537  1.00  0.00    -0.316 OA 
BRANCH   8  11
HETATM   11  C   UNL     1     -12.031  14.127  70.171  1.00  0.00    -0.400 A  
HETATM   12  C   UNL     1     -11.833  12.757  69.956  1.00  0.00    -0.352 A  
HETATM   13  C   UNL     1     -12.837  14.523  71.250  1.00  0.00    -0.402 A  
HETATM   14  C   UNL     1     -12.401  11.808  70.813  1.00  0.00    -0.433 A  
HETATM   15  C   UNL     1     -13.418  13.575  72.098  1.00  0.00    -0.631 A  
HETATM   16  C   UNL     1     -13.196  12.217  71.880  1.00  0.00    -0.481 A  
ENDBRANCH   8  11
BRANCH   9  17
HETATM   17  C   UNL     1     -11.322  14.102  66.832  1.00  0.00    -0.343 A  
HETATM   18  C   UNL     1     -11.497  12.090  64.871  1.00  0.00    -0.352 A  
HETATM   19  C   UNL     1     -10.241  13.239  66.579  1.00  0.00    -0.283 A  
HETATM   20  C   UNL     1     -12.570  12.951  65.089  1.00  0.00    -0.536 A  
HETATM   21  C   UNL     1     -10.329  12.235  65.613  1.00  0.00    -0.287 A  
HETATM   22  C   UNL     1     -12.486  13.947  66.068  1.00  0.00    -0.501 A  
ENDBRANCH   9  17
ENDBRANCH   5   6
ENDBRANCH   4   5
TORSDOF 4
ENDMDL
MODEL       14
REMARK 921   NORMALIZED FREE ENERGY PREDICTED BY IDOCK:   -7.27 KCAL/MOL
REMARK 922        TOTAL FREE ENERGY PREDICTED BY IDOCK:   -9.78 KCAL/MOL
REMARK 923 INTER-LIGAND FREE ENERGY PREDICTED BY IDOCK:   -8.95 KCAL/MOL
REMARK 924 INTRA-LIGAND FREE ENERGY PREDICTED BY IDOCK:   -0.83 KCAL/MOL
REMARK 927      BINDING AFFINITY PREDICTED BY RF-SCORE:    0.00 PKD
ROOT
HETATM    1  O   UNL     1     -12.409  15.657  74.443  1.00  0.00    -0.622 OA 
HETATM    2  C   UNL     1     -12.907  15.719  73.188  1.00  0.00    -0.522 C  
HETATM    3  O   UNL     1     -14.102  15.855  72.970  1.00  0.00    -0.518 OA 
HETATM    4  C   UNL     1     -11.841  15.582  72.135  1.00  0.00    -0.551 C  
ENDROOT
BRANCH   4   5
HETATM    5  C   UNL     1     -12.448  15.658  70.735  1.00  0.00    -0.484 C  
BRANCH   5   6
HETATM    6  C   UNL     1     -12.127  14.451  69.933  1.00  0.00    -0.344 A  
HETATM    7  N   UNL     1     -11.903  14.335  68.644  1.00  0.00    -0.340 NA 
HETATM    8  C   UNL     1     -11.709  12.974  68.454  1.00  0.00    -0.351 A  
HETATM    9  C   UNL     1     -11.843  12.313  69.667  1.00  0.00    -0.324 A  
HETATM   10  O   UNL     1     -12.087  13.275  70.618  1.00  0.00    -0.348 OA 
BRANCH   8  11
HETATM   11  C   UNL     1     -11.419  12.419  67.139  1.00  0.00    -0.423 A  
HETATM   12  C   UNL     1     -10.409  11.468  66.938  1.00  0.00    -0.258 A  
HETATM   13  C   UNL     1     -12.132  12.880  66.021  1.00  0.00    -0.484 A  
HETATM   14  C   UNL     1     -10.139  10.970  65.659  1.00  0.00    -0.310 A  
HETATM   15  C   UNL     1     -11.852  12.393  64.740  1.00  0.00    -0.442 A  
HETATM   16  C   UNL     1     -10.858  11.435  64.561  1.00  0.00    -0.375 A  
ENDBRANCH   8  11
BRANCH   9  17
HETATM   17  C   UNL     1     -11.864  10.954  70.190  1.00  0.00    -0.438 A  
HETATM   18  C   UNL     1     -11.790   8.392  71.353  1.00  0.00    -0.339 A  
HETATM   19  C   UNL     1     -10.718  10.146  70.092  1.00  0.00    -0.355 A  
HETATM   20  C   UNL     1     -12.944   9.168  71.439  1.00  0.00    -0.366 A  
HETATM   21  C   UNL     1     -10.676   8.879  70.676  1.00  0.00    -0.282 A  
HETATM   22  C   UNL     1     -12.979  10.444  70.867  1.00  0.00    -0.475 A  
ENDBRANCH   9  17
ENDBRANCH   5   6
ENDBRANCH   4   5
TORSDOF 4
ENDMDL
MODEL       15
REMARK 921   NORMALIZED FREE ENERGY PREDICTED BY IDOCK:   -7.21 KCAL/MOL
REMARK 922        TOTAL FREE ENERGY PREDICTED BY IDOCK:   -9.71 KCAL/MOL
REMARK 923 INTER-LIGAND FREE ENERGY PREDICTED BY IDOCK:   -8.97 KCAL/MOL
REMARK 924 INTRA-LIGAND FREE ENERGY PREDICTED BY IDOCK:   -0.73 KCAL/MOL
REMARK 927      BINDING AFFINITY PREDICTED BY RF-SCORE:    0.00 PKD
ROOT
HETATM    1  O   UNL     1     -12.504  16.363  74.326  1.00  0.00    -0.669 OA 
HETATM    2  C   UNL     1     -12.966  16.041  73.097  1.00  0.00    -0.527 C  
HETATM    3  O   UNL     1     -14.156  15.880  72.871  1.00  0.00    -0.561 OA 
HETATM    4  C   UNL     1     -11.861  15.893  72.085  1.00  0.00    -0.615 C  
ENDROOT
BRANCH   4   5
HETATM    5  C   UNL     1     -12.427  15.533  70.713  1.00  0.00    -0.491 C  
BRANCH   5   6
HETATM    6  C   UNL     1     -12.311  14.078  70.438  1.00  0.00    -0.359 A  
HETATM    7  N   UNL     1     -12.413  13.058  71.260  1.00  0.00    -0.290 NA 
HETATM    8  C   UNL     1     -12.163  11.952  70.460  1.00  0.00    -0.336 A  
HETATM    9  C   UNL     1     -11.901  12.367  69.163  1.00  0.00    -0.300 A  
HETATM   10  O   UNL     1     -12.023  13.737  69.152  1.00  0.00    -0.331 OA 
BRANCH   8  11
HETATM   11  C   UNL     1     -12.191  10.598  70.997  1.00  0.00    -0.498 A  
HETATM   12  C   UNL     1     -11.044   9.796  71.058  1.00  0.00    -0.431 A  
HETATM   13  C   UNL     1     -13.411  10.050  71.425  1.00  0.00    -0.355 A  
HETATM   14  C   UNL     1     -11.107   8.492  71.560  1.00  0.00    -0.343 A  
HETATM   15  C   UNL     1     -13.478   8.740  71.913  1.00  0.00    -0.447 A  
HETATM   16  C   UNL     1     -12.324   7.964  71.983  1.00  0.00    -0.346 A  
ENDBRANCH   8  11
BRANCH   9  17
HETATM   17  C   UNL     1     -11.489  11.807  67.883  1.00  0.00    -0.387 A  
HETATM   18  C   UNL     1     -10.539  10.852  65.412  1.00  0.00    -0.243 A  
HETATM   19  C   UNL     1     -11.669  12.547  66.702  1.00  0.00    -0.453 A  
HETATM   20  C   UNL     1     -10.373  10.092  66.568  1.00  0.00    -0.270 A  
HETATM   21  C   UNL     1     -11.191  12.079  65.477  1.00  0.00    -0.372 A  
HETATM   22  C   UNL     1     -10.839  10.569  67.797  1.00  0.00    -0.347 A  
ENDBRANCH   9  17
ENDBRANCH   5   6
ENDBRANCH   4   5
TORSDOF 4
ENDMDL
MODEL       16
REMARK 921   NORMALIZED FREE ENERGY PREDICTED BY IDOCK:   -7.21 KCAL/MOL
REMARK 922        TOTAL FREE ENERGY PREDICTED BY IDOCK:   -9.70 KCAL/MOL
REMARK 923 INTER-LIGAND FREE ENERGY PREDICTED BY IDOCK:   -8.86 KCAL/MOL
REMARK 924 INTRA-LIGAND FREE ENERGY PREDICTED BY IDOCK:   -0.84 KCAL/MOL
REMARK 927      BINDING AFFINITY PREDICTED BY RF-SCORE:    0.00 PKD
ROOT
HETATM    1  O   UNL     1     -10.495  20.317  65.212  1.00  0.00    -0.215 OA 
HETATM    2  C   UNL     1      -9.938  19.534  66.163  1.00  0.00    -0.444 C  
HETATM    3  O   UNL     1      -8.873  18.962  65.990  1.00  0.00    -0.464 OA 
HETATM    4  C   UNL     1     -10.780  19.447  67.408  1.00  0.00    -0.594 C  
ENDROOT
BRANCH   4   5
HETATM    5  C   UNL     1     -10.112  18.555  68.453  1.00  0.00    -0.423 C  
BRANCH   5   6
HETATM    6  C   UNL     1     -10.594  17.154  68.365  1.00  0.00    -0.371 A  
HETATM    7  N   UNL     1     -10.588  16.327  67.344  1.00  0.00    -0.312 NA 
HETATM    8  C   UNL     1     -11.207  15.184  67.829  1.00  0.00    -0.323 A  
HETATM    9  C   UNL     1     -11.579  15.384  69.151  1.00  0.00    -0.339 A  
HETATM   10  O   UNL     1     -11.158  16.647  69.495  1.00  0.00    -0.287 OA 
BRANCH   8  11
HETATM   11  C   UNL     1     -11.393  14.003  66.997  1.00  0.00    -0.346 A  
HETATM   12  C   UNL     1     -10.597  12.858  67.137  1.00  0.00    -0.246 A  
HETATM   13  C   UNL     1     -12.366  14.019  65.984  1.00  0.00    -0.504 A  
HETATM   14  C   UNL     1     -10.787  11.748  66.307  1.00  0.00    -0.325 A  
HETATM   15  C   UNL     1     -12.546  12.914  65.144  1.00  0.00    -0.536 A  
HETATM   16  C   UNL     1     -11.758  11.778  65.310  1.00  0.00    -0.132 A  
ENDBRANCH   8  11
BRANCH   9  17
HETATM   17  C   UNL     1     -12.310  14.702  70.210  1.00  0.00    -0.406 A  
HETATM   18  C   UNL     1     -13.549  13.362  72.352  1.00  0.00    -0.708 A  
HETATM   19  C   UNL     1     -12.199  13.308  70.355  1.00  0.00    -0.404 A  
HETATM   20  C   UNL     1     -13.691  14.740  72.211  1.00  0.00    -0.560 A  
HETATM   21  C   UNL     1     -12.806  12.643  71.422  1.00  0.00    -0.358 A  
HETATM   22  C   UNL     1     -13.070  15.408  71.151  1.00  0.00    -0.565 A  
ENDBRANCH   9  17
ENDBRANCH   5   6
ENDBRANCH   4   5
TORSDOF 4
ENDMDL
MODEL       17
REMARK 921   NORMALIZED FREE ENERGY PREDICTED BY IDOCK:   -7.20 KCAL/MOL
REMARK 922        TOTAL FREE ENERGY PREDICTED BY IDOCK:   -9.69 KCAL/MOL
REMARK 923 INTER-LIGAND FREE ENERGY PREDICTED BY IDOCK:   -8.85 KCAL/MOL
REMARK 924 INTRA-LIGAND FREE ENERGY PREDICTED BY IDOCK:   -0.84 KCAL/MOL
REMARK 927      BINDING AFFINITY PREDICTED BY RF-SCORE:    0.00 PKD
ROOT
HETATM    1  O   UNL     1     -12.584  16.656  74.266  1.00  0.00    -0.683 OA 
HETATM    2  C   UNL     1     -12.958  15.924  73.192  1.00  0.00    -0.549 C  
HETATM    3  O   UNL     1     -14.130  15.782  72.878  1.00  0.00    -0.542 OA 
HETATM    4  C   UNL     1     -11.785  15.314  72.471  1.00  0.00    -0.535 C  
ENDROOT
BRANCH   4   5
HETATM    5  C   UNL     1     -12.252  14.500  71.266  1.00  0.00    -0.421 C  
BRANCH   5   6
HETATM    6  C   UNL     1     -11.709  15.043  69.996  1.00  0.00    -0.306 A  
HETATM    7  N   UNL     1     -11.213  16.231  69.735  1.00  0.00    -0.334 NA 
HETATM    8  C   UNL     1     -10.915  16.185  68.381  1.00  0.00    -0.341 A  
HETATM    9  C   UNL     1     -11.265  14.943  67.871  1.00  0.00    -0.315 A  
HETATM   10  O   UNL     1     -11.753  14.205  68.924  1.00  0.00    -0.292 OA 
BRANCH   8  11
HETATM   11  C   UNL     1     -10.326  17.323  67.688  1.00  0.00    -0.350 A  
HETATM   12  C   UNL     1     -11.002  18.542  67.549  1.00  0.00    -0.200 A  
HETATM   13  C   UNL     1      -9.062  17.190  67.092  1.00  0.00    -0.237 A  
HETATM   14  C   UNL     1     -10.419  19.611  66.859  1.00  0.00    -0.606 A  
HETATM   15  C   UNL     1      -8.484  18.253  66.389  1.00  0.00    -0.266 A  
HETATM   16  C   UNL     1      -9.163  19.464  66.276  1.00  0.00    -0.388 A  
ENDBRANCH   8  11
BRANCH   9  17
HETATM   17  C   UNL     1     -11.326  14.249  66.592  1.00  0.00    -0.356 A  
HETATM   18  C   UNL     1     -11.547  13.063  64.050  1.00  0.00    -0.487 A  
HETATM   19  C   UNL     1     -12.535  13.672  66.163  1.00  0.00    -0.449 A  
HETATM   20  C   UNL     1     -10.334  13.607  64.466  1.00  0.00    -0.355 A  
HETATM   21  C   UNL     1     -12.648  13.091  64.899  1.00  0.00    -0.490 A  
HETATM   22  C   UNL     1     -10.226  14.202  65.727  1.00  0.00    -0.347 A  
ENDBRANCH   9  17
ENDBRANCH   5   6
ENDBRANCH   4   5
TORSDOF 4
ENDMDL
MODEL       18
REMARK 921   NORMALIZED FREE ENERGY PREDICTED BY IDOCK:   -7.16 KCAL/MOL
REMARK 922        TOTAL FREE ENERGY PREDICTED BY IDOCK:   -9.64 KCAL/MOL
REMARK 923 INTER-LIGAND FREE ENERGY PREDICTED BY IDOCK:   -8.79 KCAL/MOL
REMARK 924 INTRA-LIGAND FREE ENERGY PREDICTED BY IDOCK:   -0.85 KCAL/MOL
REMARK 927      BINDING AFFINITY PREDICTED BY RF-SCORE:    0.00 PKD
ROOT
HETATM    1  O   UNL     1     -12.558  16.809  74.507  1.00  0.00    -0.693 OA 
HETATM    2  C   UNL     1     -12.422  15.669  73.794  1.00  0.00    -0.611 C  
HETATM    3  O   UNL     1     -12.161  14.599  74.323  1.00  0.00    -0.473 OA 
HETATM    4  C   UNL     1     -12.606  15.885  72.316  1.00  0.00    -0.531 C  
ENDROOT
BRANCH   4   5
HETATM    5  C   UNL     1     -12.446  14.573  71.551  1.00  0.00    -0.424 C  
BRANCH   5   6
HETATM    6  C   UNL     1     -12.097  14.809  70.127  1.00  0.00    -0.327 A  
HETATM    7  N   UNL     1     -12.145  13.986  69.104  1.00  0.00    -0.355 NA 
HETATM    8  C   UNL     1     -11.656  14.735  68.043  1.00  0.00    -0.343 A  
HETATM    9  C   UNL     1     -11.314  16.003  68.489  1.00  0.00    -0.382 A  
HETATM   10  O   UNL     1     -11.625  16.050  69.828  1.00  0.00    -0.323 OA 
BRANCH   8  11
HETATM   11  C   UNL     1     -11.553  14.182  66.700  1.00  0.00    -0.399 A  
HETATM   12  C   UNL     1     -12.683  13.848  65.941  1.00  0.00    -0.466 A  
HETATM   13  C   UNL     1     -10.285  13.923  66.155  1.00  0.00    -0.307 A  
HETATM   14  C   UNL     1     -12.551  13.297  64.662  1.00  0.00    -0.354 A  
HETATM   15  C   UNL     1     -10.152  13.359  64.881  1.00  0.00    -0.256 A  
HETATM   16  C   UNL     1     -11.286  13.050  64.135  1.00  0.00    -0.442 A  
ENDBRANCH   8  11
BRANCH   9  17
HETATM   17  C   UNL     1     -10.690  17.221  67.991  1.00  0.00    -0.367 A  
HETATM   18  C   UNL     1      -9.305  19.487  67.059  1.00  0.00    -0.416 A  
HETATM   19  C   UNL     1     -10.045  18.096  68.884  1.00  0.00    -0.354 A  
HETATM   20  C   UNL     1      -9.959  18.647  66.161  1.00  0.00    -0.355 A  
HETATM   21  C   UNL     1      -9.351  19.215  68.422  1.00  0.00    -0.416 A  
HETATM   22  C   UNL     1     -10.641  17.517  66.623  1.00  0.00    -0.198 A  
ENDBRANCH   9  17
ENDBRANCH   5   6
ENDBRANCH   4   5
TORSDOF 4
ENDMDL
MODEL       19
REMARK 921   NORMALIZED FREE ENERGY PREDICTED BY IDOCK:   -7.12 KCAL/MOL
REMARK 922        TOTAL FREE ENERGY PREDICTED BY IDOCK:   -9.59 KCAL/MOL
REMARK 923 INTER-LIGAND FREE ENERGY PREDICTED BY IDOCK:   -8.75 KCAL/MOL
REMARK 924 INTRA-LIGAND FREE ENERGY PREDICTED BY IDOCK:   -0.84 KCAL/MOL
REMARK 927      BINDING AFFINITY PREDICTED BY RF-SCORE:    0.00 PKD
ROOT
HETATM    1  O   UNL     1     -10.262  20.286  65.581  1.00  0.00    -0.365 OA 
HETATM    2  C   UNL     1      -9.708  19.464  66.501  1.00  0.00    -0.375 C  
HETATM    3  O   UNL     1      -8.674  18.850  66.284  1.00  0.00    -0.350 OA 
HETATM    4  C   UNL     1     -10.513  19.391  67.771  1.00  0.00    -0.556 C  
ENDROOT
BRANCH   4   5
HETATM    5  C   UNL     1      -9.850  18.455  68.780  1.00  0.00    -0.388 C  
BRANCH   5   6
HETATM    6  C   UNL     1     -10.390  17.075  68.682  1.00  0.00    -0.351 A  
HETATM    7  N   UNL     1     -10.376  16.239  67.669  1.00  0.00    -0.277 NA 
HETATM    8  C   UNL     1     -11.065  15.129  68.136  1.00  0.00    -0.304 A  
HETATM    9  C   UNL     1     -11.486  15.358  69.437  1.00  0.00    -0.324 A  
HETATM   10  O   UNL     1     -11.025  16.605  69.790  1.00  0.00    -0.330 OA 
BRANCH   8  11
HETATM   11  C   UNL     1     -11.268  13.949  67.306  1.00  0.00    -0.329 A  
HETATM   12  C   UNL     1     -10.652  12.723  67.589  1.00  0.00    -0.230 A  
HETATM   13  C   UNL     1     -12.063  14.045  66.152  1.00  0.00    -0.471 A  
HETATM   14  C   UNL     1     -10.849  11.613  66.760  1.00  0.00    -0.322 A  
HETATM   15  C   UNL     1     -12.248  12.939  65.314  1.00  0.00    -0.524 A  
HETATM   16  C   UNL     1     -11.644  11.723  65.622  1.00  0.00    -0.190 A  
ENDBRANCH   8  11
BRANCH   9  17
HETATM   17  C   UNL     1     -12.293  14.721  70.469  1.00  0.00    -0.398 A  
HETATM   18  C   UNL     1     -14.009  13.500  72.336  1.00  0.00    -0.638 A  
HETATM   19  C   UNL     1     -13.231  15.476  71.194  1.00  0.00    -0.576 A  
HETATM   20  C   UNL     1     -13.070  12.739  71.645  1.00  0.00    -0.428 A  
HETATM   21  C   UNL     1     -14.089  14.872  72.115  1.00  0.00    -0.616 A  
HETATM   22  C   UNL     1     -12.221  13.343  70.712  1.00  0.00    -0.409 A  
ENDBRANCH   9  17
ENDBRANCH   5   6
ENDBRANCH   4   5
TORSDOF 4
ENDMDL
MODEL       20
REMARK 921   NORMALIZED FREE ENERGY PREDICTED BY IDOCK:   -7.07 KCAL/MOL
REMARK 922        TOTAL FREE ENERGY PREDICTED BY IDOCK:   -9.53 KCAL/MOL
REMARK 923 INTER-LIGAND FREE ENERGY PREDICTED BY IDOCK:   -8.78 KCAL/MOL
REMARK 924 INTRA-LIGAND FREE ENERGY PREDICTED BY IDOCK:   -0.75 KCAL/MOL
REMARK 927      BINDING AFFINITY PREDICTED BY RF-SCORE:    0.00 PKD
ROOT
HETATM    1  O   UNL     1     -14.362  13.428  72.700  1.00  0.00    -0.709 OA 
HETATM    2  C   UNL     1     -13.726  14.564  72.337  1.00  0.00    -0.480 C  
HETATM    3  O   UNL     1     -14.287  15.649  72.330  1.00  0.00    -0.546 OA 
HETATM    4  C   UNL     1     -12.294  14.323  71.937  1.00  0.00    -0.329 C  
ENDROOT
BRANCH   4   5
HETATM    5  C   UNL     1     -11.615  15.632  71.538  1.00  0.00    -0.507 C  
BRANCH   5   6
HETATM    6  C   UNL     1     -11.439  15.730  70.067  1.00  0.00    -0.356 A  
HETATM    7  N   UNL     1     -11.751  14.868  69.125  1.00  0.00    -0.295 NA 
HETATM    8  C   UNL     1     -11.312  15.471  67.955  1.00  0.00    -0.330 A  
HETATM    9  C   UNL     1     -10.729  16.693  68.254  1.00  0.00    -0.351 A  
HETATM   10  O   UNL     1     -10.838  16.863  69.614  1.00  0.00    -0.302 OA 
BRANCH   8  11
HETATM   11  C   UNL     1     -11.482  14.833  66.657  1.00  0.00    -0.339 A  
HETATM   12  C   UNL     1     -11.005  15.412  65.473  1.00  0.00    -0.350 A  
HETATM   13  C   UNL     1     -12.188  13.622  66.568  1.00  0.00    -0.454 A  
HETATM   14  C   UNL     1     -11.201  14.785  64.238  1.00  0.00    -0.029 A  
HETATM   15  C   UNL     1     -12.398  13.002  65.332  1.00  0.00    -0.538 A  
HETATM   16  C   UNL     1     -11.901  13.583  64.168  1.00  0.00    -0.483 A  
ENDBRANCH   8  11
BRANCH   9  17
HETATM   17  C   UNL     1     -10.010  17.769  67.585  1.00  0.00    -0.322 A  
HETATM   18  C   UNL     1      -8.653  19.753  66.121  1.00  0.00    -0.367 A  
HETATM   19  C   UNL     1      -8.715  17.544  67.086  1.00  0.00    -0.247 A  
HETATM   20  C   UNL     1      -9.925  20.004  66.628  1.00  0.00    -0.598 A  
HETATM   21  C   UNL     1      -8.044  18.524  66.352  1.00  0.00    -0.295 A  
HETATM   22  C   UNL     1     -10.603  19.016  67.351  1.00  0.00    -0.559 A  
ENDBRANCH   9  17
ENDBRANCH   5   6
ENDBRANCH   4   5
TORSDOF 4
ENDMDL
MODEL       21
REMARK 921   NORMALIZED FREE ENERGY PREDICTED BY IDOCK:   -6.94 KCAL/MOL
REMARK 922        TOTAL FREE ENERGY PREDICTED BY IDOCK:   -9.37 KCAL/MOL
REMARK 923 INTER-LIGAND FREE ENERGY PREDICTED BY IDOCK:   -8.53 KCAL/MOL
REMARK 924 INTRA-LIGAND FREE ENERGY PREDICTED BY IDOCK:   -0.84 KCAL/MOL
REMARK 927      BINDING AFFINITY PREDICTED BY RF-SCORE:    0.00 PKD
ROOT
HETATM    1  O   UNL     1      -6.264  18.039  66.955  1.00  0.00    -0.153 OA 
HETATM    2  C   UNL     1      -7.595  18.276  66.948  1.00  0.00    -0.217 C  
HETATM    3  O   UNL     1      -8.195  18.583  65.928  1.00  0.00    -0.497 OA 
HETATM    4  C   UNL     1      -8.215  18.138  68.313  1.00  0.00    -0.300 C  
ENDROOT
BRANCH   4   5
HETATM    5  C   UNL     1      -9.717  18.412  68.257  1.00  0.00    -0.366 C  
BRANCH   5   6
HETATM    6  C   UNL     1     -10.507  17.196  68.570  1.00  0.00    -0.377 A  
HETATM    7  N   UNL     1     -11.035  16.808  69.709  1.00  0.00    -0.217 NA 
HETATM    8  C   UNL     1     -11.609  15.579  69.417  1.00  0.00    -0.355 A  
HETATM    9  C   UNL     1     -11.384  15.268  68.084  1.00  0.00    -0.338 A  
HETATM   10  O   UNL     1     -10.695  16.326  67.540  1.00  0.00    -0.316 OA 
BRANCH   8  11
HETATM   11  C   UNL     1     -12.318  14.806  70.427  1.00  0.00    -0.402 A  
HETATM   12  C   UNL     1     -12.217  13.410  70.506  1.00  0.00    -0.425 A  
HETATM   13  C   UNL     1     -13.173  15.464  71.326  1.00  0.00    -0.585 A  
HETATM   14  C   UNL     1     -12.927  12.694  71.475  1.00  0.00    -0.380 A  
HETATM   15  C   UNL     1     -13.895  14.746  72.286  1.00  0.00    -0.590 A  
HETATM   16  C   UNL     1     -13.768  13.362  72.361  1.00  0.00    -0.698 A  
ENDBRANCH   8  11
BRANCH   9  17
HETATM   17  C   UNL     1     -11.596  14.168  67.153  1.00  0.00    -0.400 A  
HETATM   18  C   UNL     1     -11.893  12.142  65.222  1.00  0.00    -0.356 A  
HETATM   19  C   UNL     1     -12.446  14.340  66.045  1.00  0.00    -0.392 A  
HETATM   20  C   UNL     1     -11.066  11.943  66.325  1.00  0.00    -0.364 A  
HETATM   21  C   UNL     1     -12.587  13.340  65.082  1.00  0.00    -0.512 A  
HETATM   22  C   UNL     1     -10.913  12.953  67.281  1.00  0.00    -0.289 A  
ENDBRANCH   9  17
ENDBRANCH   5   6
ENDBRANCH   4   5
TORSDOF 4
ENDMDL
MODEL       22
REMARK 921   NORMALIZED FREE ENERGY PREDICTED BY IDOCK:   -6.92 KCAL/MOL
REMARK 922        TOTAL FREE ENERGY PREDICTED BY IDOCK:   -9.34 KCAL/MOL
REMARK 923 INTER-LIGAND FREE ENERGY PREDICTED BY IDOCK:   -8.58 KCAL/MOL
REMARK 924 INTRA-LIGAND FREE ENERGY PREDICTED BY IDOCK:   -0.77 KCAL/MOL
REMARK 927      BINDING AFFINITY PREDICTED BY RF-SCORE:    0.00 PKD
ROOT
HETATM    1  O   UNL     1     -11.624   7.796  72.213  1.00  0.00    -0.298 OA 
HETATM    2  C   UNL     1     -12.326   8.932  72.002  1.00  0.00    -0.390 C  
HETATM    3  O   UNL     1     -13.417   9.126  72.516  1.00  0.00    -0.464 OA 
HETATM    4  C   UNL     1     -11.623   9.882  71.070  1.00  0.00    -0.470 C  
ENDROOT
BRANCH   4   5
HETATM    5  C   UNL     1     -12.449  11.149  70.862  1.00  0.00    -0.509 C  
BRANCH   5   6
HETATM    6  C   UNL     1     -12.152  11.788  69.555  1.00  0.00    -0.250 A  
HETATM    7  N   UNL     1     -12.041  11.247  68.363  1.00  0.00    -0.609 NA 
HETATM    8  C   UNL     1     -11.705  12.311  67.537  1.00  0.00    -0.332 A  
HETATM    9  C   UNL     1     -11.613  13.471  68.291  1.00  0.00    -0.346 A  
HETATM   10  O   UNL     1     -11.927  13.130  69.585  1.00  0.00    -0.310 OA 
BRANCH   8  11
HETATM   11  C   UNL     1     -11.497  12.132  66.107  1.00  0.00    -0.429 A  
HETATM   12  C   UNL     1     -12.397  12.629  65.154  1.00  0.00    -0.547 A  
HETATM   13  C   UNL     1     -10.389  11.397  65.656  1.00  0.00    -0.307 A  
HETATM   14  C   UNL     1     -12.182  12.423  63.788  1.00  0.00    -0.626 A  
HETATM   15  C   UNL     1     -10.181  11.178  64.290  1.00  0.00    -0.399 A  
HETATM   16  C   UNL     1     -11.076  11.695  63.357  1.00  0.00    -0.422 A  
ENDBRANCH   8  11
BRANCH   9  17
HETATM   17  C   UNL     1     -11.234  14.868  68.130  1.00  0.00    -0.310 A  
HETATM   18  C   UNL     1     -10.330  17.524  67.912  1.00  0.00    -0.371 A  
HETATM   19  C   UNL     1     -11.229  15.727  69.244  1.00  0.00    -0.324 A  
HETATM   20  C   UNL     1     -10.351  16.697  66.792  1.00  0.00    -0.295 A  
HETATM   21  C   UNL     1     -10.773  17.042  69.139  1.00  0.00    -0.253 A  
HETATM   22  C   UNL     1     -10.794  15.374  66.901  1.00  0.00    -0.313 A  
ENDBRANCH   9  17
ENDBRANCH   5   6
ENDBRANCH   4   5
TORSDOF 4
ENDMDL
MODEL       23
REMARK 921   NORMALIZED FREE ENERGY PREDICTED BY IDOCK:   -6.91 KCAL/MOL
REMARK 922        TOTAL FREE ENERGY PREDICTED BY IDOCK:   -9.33 KCAL/MOL
REMARK 923 INTER-LIGAND FREE ENERGY PREDICTED BY IDOCK:   -8.41 KCAL/MOL
REMARK 924 INTRA-LIGAND FREE ENERGY PREDICTED BY IDOCK:   -0.92 KCAL/MOL
REMARK 927      BINDING AFFINITY PREDICTED BY RF-SCORE:    0.00 PKD
ROOT
HETATM    1  O   UNL     1     -13.511  11.675  72.204  1.00  0.00    -0.423 OA 
HETATM    2  C   UNL     1     -13.487  13.021  72.075  1.00  0.00    -0.492 C  
HETATM    3  O   UNL     1     -14.368  13.733  72.531  1.00  0.00    -0.696 OA 
HETATM    4  C   UNL     1     -12.286  13.507  71.307  1.00  0.00    -0.325 C  
ENDROOT
BRANCH   4   5
HETATM    5  C   UNL     1     -12.299  15.030  71.187  1.00  0.00    -0.391 C  
BRANCH   5   6
HETATM    6  C   UNL     1     -11.701  15.482  69.906  1.00  0.00    -0.352 A  
HETATM    7  N   UNL     1     -11.111  16.619  69.610  1.00  0.00    -0.233 NA 
HETATM    8  C   UNL     1     -10.801  16.500  68.263  1.00  0.00    -0.352 A  
HETATM    9  C   UNL     1     -11.241  15.271  67.793  1.00  0.00    -0.326 A  
HETATM   10  O   UNL     1     -11.797  14.612  68.864  1.00  0.00    -0.305 OA 
BRANCH   8  11
HETATM   11  C   UNL     1     -10.119  17.563  67.539  1.00  0.00    -0.326 A  
HETATM   12  C   UNL     1     -10.776  18.735  67.140  1.00  0.00    -0.469 A  
HETATM   13  C   UNL     1      -8.771  17.399  67.179  1.00  0.00    -0.239 A  
HETATM   14  C   UNL     1     -10.098  19.730  66.426  1.00  0.00    -0.600 A  
HETATM   15  C   UNL     1      -8.097  18.387  66.452  1.00  0.00    -0.285 A  
HETATM   16  C   UNL     1      -8.761  19.553  66.080  1.00  0.00    -0.332 A  
ENDBRANCH   8  11
BRANCH   9  17
HETATM   17  C   UNL     1     -11.340  14.537  66.539  1.00  0.00    -0.354 A  
HETATM   18  C   UNL     1     -11.611  13.283  64.034  1.00  0.00    -0.458 A  
HETATM   19  C   UNL     1     -12.595  14.102  66.077  1.00  0.00    -0.407 A  
HETATM   20  C   UNL     1     -10.355  13.685  64.485  1.00  0.00    -0.355 A  
HETATM   21  C   UNL     1     -12.732  13.488  64.831  1.00  0.00    -0.342 A  
HETATM   22  C   UNL     1     -10.221  14.314  65.727  1.00  0.00    -0.351 A  
ENDBRANCH   9  17
ENDBRANCH   5   6
ENDBRANCH   4   5
TORSDOF 4
ENDMDL
MODEL       24
REMARK 921   NORMALIZED FREE ENERGY PREDICTED BY IDOCK:   -6.87 KCAL/MOL
REMARK 922        TOTAL FREE ENERGY PREDICTED BY IDOCK:   -9.28 KCAL/MOL
REMARK 923 INTER-LIGAND FREE ENERGY PREDICTED BY IDOCK:   -8.42 KCAL/MOL
REMARK 924 INTRA-LIGAND FREE ENERGY PREDICTED BY IDOCK:   -0.86 KCAL/MOL
REMARK 927      BINDING AFFINITY PREDICTED BY RF-SCORE:    0.00 PKD
ROOT
HETATM    1  O   UNL     1     -13.515  15.697  73.302  1.00  0.00    -0.524 OA 
HETATM    2  C   UNL     1     -13.486  14.572  72.553  1.00  0.00    -0.483 C  
HETATM    3  O   UNL     1     -14.311  13.680  72.689  1.00  0.00    -0.703 OA 
HETATM    4  C   UNL     1     -12.337  14.554  71.581  1.00  0.00    -0.420 C  
ENDROOT
BRANCH   4   5
HETATM    5  C   UNL     1     -12.345  13.268  70.756  1.00  0.00    -0.425 C  
BRANCH   5   6
HETATM    6  C   UNL     1     -11.931  13.517  69.352  1.00  0.00    -0.330 A  
HETATM    7  N   UNL     1     -12.026  12.737  68.299  1.00  0.00    -0.293 NA 
HETATM    8  C   UNL     1     -11.436  13.471  67.279  1.00  0.00    -0.339 A  
HETATM    9  C   UNL     1     -10.989  14.684  67.781  1.00  0.00    -0.286 A  
HETATM   10  O   UNL     1     -11.335  14.716  69.111  1.00  0.00    -0.252 OA 
BRANCH   8  11
HETATM   11  C   UNL     1     -11.344  12.955  65.920  1.00  0.00    -0.348 A  
HETATM   12  C   UNL     1     -10.117  12.632  65.326  1.00  0.00    -0.271 A  
HETATM   13  C   UNL     1     -12.512  12.820  65.152  1.00  0.00    -0.565 A  
HETATM   14  C   UNL     1     -10.059  12.158  64.011  1.00  0.00    -0.357 A  
HETATM   15  C   UNL     1     -12.454  12.361  63.832  1.00  0.00    -0.573 A  
HETATM   16  C   UNL     1     -11.227  12.027  63.264  1.00  0.00    -0.403 A  
ENDBRANCH   8  11
BRANCH   9  17
HETATM   17  C   UNL     1     -10.237  15.853  67.344  1.00  0.00    -0.270 A  
HETATM   18  C   UNL     1      -8.720  18.131  66.690  1.00  0.00    -0.279 A  
HETATM   19  C   UNL     1     -10.677  17.142  67.693  1.00  0.00    -0.302 A  
HETATM   20  C   UNL     1      -8.279  16.864  66.314  1.00  0.00    -0.344 A  
HETATM   21  C   UNL     1      -9.921  18.272  67.377  1.00  0.00    -0.344 A  
HETATM   22  C   UNL     1      -9.029  15.731  66.645  1.00  0.00    -0.313 A  
ENDBRANCH   9  17
ENDBRANCH   5   6
ENDBRANCH   4   5
TORSDOF 4
ENDMDL
MODEL       25
REMARK 921   NORMALIZED FREE ENERGY PREDICTED BY IDOCK:   -6.86 KCAL/MOL
REMARK 922        TOTAL FREE ENERGY PREDICTED BY IDOCK:   -9.27 KCAL/MOL
REMARK 923 INTER-LIGAND FREE ENERGY PREDICTED BY IDOCK:   -8.37 KCAL/MOL
REMARK 924 INTRA-LIGAND FREE ENERGY PREDICTED BY IDOCK:   -0.90 KCAL/MOL
REMARK 927      BINDING AFFINITY PREDICTED BY RF-SCORE:    0.00 PKD
ROOT
HETATM    1  O   UNL     1      -7.735  19.612  69.078  1.00  0.00    -0.347 OA 
HETATM    2  C   UNL     1      -8.933  19.388  68.493  1.00  0.00    -0.370 C  
HETATM    3  O   UNL     1      -9.987  19.522  69.097  1.00  0.00    -0.442 OA 
HETATM    4  C   UNL     1      -8.803  18.948  67.059  1.00  0.00    -0.306 C  
ENDROOT
BRANCH   4   5
HETATM    5  C   UNL     1     -10.178  18.708  66.438  1.00  0.00    -0.461 C  
BRANCH   5   6
HETATM    6  C   UNL     1     -10.520  17.264  66.407  1.00  0.00    -0.263 A  
HETATM    7  N   UNL     1     -10.670  16.459  65.379  1.00  0.00    -0.475 NA 
HETATM    8  C   UNL     1     -11.034  15.247  65.948  1.00  0.00    -0.325 A  
HETATM    9  C   UNL     1     -11.102  15.383  67.326  1.00  0.00    -0.302 A  
HETATM   10  O   UNL     1     -10.745  16.679  67.615  1.00  0.00    -0.333 OA 
BRANCH   8  11
HETATM   11  C   UNL     1     -11.290  14.067  65.133  1.00  0.00    -0.328 A  
HETATM   12  C   UNL     1     -12.563  13.489  65.035  1.00  0.00    -0.441 A  
HETATM   13  C   UNL     1     -10.224  13.448  64.460  1.00  0.00    -0.321 A  
HETATM   14  C   UNL     1     -12.772  12.343  64.261  1.00  0.00    -0.437 A  
HETATM   15  C   UNL     1     -10.430  12.293  63.698  1.00  0.00    -0.483 A  
HETATM   16  C   UNL     1     -11.705  11.743  63.597  1.00  0.00    -0.517 A  
ENDBRANCH   8  11
BRANCH   9  17
HETATM   17  C   UNL     1     -11.488  14.608  68.497  1.00  0.00    -0.327 A  
HETATM   18  C   UNL     1     -12.424  13.146  70.713  1.00  0.00    -0.389 A  
HETATM   19  C   UNL     1     -11.991  15.261  69.637  1.00  0.00    -0.364 A  
HETATM   20  C   UNL     1     -11.905  12.483  69.603  1.00  0.00    -0.382 A  
HETATM   21  C   UNL     1     -12.464  14.537  70.733  1.00  0.00    -0.420 A  
HETATM   22  C   UNL     1     -11.446  13.208  68.499  1.00  0.00    -0.338 A  
ENDBRANCH   9  17
ENDBRANCH   5   6
ENDBRANCH   4   5
TORSDOF 4
ENDMDL
MODEL       26
REMARK 921   NORMALIZED FREE ENERGY PREDICTED BY IDOCK:   -6.81 KCAL/MOL
REMARK 922        TOTAL FREE ENERGY PREDICTED BY IDOCK:   -9.21 KCAL/MOL
REMARK 923 INTER-LIGAND FREE ENERGY PREDICTED BY IDOCK:   -8.39 KCAL/MOL
REMARK 924 INTRA-LIGAND FREE ENERGY PREDICTED BY IDOCK:   -0.82 KCAL/MOL
REMARK 927      BINDING AFFINITY PREDICTED BY RF-SCORE:    0.00 PKD
ROOT
HETATM    1  O   UNL     1      -6.545  19.201  67.381  1.00  0.00    -0.194 OA 
HETATM    2  C   UNL     1      -7.567  18.917  66.544  1.00  0.00    -0.251 C  
HETATM    3  O   UNL     1      -7.381  18.546  65.394  1.00  0.00    -0.516 OA 
HETATM    4  C   UNL     1      -8.914  19.129  67.181  1.00  0.00    -0.320 C  
ENDROOT
BRANCH   4   5
HETATM    5  C   UNL     1     -10.037  18.794  66.201  1.00  0.00    -0.421 C  
BRANCH   5   6
HETATM    6  C   UNL     1     -10.374  17.349  66.228  1.00  0.00    -0.330 A  
HETATM    7  N   UNL     1     -10.427  16.481  65.244  1.00  0.00    -0.637 NA 
HETATM    8  C   UNL     1     -10.843  15.304  65.850  1.00  0.00    -0.342 A  
HETATM    9  C   UNL     1     -11.041  15.526  67.205  1.00  0.00    -0.271 A  
HETATM   10  O   UNL     1     -10.713  16.840  67.444  1.00  0.00    -0.314 OA 
BRANCH   8  11
HETATM   11  C   UNL     1     -11.020  14.074  65.091  1.00  0.00    -0.357 A  
HETATM   12  C   UNL     1     -12.126  13.866  64.255  1.00  0.00    -0.477 A  
HETATM   13  C   UNL     1     -10.087  13.035  65.232  1.00  0.00    -0.247 A  
HETATM   14  C   UNL     1     -12.279  12.664  63.555  1.00  0.00    -0.638 A  
HETATM   15  C   UNL     1     -10.247  11.827  64.544  1.00  0.00    -0.327 A  
HETATM   16  C   UNL     1     -11.342  11.645  63.703  1.00  0.00    -0.485 A  
ENDBRANCH   8  11
BRANCH   9  17
HETATM   17  C   UNL     1     -11.536  14.823  68.381  1.00  0.00    -0.350 A  
HETATM   18  C   UNL     1     -12.302  13.415  70.694  1.00  0.00    -0.423 A  
HETATM   19  C   UNL     1     -11.572  13.418  68.396  1.00  0.00    -0.368 A  
HETATM   20  C   UNL     1     -12.297  14.807  70.691  1.00  0.00    -0.401 A  
HETATM   21  C   UNL     1     -11.943  12.717  69.545  1.00  0.00    -0.338 A  
HETATM   22  C   UNL     1     -11.910  15.508  69.544  1.00  0.00    -0.390 A  
ENDBRANCH   9  17
ENDBRANCH   5   6
ENDBRANCH   4   5
TORSDOF 4
ENDMDL
MODEL       27
REMARK 921   NORMALIZED FREE ENERGY PREDICTED BY IDOCK:   -6.77 KCAL/MOL
REMARK 922        TOTAL FREE ENERGY PREDICTED BY IDOCK:   -9.17 KCAL/MOL
REMARK 923 INTER-LIGAND FREE ENERGY PREDICTED BY IDOCK:   -8.27 KCAL/MOL
REMARK 924 INTRA-LIGAND FREE ENERGY PREDICTED BY IDOCK:   -0.90 KCAL/MOL
REMARK 927      BINDING AFFINITY PREDICTED BY RF-SCORE:    0.00 PKD
ROOT
HETATM    1  O   UNL     1     -12.090  16.917  73.672  1.00  0.00    -0.358 OA 
HETATM    2  C   UNL     1     -12.602  15.668  73.596  1.00  0.00    -0.586 C  
HETATM    3  O   UNL     1     -12.312  14.797  74.403  1.00  0.00    -0.510 OA 
HETATM    4  C   UNL     1     -13.525  15.492  72.420  1.00  0.00    -0.606 C  
ENDROOT
BRANCH   4   5
HETATM    5  C   UNL     1     -14.080  14.070  72.375  1.00  0.00    -0.576 C  
BRANCH   5   6
HETATM    6  C   UNL     1     -13.232  13.177  71.545  1.00  0.00    -0.282 A  
HETATM    7  N   UNL     1     -12.640  13.412  70.396  1.00  0.00    -0.220 NA 
HETATM    8  C   UNL     1     -12.034  12.206  70.074  1.00  0.00    -0.315 A  
HETATM    9  C   UNL     1     -12.306  11.272  71.062  1.00  0.00    -0.366 A  
HETATM   10  O   UNL     1     -13.058  11.913  72.018  1.00  0.00    -0.457 OA 
BRANCH   8  11
HETATM   11  C   UNL     1     -11.253  12.045  68.855  1.00  0.00    -0.315 A  
HETATM   12  C   UNL     1     -10.358  13.026  68.407  1.00  0.00    -0.257 A  
HETATM   13  C   UNL     1     -11.430  10.896  68.068  1.00  0.00    -0.356 A  
HETATM   14  C   UNL     1      -9.638  12.852  67.220  1.00  0.00    -0.220 A  
HETATM   15  C   UNL     1     -10.721  10.727  66.873  1.00  0.00    -0.309 A  
HETATM   16  C   UNL     1      -9.822  11.705  66.453  1.00  0.00    -0.233 A  
ENDBRANCH   8  11
BRANCH   9  17
HETATM   17  C   UNL     1     -12.094   9.858  71.336  1.00  0.00    -0.501 A  
HETATM   18  C   UNL     1     -11.738   7.087  71.678  1.00  0.00    -0.332 A  
HETATM   19  C   UNL     1     -13.196   8.997  71.483  1.00  0.00    -0.388 A  
HETATM   20  C   UNL     1     -10.633   7.926  71.559  1.00  0.00    -0.262 A  
HETATM   21  C   UNL     1     -13.022   7.622  71.644  1.00  0.00    -0.385 A  
HETATM   22  C   UNL     1     -10.809   9.302  71.383  1.00  0.00    -0.434 A  
ENDBRANCH   9  17
ENDBRANCH   5   6
ENDBRANCH   4   5
TORSDOF 4
ENDMDL
MODEL       28
REMARK 921   NORMALIZED FREE ENERGY PREDICTED BY IDOCK:   -6.76 KCAL/MOL
REMARK 922        TOTAL FREE ENERGY PREDICTED BY IDOCK:   -9.16 KCAL/MOL
REMARK 923 INTER-LIGAND FREE ENERGY PREDICTED BY IDOCK:   -8.28 KCAL/MOL
REMARK 924 INTRA-LIGAND FREE ENERGY PREDICTED BY IDOCK:   -0.87 KCAL/MOL
REMARK 927      BINDING AFFINITY PREDICTED BY RF-SCORE:    0.00 PKD
ROOT
HETATM    1  O   UNL     1      -7.747  20.353  66.852  1.00  0.00    -0.307 OA 
HETATM    2  C   UNL     1      -8.959  19.931  67.275  1.00  0.00    -0.334 C  
HETATM    3  O   UNL     1      -9.955  20.635  67.200  1.00  0.00    -0.452 OA 
HETATM    4  C   UNL     1      -8.919  18.539  67.848  1.00  0.00    -0.300 C  
ENDROOT
BRANCH   4   5
HETATM    5  C   UNL     1     -10.308  18.103  68.311  1.00  0.00    -0.377 C  
BRANCH   5   6
HETATM    6  C   UNL     1     -10.614  16.713  67.889  1.00  0.00    -0.342 A  
HETATM    7  N   UNL     1     -10.730  16.208  66.682  1.00  0.00    -0.275 NA 
HETATM    8  C   UNL     1     -11.072  14.881  66.900  1.00  0.00    -0.337 A  
HETATM    9  C   UNL     1     -11.161  14.644  68.263  1.00  0.00    -0.285 A  
HETATM   10  O   UNL     1     -10.840  15.823  68.894  1.00  0.00    -0.232 OA 
BRANCH   8  11
HETATM   11  C   UNL     1     -11.288  13.956  65.796  1.00  0.00    -0.308 A  
HETATM   12  C   UNL     1     -12.563  13.488  65.453  1.00  0.00    -0.531 A  
HETATM   13  C   UNL     1     -10.184  13.470  65.076  1.00  0.00    -0.345 A  
HETATM   14  C   UNL     1     -12.736  12.583  64.400  1.00  0.00    -0.447 A  
HETATM   15  C   UNL     1     -10.355  12.553  64.033  1.00  0.00    -0.429 A  
HETATM   16  C   UNL     1     -11.632  12.113  63.694  1.00  0.00    -0.575 A  
ENDBRANCH   8  11
BRANCH   9  17
HETATM   17  C   UNL     1     -11.543  13.577  69.178  1.00  0.00    -0.359 A  
HETATM   18  C   UNL     1     -12.470  11.544  70.890  1.00  0.00    -0.464 A  
HETATM   19  C   UNL     1     -12.193  13.886  70.386  1.00  0.00    -0.438 A  
HETATM   20  C   UNL     1     -11.805  11.218  69.710  1.00  0.00    -0.437 A  
HETATM   21  C   UNL     1     -12.661  12.879  71.232  1.00  0.00    -0.371 A  
HETATM   22  C   UNL     1     -11.350  12.227  68.856  1.00  0.00    -0.337 A  
ENDBRANCH   9  17
ENDBRANCH   5   6
ENDBRANCH   4   5
TORSDOF 4
ENDMDL
MODEL       29
REMARK 921   NORMALIZED FREE ENERGY PREDICTED BY IDOCK:   -6.74 KCAL/MOL
REMARK 922        TOTAL FREE ENERGY PREDICTED BY IDOCK:   -9.12 KCAL/MOL
REMARK 923 INTER-LIGAND FREE ENERGY PREDICTED BY IDOCK:   -8.44 KCAL/MOL
REMARK 924 INTRA-LIGAND FREE ENERGY PREDICTED BY IDOCK:   -0.68 KCAL/MOL
REMARK 927      BINDING AFFINITY PREDICTED BY RF-SCORE:    0.00 PKD
ROOT
HETATM    1  O   UNL     1     -12.071   7.575  72.056  1.00  0.00    -0.288 OA 
HETATM    2  C   UNL     1     -12.703   8.751  71.844  1.00  0.00    -0.374 C  
HETATM    3  O   UNL     1     -13.890   8.904  72.089  1.00  0.00    -0.421 OA 
HETATM    4  C   UNL     1     -11.792   9.802  71.269  1.00  0.00    -0.481 C  
ENDROOT
BRANCH   4   5
HETATM    5  C   UNL     1     -12.546  11.112  71.047  1.00  0.00    -0.503 C  
BRANCH   5   6
HETATM    6  C   UNL     1     -12.202  11.727  69.741  1.00  0.00    -0.203 A  
HETATM    7  N   UNL     1     -12.130  11.180  68.548  1.00  0.00    -0.594 NA 
HETATM    8  C   UNL     1     -11.716  12.217  67.724  1.00  0.00    -0.337 A  
HETATM    9  C   UNL     1     -11.540  13.367  68.479  1.00  0.00    -0.333 A  
HETATM   10  O   UNL     1     -11.879  13.049  69.773  1.00  0.00    -0.308 OA 
BRANCH   8  11
HETATM   11  C   UNL     1     -11.521  12.025  66.293  1.00  0.00    -0.408 A  
HETATM   12  C   UNL     1     -10.509  11.200  65.783  1.00  0.00    -0.305 A  
HETATM   13  C   UNL     1     -12.334  12.722  65.385  1.00  0.00    -0.528 A  
HETATM   14  C   UNL     1     -10.333  11.052  64.403  1.00  0.00    -0.424 A  
HETATM   15  C   UNL     1     -12.149  12.586  64.005  1.00  0.00    -0.557 A  
HETATM   16  C   UNL     1     -11.150  11.748  63.516  1.00  0.00    -0.503 A  
ENDBRANCH   8  11
BRANCH   9  17
HETATM   17  C   UNL     1     -11.059  14.733  68.319  1.00  0.00    -0.284 A  
HETATM   18  C   UNL     1     -10.307  17.416  67.925  1.00  0.00    -0.369 A  
HETATM   19  C   UNL     1     -10.691  15.204  67.046  1.00  0.00    -0.307 A  
HETATM   20  C   UNL     1     -10.644  16.963  69.198  1.00  0.00    -0.330 A  
HETATM   21  C   UNL     1     -10.326  16.536  66.847  1.00  0.00    -0.300 A  
HETATM   22  C   UNL     1     -11.025  15.631  69.393  1.00  0.00    -0.283 A  
ENDBRANCH   9  17
ENDBRANCH   5   6
ENDBRANCH   4   5
TORSDOF 4
ENDMDL
MODEL       30
REMARK 921   NORMALIZED FREE ENERGY PREDICTED BY IDOCK:   -6.65 KCAL/MOL
REMARK 922        TOTAL FREE ENERGY PREDICTED BY IDOCK:   -9.01 KCAL/MOL
REMARK 923 INTER-LIGAND FREE ENERGY PREDICTED BY IDOCK:   -8.19 KCAL/MOL
REMARK 924 INTRA-LIGAND FREE ENERGY PREDICTED BY IDOCK:   -0.83 KCAL/MOL
REMARK 927      BINDING AFFINITY PREDICTED BY RF-SCORE:    0.00 PKD
ROOT
HETATM    1  O   UNL     1     -12.493  14.024  63.331  1.00  0.00    -0.826 OA 
HETATM    2  C   UNL     1     -11.849  14.137  64.514  1.00  0.00    -0.436 C  
HETATM    3  O   UNL     1     -10.642  14.312  64.582  1.00  0.00    -0.421 OA 
HETATM    4  C   UNL     1     -12.776  14.006  65.693  1.00  0.00    -0.515 C  
ENDROOT
BRANCH   4   5
HETATM    5  C   UNL     1     -12.007  14.143  67.006  1.00  0.00    -0.471 C  
BRANCH   5   6
HETATM    6  C   UNL     1     -11.769  12.822  67.640  1.00  0.00    -0.367 A  
HETATM    7  N   UNL     1     -11.988  12.432  68.875  1.00  0.00    -0.285 NA 
HETATM    8  C   UNL     1     -11.529  11.123  68.904  1.00  0.00    -0.295 A  
HETATM    9  C   UNL     1     -11.029  10.779  67.657  1.00  0.00    -0.306 A  
HETATM   10  O   UNL     1     -11.210  11.871  66.842  1.00  0.00    -0.290 OA 
BRANCH   8  11
HETATM   11  C   UNL     1     -11.601  10.314  70.114  1.00  0.00    -0.376 A  
HETATM   12  C   UNL     1     -10.497   9.603  70.603  1.00  0.00    -0.379 A  
HETATM   13  C   UNL     1     -12.825  10.194  70.792  1.00  0.00    -0.388 A  
HETATM   14  C   UNL     1     -10.604   8.817  71.755  1.00  0.00    -0.417 A  
HETATM   15  C   UNL     1     -12.936   9.397  71.937  1.00  0.00    -0.502 A  
HETATM   16  C   UNL     1     -11.824   8.712  72.419  1.00  0.00    -0.402 A  
ENDBRANCH   8  11
BRANCH   9  17
HETATM   17  C   UNL     1     -10.340   9.672  67.008  1.00  0.00    -0.315 A  
HETATM   18  C   UNL     1      -8.850   7.572  65.871  1.00  0.00    -0.157 A  
HETATM   19  C   UNL     1      -9.301   9.931  66.095  1.00  0.00    -0.232 A  
HETATM   20  C   UNL     1      -9.891   7.295  66.754  1.00  0.00    -0.281 A  
HETATM   21  C   UNL     1      -8.556   8.891  65.537  1.00  0.00    -0.191 A  
HETATM   22  C   UNL     1     -10.627   8.339  67.324  1.00  0.00    -0.335 A  
ENDBRANCH   9  17
ENDBRANCH   5   6
ENDBRANCH   4   5
TORSDOF 4
ENDMDL
MODEL       31
REMARK 921   NORMALIZED FREE ENERGY PREDICTED BY IDOCK:   -6.64 KCAL/MOL
REMARK 922        TOTAL FREE ENERGY PREDICTED BY IDOCK:   -9.00 KCAL/MOL
REMARK 923 INTER-LIGAND FREE ENERGY PREDICTED BY IDOCK:   -8.09 KCAL/MOL
REMARK 924 INTRA-LIGAND FREE ENERGY PREDICTED BY IDOCK:   -0.91 KCAL/MOL
REMARK 927      BINDING AFFINITY PREDICTED BY RF-SCORE:    0.00 PKD
ROOT
HETATM    1  O   UNL     1     -13.839  16.462  73.357  1.00  0.00    -0.497 OA 
HETATM    2  C   UNL     1     -13.237  15.259  73.220  1.00  0.00    -0.476 C  
HETATM    3  O   UNL     1     -12.179  14.996  73.771  1.00  0.00    -0.503 OA 
HETATM    4  C   UNL     1     -14.002  14.329  72.316  1.00  0.00    -0.629 C  
ENDROOT
BRANCH   4   5
HETATM    5  C   UNL     1     -13.287  12.984  72.192  1.00  0.00    -0.622 C  
BRANCH   5   6
HETATM    6  C   UNL     1     -12.614  12.842  70.877  1.00  0.00    -0.270 A  
HETATM    7  N   UNL     1     -12.486  13.713  69.901  1.00  0.00    -0.230 NA 
HETATM    8  C   UNL     1     -11.813  13.014  68.909  1.00  0.00    -0.316 A  
HETATM    9  C   UNL     1     -11.571  11.717  69.338  1.00  0.00    -0.322 A  
HETATM   10  O   UNL     1     -12.068  11.623  70.616  1.00  0.00    -0.368 OA 
BRANCH   8  11
HETATM   11  C   UNL     1     -11.461  13.636  67.640  1.00  0.00    -0.357 A  
HETATM   12  C   UNL     1     -12.397  13.813  66.612  1.00  0.00    -0.403 A  
HETATM   13  C   UNL     1     -10.134  14.030  67.408  1.00  0.00    -0.244 A  
HETATM   14  C   UNL     1     -12.023  14.395  65.395  1.00  0.00    -0.369 A  
HETATM   15  C   UNL     1      -9.756  14.599  66.187  1.00  0.00    -0.344 A  
HETATM   16  C   UNL     1     -10.703  14.784  65.183  1.00  0.00    -0.433 A  
ENDBRANCH   8  11
BRANCH   9  17
HETATM   17  C   UNL     1     -11.029  10.466  68.827  1.00  0.00    -0.287 A  
HETATM   18  C   UNL     1     -10.165   7.968  67.860  1.00  0.00    -0.267 A  
HETATM   19  C   UNL     1     -10.828   9.380  69.699  1.00  0.00    -0.245 A  
HETATM   20  C   UNL     1     -10.335   9.038  66.985  1.00  0.00    -0.339 A  
HETATM   21  C   UNL     1     -10.407   8.139  69.219  1.00  0.00    -0.222 A  
HETATM   22  C   UNL     1     -10.771  10.278  67.464  1.00  0.00    -0.348 A  
ENDBRANCH   9  17
ENDBRANCH   5   6
ENDBRANCH   4   5
TORSDOF 4
ENDMDL
MODEL       32
REMARK 921   NORMALIZED FREE ENERGY PREDICTED BY IDOCK:   -6.62 KCAL/MOL
REMARK 922        TOTAL FREE ENERGY PREDICTED BY IDOCK:   -8.98 KCAL/MOL
REMARK 923 INTER-LIGAND FREE ENERGY PREDICTED BY IDOCK:   -8.18 KCAL/MOL
REMARK 924 INTRA-LIGAND FREE ENERGY PREDICTED BY IDOCK:   -0.80 KCAL/MOL
REMARK 927      BINDING AFFINITY PREDICTED BY RF-SCORE:    0.00 PKD
ROOT
HETATM    1  O   UNL     1      -9.215   8.972  71.905  1.00  0.00    -0.353 OA 
HETATM    2  C   UNL     1     -10.323   9.393  71.255  1.00  0.00    -0.292 C  
HETATM    3  O   UNL     1     -11.421   9.415  71.790  1.00  0.00    -0.380 OA 
HETATM    4  C   UNL     1     -10.041   9.797  69.832  1.00  0.00    -0.288 C  
ENDROOT
BRANCH   4   5
HETATM    5  C   UNL     1     -11.318  10.267  69.138  1.00  0.00    -0.244 C  
BRANCH   5   6
HETATM    6  C   UNL     1     -11.386  11.747  69.062  1.00  0.00    -0.278 A  
HETATM    7  N   UNL     1     -10.948  12.561  68.127  1.00  0.00    -0.217 NA 
HETATM    8  C   UNL     1     -11.241  13.826  68.615  1.00  0.00    -0.278 A  
HETATM    9  C   UNL     1     -11.845  13.717  69.858  1.00  0.00    -0.320 A  
HETATM   10  O   UNL     1     -11.958  12.373  70.127  1.00  0.00    -0.341 OA 
BRANCH   8  11
HETATM   11  C   UNL     1     -10.918  15.030  67.859  1.00  0.00    -0.291 A  
HETATM   12  C   UNL     1     -10.884  16.298  68.455  1.00  0.00    -0.330 A  
HETATM   13  C   UNL     1     -10.680  14.936  66.479  1.00  0.00    -0.309 A  
HETATM   14  C   UNL     1     -10.592  17.438  67.699  1.00  0.00    -0.350 A  
HETATM   15  C   UNL     1     -10.403  16.077  65.719  1.00  0.00    -0.398 A  
HETATM   16  C   UNL     1     -10.356  17.327  66.331  1.00  0.00    -0.316 A  
ENDBRANCH   8  11
BRANCH   9  17
HETATM   17  C   UNL     1     -12.314  14.571  70.940  1.00  0.00    -0.415 A  
HETATM   18  C   UNL     1     -13.260  16.055  73.136  1.00  0.00    -0.633 A  
HETATM   19  C   UNL     1     -13.691  14.677  71.206  1.00  0.00    -0.439 A  
HETATM   20  C   UNL     1     -11.893  15.983  72.875  1.00  0.00    -0.555 A  
HETATM   21  C   UNL     1     -14.161  15.405  72.299  1.00  0.00    -0.660 A  
HETATM   22  C   UNL     1     -11.422  15.240  71.788  1.00  0.00    -0.494 A  
ENDBRANCH   9  17
ENDBRANCH   5   6
ENDBRANCH   4   5
TORSDOF 4
ENDMDL
MODEL       33
REMARK 921   NORMALIZED FREE ENERGY PREDICTED BY IDOCK:   -6.60 KCAL/MOL
REMARK 922        TOTAL FREE ENERGY PREDICTED BY IDOCK:   -8.95 KCAL/MOL
REMARK 923 INTER-LIGAND FREE ENERGY PREDICTED BY IDOCK:   -8.11 KCAL/MOL
REMARK 924 INTRA-LIGAND FREE ENERGY PREDICTED BY IDOCK:   -0.84 KCAL/MOL
REMARK 927      BINDING AFFINITY PREDICTED BY RF-SCORE:    0.00 PKD
ROOT
HETATM    1  O   UNL     1     -11.410   8.045  72.600  1.00  0.00    -0.372 OA 
HETATM    2  C   UNL     1     -12.311   8.916  72.093  1.00  0.00    -0.378 C  
HETATM    3  O   UNL     1     -13.479   8.924  72.452  1.00  0.00    -0.425 OA 
HETATM    4  C   UNL     1     -11.715   9.826  71.052  1.00  0.00    -0.453 C  
ENDROOT
BRANCH   4   5
HETATM    5  C   UNL     1     -12.766  10.792  70.510  1.00  0.00    -0.388 C  
BRANCH   5   6
HETATM    6  C   UNL     1     -12.156  11.839  69.652  1.00  0.00    -0.258 A  
HETATM    7  N   UNL     1     -11.665  13.012  69.981  1.00  0.00    -0.262 NA 
HETATM    8  C   UNL     1     -11.285  13.573  68.770  1.00  0.00    -0.274 A  
HETATM    9  C   UNL     1     -11.584  12.695  67.738  1.00  0.00    -0.348 A  
HETATM   10  O   UNL     1     -12.122  11.570  68.318  1.00  0.00    -0.580 OA 
BRANCH   8  11
HETATM   11  C   UNL     1     -10.675  14.893  68.696  1.00  0.00    -0.250 A  
HETATM   12  C   UNL     1     -11.401  16.031  68.320  1.00  0.00    -0.326 A  
HETATM   13  C   UNL     1      -9.303  15.036  68.959  1.00  0.00    -0.206 A  
HETATM   14  C   UNL     1     -10.782  17.283  68.238  1.00  0.00    -0.349 A  
HETATM   15  C   UNL     1      -8.679  16.284  68.862  1.00  0.00    -0.253 A  
HETATM   16  C   UNL     1      -9.421  17.407  68.505  1.00  0.00    -0.297 A  
ENDBRANCH   8  11
BRANCH   9  17
HETATM   17  C   UNL     1     -11.556  12.646  66.283  1.00  0.00    -0.440 A  
HETATM   18  C   UNL     1     -11.624  12.393  63.481  1.00  0.00    -0.577 A  
HETATM   19  C   UNL     1     -10.830  11.635  65.628  1.00  0.00    -0.330 A  
HETATM   20  C   UNL     1     -12.330  13.415  64.109  1.00  0.00    -0.395 A  
HETATM   21  C   UNL     1     -10.869  11.503  64.239  1.00  0.00    -0.421 A  
HETATM   22  C   UNL     1     -12.302  13.537  65.503  1.00  0.00    -0.524 A  
ENDBRANCH   9  17
ENDBRANCH   5   6
ENDBRANCH   4   5
TORSDOF 4
ENDMDL
MODEL       34
REMARK 921   NORMALIZED FREE ENERGY PREDICTED BY IDOCK:   -6.59 KCAL/MOL
REMARK 922        TOTAL FREE ENERGY PREDICTED BY IDOCK:   -8.94 KCAL/MOL
REMARK 923 INTER-LIGAND FREE ENERGY PREDICTED BY IDOCK:   -8.08 KCAL/MOL
REMARK 924 INTRA-LIGAND FREE ENERGY PREDICTED BY IDOCK:   -0.86 KCAL/MOL
REMARK 927      BINDING AFFINITY PREDICTED BY RF-SCORE:    0.00 PKD
ROOT
HETATM    1  O   UNL     1      -8.600   8.485  73.129  1.00  0.00    -0.362 OA 
HETATM    2  C   UNL     1      -9.735   8.496  72.396  1.00  0.00    -0.287 C  
HETATM    3  O   UNL     1     -10.814   8.161  72.863  1.00  0.00    -0.357 OA 
HETATM    4  C   UNL     1      -9.503   8.938  70.976  1.00  0.00    -0.318 C  
ENDROOT
BRANCH   4   5
HETATM    5  C   UNL     1     -10.810   8.937  70.186  1.00  0.00    -0.251 C  
BRANCH   5   6
HETATM    6  C   UNL     1     -11.143  10.292  69.677  1.00  0.00    -0.274 A  
HETATM    7  N   UNL     1     -10.875  10.840  68.514  1.00  0.00    -0.210 NA 
HETATM    8  C   UNL     1     -11.379  12.128  68.622  1.00  0.00    -0.280 A  
HETATM    9  C   UNL     1     -11.929  12.307  69.883  1.00  0.00    -0.306 A  
HETATM   10  O   UNL     1     -11.795  11.111  70.547  1.00  0.00    -0.337 OA 
BRANCH   8  11
HETATM   11  C   UNL     1     -11.291  13.079  67.521  1.00  0.00    -0.346 A  
HETATM   12  C   UNL     1     -10.360  14.126  67.513  1.00  0.00    -0.248 A  
HETATM   13  C   UNL     1     -12.197  12.983  66.452  1.00  0.00    -0.350 A  
HETATM   14  C   UNL     1     -10.315  15.036  66.451  1.00  0.00    -0.293 A  
HETATM   15  C   UNL     1     -12.162  13.902  65.398  1.00  0.00    -0.463 A  
HETATM   16  C   UNL     1     -11.218  14.925  65.397  1.00  0.00    -0.359 A  
ENDBRANCH   8  11
BRANCH   9  17
HETATM   17  C   UNL     1     -12.521  13.362  70.693  1.00  0.00    -0.385 A  
HETATM   18  C   UNL     1     -13.524  15.366  72.397  1.00  0.00    -0.591 A  
HETATM   19  C   UNL     1     -13.267  13.034  71.838  1.00  0.00    -0.527 A  
HETATM   20  C   UNL     1     -12.808  15.712  71.253  1.00  0.00    -0.550 A  
HETATM   21  C   UNL     1     -13.758  14.026  72.689  1.00  0.00    -0.586 A  
HETATM   22  C   UNL     1     -12.304  14.716  70.410  1.00  0.00    -0.399 A  
ENDBRANCH   9  17
ENDBRANCH   5   6
ENDBRANCH   4   5
TORSDOF 4
ENDMDL
MODEL       35
REMARK 921   NORMALIZED FREE ENERGY PREDICTED BY IDOCK:   -6.56 KCAL/MOL
REMARK 922        TOTAL FREE ENERGY PREDICTED BY IDOCK:   -8.91 KCAL/MOL
REMARK 923 INTER-LIGAND FREE ENERGY PREDICTED BY IDOCK:   -8.02 KCAL/MOL
REMARK 924 INTRA-LIGAND FREE ENERGY PREDICTED BY IDOCK:   -0.89 KCAL/MOL
REMARK 927      BINDING AFFINITY PREDICTED BY RF-SCORE:    0.00 PKD
ROOT
HETATM    1  O   UNL     1     -14.150  15.869  72.839  1.00  0.00    -0.561 OA 
HETATM    2  C   UNL     1     -13.805  14.698  72.259  1.00  0.00    -0.479 C  
HETATM    3  O   UNL     1     -14.357  13.645  72.542  1.00  0.00    -0.707 OA 
HETATM    4  C   UNL     1     -12.678  14.851  71.272  1.00  0.00    -0.412 C  
ENDROOT
BRANCH   4   5
HETATM    5  C   UNL     1     -12.323  13.506  70.642  1.00  0.00    -0.432 C  
BRANCH   5   6
HETATM    6  C   UNL     1     -11.863  13.663  69.239  1.00  0.00    -0.346 A  
HETATM    7  N   UNL     1     -11.938  12.824  68.232  1.00  0.00    -0.293 NA 
HETATM    8  C   UNL     1     -11.305  13.486  67.190  1.00  0.00    -0.321 A  
HETATM    9  C   UNL     1     -10.853  14.721  67.632  1.00  0.00    -0.285 A  
HETATM   10  O   UNL     1     -11.239  14.837  68.946  1.00  0.00    -0.241 OA 
BRANCH   8  11
HETATM   11  C   UNL     1     -11.181  12.888  65.867  1.00  0.00    -0.323 A  
HETATM   12  C   UNL     1     -12.182  13.014  64.895  1.00  0.00    -0.490 A  
HETATM   13  C   UNL     1     -10.049  12.116  65.561  1.00  0.00    -0.275 A  
HETATM   14  C   UNL     1     -12.044  12.410  63.640  1.00  0.00    -0.648 A  
HETATM   15  C   UNL     1      -9.916  11.499  64.313  1.00  0.00    -0.312 A  
HETATM   16  C   UNL     1     -10.913  11.651  63.352  1.00  0.00    -0.442 A  
ENDBRANCH   8  11
BRANCH   9  17
HETATM   17  C   UNL     1     -10.069  15.849  67.150  1.00  0.00    -0.264 A  
HETATM   18  C   UNL     1      -8.579  17.960  66.034  1.00  0.00    -0.030 A  
HETATM   19  C   UNL     1      -8.756  15.646  66.689  1.00  0.00    -0.333 A  
HETATM   20  C   UNL     1      -9.869  18.187  66.508  1.00  0.00    -0.362 A  
HETATM   21  C   UNL     1      -8.019  16.690  66.128  1.00  0.00    -0.237 A  
HETATM   22  C   UNL     1     -10.612  17.136  67.056  1.00  0.00    -0.227 A  
ENDBRANCH   9  17
ENDBRANCH   5   6
ENDBRANCH   4   5
TORSDOF 4
ENDMDL
MODEL       36
REMARK 921   NORMALIZED FREE ENERGY PREDICTED BY IDOCK:   -6.55 KCAL/MOL
REMARK 922        TOTAL FREE ENERGY PREDICTED BY IDOCK:   -8.89 KCAL/MOL
REMARK 923 INTER-LIGAND FREE ENERGY PREDICTED BY IDOCK:   -8.16 KCAL/MOL
REMARK 924 INTRA-LIGAND FREE ENERGY PREDICTED BY IDOCK:   -0.73 KCAL/MOL
REMARK 927      BINDING AFFINITY PREDICTED BY RF-SCORE:    0.00 PKD
ROOT
HETATM    1  O   UNL     1      -7.486  19.588  69.160  1.00  0.00    -0.366 OA 
HETATM    2  C   UNL     1      -8.182  19.155  68.085  1.00  0.00    -0.318 C  
HETATM    3  O   UNL     1      -7.751  19.259  66.946  1.00  0.00    -0.236 OA 
HETATM    4  C   UNL     1      -9.517  18.568  68.458  1.00  0.00    -0.375 C  
ENDROOT
BRANCH   4   5
HETATM    5  C   UNL     1     -10.267  18.091  67.216  1.00  0.00    -0.371 C  
BRANCH   5   6
HETATM    6  C   UNL     1     -10.726  16.686  67.360  1.00  0.00    -0.253 A  
HETATM    7  N   UNL     1     -10.974  15.991  68.447  1.00  0.00    -0.315 NA 
HETATM    8  C   UNL     1     -11.317  14.733  67.974  1.00  0.00    -0.316 A  
HETATM    9  C   UNL     1     -11.245  14.722  66.589  1.00  0.00    -0.346 A  
HETATM   10  O   UNL     1     -10.888  15.991  66.200  1.00  0.00    -0.281 OA 
BRANCH   8  11
HETATM   11  C   UNL     1     -11.680  13.649  68.878  1.00  0.00    -0.377 A  
HETATM   12  C   UNL     1     -12.162  13.888  70.172  1.00  0.00    -0.425 A  
HETATM   13  C   UNL     1     -11.497  12.318  68.470  1.00  0.00    -0.349 A  
HETATM   14  C   UNL     1     -12.482  12.826  71.025  1.00  0.00    -0.369 A  
HETATM   15  C   UNL     1     -11.802  11.256  69.327  1.00  0.00    -0.423 A  
HETATM   16  C   UNL     1     -12.298  11.511  70.603  1.00  0.00    -0.457 A  
ENDBRANCH   8  11
BRANCH   9  17
HETATM   17  C   UNL     1     -11.368  13.784  65.482  1.00  0.00    -0.313 A  
HETATM   18  C   UNL     1     -11.516  11.834  63.457  1.00  0.00    -0.489 A  
HETATM   19  C   UNL     1     -10.231  13.423  64.738  1.00  0.00    -0.339 A  
HETATM   20  C   UNL     1     -12.659  12.197  64.166  1.00  0.00    -0.466 A  
HETATM   21  C   UNL     1     -10.301  12.450  63.739  1.00  0.00    -0.454 A  
HETATM   22  C   UNL     1     -12.585  13.161  65.177  1.00  0.00    -0.525 A  
ENDBRANCH   9  17
ENDBRANCH   5   6
ENDBRANCH   4   5
TORSDOF 4
ENDMDL
MODEL       37
REMARK 921   NORMALIZED FREE ENERGY PREDICTED BY IDOCK:   -6.54 KCAL/MOL
REMARK 922        TOTAL FREE ENERGY PREDICTED BY IDOCK:   -8.88 KCAL/MOL
REMARK 923 INTER-LIGAND FREE ENERGY PREDICTED BY IDOCK:   -8.07 KCAL/MOL
REMARK 924 INTRA-LIGAND FREE ENERGY PREDICTED BY IDOCK:   -0.81 KCAL/MOL
REMARK 927      BINDING AFFINITY PREDICTED BY RF-SCORE:    0.00 PKD
ROOT
HETATM    1  O   UNL     1      -9.056  20.887  67.060  1.00  0.00    -0.218 OA 
HETATM    2  C   UNL     1      -9.719  19.831  66.538  1.00  0.00    -0.422 C  
HETATM    3  O   UNL     1     -10.488  19.948  65.596  1.00  0.00    -0.477 OA 
HETATM    4  C   UNL     1      -9.413  18.543  67.255  1.00  0.00    -0.296 C  
ENDROOT
BRANCH   4   5
HETATM    5  C   UNL     1     -10.180  17.379  66.632  1.00  0.00    -0.324 C  
BRANCH   5   6
HETATM    6  C   UNL     1     -10.741  16.476  67.668  1.00  0.00    -0.311 A  
HETATM    7  N   UNL     1     -11.283  16.766  68.829  1.00  0.00    -0.222 NA 
HETATM    8  C   UNL     1     -11.575  15.529  69.386  1.00  0.00    -0.355 A  
HETATM    9  C   UNL     1     -11.172  14.524  68.519  1.00  0.00    -0.266 A  
HETATM   10  O   UNL     1     -10.658  15.143  67.404  1.00  0.00    -0.261 OA 
BRANCH   8  11
HETATM   11  C   UNL     1     -12.206  15.408  70.693  1.00  0.00    -0.431 A  
HETATM   12  C   UNL     1     -13.595  15.299  70.843  1.00  0.00    -0.402 A  
HETATM   13  C   UNL     1     -11.413  15.451  71.850  1.00  0.00    -0.513 A  
HETATM   14  C   UNL     1     -14.174  15.207  72.113  1.00  0.00    -0.656 A  
HETATM   15  C   UNL     1     -11.992  15.373  73.121  1.00  0.00    -0.559 A  
HETATM   16  C   UNL     1     -13.373  15.247  73.251  1.00  0.00    -0.523 A  
ENDBRANCH   8  11
BRANCH   9  17
HETATM   17  C   UNL     1     -11.078  13.071  68.475  1.00  0.00    -0.298 A  
HETATM   18  C   UNL     1     -11.081  10.261  68.310  1.00  0.00    -0.311 A  
HETATM   19  C   UNL     1     -11.825  12.292  69.376  1.00  0.00    -0.370 A  
HETATM   20  C   UNL     1     -10.315  11.015  67.424  1.00  0.00    -0.242 A  
HETATM   21  C   UNL     1     -11.834  10.899  69.290  1.00  0.00    -0.395 A  
HETATM   22  C   UNL     1     -10.318  12.412  67.501  1.00  0.00    -0.223 A  
ENDBRANCH   9  17
ENDBRANCH   5   6
ENDBRANCH   4   5
TORSDOF 4
ENDMDL
MODEL       38
REMARK 921   NORMALIZED FREE ENERGY PREDICTED BY IDOCK:   -6.52 KCAL/MOL
REMARK 922        TOTAL FREE ENERGY PREDICTED BY IDOCK:   -8.85 KCAL/MOL
REMARK 923 INTER-LIGAND FREE ENERGY PREDICTED BY IDOCK:   -7.95 KCAL/MOL
REMARK 924 INTRA-LIGAND FREE ENERGY PREDICTED BY IDOCK:   -0.91 KCAL/MOL
REMARK 927      BINDING AFFINITY PREDICTED BY RF-SCORE:    0.00 PKD
ROOT
HETATM    1  O   UNL     1     -11.846  16.557  72.376  1.00  0.00    -0.532 OA 
HETATM    2  C   UNL     1     -12.758  15.677  71.906  1.00  0.00    -0.442 C  
HETATM    3  O   UNL     1     -13.318  15.833  70.831  1.00  0.00    -0.576 OA 
HETATM    4  C   UNL     1     -12.998  14.531  72.853  1.00  0.00    -0.582 C  
ENDROOT
BRANCH   4   5
HETATM    5  C   UNL     1     -14.031  13.562  72.281  1.00  0.00    -0.638 C  
BRANCH   5   6
HETATM    6  C   UNL     1     -13.391  12.338  71.740  1.00  0.00    -0.254 A  
HETATM    7  N   UNL     1     -13.186  11.173  72.313  1.00  0.00    -0.247 NA 
HETATM    8  C   UNL     1     -12.507  10.437  71.353  1.00  0.00    -0.415 A  
HETATM    9  C   UNL     1     -12.317  11.214  70.221  1.00  0.00    -0.315 A  
HETATM   10  O   UNL     1     -12.911  12.429  70.469  1.00  0.00     0.092 OA 
BRANCH   8  11
HETATM   11  C   UNL     1     -12.095   9.061  71.596  1.00  0.00    -0.422 A  
HETATM   12  C   UNL     1     -12.967   7.979  71.419  1.00  0.00    -0.277 A  
HETATM   13  C   UNL     1     -10.799   8.801  72.071  1.00  0.00    -0.428 A  
HETATM   14  C   UNL     1     -12.549   6.670  71.681  1.00  0.00    -0.315 A  
HETATM   15  C   UNL     1     -10.385   7.494  72.348  1.00  0.00    -0.277 A  
HETATM   16  C   UNL     1     -11.259   6.429  72.148  1.00  0.00    -0.319 A  
ENDBRANCH   8  11
BRANCH   9  17
HETATM   17  C   UNL     1     -11.645  11.145  68.931  1.00  0.00    -0.385 A  
HETATM   18  C   UNL     1     -10.498  10.898  66.373  1.00  0.00    -0.307 A  
HETATM   19  C   UNL     1     -11.012   9.954  68.531  1.00  0.00    -0.226 A  
HETATM   20  C   UNL     1     -11.098  12.094  66.759  1.00  0.00    -0.349 A  
HETATM   21  C   UNL     1     -10.450   9.827  67.260  1.00  0.00    -0.324 A  
HETATM   22  C   UNL     1     -11.674  12.215  68.028  1.00  0.00    -0.409 A  
ENDBRANCH   9  17
ENDBRANCH   5   6
ENDBRANCH   4   5
TORSDOF 4
ENDMDL
MODEL       39
REMARK 921   NORMALIZED FREE ENERGY PREDICTED BY IDOCK:   -6.44 KCAL/MOL
REMARK 922        TOTAL FREE ENERGY PREDICTED BY IDOCK:   -8.75 KCAL/MOL
REMARK 923 INTER-LIGAND FREE ENERGY PREDICTED BY IDOCK:   -7.84 KCAL/MOL
REMARK 924 INTRA-LIGAND FREE ENERGY PREDICTED BY IDOCK:   -0.91 KCAL/MOL
REMARK 927      BINDING AFFINITY PREDICTED BY RF-SCORE:    0.00 PKD
ROOT
HETATM    1  O   UNL     1     -12.600  14.341  63.342  1.00  0.00    -0.777 OA 
HETATM    2  C   UNL     1     -11.965  14.359  64.535  1.00  0.00    -0.472 C  
HETATM    3  O   UNL     1     -10.802  14.716  64.646  1.00  0.00    -0.385 OA 
HETATM    4  C   UNL     1     -12.839  13.881  65.664  1.00  0.00    -0.467 C  
ENDROOT
BRANCH   4   5
HETATM    5  C   UNL     1     -12.082  13.921  66.991  1.00  0.00    -0.451 C  
BRANCH   5   6
HETATM    6  C   UNL     1     -11.600  12.574  67.385  1.00  0.00    -0.370 A  
HETATM    7  N   UNL     1     -10.984  11.660  66.669  1.00  0.00    -0.287 NA 
HETATM    8  C   UNL     1     -10.826  10.594  67.543  1.00  0.00    -0.296 A  
HETATM    9  C   UNL     1     -11.380  10.916  68.773  1.00  0.00    -0.292 A  
HETATM   10  O   UNL     1     -11.854  12.203  68.670  1.00  0.00    -0.309 OA 
BRANCH   8  11
HETATM   11  C   UNL     1     -10.167   9.361  67.134  1.00  0.00    -0.319 A  
HETATM   12  C   UNL     1     -10.740   8.101  67.351  1.00  0.00    -0.247 A  
HETATM   13  C   UNL     1      -8.893   9.421  66.547  1.00  0.00    -0.155 A  
HETATM   14  C   UNL     1     -10.073   6.933  66.966  1.00  0.00    -0.287 A  
HETATM   15  C   UNL     1      -8.218   8.253  66.176  1.00  0.00    -0.119 A  
HETATM   16  C   UNL     1      -8.811   7.010  66.383  1.00  0.00    -0.158 A  
ENDBRANCH   8  11
BRANCH   9  17
HETATM   17  C   UNL     1     -11.653  10.295  70.062  1.00  0.00    -0.349 A  
HETATM   18  C   UNL     1     -12.289   8.956  72.454  1.00  0.00    -0.385 A  
HETATM   19  C   UNL     1     -12.926  10.418  70.645  1.00  0.00    -0.357 A  
HETATM   20  C   UNL     1     -11.014   8.842  71.905  1.00  0.00    -0.435 A  
HETATM   21  C   UNL     1     -13.246   9.748  71.828  1.00  0.00    -0.532 A  
HETATM   22  C   UNL     1     -10.700   9.501  70.712  1.00  0.00    -0.391 A  
ENDBRANCH   9  17
ENDBRANCH   5   6
ENDBRANCH   4   5
TORSDOF 4
ENDMDL
MODEL       40
REMARK 921   NORMALIZED FREE ENERGY PREDICTED BY IDOCK:   -6.43 KCAL/MOL
REMARK 922        TOTAL FREE ENERGY PREDICTED BY IDOCK:   -8.75 KCAL/MOL
REMARK 923 INTER-LIGAND FREE ENERGY PREDICTED BY IDOCK:   -7.87 KCAL/MOL
REMARK 924 INTRA-LIGAND FREE ENERGY PREDICTED BY IDOCK:   -0.88 KCAL/MOL
REMARK 927      BINDING AFFINITY PREDICTED BY RF-SCORE:    0.00 PKD
ROOT
HETATM    1  O   UNL     1     -12.097  17.015  73.991  1.00  0.00    -0.305 OA 
HETATM    2  C   UNL     1     -12.527  15.753  73.769  1.00  0.00    -0.608 C  
HETATM    3  O   UNL     1     -12.309  14.844  74.556  1.00  0.00    -0.526 OA 
HETATM    4  C   UNL     1     -13.264  15.614  72.464  1.00  0.00    -0.583 C  
ENDROOT
BRANCH   4   5
HETATM    5  C   UNL     1     -13.733  14.175  72.255  1.00  0.00    -0.623 C  
BRANCH   5   6
HETATM    6  C   UNL     1     -12.983  13.509  71.161  1.00  0.00    -0.262 A  
HETATM    7  N   UNL     1     -12.591  12.260  71.051  1.00  0.00    -0.326 NA 
HETATM    8  C   UNL     1     -11.895  12.227  69.852  1.00  0.00    -0.311 A  
HETATM    9  C   UNL     1     -11.887  13.492  69.284  1.00  0.00    -0.341 A  
HETATM   10  O   UNL     1     -12.612  14.307  70.122  1.00  0.00    -0.350 OA 
BRANCH   8  11
HETATM   11  C   UNL     1     -11.294  10.998  69.350  1.00  0.00    -0.352 A  
HETATM   12  C   UNL     1     -11.169  10.735  67.979  1.00  0.00    -0.372 A  
HETATM   13  C   UNL     1     -10.870  10.015  70.258  1.00  0.00    -0.370 A  
HETATM   14  C   UNL     1     -10.607   9.536  67.528  1.00  0.00    -0.338 A  
HETATM   15  C   UNL     1     -10.322   8.809  69.808  1.00  0.00    -0.214 A  
HETATM   16  C   UNL     1     -10.188   8.573  68.442  1.00  0.00    -0.236 A  
ENDBRANCH   8  11
BRANCH   9  17
HETATM   17  C   UNL     1     -11.307  14.192  68.147  1.00  0.00    -0.316 A  
HETATM   18  C   UNL     1     -10.314  15.695  65.984  1.00  0.00    -0.351 A  
HETATM   19  C   UNL     1     -12.028  14.297  66.944  1.00  0.00    -0.467 A  
HETATM   20  C   UNL     1      -9.573  15.582  67.158  1.00  0.00    -0.228 A  
HETATM   21  C   UNL     1     -11.541  15.049  65.874  1.00  0.00    -0.165 A  
HETATM   22  C   UNL     1     -10.069  14.841  68.235  1.00  0.00    -0.221 A  
ENDBRANCH   9  17
ENDBRANCH   5   6
ENDBRANCH   4   5
TORSDOF 4
ENDMDL
MODEL       41
REMARK 921   NORMALIZED FREE ENERGY PREDICTED BY IDOCK:   -6.42 KCAL/MOL
REMARK 922        TOTAL FREE ENERGY PREDICTED BY IDOCK:   -8.74 KCAL/MOL
REMARK 923 INTER-LIGAND FREE ENERGY PREDICTED BY IDOCK:   -7.91 KCAL/MOL
REMARK 924 INTRA-LIGAND FREE ENERGY PREDICTED BY IDOCK:   -0.82 KCAL/MOL
REMARK 927      BINDING AFFINITY PREDICTED BY RF-SCORE:    0.00 PKD
ROOT
HETATM    1  O   UNL     1      -9.885  20.692  67.088  1.00  0.00    -0.469 OA 
HETATM    2  C   UNL     1     -10.091  19.768  68.052  1.00  0.00    -0.446 C  
HETATM    3  O   UNL     1      -9.971  20.030  69.240  1.00  0.00    -0.308 OA 
HETATM    4  C   UNL     1     -10.455  18.418  67.493  1.00  0.00    -0.445 C  
ENDROOT
BRANCH   4   5
HETATM    5  C   UNL     1     -10.680  17.408  68.616  1.00  0.00    -0.249 C  
BRANCH   5   6
HETATM    6  C   UNL     1     -10.922  16.043  68.084  1.00  0.00    -0.339 A  
HETATM    7  N   UNL     1     -11.004  15.630  66.840  1.00  0.00    -0.288 NA 
HETATM    8  C   UNL     1     -11.293  14.277  66.949  1.00  0.00    -0.343 A  
HETATM    9  C   UNL     1     -11.387  13.931  68.289  1.00  0.00    -0.294 A  
HETATM   10  O   UNL     1     -11.123  15.069  69.013  1.00  0.00    -0.238 OA 
BRANCH   8  11
HETATM   11  C   UNL     1     -11.457  13.433  65.774  1.00  0.00    -0.341 A  
HETATM   12  C   UNL     1     -12.673  13.342  65.084  1.00  0.00    -0.459 A  
HETATM   13  C   UNL     1     -10.383  12.640  65.338  1.00  0.00    -0.311 A  
HETATM   14  C   UNL     1     -12.806  12.506  63.971  1.00  0.00    -0.323 A  
HETATM   15  C   UNL     1     -10.519  11.792  64.233  1.00  0.00    -0.373 A  
HETATM   16  C   UNL     1     -11.730  11.729  63.549  1.00  0.00    -0.485 A  
ENDBRANCH   8  11
BRANCH   9  17
HETATM   17  C   UNL     1     -11.735  12.781  69.113  1.00  0.00    -0.375 A  
HETATM   18  C   UNL     1     -12.213  10.550  70.760  1.00  0.00    -0.468 A  
HETATM   19  C   UNL     1     -11.345  11.490  68.716  1.00  0.00    -0.327 A  
HETATM   20  C   UNL     1     -12.629  11.818  71.159  1.00  0.00    -0.412 A  
HETATM   21  C   UNL     1     -11.573  10.383  69.536  1.00  0.00    -0.288 A  
HETATM   22  C   UNL     1     -12.385  12.928  70.344  1.00  0.00    -0.333 A  
ENDBRANCH   9  17
ENDBRANCH   5   6
ENDBRANCH   4   5
TORSDOF 4
ENDMDL
MODEL       42
REMARK 921   NORMALIZED FREE ENERGY PREDICTED BY IDOCK:   -6.39 KCAL/MOL
REMARK 922        TOTAL FREE ENERGY PREDICTED BY IDOCK:   -8.69 KCAL/MOL
REMARK 923 INTER-LIGAND FREE ENERGY PREDICTED BY IDOCK:   -8.23 KCAL/MOL
REMARK 924 INTRA-LIGAND FREE ENERGY PREDICTED BY IDOCK:   -0.46 KCAL/MOL
REMARK 927      BINDING AFFINITY PREDICTED BY RF-SCORE:    0.00 PKD
ROOT
HETATM    1  O   UNL     1     -13.664  16.150  73.610  1.00  0.00    -0.504 OA 
HETATM    2  C   UNL     1     -12.952  15.899  72.489  1.00  0.00    -0.452 C  
HETATM    3  O   UNL     1     -11.806  16.297  72.345  1.00  0.00    -0.509 OA 
HETATM    4  C   UNL     1     -13.733  15.111  71.472  1.00  0.00    -0.582 C  
ENDROOT
BRANCH   4   5
HETATM    5  C   UNL     1     -12.891  14.849  70.225  1.00  0.00    -0.264 C  
BRANCH   5   6
HETATM    6  C   UNL     1     -12.529  13.415  70.100  1.00  0.00    -0.174 A  
HETATM    7  N   UNL     1     -12.500  12.474  71.016  1.00  0.00    -0.334 NA 
HETATM    8  C   UNL     1     -12.042  11.353  70.338  1.00  0.00    -0.384 A  
HETATM    9  C   UNL     1     -11.796  11.682  69.013  1.00  0.00    -0.328 A  
HETATM   10  O   UNL     1     -12.136  13.005  68.863  1.00  0.00    -0.286 OA 
BRANCH   8  11
HETATM   11  C   UNL     1     -11.873  10.070  71.007  1.00  0.00    -0.476 A  
HETATM   12  C   UNL     1     -12.887   9.497  71.786  1.00  0.00    -0.496 A  
HETATM   13  C   UNL     1     -10.642   9.401  70.918  1.00  0.00    -0.390 A  
HETATM   14  C   UNL     1     -12.688   8.273  72.434  1.00  0.00    -0.287 A  
HETATM   15  C   UNL     1     -10.437   8.184  71.578  1.00  0.00    -0.276 A  
HETATM   16  C   UNL     1     -11.463   7.620  72.333  1.00  0.00    -0.392 A  
ENDBRANCH   8  11
BRANCH   9  17
HETATM   17  C   UNL     1     -11.245  11.079  67.808  1.00  0.00    -0.374 A  
HETATM   18  C   UNL     1     -10.018  10.028  65.503  1.00  0.00    -0.367 A  
HETATM   19  C   UNL     1     -11.179  11.824  66.617  1.00  0.00    -0.383 A  
HETATM   20  C   UNL     1     -10.096   9.265  66.665  1.00  0.00    -0.341 A  
HETATM   21  C   UNL     1     -10.563  11.307  65.476  1.00  0.00    -0.306 A  
HETATM   22  C   UNL     1     -10.699   9.789  67.813  1.00  0.00    -0.329 A  
ENDBRANCH   9  17
ENDBRANCH   5   6
ENDBRANCH   4   5
TORSDOF 4
ENDMDL
MODEL       43
REMARK 921   NORMALIZED FREE ENERGY PREDICTED BY IDOCK:   -6.35 KCAL/MOL
REMARK 922        TOTAL FREE ENERGY PREDICTED BY IDOCK:   -8.64 KCAL/MOL
REMARK 923 INTER-LIGAND FREE ENERGY PREDICTED BY IDOCK:   -7.79 KCAL/MOL
REMARK 924 INTRA-LIGAND FREE ENERGY PREDICTED BY IDOCK:   -0.85 KCAL/MOL
REMARK 927      BINDING AFFINITY PREDICTED BY RF-SCORE:    0.00 PKD
ROOT
HETATM    1  O   UNL     1      -9.363  10.209  64.600  1.00  0.00    -0.232 OA 
HETATM    2  C   UNL     1     -10.139  10.398  65.690  1.00  0.00    -0.269 C  
HETATM    3  O   UNL     1     -10.348   9.508  66.501  1.00  0.00    -0.242 OA 
HETATM    4  C   UNL     1     -10.707  11.791  65.762  1.00  0.00    -0.328 C  
ENDROOT
BRANCH   4   5
HETATM    5  C   UNL     1     -11.574  11.960  67.008  1.00  0.00    -0.365 C  
BRANCH   5   6
HETATM    6  C   UNL     1     -11.448  13.323  67.581  1.00  0.00    -0.321 A  
HETATM    7  N   UNL     1     -10.793  14.367  67.126  1.00  0.00    -0.288 NA 
HETATM    8  C   UNL     1     -10.989  15.340  68.096  1.00  0.00    -0.292 A  
HETATM    9  C   UNL     1     -11.763  14.821  69.124  1.00  0.00    -0.313 A  
HETATM   10  O   UNL     1     -12.075  13.529  68.771  1.00  0.00    -0.344 OA 
BRANCH   8  11
HETATM   11  C   UNL     1     -10.423  16.675  67.965  1.00  0.00    -0.320 A  
HETATM   12  C   UNL     1      -9.444  17.160  68.843  1.00  0.00    -0.217 A  
HETATM   13  C   UNL     1     -10.902  17.533  66.962  1.00  0.00    -0.054 A  
HETATM   14  C   UNL     1      -8.935  18.456  68.705  1.00  0.00    -0.308 A  
HETATM   15  C   UNL     1     -10.403  18.835  66.832  1.00  0.00    -0.456 A  
HETATM   16  C   UNL     1      -9.418  19.293  67.702  1.00  0.00    -0.385 A  
ENDBRANCH   8  11
BRANCH   9  17
HETATM   17  C   UNL     1     -12.263  15.206  70.436  1.00  0.00    -0.391 A  
HETATM   18  C   UNL     1     -13.259  15.755  73.010  1.00  0.00    -0.671 A  
HETATM   19  C   UNL     1     -13.640  15.139  70.710  1.00  0.00    -0.299 A  
HETATM   20  C   UNL     1     -11.894  15.851  72.752  1.00  0.00    -0.583 A  
HETATM   21  C   UNL     1     -14.135  15.403  71.989  1.00  0.00    -0.647 A  
HETATM   22  C   UNL     1     -11.397  15.571  71.475  1.00  0.00    -0.466 A  
ENDBRANCH   9  17
ENDBRANCH   5   6
ENDBRANCH   4   5
TORSDOF 4
ENDMDL
MODEL       44
REMARK 921   NORMALIZED FREE ENERGY PREDICTED BY IDOCK:   -6.34 KCAL/MOL
REMARK 922        TOTAL FREE ENERGY PREDICTED BY IDOCK:   -8.63 KCAL/MOL
REMARK 923 INTER-LIGAND FREE ENERGY PREDICTED BY IDOCK:   -7.81 KCAL/MOL
REMARK 924 INTRA-LIGAND FREE ENERGY PREDICTED BY IDOCK:   -0.82 KCAL/MOL
REMARK 927      BINDING AFFINITY PREDICTED BY RF-SCORE:    0.00 PKD
ROOT
HETATM    1  O   UNL     1     -10.628   5.226  69.855  1.00  0.00    -0.306 OA 
HETATM    2  C   UNL     1     -10.880   6.108  70.847  1.00  0.00    -0.281 C  
HETATM    3  O   UNL     1     -10.177   6.184  71.843  1.00  0.00    -0.195 OA 
HETATM    4  C   UNL     1     -12.106   6.941  70.584  1.00  0.00    -0.363 C  
ENDROOT
BRANCH   4   5
HETATM    5  C   UNL     1     -12.351   7.924  71.728  1.00  0.00    -0.352 C  
BRANCH   5   6
HETATM    6  C   UNL     1     -12.250   9.332  71.270  1.00  0.00    -0.334 A  
HETATM    7  N   UNL     1     -12.791  10.419  71.773  1.00  0.00    -0.448 NA 
HETATM    8  C   UNL     1     -12.394  11.427  70.906  1.00  0.00    -0.381 A  
HETATM    9  C   UNL     1     -11.624  10.887  69.887  1.00  0.00    -0.331 A  
HETATM   10  O   UNL     1     -11.516   9.540  70.143  1.00  0.00    -0.236 OA 
BRANCH   8  11
HETATM   11  C   UNL     1     -12.784  12.815  71.119  1.00  0.00    -0.355 A  
HETATM   12  C   UNL     1     -12.282  13.859  70.330  1.00  0.00    -0.438 A  
HETATM   13  C   UNL     1     -13.649  13.135  72.177  1.00  0.00    -0.637 A  
HETATM   14  C   UNL     1     -12.658  15.185  70.573  1.00  0.00    -0.429 A  
HETATM   15  C   UNL     1     -14.014  14.462  72.429  1.00  0.00    -0.585 A  
HETATM   16  C   UNL     1     -13.521  15.485  71.624  1.00  0.00    -0.584 A  
ENDBRANCH   8  11
BRANCH   9  17
HETATM   17  C   UNL     1     -10.983  11.300  68.646  1.00  0.00    -0.266 A  
HETATM   18  C   UNL     1      -9.795  12.286  66.294  1.00  0.00    -0.254 A  
HETATM   19  C   UNL     1     -11.767  11.689  67.546  1.00  0.00    -0.288 A  
HETATM   20  C   UNL     1      -9.000  11.883  67.364  1.00  0.00    -0.173 A  
HETATM   21  C   UNL     1     -11.180  12.186  66.381  1.00  0.00    -0.380 A  
HETATM   22  C   UNL     1      -9.590  11.399  68.536  1.00  0.00    -0.190 A  
ENDBRANCH   9  17
ENDBRANCH   5   6
ENDBRANCH   4   5
TORSDOF 4
ENDMDL
MODEL       45
REMARK 921   NORMALIZED FREE ENERGY PREDICTED BY IDOCK:   -6.33 KCAL/MOL
REMARK 922        TOTAL FREE ENERGY PREDICTED BY IDOCK:   -8.62 KCAL/MOL
REMARK 923 INTER-LIGAND FREE ENERGY PREDICTED BY IDOCK:   -7.91 KCAL/MOL
REMARK 924 INTRA-LIGAND FREE ENERGY PREDICTED BY IDOCK:   -0.72 KCAL/MOL
REMARK 927      BINDING AFFINITY PREDICTED BY RF-SCORE:    0.00 PKD
ROOT
HETATM    1  O   UNL     1      -6.909  19.469  66.473  1.00  0.00    -0.191 OA 
HETATM    2  C   UNL     1      -8.248  19.290  66.480  1.00  0.00    -0.309 C  
HETATM    3  O   UNL     1      -9.019  20.133  66.045  1.00  0.00    -0.307 OA 
HETATM    4  C   UNL     1      -8.653  17.975  67.091  1.00  0.00    -0.244 C  
ENDROOT
BRANCH   4   5
HETATM    5  C   UNL     1     -10.172  17.815  67.076  1.00  0.00    -0.346 C  
BRANCH   5   6
HETATM    6  C   UNL     1     -10.599  16.587  67.794  1.00  0.00    -0.332 A  
HETATM    7  N   UNL     1     -10.518  15.329  67.426  1.00  0.00    -0.265 NA 
HETATM    8  C   UNL     1     -11.116  14.632  68.466  1.00  0.00    -0.260 A  
HETATM    9  C   UNL     1     -11.554  15.526  69.432  1.00  0.00    -0.355 A  
HETATM   10  O   UNL     1     -11.195  16.781  69.003  1.00  0.00    -0.228 OA 
BRANCH   8  11
HETATM   11  C   UNL     1     -11.224  13.179  68.451  1.00  0.00    -0.305 A  
HETATM   12  C   UNL     1     -11.438  12.435  69.619  1.00  0.00    -0.264 A  
HETATM   13  C   UNL     1     -11.058  12.487  67.241  1.00  0.00    -0.319 A  
HETATM   14  C   UNL     1     -11.515  11.039  69.575  1.00  0.00    -0.370 A  
HETATM   15  C   UNL     1     -11.120  11.090  67.198  1.00  0.00    -0.333 A  
HETATM   16  C   UNL     1     -11.352  10.367  68.366  1.00  0.00    -0.292 A  
ENDBRANCH   8  11
BRANCH   9  17
HETATM   17  C   UNL     1     -12.307  15.527  70.679  1.00  0.00    -0.462 A  
HETATM   18  C   UNL     1     -13.770  15.731  73.075  1.00  0.00    -0.583 A  
HETATM   19  C   UNL     1     -11.695  15.963  71.868  1.00  0.00    -0.590 A  
HETATM   20  C   UNL     1     -14.387  15.274  71.913  1.00  0.00    -0.691 A  
HETATM   21  C   UNL     1     -12.421  16.072  73.055  1.00  0.00    -0.614 A  
HETATM   22  C   UNL     1     -13.662  15.179  70.720  1.00  0.00    -0.244 A  
ENDBRANCH   9  17
ENDBRANCH   5   6
ENDBRANCH   4   5
TORSDOF 4
ENDMDL
MODEL       46
REMARK 921   NORMALIZED FREE ENERGY PREDICTED BY IDOCK:   -6.28 KCAL/MOL
REMARK 922        TOTAL FREE ENERGY PREDICTED BY IDOCK:   -8.56 KCAL/MOL
REMARK 923 INTER-LIGAND FREE ENERGY PREDICTED BY IDOCK:   -7.76 KCAL/MOL
REMARK 924 INTRA-LIGAND FREE ENERGY PREDICTED BY IDOCK:   -0.80 KCAL/MOL
REMARK 927      BINDING AFFINITY PREDICTED BY RF-SCORE:    0.00 PKD
ROOT
HETATM    1  O   UNL     1     -10.859   7.393  73.345  1.00  0.00    -0.388 OA 
HETATM    2  C   UNL     1     -11.324   7.774  72.134  1.00  0.00    -0.302 C  
HETATM    3  O   UNL     1     -12.507   7.695  71.838  1.00  0.00    -0.304 OA 
HETATM    4  C   UNL     1     -10.232   8.269  71.225  1.00  0.00    -0.253 C  
ENDROOT
BRANCH   4   5
HETATM    5  C   UNL     1     -10.801   8.689  69.871  1.00  0.00    -0.210 C  
BRANCH   5   6
HETATM    6  C   UNL     1     -11.100  10.143  69.830  1.00  0.00    -0.293 A  
HETATM    7  N   UNL     1     -11.707  10.900  70.716  1.00  0.00    -0.312 NA 
HETATM    8  C   UNL     1     -11.745  12.153  70.122  1.00  0.00    -0.218 A  
HETATM    9  C   UNL     1     -11.158  12.090  68.867  1.00  0.00    -0.247 A  
HETATM   10  O   UNL     1     -10.722  10.796  68.698  1.00  0.00    -0.181 OA 
BRANCH   8  11
HETATM   11  C   UNL     1     -12.340  13.300  70.794  1.00  0.00    -0.425 A  
HETATM   12  C   UNL     1     -12.037  14.619  70.429  1.00  0.00    -0.383 A  
HETATM   13  C   UNL     1     -13.208  13.092  71.879  1.00  0.00    -0.526 A  
HETATM   14  C   UNL     1     -12.608  15.700  71.108  1.00  0.00    -0.511 A  
HETATM   15  C   UNL     1     -13.767  14.173  72.568  1.00  0.00    -0.626 A  
HETATM   16  C   UNL     1     -13.469  15.477  72.179  1.00  0.00    -0.587 A  
ENDBRANCH   8  11
BRANCH   9  17
HETATM   17  C   UNL     1     -10.936  12.938  67.704  1.00  0.00    -0.274 A  
HETATM   18  C   UNL     1     -10.647  14.703  65.531  1.00  0.00    -0.369 A  
HETATM   19  C   UNL     1     -11.904  13.000  66.686  1.00  0.00    -0.455 A  
HETATM   20  C   UNL     1      -9.665  14.638  66.517  1.00  0.00    -0.297 A  
HETATM   21  C   UNL     1     -11.766  13.881  65.612  1.00  0.00    -0.362 A  
HETATM   22  C   UNL     1      -9.812  13.766  67.601  1.00  0.00    -0.234 A  
ENDBRANCH   9  17
ENDBRANCH   5   6
ENDBRANCH   4   5
TORSDOF 4
ENDMDL
MODEL       47
REMARK 921   NORMALIZED FREE ENERGY PREDICTED BY IDOCK:   -6.26 KCAL/MOL
REMARK 922        TOTAL FREE ENERGY PREDICTED BY IDOCK:   -8.54 KCAL/MOL
REMARK 923 INTER-LIGAND FREE ENERGY PREDICTED BY IDOCK:   -7.73 KCAL/MOL
REMARK 924 INTRA-LIGAND FREE ENERGY PREDICTED BY IDOCK:   -0.81 KCAL/MOL
REMARK 927      BINDING AFFINITY PREDICTED BY RF-SCORE:    0.00 PKD
ROOT
HETATM    1  O   UNL     1     -10.817  16.721  64.698  1.00  0.00    -0.835 OA 
HETATM    2  C   UNL     1     -11.329  15.490  64.473  1.00  0.00    -0.314 C  
HETATM    3  O   UNL     1     -12.399  15.325  63.906  1.00  0.00    -0.655 OA 
HETATM    4  C   UNL     1     -10.452  14.391  65.011  1.00  0.00    -0.454 C  
ENDROOT
BRANCH   4   5
HETATM    5  C   UNL     1     -11.067  13.021  64.734  1.00  0.00    -0.347 C  
BRANCH   5   6
HETATM    6  C   UNL     1     -10.976  12.131  65.918  1.00  0.00    -0.292 A  
HETATM    7  N   UNL     1     -10.492  10.913  66.018  1.00  0.00    -0.245 NA 
HETATM    8  C   UNL     1     -10.719  10.566  67.342  1.00  0.00    -0.281 A  
HETATM    9  C   UNL     1     -11.357  11.611  67.993  1.00  0.00    -0.296 A  
HETATM   10  O   UNL     1     -11.497  12.624  67.075  1.00  0.00    -0.306 OA 
BRANCH   8  11
HETATM   11  C   UNL     1     -10.313   9.271  67.873  1.00  0.00    -0.279 A  
HETATM   12  C   UNL     1      -9.432   9.152  68.956  1.00  0.00    -0.152 A  
HETATM   13  C   UNL     1     -10.773   8.097  67.256  1.00  0.00    -0.263 A  
HETATM   14  C   UNL     1      -9.043   7.894  69.430  1.00  0.00    -0.145 A  
HETATM   15  C   UNL     1     -10.374   6.838  67.720  1.00  0.00    -0.245 A  
HETATM   16  C   UNL     1      -9.512   6.739  68.809  1.00  0.00    -0.130 A  
ENDBRANCH   8  11
BRANCH   9  17
HETATM   17  C   UNL     1     -11.954  11.909  69.288  1.00  0.00    -0.342 A  
HETATM   18  C   UNL     1     -12.934  12.430  71.874  1.00  0.00    -0.407 A  
HETATM   19  C   UNL     1     -12.320  10.860  70.150  1.00  0.00    -0.399 A  
HETATM   20  C   UNL     1     -12.601  13.483  71.025  1.00  0.00    -0.438 A  
HETATM   21  C   UNL     1     -12.798  11.117  71.436  1.00  0.00    -0.544 A  
HETATM   22  C   UNL     1     -12.107  13.224  69.742  1.00  0.00    -0.355 A  
ENDBRANCH   9  17
ENDBRANCH   5   6
ENDBRANCH   4   5
TORSDOF 4
ENDMDL
MODEL       48
REMARK 921   NORMALIZED FREE ENERGY PREDICTED BY IDOCK:   -6.21 KCAL/MOL
REMARK 922        TOTAL FREE ENERGY PREDICTED BY IDOCK:   -8.48 KCAL/MOL
REMARK 923 INTER-LIGAND FREE ENERGY PREDICTED BY IDOCK:   -7.74 KCAL/MOL
REMARK 924 INTRA-LIGAND FREE ENERGY PREDICTED BY IDOCK:   -0.74 KCAL/MOL
REMARK 927      BINDING AFFINITY PREDICTED BY RF-SCORE:    0.00 PKD
ROOT
HETATM    1  O   UNL     1      -9.929  20.659  67.059  1.00  0.00    -0.441 OA 
HETATM    2  C   UNL     1     -10.170  19.485  66.434  1.00  0.00    -0.479 C  
HETATM    3  O   UNL     1     -10.800  19.423  65.389  1.00  0.00    -0.452 OA 
HETATM    4  C   UNL     1      -9.601  18.306  67.177  1.00  0.00    -0.281 C  
ENDROOT
BRANCH   4   5
HETATM    5  C   UNL     1      -9.895  17.004  66.434  1.00  0.00    -0.312 C  
BRANCH   5   6
HETATM    6  C   UNL     1     -10.456  15.972  67.342  1.00  0.00    -0.308 A  
HETATM    7  N   UNL     1     -11.195  16.114  68.420  1.00  0.00    -0.360 NA 
HETATM    8  C   UNL     1     -11.375  14.817  68.880  1.00  0.00    -0.282 A  
HETATM    9  C   UNL     1     -10.710  13.932  68.046  1.00  0.00    -0.247 A  
HETATM   10  O   UNL     1     -10.141  14.682  67.044  1.00  0.00    -0.245 OA 
BRANCH   8  11
HETATM   11  C   UNL     1     -12.161  14.533  70.074  1.00  0.00    -0.395 A  
HETATM   12  C   UNL     1     -12.305  13.234  70.579  1.00  0.00    -0.389 A  
HETATM   13  C   UNL     1     -12.842  15.578  70.718  1.00  0.00    -0.513 A  
HETATM   14  C   UNL     1     -13.084  12.989  71.716  1.00  0.00    -0.469 A  
HETATM   15  C   UNL     1     -13.633  15.332  71.845  1.00  0.00    -0.575 A  
HETATM   16  C   UNL     1     -13.750  14.037  72.345  1.00  0.00    -0.669 A  
ENDBRANCH   8  11
BRANCH   9  17
HETATM   17  C   UNL     1     -10.396  12.512  67.963  1.00  0.00    -0.226 A  
HETATM   18  C   UNL     1      -9.817   9.758  68.002  1.00  0.00    -0.173 A  
HETATM   19  C   UNL     1      -9.157  12.038  68.428  1.00  0.00    -0.158 A  
HETATM   20  C   UNL     1     -11.041  10.210  67.515  1.00  0.00    -0.251 A  
HETATM   21  C   UNL     1      -8.871  10.672  68.456  1.00  0.00    -0.148 A  
HETATM   22  C   UNL     1     -11.332  11.578  67.502  1.00  0.00    -0.366 A  
ENDBRANCH   9  17
ENDBRANCH   5   6
ENDBRANCH   4   5
TORSDOF 4
ENDMDL
MODEL       49
REMARK 921   NORMALIZED FREE ENERGY PREDICTED BY IDOCK:   -6.20 KCAL/MOL
REMARK 922        TOTAL FREE ENERGY PREDICTED BY IDOCK:   -8.46 KCAL/MOL
REMARK 923 INTER-LIGAND FREE ENERGY PREDICTED BY IDOCK:   -7.70 KCAL/MOL
REMARK 924 INTRA-LIGAND FREE ENERGY PREDICTED BY IDOCK:   -0.77 KCAL/MOL
REMARK 927      BINDING AFFINITY PREDICTED BY RF-SCORE:    0.00 PKD
ROOT
HETATM    1  O   UNL     1      -9.251  17.284  68.625  1.00  0.00    -0.265 OA 
HETATM    2  C   UNL     1     -10.418  16.626  68.451  1.00  0.00    -0.323 C  
HETATM    3  O   UNL     1     -10.958  16.537  67.358  1.00  0.00    -0.248 OA 
HETATM    4  C   UNL     1     -10.958  16.056  69.736  1.00  0.00    -0.334 C  
ENDROOT
BRANCH   4   5
HETATM    5  C   UNL     1     -12.274  15.320  69.493  1.00  0.00    -0.273 C  
BRANCH   5   6
HETATM    6  C   UNL     1     -12.093  13.847  69.529  1.00  0.00    -0.342 A  
HETATM    7  N   UNL     1     -12.232  13.009  70.532  1.00  0.00    -0.354 NA 
HETATM    8  C   UNL     1     -11.886  11.778  69.995  1.00  0.00    -0.342 A  
HETATM    9  C   UNL     1     -11.531  11.935  68.663  1.00  0.00    -0.294 A  
HETATM   10  O   UNL     1     -11.691  13.268  68.365  1.00  0.00    -0.313 OA 
BRANCH   8  11
HETATM   11  C   UNL     1     -11.918  10.560  70.793  1.00  0.00    -0.472 A  
HETATM   12  C   UNL     1     -10.760   9.823  71.076  1.00  0.00    -0.342 A  
HETATM   13  C   UNL     1     -13.149  10.070  71.257  1.00  0.00    -0.493 A  
HETATM   14  C   UNL     1     -10.826   8.644  71.828  1.00  0.00    -0.395 A  
HETATM   15  C   UNL     1     -13.218   8.883  71.995  1.00  0.00    -0.459 A  
HETATM   16  C   UNL     1     -12.055   8.174  72.283  1.00  0.00    -0.419 A  
ENDBRANCH   8  11
BRANCH   9  17
HETATM   17  C   UNL     1     -11.000  11.149  67.559  1.00  0.00    -0.331 A  
HETATM   18  C   UNL     1      -9.804   9.736  65.439  1.00  0.00    -0.365 A  
HETATM   19  C   UNL     1     -10.868  11.728  66.284  1.00  0.00    -0.325 A  
HETATM   20  C   UNL     1      -9.949   9.136  66.687  1.00  0.00    -0.343 A  
HETATM   21  C   UNL     1     -10.267  11.032  65.234  1.00  0.00    -0.344 A  
HETATM   22  C   UNL     1     -10.537   9.840  67.743  1.00  0.00    -0.320 A  
ENDBRANCH   9  17
ENDBRANCH   5   6
ENDBRANCH   4   5
TORSDOF 4
ENDMDL
MODEL       50
REMARK 921   NORMALIZED FREE ENERGY PREDICTED BY IDOCK:   -6.03 KCAL/MOL
REMARK 922        TOTAL FREE ENERGY PREDICTED BY IDOCK:   -8.25 KCAL/MOL
REMARK 923 INTER-LIGAND FREE ENERGY PREDICTED BY IDOCK:   -7.38 KCAL/MOL
REMARK 924 INTRA-LIGAND FREE ENERGY PREDICTED BY IDOCK:   -0.88 KCAL/MOL
REMARK 927      BINDING AFFINITY PREDICTED BY RF-SCORE:    0.00 PKD
ROOT
HETATM    1  O   UNL     1      -8.890   6.563  67.795  1.00  0.00    -0.115 OA 
HETATM    2  C   UNL     1      -9.977   7.116  68.379  1.00  0.00    -0.158 C  
HETATM    3  O   UNL     1     -11.114   6.850  68.018  1.00  0.00    -0.183 OA 
HETATM    4  C   UNL     1      -9.617   8.080  69.477  1.00  0.00    -0.164 C  
ENDROOT
BRANCH   4   5
HETATM    5  C   UNL     1     -10.873   8.678  70.108  1.00  0.00    -0.242 C  
BRANCH   5   6
HETATM    6  C   UNL     1     -11.144  10.045  69.598  1.00  0.00    -0.259 A  
HETATM    7  N   UNL     1     -10.839  10.585  68.440  1.00  0.00    -0.222 NA 
HETATM    8  C   UNL     1     -11.292  11.892  68.544  1.00  0.00    -0.276 A  
HETATM    9  C   UNL     1     -11.851  12.090  69.798  1.00  0.00    -0.331 A  
HETATM   10  O   UNL     1     -11.774  10.889  70.462  1.00  0.00    -0.318 OA 
BRANCH   8  11
HETATM   11  C   UNL     1     -11.151  12.840  67.447  1.00  0.00    -0.312 A  
HETATM   12  C   UNL     1     -12.133  12.987  66.458  1.00  0.00    -0.410 A  
HETATM   13  C   UNL     1      -9.976  13.601  67.338  1.00  0.00    -0.234 A  
HETATM   14  C   UNL     1     -11.960  13.891  65.404  1.00  0.00    -0.393 A  
HETATM   15  C   UNL     1      -9.796  14.494  66.276  1.00  0.00    -0.322 A  
HETATM   16  C   UNL     1     -10.790  14.641  65.312  1.00  0.00    -0.387 A  
ENDBRANCH   8  11
BRANCH   9  17
HETATM   17  C   UNL     1     -12.410  13.168  70.603  1.00  0.00    -0.405 A  
HETATM   18  C   UNL     1     -13.626  15.277  72.014  1.00  0.00    -0.571 A  
HETATM   19  C   UNL     1     -12.213  14.506  70.219  1.00  0.00    -0.391 A  
HETATM   20  C   UNL     1     -13.813  13.959  72.425  1.00  0.00    -0.668 A  
HETATM   21  C   UNL     1     -12.822  15.553  70.913  1.00  0.00    -0.535 A  
HETATM   22  C   UNL     1     -13.214  12.910  71.720  1.00  0.00    -0.479 A  
ENDBRANCH   9  17
ENDBRANCH   5   6
ENDBRANCH   4   5
TORSDOF 4
ENDMDL
MODEL       51
REMARK 921   NORMALIZED FREE ENERGY PREDICTED BY IDOCK:   -6.03 KCAL/MOL
REMARK 922        TOTAL FREE ENERGY PREDICTED BY IDOCK:   -8.25 KCAL/MOL
REMARK 923 INTER-LIGAND FREE ENERGY PREDICTED BY IDOCK:   -7.60 KCAL/MOL
REMARK 924 INTRA-LIGAND FREE ENERGY PREDICTED BY IDOCK:   -0.65 KCAL/MOL
REMARK 927      BINDING AFFINITY PREDICTED BY RF-SCORE:    0.00 PKD
ROOT
HETATM    1  O   UNL     1     -12.576  15.068  73.939  1.00  0.00    -0.535 OA 
HETATM    2  C   UNL     1     -12.313  15.406  72.657  1.00  0.00    -0.396 C  
HETATM    3  O   UNL     1     -11.804  16.476  72.358  1.00  0.00    -0.532 OA 
HETATM    4  C   UNL     1     -12.732  14.339  71.680  1.00  0.00    -0.430 C  
ENDROOT
BRANCH   4   5
HETATM    5  C   UNL     1     -12.415  14.762  70.247  1.00  0.00    -0.393 C  
BRANCH   5   6
HETATM    6  C   UNL     1     -11.991  13.606  69.418  1.00  0.00    -0.342 A  
HETATM    7  N   UNL     1     -11.501  12.443  69.785  1.00  0.00    -0.202 NA 
HETATM    8  C   UNL     1     -11.243  11.790  68.589  1.00  0.00    -0.257 A  
HETATM    9  C   UNL     1     -11.586  12.614  67.527  1.00  0.00    -0.359 A  
HETATM   10  O   UNL     1     -12.090  13.772  68.070  1.00  0.00    -0.362 OA 
BRANCH   8  11
HETATM   11  C   UNL     1     -10.692  10.442  68.558  1.00  0.00    -0.255 A  
HETATM   12  C   UNL     1     -10.001   9.893  69.647  1.00  0.00    -0.255 A  
HETATM   13  C   UNL     1     -10.804   9.676  67.386  1.00  0.00    -0.242 A  
HETATM   14  C   UNL     1      -9.464   8.603  69.578  1.00  0.00    -0.162 A  
HETATM   15  C   UNL     1     -10.254   8.392  67.312  1.00  0.00    -0.349 A  
HETATM   16  C   UNL     1      -9.588   7.856  68.410  1.00  0.00    -0.155 A  
ENDBRANCH   8  11
BRANCH   9  17
HETATM   17  C   UNL     1     -11.509  12.635  66.073  1.00  0.00    -0.414 A  
HETATM   18  C   UNL     1     -11.330  12.478  63.269  1.00  0.00    -0.362 A  
HETATM   19  C   UNL     1     -10.266  12.481  65.433  1.00  0.00    -0.303 A  
HETATM   20  C   UNL     1     -12.567  12.655  63.883  1.00  0.00    -0.432 A  
HETATM   21  C   UNL     1     -10.177  12.394  64.043  1.00  0.00    -0.401 A  
HETATM   22  C   UNL     1     -12.657  12.726  65.277  1.00  0.00    -0.460 A  
ENDBRANCH   9  17
ENDBRANCH   5   6
ENDBRANCH   4   5
TORSDOF 4
ENDMDL
MODEL       52
REMARK 921   NORMALIZED FREE ENERGY PREDICTED BY IDOCK:   -6.00 KCAL/MOL
REMARK 922        TOTAL FREE ENERGY PREDICTED BY IDOCK:   -8.21 KCAL/MOL
REMARK 923 INTER-LIGAND FREE ENERGY PREDICTED BY IDOCK:   -7.38 KCAL/MOL
REMARK 924 INTRA-LIGAND FREE ENERGY PREDICTED BY IDOCK:   -0.83 KCAL/MOL
REMARK 927      BINDING AFFINITY PREDICTED BY RF-SCORE:    0.00 PKD
ROOT
HETATM    1  O   UNL     1     -12.076  16.007  63.921  1.00  0.00    -0.880 OA 
HETATM    2  C   UNL     1     -12.280  14.681  64.083  1.00  0.00    -0.315 C  
HETATM    3  O   UNL     1     -12.648  13.963  63.165  1.00  0.00    -0.775 OA 
HETATM    4  C   UNL     1     -12.024  14.224  65.494  1.00  0.00    -0.386 C  
ENDROOT
BRANCH   4   5
HETATM    5  C   UNL     1     -12.265  12.722  65.631  1.00  0.00    -0.503 C  
BRANCH   5   6
HETATM    6  C   UNL     1     -11.414  12.126  66.691  1.00  0.00    -0.365 A  
HETATM    7  N   UNL     1     -10.122  11.887  66.696  1.00  0.00    -0.198 NA 
HETATM    8  C   UNL     1      -9.893  11.279  67.922  1.00  0.00    -0.176 A  
HETATM    9  C   UNL     1     -11.090  11.164  68.613  1.00  0.00    -0.239 A  
HETATM   10  O   UNL     1     -12.061  11.734  67.823  1.00  0.00    -0.595 OA 
BRANCH   8  11
HETATM   11  C   UNL     1      -8.560  10.858  68.330  1.00  0.00    -0.139 A  
HETATM   12  C   UNL     1      -7.604  11.765  68.807  1.00  0.00    -0.104 A  
HETATM   13  C   UNL     1      -8.191   9.510  68.197  1.00  0.00    -0.114 A  
HETATM   14  C   UNL     1      -6.324  11.333  69.171  1.00  0.00    -0.064 A  
HETATM   15  C   UNL     1      -6.906   9.079  68.546  1.00  0.00    -0.064 A  
HETATM   16  C   UNL     1      -5.975   9.992  69.036  1.00  0.00    -0.037 A  
ENDBRANCH   8  11
BRANCH   9  17
HETATM   17  C   UNL     1     -11.606  10.582  69.844  1.00  0.00    -0.384 A  
HETATM   18  C   UNL     1     -12.774   9.422  72.127  1.00  0.00    -0.460 A  
HETATM   19  C   UNL     1     -12.560  11.281  70.605  1.00  0.00    -0.377 A  
HETATM   20  C   UNL     1     -11.813   8.724  71.401  1.00  0.00    -0.369 A  
HETATM   21  C   UNL     1     -13.147  10.704  71.733  1.00  0.00    -0.571 A  
HETATM   22  C   UNL     1     -11.237   9.297  70.262  1.00  0.00    -0.267 A  
ENDBRANCH   9  17
ENDBRANCH   5   6
ENDBRANCH   4   5
TORSDOF 4
ENDMDL
MODEL       53
REMARK 921   NORMALIZED FREE ENERGY PREDICTED BY IDOCK:   -5.97 KCAL/MOL
REMARK 922        TOTAL FREE ENERGY PREDICTED BY IDOCK:   -8.17 KCAL/MOL
REMARK 923 INTER-LIGAND FREE ENERGY PREDICTED BY IDOCK:   -7.25 KCAL/MOL
REMARK 924 INTRA-LIGAND FREE ENERGY PREDICTED BY IDOCK:   -0.92 KCAL/MOL
REMARK 927      BINDING AFFINITY PREDICTED BY RF-SCORE:    0.00 PKD
ROOT
HETATM    1  O   UNL     1     -13.276   7.795  71.756  1.00  0.00    -0.328 OA 
HETATM    2  C   UNL     1     -12.556   8.939  71.747  1.00  0.00    -0.361 C  
HETATM    3  O   UNL     1     -11.449   9.014  72.259  1.00  0.00    -0.323 OA 
HETATM    4  C   UNL     1     -13.278  10.072  71.067  1.00  0.00    -0.399 C  
ENDROOT
BRANCH   4   5
HETATM    5  C   UNL     1     -12.429  11.342  71.079  1.00  0.00    -0.503 C  
BRANCH   5   6
HETATM    6  C   UNL     1     -11.931  11.679  69.722  1.00  0.00    -0.332 A  
HETATM    7  N   UNL     1     -12.050  12.794  69.037  1.00  0.00    -0.219 NA 
HETATM    8  C   UNL     1     -11.438  12.514  67.823  1.00  0.00    -0.321 A  
HETATM    9  C   UNL     1     -10.978  11.205  67.827  1.00  0.00    -0.262 A  
HETATM   10  O   UNL     1     -11.278  10.683  69.063  1.00  0.00    -0.230 OA 
BRANCH   8  11
HETATM   11  C   UNL     1     -11.347  13.511  66.766  1.00  0.00    -0.351 A  
HETATM   12  C   UNL     1     -12.291  13.592  65.733  1.00  0.00    -0.516 A  
HETATM   13  C   UNL     1     -10.254  14.393  66.740  1.00  0.00    -0.270 A  
HETATM   14  C   UNL     1     -12.164  14.547  64.719  1.00  0.00    -0.441 A  
HETATM   15  C   UNL     1     -10.118  15.338  65.718  1.00  0.00    -0.384 A  
HETATM   16  C   UNL     1     -11.076  15.416  64.710  1.00  0.00    -0.416 A  
ENDBRANCH   8  11
BRANCH   9  17
HETATM   17  C   UNL     1     -10.359  10.247  66.922  1.00  0.00    -0.298 A  
HETATM   18  C   UNL     1      -8.984   8.479  65.218  1.00  0.00    -0.102 A  
HETATM   19  C   UNL     1      -9.870  10.675  65.674  1.00  0.00    -0.307 A  
HETATM   20  C   UNL     1      -9.482   8.030  66.438  1.00  0.00    -0.268 A  
HETATM   21  C   UNL     1      -9.181   9.801  64.832  1.00  0.00    -0.314 A  
HETATM   22  C   UNL     1     -10.160   8.911  67.289  1.00  0.00    -0.303 A  
ENDBRANCH   9  17
ENDBRANCH   5   6
ENDBRANCH   4   5
TORSDOF 4
ENDMDL
MODEL       54
REMARK 921   NORMALIZED FREE ENERGY PREDICTED BY IDOCK:   -5.97 KCAL/MOL
REMARK 922        TOTAL FREE ENERGY PREDICTED BY IDOCK:   -8.17 KCAL/MOL
REMARK 923 INTER-LIGAND FREE ENERGY PREDICTED BY IDOCK:   -7.52 KCAL/MOL
REMARK 924 INTRA-LIGAND FREE ENERGY PREDICTED BY IDOCK:   -0.65 KCAL/MOL
REMARK 927      BINDING AFFINITY PREDICTED BY RF-SCORE:    0.00 PKD
ROOT
HETATM    1  O   UNL     1      -9.817   5.941  73.990  1.00  0.00    -0.166 OA 
HETATM    2  C   UNL     1     -10.836   6.237  73.153  1.00  0.00    -0.254 C  
HETATM    3  O   UNL     1     -11.687   5.414  72.849  1.00  0.00    -0.297 OA 
HETATM    4  C   UNL     1     -10.778   7.654  72.649  1.00  0.00    -0.377 C  
ENDROOT
BRANCH   4   5
HETATM    5  C   UNL     1     -11.948   7.945  71.711  1.00  0.00    -0.337 C  
BRANCH   5   6
HETATM    6  C   UNL     1     -11.939   9.354  71.245  1.00  0.00    -0.353 A  
HETATM    7  N   UNL     1     -12.531  10.411  71.754  1.00  0.00    -0.362 NA 
HETATM    8  C   UNL     1     -12.212  11.436  70.875  1.00  0.00    -0.344 A  
HETATM    9  C   UNL     1     -11.432  10.935  69.842  1.00  0.00    -0.323 A  
HETATM   10  O   UNL     1     -11.240   9.599  70.102  1.00  0.00    -0.245 OA 
BRANCH   8  11
HETATM   11  C   UNL     1     -12.677  12.799  71.089  1.00  0.00    -0.355 A  
HETATM   12  C   UNL     1     -13.636  13.116  72.060  1.00  0.00    -0.554 A  
HETATM   13  C   UNL     1     -12.193  13.831  70.269  1.00  0.00    -0.429 A  
HETATM   14  C   UNL     1     -14.079  14.433  72.228  1.00  0.00    -0.609 A  
HETATM   15  C   UNL     1     -12.646  15.146  70.426  1.00  0.00    -0.405 A  
HETATM   16  C   UNL     1     -13.586  15.445  71.409  1.00  0.00    -0.604 A  
ENDBRANCH   8  11
BRANCH   9  17
HETATM   17  C   UNL     1     -10.841  11.378  68.587  1.00  0.00    -0.249 A  
HETATM   18  C   UNL     1      -9.630  12.046  66.136  1.00  0.00    -0.252 A  
HETATM   19  C   UNL     1      -9.448  11.546  68.488  1.00  0.00    -0.175 A  
HETATM   20  C   UNL     1     -11.014  11.908  66.220  1.00  0.00    -0.345 A  
HETATM   21  C   UNL     1      -8.846  11.869  67.271  1.00  0.00    -0.179 A  
HETATM   22  C   UNL     1     -11.615  11.569  67.436  1.00  0.00    -0.307 A  
ENDBRANCH   9  17
ENDBRANCH   5   6
ENDBRANCH   4   5
TORSDOF 4
ENDMDL
MODEL       55
REMARK 921   NORMALIZED FREE ENERGY PREDICTED BY IDOCK:   -5.95 KCAL/MOL
REMARK 922        TOTAL FREE ENERGY PREDICTED BY IDOCK:   -8.15 KCAL/MOL
REMARK 923 INTER-LIGAND FREE ENERGY PREDICTED BY IDOCK:   -7.28 KCAL/MOL
REMARK 924 INTRA-LIGAND FREE ENERGY PREDICTED BY IDOCK:   -0.87 KCAL/MOL
REMARK 927      BINDING AFFINITY PREDICTED BY RF-SCORE:    0.00 PKD
ROOT
HETATM    1  O   UNL     1     -12.375  14.944  64.369  1.00  0.00    -0.490 OA 
HETATM    2  C   UNL     1     -12.000  13.679  64.076  1.00  0.00    -0.431 C  
HETATM    3  O   UNL     1     -12.789  12.850  63.647  1.00  0.00    -0.692 OA 
HETATM    4  C   UNL     1     -10.542  13.428  64.355  1.00  0.00    -0.423 C  
ENDROOT
BRANCH   4   5
HETATM    5  C   UNL     1     -10.163  11.990  64.009  1.00  0.00    -0.391 C  
BRANCH   5   6
HETATM    6  C   UNL     1     -10.215  11.108  65.201  1.00  0.00    -0.289 A  
HETATM    7  N   UNL     1      -9.883   9.842  65.325  1.00  0.00    -0.317 NA 
HETATM    8  C   UNL     1     -10.190   9.538  66.643  1.00  0.00    -0.240 A  
HETATM    9  C   UNL     1     -10.720  10.658  67.267  1.00  0.00    -0.285 A  
HETATM   10  O   UNL     1     -10.709  11.672  66.337  1.00  0.00    -0.251 OA 
BRANCH   8  11
HETATM   11  C   UNL     1      -9.958   8.210  67.195  1.00  0.00    -0.304 A  
HETATM   12  C   UNL     1     -10.933   7.204  67.155  1.00  0.00    -0.342 A  
HETATM   13  C   UNL     1      -8.740   7.932  67.836  1.00  0.00    -0.124 A  
HETATM   14  C   UNL     1     -10.688   5.945  67.713  1.00  0.00    -0.346 A  
HETATM   15  C   UNL     1      -8.499   6.678  68.408  1.00  0.00    -0.125 A  
HETATM   16  C   UNL     1      -9.473   5.684  68.342  1.00  0.00    -0.142 A  
ENDBRANCH   8  11
BRANCH   9  17
HETATM   17  C   UNL     1     -11.317  11.038  68.539  1.00  0.00    -0.355 A  
HETATM   18  C   UNL     1     -12.288  11.770  71.078  1.00  0.00    -0.386 A  
HETATM   19  C   UNL     1     -11.418  10.094  69.577  1.00  0.00    -0.227 A  
HETATM   20  C   UNL     1     -12.219  12.713  70.055  1.00  0.00    -0.267 A  
HETATM   21  C   UNL     1     -11.892  10.458  70.839  1.00  0.00    -0.475 A  
HETATM   22  C   UNL     1     -11.730  12.351  68.795  1.00  0.00    -0.379 A  
ENDBRANCH   9  17
ENDBRANCH   5   6
ENDBRANCH   4   5
TORSDOF 4
ENDMDL
MODEL       56
REMARK 921   NORMALIZED FREE ENERGY PREDICTED BY IDOCK:   -5.94 KCAL/MOL
REMARK 922        TOTAL FREE ENERGY PREDICTED BY IDOCK:   -8.13 KCAL/MOL
REMARK 923 INTER-LIGAND FREE ENERGY PREDICTED BY IDOCK:   -7.18 KCAL/MOL
REMARK 924 INTRA-LIGAND FREE ENERGY PREDICTED BY IDOCK:   -0.95 KCAL/MOL
REMARK 927      BINDING AFFINITY PREDICTED BY RF-SCORE:    0.00 PKD
ROOT
HETATM    1  O   UNL     1     -12.304  12.267  64.009  1.00  0.00    -0.443 OA 
HETATM    2  C   UNL     1     -12.553  12.944  65.152  1.00  0.00    -0.471 C  
HETATM    3  O   UNL     1     -13.389  13.834  65.211  1.00  0.00    -0.710 OA 
HETATM    4  C   UNL     1     -11.685  12.490  66.295  1.00  0.00    -0.462 C  
ENDROOT
BRANCH   4   5
HETATM    5  C   UNL     1     -12.002  13.279  67.564  1.00  0.00    -0.371 C  
BRANCH   5   6
HETATM    6  C   UNL     1     -11.173  14.506  67.666  1.00  0.00    -0.322 A  
HETATM    7  N   UNL     1     -11.479  15.752  67.385  1.00  0.00    -0.110 NA 
HETATM    8  C   UNL     1     -10.305  16.452  67.622  1.00  0.00    -0.284 A  
HETATM    9  C   UNL     1      -9.315  15.572  68.034  1.00  0.00    -0.193 A  
HETATM   10  O   UNL     1      -9.890  14.324  68.083  1.00  0.00    -0.214 OA 
BRANCH   8  11
HETATM   11  C   UNL     1     -10.224  17.895  67.435  1.00  0.00    -0.363 A  
HETATM   12  C   UNL     1     -10.174  18.480  66.163  1.00  0.00    -0.424 A  
HETATM   13  C   UNL     1     -10.141  18.734  68.558  1.00  0.00    -0.444 A  
HETATM   14  C   UNL     1     -10.074  19.868  66.015  1.00  0.00    -0.589 A  
HETATM   15  C   UNL     1     -10.027  20.120  68.411  1.00  0.00    -0.410 A  
HETATM   16  C   UNL     1      -9.997  20.686  67.139  1.00  0.00    -0.427 A  
ENDBRANCH   8  11
BRANCH   9  17
HETATM   17  C   UNL     1      -7.894  15.574  68.350  1.00  0.00    -0.126 A  
HETATM   18  C   UNL     1      -5.157  15.779  68.975  1.00  0.00    -0.100 A  
HETATM   19  C   UNL     1      -6.962  16.017  67.394  1.00  0.00    -0.223 A  
HETATM   20  C   UNL     1      -6.061  15.315  69.928  1.00  0.00    -0.151 A  
HETATM   21  C   UNL     1      -5.606  16.127  67.705  1.00  0.00    -0.167 A  
HETATM   22  C   UNL     1      -7.422  15.220  69.620  1.00  0.00    -0.181 A  
ENDBRANCH   9  17
ENDBRANCH   5   6
ENDBRANCH   4   5
TORSDOF 4
ENDMDL
MODEL       57
REMARK 921   NORMALIZED FREE ENERGY PREDICTED BY IDOCK:   -5.93 KCAL/MOL
REMARK 922        TOTAL FREE ENERGY PREDICTED BY IDOCK:   -8.12 KCAL/MOL
REMARK 923 INTER-LIGAND FREE ENERGY PREDICTED BY IDOCK:   -7.20 KCAL/MOL
REMARK 924 INTRA-LIGAND FREE ENERGY PREDICTED BY IDOCK:   -0.92 KCAL/MOL
REMARK 927      BINDING AFFINITY PREDICTED BY RF-SCORE:    0.00 PKD
ROOT
HETATM    1  O   UNL     1      -8.722   7.177  70.629  1.00  0.00    -0.145 OA 
HETATM    2  C   UNL     1      -9.958   7.659  70.368  1.00  0.00    -0.188 C  
HETATM    3  O   UNL     1     -10.822   6.978  69.838  1.00  0.00    -0.235 OA 
HETATM    4  C   UNL     1     -10.117   9.098  70.783  1.00  0.00    -0.333 C  
ENDROOT
BRANCH   4   5
HETATM    5  C   UNL     1     -11.526   9.599  70.472  1.00  0.00    -0.352 C  
BRANCH   5   6
HETATM    6  C   UNL     1     -11.516  10.634  69.408  1.00  0.00    -0.286 A  
HETATM    7  N   UNL     1     -11.562  10.497  68.102  1.00  0.00    -0.409 NA 
HETATM    8  C   UNL     1     -11.470  11.795  67.620  1.00  0.00    -0.300 A  
HETATM    9  C   UNL     1     -11.357  12.677  68.684  1.00  0.00    -0.291 A  
HETATM   10  O   UNL     1     -11.413  11.924  69.833  1.00  0.00    -0.265 OA 
BRANCH   8  11
HETATM   11  C   UNL     1     -11.494  12.084  66.193  1.00  0.00    -0.401 A  
HETATM   12  C   UNL     1     -12.397  12.998  65.632  1.00  0.00    -0.504 A  
HETATM   13  C   UNL     1     -10.624  11.394  65.334  1.00  0.00    -0.333 A  
HETATM   14  C   UNL     1     -12.410  13.238  64.254  1.00  0.00    -0.406 A  
HETATM   15  C   UNL     1     -10.647  11.623  63.953  1.00  0.00    -0.446 A  
HETATM   16  C   UNL     1     -11.538  12.548  63.416  1.00  0.00    -0.547 A  
ENDBRANCH   8  11
BRANCH   9  17
HETATM   17  C   UNL     1     -11.140  14.097  68.927  1.00  0.00    -0.288 A  
HETATM   18  C   UNL     1     -10.604  16.789  69.549  1.00  0.00    -0.283 A  
HETATM   19  C   UNL     1     -11.753  14.723  70.027  1.00  0.00    -0.344 A  
HETATM   20  C   UNL     1     -10.007  16.193  68.441  1.00  0.00    -0.230 A  
HETATM   21  C   UNL     1     -11.482  16.056  70.342  1.00  0.00    -0.392 A  
HETATM   22  C   UNL     1     -10.268  14.854  68.135  1.00  0.00    -0.226 A  
ENDBRANCH   9  17
ENDBRANCH   5   6
ENDBRANCH   4   5
TORSDOF 4
ENDMDL
MODEL       58
REMARK 921   NORMALIZED FREE ENERGY PREDICTED BY IDOCK:   -5.89 KCAL/MOL
REMARK 922        TOTAL FREE ENERGY PREDICTED BY IDOCK:   -8.08 KCAL/MOL
REMARK 923 INTER-LIGAND FREE ENERGY PREDICTED BY IDOCK:   -7.72 KCAL/MOL
REMARK 924 INTRA-LIGAND FREE ENERGY PREDICTED BY IDOCK:   -0.36 KCAL/MOL
REMARK 927      BINDING AFFINITY PREDICTED BY RF-SCORE:    0.00 PKD
ROOT
HETATM    1  O   UNL     1      -9.871  18.418  66.476  1.00  0.00    -0.324 OA 
HETATM    2  C   UNL     1      -9.761  17.098  66.206  1.00  0.00    -0.278 C  
HETATM    3  O   UNL     1      -8.740  16.614  65.740  1.00  0.00    -0.482 OA 
HETATM    4  C   UNL     1     -11.019  16.335  66.523  1.00  0.00    -0.007 C  
ENDROOT
BRANCH   4   5
HETATM    5  C   UNL     1     -10.848  14.850  66.205  1.00  0.00    -0.331 C  
BRANCH   5   6
HETATM    6  C   UNL     1     -11.055  14.006  67.409  1.00  0.00    -0.303 A  
HETATM    7  N   UNL     1     -10.937  12.705  67.551  1.00  0.00    -0.238 NA 
HETATM    8  C   UNL     1     -11.300  12.474  68.870  1.00  0.00    -0.297 A  
HETATM    9  C   UNL     1     -11.642  13.675  69.474  1.00  0.00    -0.301 A  
HETATM   10  O   UNL     1     -11.457  14.660  68.533  1.00  0.00    -0.273 OA 
BRANCH   8  11
HETATM   11  C   UNL     1     -11.295  11.134  69.442  1.00  0.00    -0.352 A  
HETATM   12  C   UNL     1     -10.701  10.047  68.787  1.00  0.00    -0.250 A  
HETATM   13  C   UNL     1     -11.946  10.902  70.664  1.00  0.00    -0.467 A  
HETATM   14  C   UNL     1     -10.731   8.767  69.351  1.00  0.00    -0.180 A  
HETATM   15  C   UNL     1     -11.989   9.619  71.222  1.00  0.00    -0.462 A  
HETATM   16  C   UNL     1     -11.378   8.554  70.565  1.00  0.00    -0.235 A  
ENDBRANCH   8  11
BRANCH   9  17
HETATM   17  C   UNL     1     -12.179  14.166  70.736  1.00  0.00    -0.435 A  
HETATM   18  C   UNL     1     -13.294  15.270  73.073  1.00  0.00    -0.610 A  
HETATM   19  C   UNL     1     -11.606  15.294  71.351  1.00  0.00    -0.446 A  
HETATM   20  C   UNL     1     -13.861  14.137  72.492  1.00  0.00    -0.590 A  
HETATM   21  C   UNL     1     -12.163  15.847  72.505  1.00  0.00    -0.597 A  
HETATM   22  C   UNL     1     -13.311  13.593  71.327  1.00  0.00    -0.259 A  
ENDBRANCH   9  17
ENDBRANCH   5   6
ENDBRANCH   4   5
TORSDOF 4
ENDMDL
MODEL       59
REMARK 921   NORMALIZED FREE ENERGY PREDICTED BY IDOCK:   -5.88 KCAL/MOL
REMARK 922        TOTAL FREE ENERGY PREDICTED BY IDOCK:   -8.06 KCAL/MOL
REMARK 923 INTER-LIGAND FREE ENERGY PREDICTED BY IDOCK:   -7.21 KCAL/MOL
REMARK 924 INTRA-LIGAND FREE ENERGY PREDICTED BY IDOCK:   -0.85 KCAL/MOL
REMARK 927      BINDING AFFINITY PREDICTED BY RF-SCORE:    0.00 PKD
ROOT
HETATM    1  O   UNL     1     -10.569  15.801  64.709  1.00  0.00    -0.504 OA 
HETATM    2  C   UNL     1     -10.848  15.652  66.023  1.00  0.00    -0.275 C  
HETATM    3  O   UNL     1     -10.474  16.457  66.862  1.00  0.00    -0.302 OA 
HETATM    4  C   UNL     1     -11.634  14.400  66.309  1.00  0.00    -0.377 C  
ENDROOT
BRANCH   4   5
HETATM    5  C   UNL     1     -11.928  14.273  67.802  1.00  0.00    -0.384 C  
BRANCH   5   6
HETATM    6  C   UNL     1     -11.684  12.894  68.293  1.00  0.00    -0.350 A  
HETATM    7  N   UNL     1     -11.901  12.374  69.480  1.00  0.00    -0.310 NA 
HETATM    8  C   UNL     1     -11.436  11.071  69.370  1.00  0.00    -0.294 A  
HETATM    9  C   UNL     1     -10.935  10.863  68.094  1.00  0.00    -0.249 A  
HETATM   10  O   UNL     1     -11.122  12.035  67.399  1.00  0.00    -0.248 OA 
BRANCH   8  11
HETATM   11  C   UNL     1     -11.505  10.139  70.487  1.00  0.00    -0.417 A  
HETATM   12  C   UNL     1     -10.374   9.463  70.965  1.00  0.00    -0.382 A  
HETATM   13  C   UNL     1     -12.748   9.860  71.079  1.00  0.00    -0.425 A  
HETATM   14  C   UNL     1     -10.476   8.557  72.026  1.00  0.00    -0.407 A  
HETATM   15  C   UNL     1     -12.853   8.943  72.130  1.00  0.00    -0.471 A  
HETATM   16  C   UNL     1     -11.715   8.295  72.605  1.00  0.00    -0.406 A  
ENDBRANCH   8  11
BRANCH   9  17
HETATM   17  C   UNL     1     -10.242   9.835  67.331  1.00  0.00    -0.284 A  
HETATM   18  C   UNL     1      -9.072   7.818  65.755  1.00  0.00    -0.063 A  
HETATM   19  C   UNL     1     -10.523   8.477  67.564  1.00  0.00    -0.328 A  
HETATM   20  C   UNL     1      -8.761   9.155  65.525  1.00  0.00    -0.210 A  
HETATM   21  C   UNL     1      -9.951   7.476  66.778  1.00  0.00    -0.307 A  
HETATM   22  C   UNL     1      -9.347  10.159  66.303  1.00  0.00    -0.214 A  
ENDBRANCH   9  17
ENDBRANCH   5   6
ENDBRANCH   4   5
TORSDOF 4
ENDMDL
MODEL       60
REMARK 921   NORMALIZED FREE ENERGY PREDICTED BY IDOCK:   -5.87 KCAL/MOL
REMARK 922        TOTAL FREE ENERGY PREDICTED BY IDOCK:   -8.05 KCAL/MOL
REMARK 923 INTER-LIGAND FREE ENERGY PREDICTED BY IDOCK:   -7.20 KCAL/MOL
REMARK 924 INTRA-LIGAND FREE ENERGY PREDICTED BY IDOCK:   -0.84 KCAL/MOL
REMARK 927      BINDING AFFINITY PREDICTED BY RF-SCORE:    0.00 PKD
ROOT
HETATM    1  O   UNL     1     -12.979   7.774  71.818  1.00  0.00    -0.322 OA 
HETATM    2  C   UNL     1     -12.313   8.927  71.583  1.00  0.00    -0.343 C  
HETATM    3  O   UNL     1     -11.167   9.105  71.968  1.00  0.00    -0.364 OA 
HETATM    4  C   UNL     1     -13.143   9.933  70.831  1.00  0.00    -0.344 C  
ENDROOT
BRANCH   4   5
HETATM    5  C   UNL     1     -12.351  11.216  70.587  1.00  0.00    -0.482 C  
BRANCH   5   6
HETATM    6  C   UNL     1     -11.810  11.270  69.206  1.00  0.00    -0.354 A  
HETATM    7  N   UNL     1     -11.142  10.363  68.530  1.00  0.00    -0.263 NA 
HETATM    8  C   UNL     1     -10.854  10.982  67.323  1.00  0.00    -0.281 A  
HETATM    9  C   UNL     1     -11.363  12.273  67.331  1.00  0.00    -0.325 A  
HETATM   10  O   UNL     1     -11.998  12.441  68.538  1.00  0.00    -0.318 OA 
BRANCH   8  11
HETATM   11  C   UNL     1     -10.119  10.297  66.268  1.00  0.00    -0.300 A  
HETATM   12  C   UNL     1     -10.059  10.792  64.958  1.00  0.00    -0.377 A  
HETATM   13  C   UNL     1      -9.488   9.075  66.548  1.00  0.00    -0.266 A  
HETATM   14  C   UNL     1      -9.362  10.100  63.962  1.00  0.00    -0.339 A  
HETATM   15  C   UNL     1      -8.804   8.374  65.548  1.00  0.00    -0.172 A  
HETATM   16  C   UNL     1      -8.739   8.891  64.256  1.00  0.00    -0.095 A  
ENDBRANCH   8  11
BRANCH   9  17
HETATM   17  C   UNL     1     -11.362  13.468  66.498  1.00  0.00    -0.340 A  
HETATM   18  C   UNL     1     -11.218  15.692  64.780  1.00  0.00    -0.391 A  
HETATM   19  C   UNL     1     -10.298  14.383  66.584  1.00  0.00    -0.275 A  
HETATM   20  C   UNL     1     -12.293  14.810  64.696  1.00  0.00    -0.346 A  
HETATM   21  C   UNL     1     -10.221  15.482  65.727  1.00  0.00    -0.390 A  
HETATM   22  C   UNL     1     -12.362  13.701  65.545  1.00  0.00    -0.519 A  
ENDBRANCH   9  17
ENDBRANCH   5   6
ENDBRANCH   4   5
TORSDOF 4
ENDMDL
MODEL       61
REMARK 921   NORMALIZED FREE ENERGY PREDICTED BY IDOCK:   -5.85 KCAL/MOL
REMARK 922        TOTAL FREE ENERGY PREDICTED BY IDOCK:   -8.03 KCAL/MOL
REMARK 923 INTER-LIGAND FREE ENERGY PREDICTED BY IDOCK:   -7.05 KCAL/MOL
REMARK 924 INTRA-LIGAND FREE ENERGY PREDICTED BY IDOCK:   -0.97 KCAL/MOL
REMARK 927      BINDING AFFINITY PREDICTED BY RF-SCORE:    0.00 PKD
ROOT
HETATM    1  O   UNL     1     -10.385   6.558  71.441  1.00  0.00    -0.203 OA 
HETATM    2  C   UNL     1      -9.810   7.157  70.375  1.00  0.00    -0.176 C  
HETATM    3  O   UNL     1      -8.618   7.424  70.345  1.00  0.00    -0.140 OA 
HETATM    4  C   UNL     1     -10.796   7.459  69.278  1.00  0.00    -0.153 C  
ENDROOT
BRANCH   4   5
HETATM    5  C   UNL     1     -10.102   8.132  68.095  1.00  0.00    -0.237 C  
BRANCH   5   6
HETATM    6  C   UNL     1     -10.565   9.531  67.914  1.00  0.00    -0.244 A  
HETATM    7  N   UNL     1     -10.442  10.328  66.877  1.00  0.00    -0.237 NA 
HETATM    8  C   UNL     1     -11.013  11.521  67.296  1.00  0.00    -0.271 A  
HETATM    9  C   UNL     1     -11.454  11.390  68.605  1.00  0.00    -0.296 A  
HETATM   10  O   UNL     1     -11.184  10.097  68.987  1.00  0.00    -0.223 OA 
BRANCH   8  11
HETATM   11  C   UNL     1     -11.088  12.682  66.420  1.00  0.00    -0.325 A  
HETATM   12  C   UNL     1     -10.046  13.615  66.327  1.00  0.00    -0.301 A  
HETATM   13  C   UNL     1     -12.258  12.914  65.678  1.00  0.00    -0.519 A  
HETATM   14  C   UNL     1     -10.157  14.732  65.492  1.00  0.00    -0.409 A  
HETATM   15  C   UNL     1     -12.375  14.039  64.854  1.00  0.00    -0.447 A  
HETATM   16  C   UNL     1     -11.322  14.945  64.760  1.00  0.00    -0.400 A  
ENDBRANCH   8  11
BRANCH   9  17
HETATM   17  C   UNL     1     -12.033  12.203  69.665  1.00  0.00    -0.351 A  
HETATM   18  C   UNL     1     -12.997  13.721  71.830  1.00  0.00    -0.441 A  
HETATM   19  C   UNL     1     -12.656  11.585  70.763  1.00  0.00    -0.390 A  
HETATM   20  C   UNL     1     -12.405  14.354  70.739  1.00  0.00    -0.417 A  
HETATM   21  C   UNL     1     -13.128  12.336  71.842  1.00  0.00    -0.469 A  
HETATM   22  C   UNL     1     -11.920  13.599  69.666  1.00  0.00    -0.402 A  
ENDBRANCH   9  17
ENDBRANCH   5   6
ENDBRANCH   4   5
TORSDOF 4
ENDMDL
MODEL       62
REMARK 921   NORMALIZED FREE ENERGY PREDICTED BY IDOCK:   -5.82 KCAL/MOL
REMARK 922        TOTAL FREE ENERGY PREDICTED BY IDOCK:   -7.99 KCAL/MOL
REMARK 923 INTER-LIGAND FREE ENERGY PREDICTED BY IDOCK:   -7.49 KCAL/MOL
REMARK 924 INTRA-LIGAND FREE ENERGY PREDICTED BY IDOCK:   -0.49 KCAL/MOL
REMARK 927      BINDING AFFINITY PREDICTED BY RF-SCORE:    0.00 PKD
ROOT
HETATM    1  O   UNL     1     -10.842   7.550  72.900  1.00  0.00    -0.307 OA 
HETATM    2  C   UNL     1     -11.193   7.699  71.603  1.00  0.00    -0.247 C  
HETATM    3  O   UNL     1     -12.309   7.416  71.195  1.00  0.00    -0.327 OA 
HETATM    4  C   UNL     1     -10.064   8.222  70.755  1.00  0.00    -0.218 C  
ENDROOT
BRANCH   4   5
HETATM    5  C   UNL     1     -10.505   8.377  69.301  1.00  0.00    -0.223 C  
BRANCH   5   6
HETATM    6  C   UNL     1     -10.789   9.795  68.963  1.00  0.00    -0.199 A  
HETATM    7  N   UNL     1     -11.057  10.808  69.755  1.00  0.00    -0.273 NA 
HETATM    8  C   UNL     1     -11.284  11.866  68.887  1.00  0.00    -0.254 A  
HETATM    9  C   UNL     1     -11.152  11.428  67.577  1.00  0.00    -0.281 A  
HETATM   10  O   UNL     1     -10.808  10.098  67.636  1.00  0.00    -0.265 OA 
BRANCH   8  11
HETATM   11  C   UNL     1     -11.610  13.200  69.375  1.00  0.00    -0.360 A  
HETATM   12  C   UNL     1     -12.359  13.404  70.541  1.00  0.00    -0.401 A  
HETATM   13  C   UNL     1     -11.210  14.323  68.634  1.00  0.00    -0.287 A  
HETATM   14  C   UNL     1     -12.675  14.697  70.973  1.00  0.00    -0.406 A  
HETATM   15  C   UNL     1     -11.538  15.616  69.057  1.00  0.00    -0.396 A  
HETATM   16  C   UNL     1     -12.267  15.801  70.229  1.00  0.00    -0.367 A  
ENDBRANCH   8  11
BRANCH   9  17
HETATM   17  C   UNL     1     -11.328  11.927  66.220  1.00  0.00    -0.394 A  
HETATM   18  C   UNL     1     -11.780  12.728  63.560  1.00  0.00    -0.597 A  
HETATM   19  C   UNL     1     -10.655  11.308  65.152  1.00  0.00    -0.343 A  
HETATM   20  C   UNL     1     -12.437  13.370  64.607  1.00  0.00    -0.385 A  
HETATM   21  C   UNL     1     -10.884  11.698  63.832  1.00  0.00    -0.471 A  
HETATM   22  C   UNL     1     -12.219  12.968  65.928  1.00  0.00    -0.493 A  
ENDBRANCH   9  17
ENDBRANCH   5   6
ENDBRANCH   4   5
TORSDOF 4
ENDMDL
MODEL       63
REMARK 921   NORMALIZED FREE ENERGY PREDICTED BY IDOCK:   -5.74 KCAL/MOL
REMARK 922        TOTAL FREE ENERGY PREDICTED BY IDOCK:   -7.88 KCAL/MOL
REMARK 923 INTER-LIGAND FREE ENERGY PREDICTED BY IDOCK:   -7.09 KCAL/MOL
REMARK 924 INTRA-LIGAND FREE ENERGY PREDICTED BY IDOCK:   -0.79 KCAL/MOL
REMARK 927      BINDING AFFINITY PREDICTED BY RF-SCORE:    0.00 PKD
ROOT
HETATM    1  O   UNL     1      -6.990   8.500  67.559  1.00  0.00    -0.076 OA 
HETATM    2  C   UNL     1      -8.048   8.596  68.394  1.00  0.00    -0.118 C  
HETATM    3  O   UNL     1      -7.922   8.572  69.609  1.00  0.00    -0.097 OA 
HETATM    4  C   UNL     1      -9.357   8.711  67.659  1.00  0.00    -0.157 C  
ENDROOT
BRANCH   4   5
HETATM    5  C   UNL     1     -10.523   8.819  68.640  1.00  0.00    -0.213 C  
BRANCH   5   6
HETATM    6  C   UNL     1     -10.937  10.229  68.844  1.00  0.00    -0.238 A  
HETATM    7  N   UNL     1     -11.524  10.790  69.878  1.00  0.00    -0.294 NA 
HETATM    8  C   UNL     1     -11.712  12.108  69.487  1.00  0.00    -0.336 A  
HETATM    9  C   UNL     1     -11.230  12.283  68.198  1.00  0.00    -0.269 A  
HETATM   10  O   UNL     1     -10.710  11.074  67.801  1.00  0.00    -0.196 OA 
BRANCH   8  11
HETATM   11  C   UNL     1     -12.335  13.086  70.369  1.00  0.00    -0.351 A  
HETATM   12  C   UNL     1     -13.011  12.712  71.538  1.00  0.00    -0.380 A  
HETATM   13  C   UNL     1     -12.308  14.446  70.021  1.00  0.00    -0.391 A  
HETATM   14  C   UNL     1     -13.618  13.672  72.354  1.00  0.00    -0.703 A  
HETATM   15  C   UNL     1     -12.928  15.406  70.829  1.00  0.00    -0.510 A  
HETATM   16  C   UNL     1     -13.579  15.018  71.997  1.00  0.00    -0.522 A  
ENDBRANCH   8  11
BRANCH   9  17
HETATM   17  C   UNL     1     -11.176  13.309  67.166  1.00  0.00    -0.327 A  
HETATM   18  C   UNL     1     -10.945  15.175  65.071  1.00  0.00    -0.443 A  
HETATM   19  C   UNL     1     -10.030  14.113  67.033  1.00  0.00    -0.260 A  
HETATM   20  C   UNL     1     -12.099  14.405  65.200  1.00  0.00    -0.395 A  
HETATM   21  C   UNL     1      -9.910  15.032  65.990  1.00  0.00    -0.347 A  
HETATM   22  C   UNL     1     -12.211  13.473  66.237  1.00  0.00    -0.468 A  
ENDBRANCH   9  17
ENDBRANCH   5   6
ENDBRANCH   4   5
TORSDOF 4
ENDMDL
MODEL       64
REMARK 921   NORMALIZED FREE ENERGY PREDICTED BY IDOCK:   -5.73 KCAL/MOL
REMARK 922        TOTAL FREE ENERGY PREDICTED BY IDOCK:   -7.87 KCAL/MOL
REMARK 923 INTER-LIGAND FREE ENERGY PREDICTED BY IDOCK:   -7.15 KCAL/MOL
REMARK 924 INTRA-LIGAND FREE ENERGY PREDICTED BY IDOCK:   -0.72 KCAL/MOL
REMARK 927      BINDING AFFINITY PREDICTED BY RF-SCORE:    0.00 PKD
ROOT
HETATM    1  O   UNL     1     -11.991  16.130  63.958  1.00  0.00    -0.897 OA 
HETATM    2  C   UNL     1     -12.214  14.803  64.080  1.00  0.00    -0.295 C  
HETATM    3  O   UNL     1     -12.554  14.111  63.132  1.00  0.00    -0.686 OA 
HETATM    4  C   UNL     1     -12.016  14.310  65.489  1.00  0.00    -0.386 C  
ENDROOT
BRANCH   4   5
HETATM    5  C   UNL     1     -12.276  12.807  65.579  1.00  0.00    -0.519 C  
BRANCH   5   6
HETATM    6  C   UNL     1     -11.536  12.192  66.710  1.00  0.00    -0.345 A  
HETATM    7  N   UNL     1     -11.977  11.431  67.686  1.00  0.00    -0.626 NA 
HETATM    8  C   UNL     1     -10.855  11.199  68.469  1.00  0.00    -0.203 A  
HETATM    9  C   UNL     1      -9.764  11.859  67.923  1.00  0.00    -0.192 A  
HETATM   10  O   UNL     1     -10.207  12.476  66.776  1.00  0.00    -0.227 OA 
BRANCH   8  11
HETATM   11  C   UNL     1     -10.917  10.375  69.668  1.00  0.00    -0.325 A  
HETATM   12  C   UNL     1     -12.031  10.378  70.519  1.00  0.00    -0.427 A  
HETATM   13  C   UNL     1      -9.811   9.586  70.022  1.00  0.00    -0.269 A  
HETATM   14  C   UNL     1     -12.052   9.591  71.676  1.00  0.00    -0.474 A  
HETATM   15  C   UNL     1      -9.825   8.810  71.187  1.00  0.00    -0.313 A  
HETATM   16  C   UNL     1     -10.948   8.811  72.010  1.00  0.00    -0.438 A  
ENDBRANCH   8  11
BRANCH   9  17
HETATM   17  C   UNL     1      -8.367  12.131  68.231  1.00  0.00    -0.172 A  
HETATM   18  C   UNL     1      -5.634  12.669  68.630  1.00  0.00    -0.062 A  
HETATM   19  C   UNL     1      -7.393  11.143  68.005  1.00  0.00    -0.088 A  
HETATM   20  C   UNL     1      -6.586  13.653  68.884  1.00  0.00    -0.105 A  
HETATM   21  C   UNL     1      -6.036  11.410  68.194  1.00  0.00    -0.045 A  
HETATM   22  C   UNL     1      -7.944  13.388  68.679  1.00  0.00    -0.056 A  
ENDBRANCH   9  17
ENDBRANCH   5   6
ENDBRANCH   4   5
TORSDOF 4
ENDMDL
MODEL       65
REMARK 921   NORMALIZED FREE ENERGY PREDICTED BY IDOCK:   -5.71 KCAL/MOL
REMARK 922        TOTAL FREE ENERGY PREDICTED BY IDOCK:   -7.85 KCAL/MOL
REMARK 923 INTER-LIGAND FREE ENERGY PREDICTED BY IDOCK:   -6.97 KCAL/MOL
REMARK 924 INTRA-LIGAND FREE ENERGY PREDICTED BY IDOCK:   -0.88 KCAL/MOL
REMARK 927      BINDING AFFINITY PREDICTED BY RF-SCORE:    0.00 PKD
ROOT
HETATM    1  O   UNL     1      -6.988   6.718  68.506  1.00  0.00    -0.071 OA 
HETATM    2  C   UNL     1      -8.309   6.913  68.295  1.00  0.00    -0.123 C  
HETATM    3  O   UNL     1      -9.160   6.477  69.056  1.00  0.00    -0.132 OA 
HETATM    4  C   UNL     1      -8.586   7.691  67.036  1.00  0.00    -0.122 C  
ENDROOT
BRANCH   4   5
HETATM    5  C   UNL     1     -10.088   7.889  66.840  1.00  0.00    -0.362 C  
BRANCH   5   6
HETATM    6  C   UNL     1     -10.534   9.215  67.335  1.00  0.00    -0.271 A  
HETATM    7  N   UNL     1     -11.028   9.551  68.505  1.00  0.00    -0.123 NA 
HETATM    8  C   UNL     1     -11.311  10.904  68.379  1.00  0.00    -0.304 A  
HETATM    9  C   UNL     1     -10.978  11.329  67.102  1.00  0.00    -0.291 A  
HETATM   10  O   UNL     1     -10.455  10.241  66.444  1.00  0.00    -0.224 OA 
BRANCH   8  11
HETATM   11  C   UNL     1     -11.874  11.673  69.480  1.00  0.00    -0.414 A  
HETATM   12  C   UNL     1     -11.774  13.070  69.542  1.00  0.00    -0.381 A  
HETATM   13  C   UNL     1     -12.496  11.002  70.545  1.00  0.00    -0.432 A  
HETATM   14  C   UNL     1     -12.307  13.779  70.623  1.00  0.00    -0.445 A  
HETATM   15  C   UNL     1     -13.016  11.710  71.634  1.00  0.00    -0.483 A  
HETATM   16  C   UNL     1     -12.924  13.099  71.670  1.00  0.00    -0.429 A  
ENDBRANCH   8  11
BRANCH   9  17
HETATM   17  C   UNL     1     -11.077  12.522  66.271  1.00  0.00    -0.336 A  
HETATM   18  C   UNL     1     -11.390  14.904  64.806  1.00  0.00    -0.400 A  
HETATM   19  C   UNL     1     -12.260  12.785  65.559  1.00  0.00    -0.519 A  
HETATM   20  C   UNL     1     -10.201  14.650  65.484  1.00  0.00    -0.395 A  
HETATM   21  C   UNL     1     -12.421  13.970  64.839  1.00  0.00    -0.419 A  
HETATM   22  C   UNL     1     -10.047  13.469  66.219  1.00  0.00    -0.298 A  
ENDBRANCH   9  17
ENDBRANCH   5   6
ENDBRANCH   4   5
TORSDOF 4
ENDMDL
MODEL       66
REMARK 921   NORMALIZED FREE ENERGY PREDICTED BY IDOCK:   -5.63 KCAL/MOL
REMARK 922        TOTAL FREE ENERGY PREDICTED BY IDOCK:   -7.75 KCAL/MOL
REMARK 923 INTER-LIGAND FREE ENERGY PREDICTED BY IDOCK:   -6.97 KCAL/MOL
REMARK 924 INTRA-LIGAND FREE ENERGY PREDICTED BY IDOCK:   -0.78 KCAL/MOL
REMARK 927      BINDING AFFINITY PREDICTED BY RF-SCORE:    0.00 PKD
ROOT
HETATM    1  O   UNL     1      -9.921   5.175  65.809  1.00  0.00    -0.144 OA 
HETATM    2  C   UNL     1     -10.177   5.813  66.972  1.00  0.00    -0.213 C  
HETATM    3  O   UNL     1     -10.480   5.210  67.991  1.00  0.00    -0.119 OA 
HETATM    4  C   UNL     1     -10.065   7.309  66.849  1.00  0.00    -0.317 C  
ENDROOT
BRANCH   4   5
HETATM    5  C   UNL     1     -10.360   7.988  68.185  1.00  0.00    -0.250 C  
BRANCH   5   6
HETATM    6  C   UNL     1     -10.763   9.405  68.001  1.00  0.00    -0.190 A  
HETATM    7  N   UNL     1     -10.639  10.183  66.950  1.00  0.00    -0.225 NA 
HETATM    8  C   UNL     1     -11.140  11.406  67.372  1.00  0.00    -0.289 A  
HETATM    9  C   UNL     1     -11.542  11.311  68.696  1.00  0.00    -0.318 A  
HETATM   10  O   UNL     1     -11.319  10.011  69.086  1.00  0.00    -0.189 OA 
BRANCH   8  11
HETATM   11  C   UNL     1     -11.191  12.559  66.484  1.00  0.00    -0.356 A  
HETATM   12  C   UNL     1     -10.168  13.516  66.444  1.00  0.00    -0.291 A  
HETATM   13  C   UNL     1     -12.320  12.758  65.673  1.00  0.00    -0.444 A  
HETATM   14  C   UNL     1     -10.255  14.625  65.595  1.00  0.00    -0.382 A  
HETATM   15  C   UNL     1     -12.415  13.874  64.835  1.00  0.00    -0.420 A  
HETATM   16  C   UNL     1     -11.380  14.805  64.795  1.00  0.00    -0.399 A  
ENDBRANCH   8  11
BRANCH   9  17
HETATM   17  C   UNL     1     -12.047  12.163  69.764  1.00  0.00    -0.306 A  
HETATM   18  C   UNL     1     -13.173  13.859  71.707  1.00  0.00    -0.455 A  
HETATM   19  C   UNL     1     -11.932  13.560  69.661  1.00  0.00    -0.397 A  
HETATM   20  C   UNL     1     -13.276  12.477  71.839  1.00  0.00    -0.495 A  
HETATM   21  C   UNL     1     -12.498  14.403  70.619  1.00  0.00    -0.419 A  
HETATM   22  C   UNL     1     -12.722  11.633  70.871  1.00  0.00    -0.351 A  
ENDBRANCH   9  17
ENDBRANCH   5   6
ENDBRANCH   4   5
TORSDOF 4
ENDMDL
MODEL       67
REMARK 921   NORMALIZED FREE ENERGY PREDICTED BY IDOCK:   -5.52 KCAL/MOL
REMARK 922        TOTAL FREE ENERGY PREDICTED BY IDOCK:   -7.62 KCAL/MOL
REMARK 923 INTER-LIGAND FREE ENERGY PREDICTED BY IDOCK:   -6.76 KCAL/MOL
REMARK 924 INTRA-LIGAND FREE ENERGY PREDICTED BY IDOCK:   -0.86 KCAL/MOL
REMARK 927      BINDING AFFINITY PREDICTED BY RF-SCORE:    0.00 PKD
ROOT
HETATM    1  O   UNL     1     -10.837  18.699  66.004  1.00  0.00    -0.303 OA 
HETATM    2  C   UNL     1     -10.874  17.482  65.417  1.00  0.00     0.059 C  
HETATM    3  O   UNL     1     -11.131  17.340  64.231  1.00  0.00    -0.851 OA 
HETATM    4  C   UNL     1     -10.588  16.364  66.384  1.00  0.00    -0.236 C  
ENDROOT
BRANCH   4   5
HETATM    5  C   UNL     1     -10.638  15.010  65.678  1.00  0.00    -0.360 C  
BRANCH   5   6
HETATM    6  C   UNL     1     -10.587  13.886  66.646  1.00  0.00    -0.274 A  
HETATM    7  N   UNL     1     -10.084  12.681  66.507  1.00  0.00    -0.243 NA 
HETATM    8  C   UNL     1     -10.367  12.053  67.712  1.00  0.00    -0.197 A  
HETATM    9  C   UNL     1     -11.057  12.928  68.539  1.00  0.00    -0.267 A  
HETATM   10  O   UNL     1     -11.173  14.114  67.854  1.00  0.00    -0.260 OA 
BRANCH   8  11
HETATM   11  C   UNL     1      -9.961  10.679  67.973  1.00  0.00    -0.180 A  
HETATM   12  C   UNL     1     -10.523   9.593  67.288  1.00  0.00    -0.323 A  
HETATM   13  C   UNL     1      -9.014  10.416  68.975  1.00  0.00    -0.184 A  
HETATM   14  C   UNL     1     -10.128   8.282  67.576  1.00  0.00    -0.287 A  
HETATM   15  C   UNL     1      -8.629   9.105  69.274  1.00  0.00    -0.137 A  
HETATM   16  C   UNL     1      -9.185   8.039  68.570  1.00  0.00    -0.135 A  
ENDBRANCH   8  11
BRANCH   9  17
HETATM   17  C   UNL     1     -11.722  12.933  69.835  1.00  0.00    -0.324 A  
HETATM   18  C   UNL     1     -13.176  12.997  72.244  1.00  0.00    -0.539 A  
HETATM   19  C   UNL     1     -12.074  14.154  70.438  1.00  0.00    -0.417 A  
HETATM   20  C   UNL     1     -12.815  11.778  71.674  1.00  0.00    -0.433 A  
HETATM   21  C   UNL     1     -12.802  14.187  71.628  1.00  0.00    -0.428 A  
HETATM   22  C   UNL     1     -12.099  11.746  70.474  1.00  0.00    -0.439 A  
ENDBRANCH   9  17
ENDBRANCH   5   6
ENDBRANCH   4   5
TORSDOF 4
ENDMDL
MODEL       68
REMARK 921   NORMALIZED FREE ENERGY PREDICTED BY IDOCK:   -5.51 KCAL/MOL
REMARK 922        TOTAL FREE ENERGY PREDICTED BY IDOCK:   -7.61 KCAL/MOL
REMARK 923 INTER-LIGAND FREE ENERGY PREDICTED BY IDOCK:   -6.87 KCAL/MOL
REMARK 924 INTRA-LIGAND FREE ENERGY PREDICTED BY IDOCK:   -0.74 KCAL/MOL
REMARK 927      BINDING AFFINITY PREDICTED BY RF-SCORE:    0.00 PKD
ROOT
HETATM    1  O   UNL     1      -9.980  19.823  68.041  1.00  0.00    -0.385 OA 
HETATM    2  C   UNL     1     -10.314  19.031  66.997  1.00  0.00    -0.409 C  
HETATM    3  O   UNL     1     -10.513  19.481  65.878  1.00  0.00    -0.493 OA 
HETATM    4  C   UNL     1     -10.424  17.580  67.382  1.00  0.00    -0.342 C  
ENDROOT
BRANCH   4   5
HETATM    5  C   UNL     1     -10.800  16.725  66.174  1.00  0.00    -0.006 C  
BRANCH   5   6
HETATM    6  C   UNL     1     -10.641  15.276  66.459  1.00  0.00    -0.304 A  
HETATM    7  N   UNL     1     -10.150  14.321  65.703  1.00  0.00    -0.333 NA 
HETATM    8  C   UNL     1     -10.302  13.172  66.466  1.00  0.00    -0.283 A  
HETATM    9  C   UNL     1     -10.907  13.493  67.672  1.00  0.00    -0.260 A  
HETATM   10  O   UNL     1     -11.099  14.855  67.670  1.00  0.00    -0.290 OA 
BRANCH   8  11
HETATM   11  C   UNL     1      -9.864  11.870  65.983  1.00  0.00    -0.258 A  
HETATM   12  C   UNL     1      -8.857  11.136  66.623  1.00  0.00    -0.168 A  
HETATM   13  C   UNL     1     -10.427  11.344  64.808  1.00  0.00    -0.366 A  
HETATM   14  C   UNL     1      -8.443   9.897  66.122  1.00  0.00    -0.130 A  
HETATM   15  C   UNL     1     -10.003  10.112  64.298  1.00  0.00    -0.174 A  
HETATM   16  C   UNL     1      -9.013   9.388  64.959  1.00  0.00    -0.258 A  
ENDBRANCH   8  11
BRANCH   9  17
HETATM   17  C   UNL     1     -11.433  12.831  68.858  1.00  0.00    -0.352 A  
HETATM   18  C   UNL     1     -12.633  11.586  71.078  1.00  0.00    -0.457 A  
HETATM   19  C   UNL     1     -12.030  13.590  69.880  1.00  0.00    -0.416 A  
HETATM   20  C   UNL     1     -12.025  10.818  70.089  1.00  0.00    -0.432 A  
HETATM   21  C   UNL     1     -12.633  12.974  70.978  1.00  0.00    -0.386 A  
HETATM   22  C   UNL     1     -11.434  11.436  68.981  1.00  0.00    -0.366 A  
ENDBRANCH   9  17
ENDBRANCH   5   6
ENDBRANCH   4   5
TORSDOF 4
ENDMDL
MODEL       69
REMARK 921   NORMALIZED FREE ENERGY PREDICTED BY IDOCK:   -5.43 KCAL/MOL
REMARK 922        TOTAL FREE ENERGY PREDICTED BY IDOCK:   -7.51 KCAL/MOL
REMARK 923 INTER-LIGAND FREE ENERGY PREDICTED BY IDOCK:   -6.60 KCAL/MOL
REMARK 924 INTRA-LIGAND FREE ENERGY PREDICTED BY IDOCK:   -0.91 KCAL/MOL
REMARK 927      BINDING AFFINITY PREDICTED BY RF-SCORE:    0.00 PKD
ROOT
HETATM    1  O   UNL     1     -12.583  14.188  71.083  1.00  0.00    -0.324 OA 
HETATM    2  C   UNL     1     -13.118  13.118  71.713  1.00  0.00    -0.383 C  
HETATM    3  O   UNL     1     -13.922  13.236  72.626  1.00  0.00    -0.741 OA 
HETATM    4  C   UNL     1     -12.597  11.811  71.177  1.00  0.00    -0.412 C  
ENDROOT
BRANCH   4   5
HETATM    5  C   UNL     1     -13.228  10.632  71.916  1.00  0.00    -0.528 C  
BRANCH   5   6
HETATM    6  C   UNL     1     -12.469   9.377  71.691  1.00  0.00    -0.378 A  
HETATM    7  N   UNL     1     -12.072   8.469  72.554  1.00  0.00    -0.375 NA 
HETATM    8  C   UNL     1     -11.368   7.554  71.785  1.00  0.00    -0.254 A  
HETATM    9  C   UNL     1     -11.362   7.968  70.461  1.00  0.00    -0.225 A  
HETATM   10  O   UNL     1     -12.094   9.130  70.405  1.00  0.00    -0.066 OA 
BRANCH   8  11
HETATM   11  C   UNL     1     -10.761   6.368  72.374  1.00  0.00    -0.255 A  
HETATM   12  C   UNL     1      -9.377   6.144  72.341  1.00  0.00    -0.146 A  
HETATM   13  C   UNL     1     -11.581   5.385  72.951  1.00  0.00    -0.296 A  
HETATM   14  C   UNL     1      -8.825   4.985  72.897  1.00  0.00    -0.117 A  
HETATM   15  C   UNL     1     -11.031   4.219  73.493  1.00  0.00    -0.373 A  
HETATM   16  C   UNL     1      -9.653   4.022  73.468  1.00  0.00    -0.134 A  
ENDBRANCH   8  11
BRANCH   9  17
HETATM   17  C   UNL     1     -10.776   7.584  69.184  1.00  0.00    -0.163 A  
HETATM   18  C   UNL     1      -9.827   6.861  66.635  1.00  0.00    -0.217 A  
HETATM   19  C   UNL     1     -11.033   6.309  68.649  1.00  0.00    -0.423 A  
HETATM   20  C   UNL     1      -9.541   8.120  67.159  1.00  0.00    -0.227 A  
HETATM   21  C   UNL     1     -10.571   5.952  67.382  1.00  0.00    -0.356 A  
HETATM   22  C   UNL     1     -10.019   8.482  68.423  1.00  0.00    -0.208 A  
ENDBRANCH   9  17
ENDBRANCH   5   6
ENDBRANCH   4   5
TORSDOF 4
ENDMDL
MODEL       70
REMARK 921   NORMALIZED FREE ENERGY PREDICTED BY IDOCK:   -5.41 KCAL/MOL
REMARK 922        TOTAL FREE ENERGY PREDICTED BY IDOCK:   -7.48 KCAL/MOL
REMARK 923 INTER-LIGAND FREE ENERGY PREDICTED BY IDOCK:   -6.53 KCAL/MOL
REMARK 924 INTRA-LIGAND FREE ENERGY PREDICTED BY IDOCK:   -0.95 KCAL/MOL
REMARK 927      BINDING AFFINITY PREDICTED BY RF-SCORE:    0.00 PKD
ROOT
HETATM    1  O   UNL     1     -11.782   5.795  72.240  1.00  0.00    -0.287 OA 
HETATM    2  C   UNL     1     -12.570   6.850  71.935  1.00  0.00    -0.297 C  
HETATM    3  O   UNL     1     -13.605   6.725  71.297  1.00  0.00    -0.155 OA 
HETATM    4  C   UNL     1     -12.017   8.153  72.448  1.00  0.00    -0.431 C  
ENDROOT
BRANCH   4   5
HETATM    5  C   UNL     1     -12.939   9.315  72.083  1.00  0.00    -0.503 C  
BRANCH   5   6
HETATM    6  C   UNL     1     -12.335  10.187  71.045  1.00  0.00    -0.373 A  
HETATM    7  N   UNL     1     -12.552  11.456  70.784  1.00  0.00    -0.337 NA 
HETATM    8  C   UNL     1     -11.751  11.719  69.683  1.00  0.00    -0.344 A  
HETATM    9  C   UNL     1     -11.080  10.563  69.311  1.00  0.00    -0.246 A  
HETATM   10  O   UNL     1     -11.443   9.587  70.209  1.00  0.00    -0.251 OA 
BRANCH   8  11
HETATM   11  C   UNL     1     -11.694  13.042  69.077  1.00  0.00    -0.376 A  
HETATM   12  C   UNL     1     -11.600  14.211  69.845  1.00  0.00    -0.329 A  
HETATM   13  C   UNL     1     -11.786  13.168  67.681  1.00  0.00    -0.414 A  
HETATM   14  C   UNL     1     -11.569  15.470  69.234  1.00  0.00    -0.369 A  
HETATM   15  C   UNL     1     -11.770  14.427  67.071  1.00  0.00    -0.420 A  
HETATM   16  C   UNL     1     -11.658  15.576  67.849  1.00  0.00    -0.231 A  
ENDBRANCH   8  11
BRANCH   9  17
HETATM   17  C   UNL     1     -10.195  10.087  68.257  1.00  0.00    -0.200 A  
HETATM   18  C   UNL     1      -8.579   9.294  66.094  1.00  0.00    -0.146 A  
HETATM   19  C   UNL     1     -10.693   9.239  67.252  1.00  0.00    -0.244 A  
HETATM   20  C   UNL     1      -8.060  10.115  67.092  1.00  0.00    -0.120 A  
HETATM   21  C   UNL     1      -9.895   8.851  66.174  1.00  0.00    -0.326 A  
HETATM   22  C   UNL     1      -8.865  10.515  68.163  1.00  0.00    -0.134 A  
ENDBRANCH   9  17
ENDBRANCH   5   6
ENDBRANCH   4   5
TORSDOF 4
ENDMDL
MODEL       71
REMARK 921   NORMALIZED FREE ENERGY PREDICTED BY IDOCK:   -5.40 KCAL/MOL
REMARK 922        TOTAL FREE ENERGY PREDICTED BY IDOCK:   -7.47 KCAL/MOL
REMARK 923 INTER-LIGAND FREE ENERGY PREDICTED BY IDOCK:   -6.67 KCAL/MOL
REMARK 924 INTRA-LIGAND FREE ENERGY PREDICTED BY IDOCK:   -0.80 KCAL/MOL
REMARK 927      BINDING AFFINITY PREDICTED BY RF-SCORE:    0.00 PKD
ROOT
HETATM    1  O   UNL     1      -6.128   8.379  65.013  1.00  0.00    -0.051 OA 
HETATM    2  C   UNL     1      -7.452   8.210  65.227  1.00  0.00    -0.080 C  
HETATM    3  O   UNL     1      -8.211   7.842  64.343  1.00  0.00    -0.129 OA 
HETATM    4  C   UNL     1      -7.857   8.541  66.639  1.00  0.00    -0.090 C  
ENDROOT
BRANCH   4   5
HETATM    5  C   UNL     1      -9.358   8.334  66.835  1.00  0.00    -0.222 C  
BRANCH   5   6
HETATM    6  C   UNL     1     -10.012   9.553  67.373  1.00  0.00    -0.189 A  
HETATM    7  N   UNL     1     -10.564   9.761  68.547  1.00  0.00    -0.214 NA 
HETATM    8  C   UNL     1     -11.054  11.057  68.467  1.00  0.00    -0.243 A  
HETATM    9  C   UNL     1     -10.779  11.580  67.212  1.00  0.00    -0.244 A  
HETATM   10  O   UNL     1     -10.086  10.614  66.522  1.00  0.00    -0.208 OA 
BRANCH   8  11
HETATM   11  C   UNL     1     -11.742  11.685  69.586  1.00  0.00    -0.418 A  
HETATM   12  C   UNL     1     -12.384  10.935  70.582  1.00  0.00    -0.470 A  
HETATM   13  C   UNL     1     -11.817  13.085  69.655  1.00  0.00    -0.385 A  
HETATM   14  C   UNL     1     -13.055  11.568  71.634  1.00  0.00    -0.478 A  
HETATM   15  C   UNL     1     -12.501  13.718  70.698  1.00  0.00    -0.429 A  
HETATM   16  C   UNL     1     -13.116  12.958  71.689  1.00  0.00    -0.430 A  
ENDBRANCH   8  11
BRANCH   9  17
HETATM   17  C   UNL     1     -11.056  12.774  66.425  1.00  0.00    -0.320 A  
HETATM   18  C   UNL     1     -11.479  15.003  64.760  1.00  0.00    -0.403 A  
HETATM   19  C   UNL     1     -10.051  13.738  66.235  1.00  0.00    -0.304 A  
HETATM   20  C   UNL     1     -12.496  14.072  64.956  1.00  0.00    -0.446 A  
HETATM   21  C   UNL     1     -10.256  14.840  65.402  1.00  0.00    -0.415 A  
HETATM   22  C   UNL     1     -12.284  12.960  65.778  1.00  0.00    -0.498 A  
ENDBRANCH   9  17
ENDBRANCH   5   6
ENDBRANCH   4   5
TORSDOF 4
ENDMDL
MODEL       72
REMARK 921   NORMALIZED FREE ENERGY PREDICTED BY IDOCK:   -5.39 KCAL/MOL
REMARK 922        TOTAL FREE ENERGY PREDICTED BY IDOCK:   -7.46 KCAL/MOL
REMARK 923 INTER-LIGAND FREE ENERGY PREDICTED BY IDOCK:   -6.60 KCAL/MOL
REMARK 924 INTRA-LIGAND FREE ENERGY PREDICTED BY IDOCK:   -0.86 KCAL/MOL
REMARK 927      BINDING AFFINITY PREDICTED BY RF-SCORE:    0.00 PKD
ROOT
HETATM    1  O   UNL     1     -12.212  15.755  64.150  1.00  0.00    -0.588 OA 
HETATM    2  C   UNL     1     -12.091  14.410  64.080  1.00  0.00    -0.376 C  
HETATM    3  O   UNL     1     -12.779  13.734  63.330  1.00  0.00    -0.783 OA 
HETATM    4  C   UNL     1     -11.052  13.873  65.027  1.00  0.00    -0.353 C  
ENDROOT
BRANCH   4   5
HETATM    5  C   UNL     1     -10.948  12.353  64.913  1.00  0.00    -0.341 C  
BRANCH   5   6
HETATM    6  C   UNL     1     -10.792  11.714  66.244  1.00  0.00    -0.286 A  
HETATM    7  N   UNL     1     -11.662  11.586  67.221  1.00  0.00    -0.603 NA 
HETATM    8  C   UNL     1     -10.948  10.956  68.230  1.00  0.00    -0.239 A  
HETATM    9  C   UNL     1      -9.644  10.739  67.811  1.00  0.00    -0.162 A  
HETATM   10  O   UNL     1      -9.559  11.208  66.521  1.00  0.00    -0.189 OA 
BRANCH   8  11
HETATM   11  C   UNL     1     -11.565  10.617  69.506  1.00  0.00    -0.360 A  
HETATM   12  C   UNL     1     -11.556   9.312  70.015  1.00  0.00    -0.005 A  
HETATM   13  C   UNL     1     -12.237  11.612  70.234  1.00  0.00    -0.401 A  
HETATM   14  C   UNL     1     -12.176   9.014  71.234  1.00  0.00    -0.373 A  
HETATM   15  C   UNL     1     -12.870  11.312  71.445  1.00  0.00    -0.515 A  
HETATM   16  C   UNL     1     -12.835  10.013  71.945  1.00  0.00    -0.524 A  
ENDBRANCH   8  11
BRANCH   9  17
HETATM   17  C   UNL     1      -8.380  10.243  68.337  1.00  0.00    -0.119 A  
HETATM   18  C   UNL     1      -5.846   9.435  69.257  1.00  0.00    -0.035 A  
HETATM   19  C   UNL     1      -7.474   9.586  67.485  1.00  0.00    -0.091 A  
HETATM   20  C   UNL     1      -6.739  10.062  70.123  1.00  0.00    -0.128 A  
HETATM   21  C   UNL     1      -6.214   9.192  67.937  1.00  0.00    -0.051 A  
HETATM   22  C   UNL     1      -7.996  10.470  69.664  1.00  0.00    -0.076 A  
ENDBRANCH   9  17
ENDBRANCH   5   6
ENDBRANCH   4   5
TORSDOF 4
ENDMDL
MODEL       73
REMARK 921   NORMALIZED FREE ENERGY PREDICTED BY IDOCK:   -5.34 KCAL/MOL
REMARK 922        TOTAL FREE ENERGY PREDICTED BY IDOCK:   -7.40 KCAL/MOL
REMARK 923 INTER-LIGAND FREE ENERGY PREDICTED BY IDOCK:   -6.45 KCAL/MOL
REMARK 924 INTRA-LIGAND FREE ENERGY PREDICTED BY IDOCK:   -0.95 KCAL/MOL
REMARK 927      BINDING AFFINITY PREDICTED BY RF-SCORE:    0.00 PKD
ROOT
HETATM    1  O   UNL     1     -10.474   7.038  72.266  1.00  0.00    -0.202 OA 
HETATM    2  C   UNL     1     -11.389   7.819  71.648  1.00  0.00    -0.253 C  
HETATM    3  O   UNL     1     -12.383   7.354  71.112  1.00  0.00    -0.327 OA 
HETATM    4  C   UNL     1     -11.025   9.279  71.689  1.00  0.00    -0.433 C  
ENDROOT
BRANCH   4   5
HETATM    5  C   UNL     1     -12.085  10.122  70.983  1.00  0.00    -0.476 C  
BRANCH   5   6
HETATM    6  C   UNL     1     -11.551  10.748  69.747  1.00  0.00    -0.317 A  
HETATM    7  N   UNL     1     -12.192  11.213  68.698  1.00  0.00    -0.549 NA 
HETATM    8  C   UNL     1     -11.182  11.627  67.840  1.00  0.00    -0.269 A  
HETATM    9  C   UNL     1      -9.948  11.373  68.420  1.00  0.00    -0.204 A  
HETATM   10  O   UNL     1     -10.195  10.830  69.658  1.00  0.00    -0.180 OA 
BRANCH   8  11
HETATM   11  C   UNL     1     -11.477  12.223  66.544  1.00  0.00    -0.438 A  
HETATM   12  C   UNL     1     -10.884  11.765  65.360  1.00  0.00    -0.347 A  
HETATM   13  C   UNL     1     -12.343  13.325  66.472  1.00  0.00    -0.311 A  
HETATM   14  C   UNL     1     -11.171  12.372  64.133  1.00  0.00    -0.434 A  
HETATM   15  C   UNL     1     -12.619  13.943  65.247  1.00  0.00    -0.508 A  
HETATM   16  C   UNL     1     -12.035  13.462  64.078  1.00  0.00    -0.520 A  
ENDBRANCH   8  11
BRANCH   9  17
HETATM   17  C   UNL     1      -8.532  11.450  68.087  1.00  0.00    -0.152 A  
HETATM   18  C   UNL     1      -5.850  11.645  67.257  1.00  0.00    -0.111 A  
HETATM   19  C   UNL     1      -7.936  10.437  67.316  1.00  0.00    -0.110 A  
HETATM   20  C   UNL     1      -6.416  12.648  68.042  1.00  0.00    -0.093 A  
HETATM   21  C   UNL     1      -6.608  10.536  66.897  1.00  0.00    -0.081 A  
HETATM   22  C   UNL     1      -7.751  12.555  68.449  1.00  0.00    -0.136 A  
ENDBRANCH   9  17
ENDBRANCH   5   6
ENDBRANCH   4   5
TORSDOF 4
ENDMDL
MODEL       74
REMARK 921   NORMALIZED FREE ENERGY PREDICTED BY IDOCK:   -5.33 KCAL/MOL
REMARK 922        TOTAL FREE ENERGY PREDICTED BY IDOCK:   -7.39 KCAL/MOL
REMARK 923 INTER-LIGAND FREE ENERGY PREDICTED BY IDOCK:   -6.46 KCAL/MOL
REMARK 924 INTRA-LIGAND FREE ENERGY PREDICTED BY IDOCK:   -0.93 KCAL/MOL
REMARK 927      BINDING AFFINITY PREDICTED BY RF-SCORE:    0.00 PKD
ROOT
HETATM    1  O   UNL     1      -5.552  14.039  71.899  1.00  0.00    -0.222 OA 
HETATM    2  C   UNL     1      -5.681  13.763  70.582  1.00  0.00    -0.182 C  
HETATM    3  O   UNL     1      -6.115  12.693  70.181  1.00  0.00    -0.148 OA 
HETATM    4  C   UNL     1      -5.220  14.897  69.705  1.00  0.00    -0.094 C  
ENDROOT
BRANCH   4   5
HETATM    5  C   UNL     1      -5.386  14.544  68.228  1.00  0.00    -0.114 C  
BRANCH   5   6
HETATM    6  C   UNL     1      -6.759  14.838  67.747  1.00  0.00    -0.174 A  
HETATM    7  N   UNL     1      -7.679  14.021  67.284  1.00  0.00    -0.152 NA 
HETATM    8  C   UNL     1      -8.733  14.857  66.942  1.00  0.00    -0.248 A  
HETATM    9  C   UNL     1      -8.387  16.173  67.209  1.00  0.00    -0.180 A  
HETATM   10  O   UNL     1      -7.124  16.149  67.750  1.00  0.00    -0.121 OA 
BRANCH   8  11
HETATM   11  C   UNL     1      -9.975  14.333  66.389  1.00  0.00    -0.302 A  
HETATM   12  C   UNL     1     -10.747  13.377  67.063  1.00  0.00    -0.271 A  
HETATM   13  C   UNL     1     -10.397  14.755  65.118  1.00  0.00    -0.439 A  
HETATM   14  C   UNL     1     -11.924  12.877  66.496  1.00  0.00    -0.447 A  
HETATM   15  C   UNL     1     -11.567  14.244  64.544  1.00  0.00    -0.397 A  
HETATM   16  C   UNL     1     -12.331  13.308  65.236  1.00  0.00    -0.525 A  
ENDBRANCH   8  11
BRANCH   9  17
HETATM   17  C   UNL     1      -8.921  17.516  67.030  1.00  0.00    -0.250 A  
HETATM   18  C   UNL     1      -9.975  20.069  66.488  1.00  0.00    -0.603 A  
HETATM   19  C   UNL     1      -8.144  18.502  66.397  1.00  0.00    -0.295 A  
HETATM   20  C   UNL     1     -10.752  19.114  67.138  1.00  0.00    -0.567 A  
HETATM   21  C   UNL     1      -8.668  19.766  66.120  1.00  0.00    -0.368 A  
HETATM   22  C   UNL     1     -10.231  17.842  67.401  1.00  0.00    -0.363 A  
ENDBRANCH   9  17
ENDBRANCH   5   6
ENDBRANCH   4   5
TORSDOF 4
ENDMDL
MODEL       75
REMARK 921   NORMALIZED FREE ENERGY PREDICTED BY IDOCK:   -5.33 KCAL/MOL
REMARK 922        TOTAL FREE ENERGY PREDICTED BY IDOCK:   -7.39 KCAL/MOL
REMARK 923 INTER-LIGAND FREE ENERGY PREDICTED BY IDOCK:   -6.45 KCAL/MOL
REMARK 924 INTRA-LIGAND FREE ENERGY PREDICTED BY IDOCK:   -0.94 KCAL/MOL
REMARK 927      BINDING AFFINITY PREDICTED BY RF-SCORE:    0.00 PKD
ROOT
HETATM    1  O   UNL     1      -7.372   7.317  69.586  1.00  0.00    -0.083 OA 
HETATM    2  C   UNL     1      -8.554   7.598  68.992  1.00  0.00    -0.136 C  
HETATM    3  O   UNL     1      -8.748   7.394  67.803  1.00  0.00    -0.126 OA 
HETATM    4  C   UNL     1      -9.554   8.194  69.946  1.00  0.00    -0.175 C  
ENDROOT
BRANCH   4   5
HETATM    5  C   UNL     1     -10.872   8.493  69.234  1.00  0.00    -0.072 C  
BRANCH   5   6
HETATM    6  C   UNL     1     -10.984   9.929  68.874  1.00  0.00    -0.179 A  
HETATM    7  N   UNL     1     -11.074  10.985  69.650  1.00  0.00    -0.261 NA 
HETATM    8  C   UNL     1     -11.205  12.046  68.766  1.00  0.00    -0.263 A  
HETATM    9  C   UNL     1     -11.202  11.568  67.464  1.00  0.00    -0.298 A  
HETATM   10  O   UNL     1     -11.034  10.206  67.542  1.00  0.00    -0.298 OA 
BRANCH   8  11
HETATM   11  C   UNL     1     -11.326  13.420  69.233  1.00  0.00    -0.314 A  
HETATM   12  C   UNL     1     -12.334  13.820  70.121  1.00  0.00    -0.390 A  
HETATM   13  C   UNL     1     -10.441  14.396  68.747  1.00  0.00    -0.244 A  
HETATM   14  C   UNL     1     -12.438  15.153  70.536  1.00  0.00    -0.429 A  
HETATM   15  C   UNL     1     -10.553  15.732  69.149  1.00  0.00    -0.242 A  
HETATM   16  C   UNL     1     -11.550  16.107  70.047  1.00  0.00    -0.247 A  
ENDBRANCH   8  11
BRANCH   9  17
HETATM   17  C   UNL     1     -11.382  12.058  66.104  1.00  0.00    -0.407 A  
HETATM   18  C   UNL     1     -11.841  12.842  63.440  1.00  0.00    -0.591 A  
HETATM   19  C   UNL     1     -10.705  11.438  65.039  1.00  0.00    -0.340 A  
HETATM   20  C   UNL     1     -12.502  13.485  64.484  1.00  0.00    -0.344 A  
HETATM   21  C   UNL     1     -10.938  11.820  63.717  1.00  0.00    -0.500 A  
HETATM   22  C   UNL     1     -12.280  13.091  65.808  1.00  0.00    -0.511 A  
ENDBRANCH   9  17
ENDBRANCH   5   6
ENDBRANCH   4   5
TORSDOF 4
ENDMDL
MODEL       76
REMARK 921   NORMALIZED FREE ENERGY PREDICTED BY IDOCK:   -5.33 KCAL/MOL
REMARK 922        TOTAL FREE ENERGY PREDICTED BY IDOCK:   -7.39 KCAL/MOL
REMARK 923 INTER-LIGAND FREE ENERGY PREDICTED BY IDOCK:   -6.47 KCAL/MOL
REMARK 924 INTRA-LIGAND FREE ENERGY PREDICTED BY IDOCK:   -0.92 KCAL/MOL
REMARK 927      BINDING AFFINITY PREDICTED BY RF-SCORE:    0.00 PKD
ROOT
HETATM    1  O   UNL     1     -10.124  16.558  68.192  1.00  0.00    -0.241 OA 
HETATM    2  C   UNL     1     -10.555  15.573  67.373  1.00  0.00    -0.292 C  
HETATM    3  O   UNL     1     -10.028  15.348  66.294  1.00  0.00    -0.255 OA 
HETATM    4  C   UNL     1     -11.738  14.830  67.934  1.00  0.00    -0.367 C  
ENDROOT
BRANCH   4   5
HETATM    5  C   UNL     1     -12.190  13.727  66.978  1.00  0.00    -0.381 C  
BRANCH   5   6
HETATM    6  C   UNL     1     -11.653  12.403  67.380  1.00  0.00    -0.365 A  
HETATM    7  N   UNL     1     -10.934  11.544  66.692  1.00  0.00    -0.288 NA 
HETATM    8  C   UNL     1     -10.772  10.469  67.554  1.00  0.00    -0.276 A  
HETATM    9  C   UNL     1     -11.428  10.729  68.748  1.00  0.00    -0.295 A  
HETATM   10  O   UNL     1     -11.972  11.987  68.636  1.00  0.00    -0.316 OA 
BRANCH   8  11
HETATM   11  C   UNL     1     -10.011   9.288  67.168  1.00  0.00    -0.276 A  
HETATM   12  C   UNL     1      -8.657   9.356  66.813  1.00  0.00    -0.134 A  
HETATM   13  C   UNL     1     -10.657   8.043  67.098  1.00  0.00    -0.367 A  
HETATM   14  C   UNL     1      -7.959   8.207  66.426  1.00  0.00    -0.104 A  
HETATM   15  C   UNL     1      -9.963   6.896  66.697  1.00  0.00    -0.211 A  
HETATM   16  C   UNL     1      -8.613   6.980  66.365  1.00  0.00    -0.136 A  
ENDBRANCH   8  11
BRANCH   9  17
HETATM   17  C   UNL     1     -11.749  10.063  70.002  1.00  0.00    -0.242 A  
HETATM   18  C   UNL     1     -12.239   8.896  72.516  1.00  0.00    -0.299 A  
HETATM   19  C   UNL     1     -10.827   9.173  70.581  1.00  0.00    -0.321 A  
HETATM   20  C   UNL     1     -13.177   9.755  71.948  1.00  0.00    -0.545 A  
HETATM   21  C   UNL     1     -11.065   8.600  71.832  1.00  0.00    -0.416 A  
HETATM   22  C   UNL     1     -12.930  10.341  70.701  1.00  0.00    -0.338 A  
ENDBRANCH   9  17
ENDBRANCH   5   6
ENDBRANCH   4   5
TORSDOF 4
ENDMDL
MODEL       77
REMARK 921   NORMALIZED FREE ENERGY PREDICTED BY IDOCK:   -5.33 KCAL/MOL
REMARK 922        TOTAL FREE ENERGY PREDICTED BY IDOCK:   -7.38 KCAL/MOL
REMARK 923 INTER-LIGAND FREE ENERGY PREDICTED BY IDOCK:   -6.54 KCAL/MOL
REMARK 924 INTRA-LIGAND FREE ENERGY PREDICTED BY IDOCK:   -0.84 KCAL/MOL
REMARK 927      BINDING AFFINITY PREDICTED BY RF-SCORE:    0.00 PKD
ROOT
HETATM    1  O   UNL     1     -10.040  17.873  68.611  1.00  0.00    -0.362 OA 
HETATM    2  C   UNL     1     -10.513  16.955  67.738  1.00  0.00    -0.340 C  
HETATM    3  O   UNL     1     -10.343  17.057  66.532  1.00  0.00    -0.309 OA 
HETATM    4  C   UNL     1     -11.266  15.843  68.418  1.00  0.00    -0.368 C  
ENDROOT
BRANCH   4   5
HETATM    5  C   UNL     1     -11.780  14.831  67.396  1.00  0.00    -0.371 C  
BRANCH   5   6
HETATM    6  C   UNL     1     -11.280  13.463  67.682  1.00  0.00    -0.276 A  
HETATM    7  N   UNL     1     -10.469  12.702  66.983  1.00  0.00    -0.232 NA 
HETATM    8  C   UNL     1     -10.401  11.521  67.708  1.00  0.00    -0.182 A  
HETATM    9  C   UNL     1     -11.205  11.622  68.834  1.00  0.00    -0.246 A  
HETATM   10  O   UNL     1     -11.748  12.885  68.822  1.00  0.00    -0.286 OA 
BRANCH   8  11
HETATM   11  C   UNL     1      -9.582  10.400  67.268  1.00  0.00    -0.182 A  
HETATM   12  C   UNL     1     -10.134   9.274  66.642  1.00  0.00    -0.341 A  
HETATM   13  C   UNL     1      -8.201  10.412  67.520  1.00  0.00    -0.114 A  
HETATM   14  C   UNL     1      -9.324   8.203  66.250  1.00  0.00    -0.259 A  
HETATM   15  C   UNL     1      -7.392   9.335  67.141  1.00  0.00    -0.091 A  
HETATM   16  C   UNL     1      -7.955   8.233  66.503  1.00  0.00    -0.100 A  
ENDBRANCH   8  11
BRANCH   9  17
HETATM   17  C   UNL     1     -11.672  10.795  69.938  1.00  0.00    -0.412 A  
HETATM   18  C   UNL     1     -12.415   9.259  72.176  1.00  0.00    -0.421 A  
HETATM   19  C   UNL     1     -11.003   9.599  70.251  1.00  0.00    -0.337 A  
HETATM   20  C   UNL     1     -13.107  10.428  71.867  1.00  0.00    -0.563 A  
HETATM   21  C   UNL     1     -11.365   8.840  71.366  1.00  0.00    -0.364 A  
HETATM   22  C   UNL     1     -12.734  11.195  70.759  1.00  0.00    -0.388 A  
ENDBRANCH   9  17
ENDBRANCH   5   6
ENDBRANCH   4   5
TORSDOF 4
ENDMDL
MODEL       78
REMARK 921   NORMALIZED FREE ENERGY PREDICTED BY IDOCK:   -5.29 KCAL/MOL
REMARK 922        TOTAL FREE ENERGY PREDICTED BY IDOCK:   -7.33 KCAL/MOL
REMARK 923 INTER-LIGAND FREE ENERGY PREDICTED BY IDOCK:   -6.52 KCAL/MOL
REMARK 924 INTRA-LIGAND FREE ENERGY PREDICTED BY IDOCK:   -0.81 KCAL/MOL
REMARK 927      BINDING AFFINITY PREDICTED BY RF-SCORE:    0.00 PKD
ROOT
HETATM    1  O   UNL     1     -14.062  16.079  72.193  1.00  0.00    -0.232 OA 
HETATM    2  C   UNL     1     -13.193  15.045  72.239  1.00  0.00    -0.375 C  
HETATM    3  O   UNL     1     -12.034  15.186  72.599  1.00  0.00    -0.379 OA 
HETATM    4  C   UNL     1     -13.811  13.748  71.788  1.00  0.00    -0.409 C  
ENDROOT
BRANCH   4   5
HETATM    5  C   UNL     1     -12.795  12.609  71.858  1.00  0.00    -0.305 C  
BRANCH   5   6
HETATM    6  C   UNL     1     -12.200  12.324  70.528  1.00  0.00    -0.300 A  
HETATM    7  N   UNL     1     -11.625  11.230  70.083  1.00  0.00    -0.318 NA 
HETATM    8  C   UNL     1     -11.218  11.560  68.798  1.00  0.00    -0.249 A  
HETATM    9  C   UNL     1     -11.563  12.875  68.525  1.00  0.00    -0.323 A  
HETATM   10  O   UNL     1     -12.218  13.352  69.636  1.00  0.00    -0.291 OA 
BRANCH   8  11
HETATM   11  C   UNL     1     -10.534  10.599  67.943  1.00  0.00    -0.243 A  
HETATM   12  C   UNL     1      -9.468  10.967  67.111  1.00  0.00    -0.181 A  
HETATM   13  C   UNL     1     -10.980   9.268  67.905  1.00  0.00    -0.076 A  
HETATM   14  C   UNL     1      -8.845  10.026  66.284  1.00  0.00    -0.160 A  
HETATM   15  C   UNL     1     -10.367   8.329  67.068  1.00  0.00    -0.393 A  
HETATM   16  C   UNL     1      -9.297   8.709  66.261  1.00  0.00    -0.282 A  
ENDBRANCH   8  11
BRANCH   9  17
HETATM   17  C   UNL     1     -11.385  13.871  67.478  1.00  0.00    -0.342 A  
HETATM   18  C   UNL     1     -10.843  15.765  65.468  1.00  0.00    -0.343 A  
HETATM   19  C   UNL     1     -10.865  15.139  67.796  1.00  0.00    -0.292 A  
HETATM   20  C   UNL     1     -11.381  14.524  65.135  1.00  0.00    -0.366 A  
HETATM   21  C   UNL     1     -10.588  16.076  66.800  1.00  0.00    -0.297 A  
HETATM   22  C   UNL     1     -11.644  13.580  66.133  1.00  0.00    -0.371 A  
ENDBRANCH   9  17
ENDBRANCH   5   6
ENDBRANCH   4   5
TORSDOF 4
ENDMDL
MODEL       79
REMARK 921   NORMALIZED FREE ENERGY PREDICTED BY IDOCK:   -5.28 KCAL/MOL
REMARK 922        TOTAL FREE ENERGY PREDICTED BY IDOCK:   -7.32 KCAL/MOL
REMARK 923 INTER-LIGAND FREE ENERGY PREDICTED BY IDOCK:   -6.38 KCAL/MOL
REMARK 924 INTRA-LIGAND FREE ENERGY PREDICTED BY IDOCK:   -0.94 KCAL/MOL
REMARK 927      BINDING AFFINITY PREDICTED BY RF-SCORE:    0.00 PKD
ROOT
HETATM    1  O   UNL     1      -6.241   8.223  66.407  1.00  0.00    -0.048 OA 
HETATM    2  C   UNL     1      -7.472   8.172  66.964  1.00  0.00    -0.088 C  
HETATM    3  O   UNL     1      -8.372   7.495  66.489  1.00  0.00    -0.117 OA 
HETATM    4  C   UNL     1      -7.591   9.042  68.187  1.00  0.00    -0.092 C  
ENDROOT
BRANCH   4   5
HETATM    5  C   UNL     1      -8.995   8.953  68.782  1.00  0.00    -0.134 C  
BRANCH   5   6
HETATM    6  C   UNL     1      -9.790  10.172  68.492  1.00  0.00    -0.154 A  
HETATM    7  N   UNL     1      -9.852  10.892  67.395  1.00  0.00    -0.171 NA 
HETATM    8  C   UNL     1     -10.712  11.932  67.719  1.00  0.00    -0.207 A  
HETATM    9  C   UNL     1     -11.130  11.794  69.034  1.00  0.00    -0.246 A  
HETATM   10  O   UNL     1     -10.551  10.644  69.517  1.00  0.00    -0.227 OA 
BRANCH   8  11
HETATM   11  C   UNL     1     -11.060  12.966  66.754  1.00  0.00    -0.315 A  
HETATM   12  C   UNL     1     -10.374  14.186  66.688  1.00  0.00    -0.277 A  
HETATM   13  C   UNL     1     -12.148  12.766  65.889  1.00  0.00    -0.485 A  
HETATM   14  C   UNL     1     -10.746  15.169  65.764  1.00  0.00    -0.359 A  
HETATM   15  C   UNL     1     -12.530  13.754  64.975  1.00  0.00    -0.449 A  
HETATM   16  C   UNL     1     -11.825  14.953  64.911  1.00  0.00    -0.337 A  
ENDBRANCH   8  11
BRANCH   9  17
HETATM   17  C   UNL     1     -11.915  12.515  70.027  1.00  0.00    -0.372 A  
HETATM   18  C   UNL     1     -13.289  13.860  72.082  1.00  0.00    -0.555 A  
HETATM   19  C   UNL     1     -12.630  11.805  71.008  1.00  0.00    -0.409 A  
HETATM   20  C   UNL     1     -12.607  14.582  71.106  1.00  0.00    -0.406 A  
HETATM   21  C   UNL     1     -13.306  12.470  72.032  1.00  0.00    -0.528 A  
HETATM   22  C   UNL     1     -11.918  13.914  70.088  1.00  0.00    -0.402 A  
ENDBRANCH   9  17
ENDBRANCH   5   6
ENDBRANCH   4   5
TORSDOF 4
ENDMDL
MODEL       80
REMARK 921   NORMALIZED FREE ENERGY PREDICTED BY IDOCK:   -5.25 KCAL/MOL
REMARK 922        TOTAL FREE ENERGY PREDICTED BY IDOCK:   -7.29 KCAL/MOL
REMARK 923 INTER-LIGAND FREE ENERGY PREDICTED BY IDOCK:   -6.49 KCAL/MOL
REMARK 924 INTRA-LIGAND FREE ENERGY PREDICTED BY IDOCK:   -0.80 KCAL/MOL
REMARK 927      BINDING AFFINITY PREDICTED BY RF-SCORE:    0.00 PKD
ROOT
HETATM    1  O   UNL     1     -11.457  16.453  71.236  1.00  0.00    -0.396 OA 
HETATM    2  C   UNL     1     -11.612  15.696  70.127  1.00  0.00    -0.354 C  
HETATM    3  O   UNL     1     -11.430  16.143  69.005  1.00  0.00    -0.347 OA 
HETATM    4  C   UNL     1     -12.043  14.289  70.443  1.00  0.00    -0.409 C  
ENDROOT
BRANCH   4   5
HETATM    5  C   UNL     1     -12.204  13.470  69.164  1.00  0.00    -0.236 C  
BRANCH   5   6
HETATM    6  C   UNL     1     -11.812  12.053  69.368  1.00  0.00    -0.324 A  
HETATM    7  N   UNL     1     -11.868  11.315  70.454  1.00  0.00    -0.348 NA 
HETATM    8  C   UNL     1     -11.324  10.099  70.066  1.00  0.00    -0.287 A  
HETATM    9  C   UNL     1     -10.944  10.165  68.733  1.00  0.00    -0.223 A  
HETATM   10  O   UNL     1     -11.284  11.419  68.285  1.00  0.00    -0.220 OA 
BRANCH   8  11
HETATM   11  C   UNL     1     -11.211   8.981  70.993  1.00  0.00    -0.361 A  
HETATM   12  C   UNL     1     -12.193   7.986  71.087  1.00  0.00    -0.262 A  
HETATM   13  C   UNL     1     -10.110   8.915  71.863  1.00  0.00    -0.393 A  
HETATM   14  C   UNL     1     -12.066   6.937  72.003  1.00  0.00    -0.331 A  
HETATM   15  C   UNL     1      -9.989   7.874  72.790  1.00  0.00    -0.348 A  
HETATM   16  C   UNL     1     -10.966   6.884  72.856  1.00  0.00    -0.315 A  
ENDBRANCH   8  11
BRANCH   9  17
HETATM   17  C   UNL     1     -10.261   9.353  67.736  1.00  0.00    -0.273 A  
HETATM   18  C   UNL     1      -8.787   7.913  65.818  1.00  0.00    -0.155 A  
HETATM   19  C   UNL     1     -10.139   9.819  66.415  1.00  0.00    -0.313 A  
HETATM   20  C   UNL     1      -8.917   7.423  67.115  1.00  0.00    -0.134 A  
HETATM   21  C   UNL     1      -9.401   9.110  65.465  1.00  0.00    -0.287 A  
HETATM   22  C   UNL     1      -9.643   8.141  68.071  1.00  0.00    -0.174 A  
ENDBRANCH   9  17
ENDBRANCH   5   6
ENDBRANCH   4   5
TORSDOF 4
ENDMDL
MODEL       81
REMARK 921   NORMALIZED FREE ENERGY PREDICTED BY IDOCK:   -5.22 KCAL/MOL
REMARK 922        TOTAL FREE ENERGY PREDICTED BY IDOCK:   -7.25 KCAL/MOL
REMARK 923 INTER-LIGAND FREE ENERGY PREDICTED BY IDOCK:   -6.29 KCAL/MOL
REMARK 924 INTRA-LIGAND FREE ENERGY PREDICTED BY IDOCK:   -0.96 KCAL/MOL
REMARK 927      BINDING AFFINITY PREDICTED BY RF-SCORE:    0.00 PKD
ROOT
HETATM    1  O   UNL     1     -11.713   5.925  72.302  1.00  0.00    -0.307 OA 
HETATM    2  C   UNL     1     -12.176   7.096  71.810  1.00  0.00    -0.344 C  
HETATM    3  O   UNL     1     -13.256   7.181  71.245  1.00  0.00    -0.377 OA 
HETATM    4  C   UNL     1     -11.214   8.234  72.024  1.00  0.00    -0.389 C  
ENDROOT
BRANCH   4   5
HETATM    5  C   UNL     1     -11.778   9.535  71.456  1.00  0.00    -0.472 C  
BRANCH   5   6
HETATM    6  C   UNL     1     -11.223   9.829  70.111  1.00  0.00    -0.272 A  
HETATM    7  N   UNL     1     -10.210   9.278  69.482  1.00  0.00    -0.198 NA 
HETATM    8  C   UNL     1     -10.124   9.986  68.291  1.00  0.00    -0.158 A  
HETATM    9  C   UNL     1     -11.105  10.966  68.262  1.00  0.00    -0.266 A  
HETATM   10  O   UNL     1     -11.825  10.841  69.427  1.00  0.00    -0.294 OA 
BRANCH   8  11
HETATM   11  C   UNL     1      -9.115   9.674  67.288  1.00  0.00    -0.150 A  
HETATM   12  C   UNL     1      -8.110  10.584  66.932  1.00  0.00    -0.120 A  
HETATM   13  C   UNL     1      -9.172   8.445  66.611  1.00  0.00    -0.226 A  
HETATM   14  C   UNL     1      -7.169  10.263  65.948  1.00  0.00    -0.131 A  
HETATM   15  C   UNL     1      -8.239   8.130  65.616  1.00  0.00    -0.133 A  
HETATM   16  C   UNL     1      -7.236   9.039  65.289  1.00  0.00    -0.088 A  
ENDBRANCH   8  11
BRANCH   9  17
HETATM   17  C   UNL     1     -11.535  12.078  67.426  1.00  0.00    -0.406 A  
HETATM   18  C   UNL     1     -12.183  14.311  65.841  1.00  0.00    -0.422 A  
HETATM   19  C   UNL     1     -11.839  13.320  68.012  1.00  0.00    -0.392 A  
HETATM   20  C   UNL     1     -11.910  13.083  65.243  1.00  0.00    -0.413 A  
HETATM   21  C   UNL     1     -12.152  14.431  67.226  1.00  0.00    -0.358 A  
HETATM   22  C   UNL     1     -11.580  11.975  66.031  1.00  0.00    -0.371 A  
ENDBRANCH   9  17
ENDBRANCH   5   6
ENDBRANCH   4   5
TORSDOF 4
ENDMDL
MODEL       82
REMARK 921   NORMALIZED FREE ENERGY PREDICTED BY IDOCK:   -5.22 KCAL/MOL
REMARK 922        TOTAL FREE ENERGY PREDICTED BY IDOCK:   -7.24 KCAL/MOL
REMARK 923 INTER-LIGAND FREE ENERGY PREDICTED BY IDOCK:   -6.26 KCAL/MOL
REMARK 924 INTRA-LIGAND FREE ENERGY PREDICTED BY IDOCK:   -0.99 KCAL/MOL
REMARK 927      BINDING AFFINITY PREDICTED BY RF-SCORE:    0.00 PKD
ROOT
HETATM    1  O   UNL     1      -9.037   7.587  70.982  1.00  0.00    -0.147 OA 
HETATM    2  C   UNL     1     -10.153   8.069  70.390  1.00  0.00    -0.194 C  
HETATM    3  O   UNL     1     -10.820   7.398  69.617  1.00  0.00    -0.239 OA 
HETATM    4  C   UNL     1     -10.443   9.495  70.777  1.00  0.00    -0.384 C  
ENDROOT
BRANCH   4   5
HETATM    5  C   UNL     1     -11.711   9.996  70.088  1.00  0.00    -0.285 C  
BRANCH   5   6
HETATM    6  C   UNL     1     -11.400  10.974  69.015  1.00  0.00    -0.277 A  
HETATM    7  N   UNL     1     -11.969  11.144  67.843  1.00  0.00    -0.620 NA 
HETATM    8  C   UNL     1     -11.233  12.160  67.252  1.00  0.00    -0.306 A  
HETATM    9  C   UNL     1     -10.218  12.557  68.110  1.00  0.00    -0.231 A  
HETATM   10  O   UNL     1     -10.349  11.805  69.254  1.00  0.00    -0.056 OA 
BRANCH   8  11
HETATM   11  C   UNL     1     -11.553  12.663  65.923  1.00  0.00    -0.443 A  
HETATM   12  C   UNL     1     -12.066  13.950  65.716  1.00  0.00    -0.449 A  
HETATM   13  C   UNL     1     -11.395  11.822  64.809  1.00  0.00    -0.313 A  
HETATM   14  C   UNL     1     -12.384  14.397  64.429  1.00  0.00    -0.428 A  
HETATM   15  C   UNL     1     -11.727  12.263  63.523  1.00  0.00    -0.584 A  
HETATM   16  C   UNL     1     -12.218  13.552  63.335  1.00  0.00    -0.338 A  
ENDBRANCH   8  11
BRANCH   9  17
HETATM   17  C   UNL     1      -9.068  13.451  68.126  1.00  0.00    -0.207 A  
HETATM   18  C   UNL     1      -6.806  15.118  67.970  1.00  0.00    -0.152 A  
HETATM   19  C   UNL     1      -7.770  12.923  68.230  1.00  0.00    -0.137 A  
HETATM   20  C   UNL     1      -8.085  15.663  67.890  1.00  0.00    -0.149 A  
HETATM   21  C   UNL     1      -6.646  13.747  68.145  1.00  0.00    -0.126 A  
HETATM   22  C   UNL     1      -9.209  14.834  67.961  1.00  0.00    -0.194 A  
ENDBRANCH   9  17
ENDBRANCH   5   6
ENDBRANCH   4   5
TORSDOF 4
ENDMDL
MODEL       83
REMARK 921   NORMALIZED FREE ENERGY PREDICTED BY IDOCK:   -5.12 KCAL/MOL
REMARK 922        TOTAL FREE ENERGY PREDICTED BY IDOCK:   -7.13 KCAL/MOL
REMARK 923 INTER-LIGAND FREE ENERGY PREDICTED BY IDOCK:   -6.18 KCAL/MOL
REMARK 924 INTRA-LIGAND FREE ENERGY PREDICTED BY IDOCK:   -0.95 KCAL/MOL
REMARK 927      BINDING AFFINITY PREDICTED BY RF-SCORE:    0.00 PKD
ROOT
HETATM    1  O   UNL     1     -11.530   6.153  69.774  1.00  0.00    -0.433 OA 
HETATM    2  C   UNL     1     -11.175   7.407  70.131  1.00  0.00    -0.218 C  
HETATM    3  O   UNL     1     -11.877   8.100  70.852  1.00  0.00    -0.285 OA 
HETATM    4  C   UNL     1      -9.862   7.831  69.530  1.00  0.00    -0.179 C  
ENDROOT
BRANCH   4   5
HETATM    5  C   UNL     1      -9.501   9.251  69.961  1.00  0.00    -0.236 C  
BRANCH   5   6
HETATM    6  C   UNL     1      -9.687  10.222  68.854  1.00  0.00    -0.189 A  
HETATM    7  N   UNL     1     -10.478  10.160  67.807  1.00  0.00    -0.214 NA 
HETATM    8  C   UNL     1     -10.192  11.316  67.095  1.00  0.00    -0.201 A  
HETATM    9  C   UNL     1      -9.206  12.035  67.755  1.00  0.00    -0.190 A  
HETATM   10  O   UNL     1      -8.904  11.335  68.900  1.00  0.00    -0.142 OA 
BRANCH   8  11
HETATM   11  C   UNL     1     -10.875  11.637  65.850  1.00  0.00    -0.339 A  
HETATM   12  C   UNL     1     -10.404  11.196  64.605  1.00  0.00    -0.393 A  
HETATM   13  C   UNL     1     -12.016  12.455  65.878  1.00  0.00    -0.434 A  
HETATM   14  C   UNL     1     -11.071  11.538  63.424  1.00  0.00    -0.370 A  
HETATM   15  C   UNL     1     -12.675  12.810  64.696  1.00  0.00    -0.439 A  
HETATM   16  C   UNL     1     -12.203  12.348  63.470  1.00  0.00    -0.661 A  
ENDBRANCH   8  11
BRANCH   9  17
HETATM   17  C   UNL     1      -8.388  13.225  67.565  1.00  0.00    -0.186 A  
HETATM   18  C   UNL     1      -6.900  15.604  67.356  1.00  0.00    -0.231 A  
HETATM   19  C   UNL     1      -8.966  14.399  67.050  1.00  0.00    -0.257 A  
HETATM   20  C   UNL     1      -6.303  14.445  67.845  1.00  0.00    -0.173 A  
HETATM   21  C   UNL     1      -8.231  15.582  66.954  1.00  0.00    -0.287 A  
HETATM   22  C   UNL     1      -7.044  13.264  67.956  1.00  0.00    -0.122 A  
ENDBRANCH   9  17
ENDBRANCH   5   6
ENDBRANCH   4   5
TORSDOF 4
ENDMDL
MODEL       84
REMARK 921   NORMALIZED FREE ENERGY PREDICTED BY IDOCK:   -5.10 KCAL/MOL
REMARK 922        TOTAL FREE ENERGY PREDICTED BY IDOCK:   -7.10 KCAL/MOL
REMARK 923 INTER-LIGAND FREE ENERGY PREDICTED BY IDOCK:   -6.39 KCAL/MOL
REMARK 924 INTRA-LIGAND FREE ENERGY PREDICTED BY IDOCK:   -0.71 KCAL/MOL
REMARK 927      BINDING AFFINITY PREDICTED BY RF-SCORE:    0.00 PKD
ROOT
HETATM    1  O   UNL     1     -14.380   8.819  72.041  1.00  0.00    -0.420 OA 
HETATM    2  C   UNL     1     -13.080   8.552  71.786  1.00  0.00    -0.355 C  
HETATM    3  O   UNL     1     -12.581   7.462  72.024  1.00  0.00    -0.293 OA 
HETATM    4  C   UNL     1     -12.348   9.735  71.210  1.00  0.00    -0.465 C  
ENDROOT
BRANCH   4   5
HETATM    5  C   UNL     1     -10.885   9.388  70.937  1.00  0.00    -0.392 C  
BRANCH   5   6
HETATM    6  C   UNL     1     -10.591   9.369  69.482  1.00  0.00    -0.222 A  
HETATM    7  N   UNL     1     -10.629  10.346  68.605  1.00  0.00    -0.196 NA 
HETATM    8  C   UNL     1     -10.311   9.735  67.401  1.00  0.00    -0.240 A  
HETATM    9  C   UNL     1     -10.103   8.379  67.610  1.00  0.00    -0.209 A  
HETATM   10  O   UNL     1     -10.261   8.157  68.957  1.00  0.00    -0.210 OA 
BRANCH   8  11
HETATM   11  C   UNL     1     -10.235  10.489  66.157  1.00  0.00    -0.299 A  
HETATM   12  C   UNL     1      -9.464  10.057  65.069  1.00  0.00    -0.339 A  
HETATM   13  C   UNL     1     -10.911  11.715  66.050  1.00  0.00    -0.339 A  
HETATM   14  C   UNL     1      -9.394  10.815  63.895  1.00  0.00    -0.284 A  
HETATM   15  C   UNL     1     -10.829  12.480  64.881  1.00  0.00    -0.327 A  
HETATM   16  C   UNL     1     -10.073  12.027  63.803  1.00  0.00    -0.419 A  
ENDBRANCH   8  11
BRANCH   9  17
HETATM   17  C   UNL     1      -9.843   7.168  66.844  1.00  0.00    -0.271 A  
HETATM   18  C   UNL     1      -9.230   4.763  65.517  1.00  0.00    -0.155 A  
HETATM   19  C   UNL     1      -8.578   6.961  66.265  1.00  0.00    -0.138 A  
HETATM   20  C   UNL     1     -10.496   4.960  66.062  1.00  0.00    -0.327 A  
HETATM   21  C   UNL     1      -8.270   5.765  65.614  1.00  0.00    -0.128 A  
HETATM   22  C   UNL     1     -10.800   6.152  66.727  1.00  0.00    -0.360 A  
ENDBRANCH   9  17
ENDBRANCH   5   6
ENDBRANCH   4   5
TORSDOF 4
ENDMDL
MODEL       85
REMARK 921   NORMALIZED FREE ENERGY PREDICTED BY IDOCK:   -4.96 KCAL/MOL
REMARK 922        TOTAL FREE ENERGY PREDICTED BY IDOCK:   -6.93 KCAL/MOL
REMARK 923 INTER-LIGAND FREE ENERGY PREDICTED BY IDOCK:   -6.05 KCAL/MOL
REMARK 924 INTRA-LIGAND FREE ENERGY PREDICTED BY IDOCK:   -0.88 KCAL/MOL
REMARK 927      BINDING AFFINITY PREDICTED BY RF-SCORE:    0.00 PKD
ROOT
HETATM    1  O   UNL     1      -9.495  11.395  62.426  1.00  0.00    -0.194 OA 
HETATM    2  C   UNL     1     -10.217  11.852  63.473  1.00  0.00    -0.457 C  
HETATM    3  O   UNL     1     -11.361  12.262  63.343  1.00  0.00    -0.440 OA 
HETATM    4  C   UNL     1      -9.451  11.811  64.768  1.00  0.00    -0.031 C  
ENDROOT
BRANCH   4   5
HETATM    5  C   UNL     1     -10.305  12.335  65.921  1.00  0.00    -0.280 C  
BRANCH   5   6
HETATM    6  C   UNL     1     -10.572  11.277  66.927  1.00  0.00    -0.257 A  
HETATM    7  N   UNL     1     -11.052  11.380  68.146  1.00  0.00    -0.227 NA 
HETATM    8  C   UNL     1     -11.034  10.079  68.629  1.00  0.00    -0.204 A  
HETATM    9  C   UNL     1     -10.519   9.232  67.660  1.00  0.00    -0.264 A  
HETATM   10  O   UNL     1     -10.247  10.008  66.558  1.00  0.00    -0.228 OA 
BRANCH   8  11
HETATM   11  C   UNL     1     -11.504   9.755  69.969  1.00  0.00    -0.232 A  
HETATM   12  C   UNL     1     -10.962   8.699  70.714  1.00  0.00    -0.286 A  
HETATM   13  C   UNL     1     -12.569  10.484  70.523  1.00  0.00    -0.423 A  
HETATM   14  C   UNL     1     -11.450   8.398  71.991  1.00  0.00    -0.418 A  
HETATM   15  C   UNL     1     -13.067  10.174  71.793  1.00  0.00    -0.568 A  
HETATM   16  C   UNL     1     -12.504   9.133  72.527  1.00  0.00    -0.260 A  
ENDBRANCH   8  11
BRANCH   9  17
HETATM   17  C   UNL     1     -10.138   7.835  67.499  1.00  0.00    -0.272 A  
HETATM   18  C   UNL     1      -9.398   5.168  66.992  1.00  0.00    -0.127 A  
HETATM   19  C   UNL     1     -11.071   6.904  67.012  1.00  0.00    -0.315 A  
HETATM   20  C   UNL     1      -8.465   6.069  67.499  1.00  0.00    -0.107 A  
HETATM   21  C   UNL     1     -10.704   5.583  66.751  1.00  0.00    -0.329 A  
HETATM   22  C   UNL     1      -8.831   7.397  67.745  1.00  0.00    -0.128 A  
ENDBRANCH   9  17
ENDBRANCH   5   6
ENDBRANCH   4   5
TORSDOF 4
ENDMDL
MODEL       86
REMARK 921   NORMALIZED FREE ENERGY PREDICTED BY IDOCK:   -4.95 KCAL/MOL
REMARK 922        TOTAL FREE ENERGY PREDICTED BY IDOCK:   -6.92 KCAL/MOL
REMARK 923 INTER-LIGAND FREE ENERGY PREDICTED BY IDOCK:   -6.05 KCAL/MOL
REMARK 924 INTRA-LIGAND FREE ENERGY PREDICTED BY IDOCK:   -0.87 KCAL/MOL
REMARK 927      BINDING AFFINITY PREDICTED BY RF-SCORE:    0.00 PKD
ROOT
HETATM    1  O   UNL     1      -6.912   5.461  68.068  1.00  0.00    -0.062 OA 
HETATM    2  C   UNL     1      -7.884   5.793  67.188  1.00  0.00    -0.102 C  
HETATM    3  O   UNL     1      -8.631   4.958  66.701  1.00  0.00    -0.110 OA 
HETATM    4  C   UNL     1      -7.910   7.267  66.883  1.00  0.00    -0.111 C  
ENDROOT
BRANCH   4   5
HETATM    5  C   UNL     1      -9.022   7.596  65.889  1.00  0.00    -0.144 C  
BRANCH   5   6
HETATM    6  C   UNL     1      -9.677   8.888  66.209  1.00  0.00    -0.275 A  
HETATM    7  N   UNL     1      -9.743   9.994  65.503  1.00  0.00    -0.269 NA 
HETATM    8  C   UNL     1     -10.431  10.879  66.320  1.00  0.00    -0.245 A  
HETATM    9  C   UNL     1     -10.745  10.255  67.519  1.00  0.00    -0.294 A  
HETATM   10  O   UNL     1     -10.277   8.965  67.429  1.00  0.00    -0.211 OA 
BRANCH   8  11
HETATM   11  C   UNL     1     -10.728  12.240  65.895  1.00  0.00    -0.294 A  
HETATM   12  C   UNL     1      -9.904  13.323  66.231  1.00  0.00    -0.288 A  
HETATM   13  C   UNL     1     -11.901  12.496  65.167  1.00  0.00    -0.450 A  
HETATM   14  C   UNL     1     -10.228  14.622  65.826  1.00  0.00    -0.360 A  
HETATM   15  C   UNL     1     -12.233  13.797  64.774  1.00  0.00    -0.438 A  
HETATM   16  C   UNL     1     -11.393  14.859  65.101  1.00  0.00    -0.379 A  
ENDBRANCH   8  11
BRANCH   9  17
HETATM   17  C   UNL     1     -11.339  10.572  68.810  1.00  0.00    -0.310 A  
HETATM   18  C   UNL     1     -12.302  11.207  71.377  1.00  0.00    -0.338 A  
HETATM   19  C   UNL     1     -11.292   9.633  69.855  1.00  0.00    -0.200 A  
HETATM   20  C   UNL     1     -12.380  12.143  70.348  1.00  0.00    -0.315 A  
HETATM   21  C   UNL     1     -11.761   9.949  71.131  1.00  0.00    -0.478 A  
HETATM   22  C   UNL     1     -11.896  11.830  69.074  1.00  0.00    -0.379 A  
ENDBRANCH   9  17
ENDBRANCH   5   6
ENDBRANCH   4   5
TORSDOF 4
ENDMDL
MODEL       87
REMARK 921   NORMALIZED FREE ENERGY PREDICTED BY IDOCK:   -4.94 KCAL/MOL
REMARK 922        TOTAL FREE ENERGY PREDICTED BY IDOCK:   -6.90 KCAL/MOL
REMARK 923 INTER-LIGAND FREE ENERGY PREDICTED BY IDOCK:   -6.07 KCAL/MOL
REMARK 924 INTRA-LIGAND FREE ENERGY PREDICTED BY IDOCK:   -0.83 KCAL/MOL
REMARK 927      BINDING AFFINITY PREDICTED BY RF-SCORE:    0.00 PKD
ROOT
HETATM    1  O   UNL     1     -11.866  15.798  72.609  1.00  0.00    -0.428 OA 
HETATM    2  C   UNL     1     -12.148  15.722  71.289  1.00  0.00    -0.437 C  
HETATM    3  O   UNL     1     -13.122  15.117  70.867  1.00  0.00    -0.409 OA 
HETATM    4  C   UNL     1     -11.131  16.435  70.437  1.00  0.00    -0.246 C  
ENDROOT
BRANCH   4   5
HETATM    5  C   UNL     1     -11.490  16.324  68.957  1.00  0.00    -0.268 C  
BRANCH   5   6
HETATM    6  C   UNL     1     -10.834  15.154  68.321  1.00  0.00    -0.262 A  
HETATM    7  N   UNL     1      -9.686  14.580  68.602  1.00  0.00    -0.219 NA 
HETATM    8  C   UNL     1      -9.569  13.574  67.654  1.00  0.00    -0.222 A  
HETATM    9  C   UNL     1     -10.673  13.595  66.816  1.00  0.00    -0.272 A  
HETATM   10  O   UNL     1     -11.496  14.600  67.268  1.00  0.00    -0.346 OA 
BRANCH   8  11
HETATM   11  C   UNL     1      -8.417  12.682  67.624  1.00  0.00    -0.173 A  
HETATM   12  C   UNL     1      -8.551  11.289  67.705  1.00  0.00    -0.124 A  
HETATM   13  C   UNL     1      -7.124  13.225  67.564  1.00  0.00    -0.156 A  
HETATM   14  C   UNL     1      -7.424  10.459  67.696  1.00  0.00    -0.089 A  
HETATM   15  C   UNL     1      -5.996  12.397  67.570  1.00  0.00    -0.144 A  
HETATM   16  C   UNL     1      -6.148  11.014  67.632  1.00  0.00    -0.048 A  
ENDBRANCH   8  11
BRANCH   9  17
HETATM   17  C   UNL     1     -11.162  12.937  65.612  1.00  0.00    -0.325 A  
HETATM   18  C   UNL     1     -12.111  11.847  63.197  1.00  0.00    -0.321 A  
HETATM   19  C   UNL     1     -12.508  13.082  65.230  1.00  0.00    -0.555 A  
HETATM   20  C   UNL     1     -10.781  11.672  63.570  1.00  0.00    -0.495 A  
HETATM   21  C   UNL     1     -12.978  12.549  64.028  1.00  0.00    -0.212 A  
HETATM   22  C   UNL     1     -10.307  12.219  64.767  1.00  0.00    -0.320 A  
ENDBRANCH   9  17
ENDBRANCH   5   6
ENDBRANCH   4   5
TORSDOF 4
ENDMDL
MODEL       88
REMARK 921   NORMALIZED FREE ENERGY PREDICTED BY IDOCK:   -4.93 KCAL/MOL
REMARK 922        TOTAL FREE ENERGY PREDICTED BY IDOCK:   -6.89 KCAL/MOL
REMARK 923 INTER-LIGAND FREE ENERGY PREDICTED BY IDOCK:   -6.00 KCAL/MOL
REMARK 924 INTRA-LIGAND FREE ENERGY PREDICTED BY IDOCK:   -0.90 KCAL/MOL
REMARK 927      BINDING AFFINITY PREDICTED BY RF-SCORE:    0.00 PKD
ROOT
HETATM    1  O   UNL     1     -11.890  14.999  69.472  1.00  0.00    -0.298 OA 
HETATM    2  C   UNL     1     -12.471  14.140  70.338  1.00  0.00    -0.357 C  
HETATM    3  O   UNL     1     -13.248  14.516  71.203  1.00  0.00    -0.346 OA 
HETATM    4  C   UNL     1     -12.038  12.715  70.120  1.00  0.00    -0.368 C  
ENDROOT
BRANCH   4   5
HETATM    5  C   UNL     1     -12.720  11.781  71.117  1.00  0.00    -0.405 C  
BRANCH   5   6
HETATM    6  C   UNL     1     -11.971  10.508  71.275  1.00  0.00    -0.289 A  
HETATM    7  N   UNL     1     -12.205   9.490  72.072  1.00  0.00    -0.338 NA 
HETATM    8  C   UNL     1     -11.156   8.617  71.823  1.00  0.00    -0.326 A  
HETATM    9  C   UNL     1     -10.308   9.168  70.874  1.00  0.00    -0.280 A  
HETATM   10  O   UNL     1     -10.854  10.376  70.508  1.00  0.00    -0.276 OA 
BRANCH   8  11
HETATM   11  C   UNL     1     -11.047   7.337  72.511  1.00  0.00    -0.334 A  
HETATM   12  C   UNL     1     -11.823   6.228  72.149  1.00  0.00    -0.365 A  
HETATM   13  C   UNL     1     -10.176   7.213  73.605  1.00  0.00    -0.402 A  
HETATM   14  C   UNL     1     -11.712   5.018  72.843  1.00  0.00    -0.200 A  
HETATM   15  C   UNL     1     -10.075   6.007  74.309  1.00  0.00    -0.307 A  
HETATM   16  C   UNL     1     -10.841   4.910  73.924  1.00  0.00    -0.355 A  
ENDBRANCH   8  11
BRANCH   9  17
HETATM   17  C   UNL     1      -9.033   8.885  70.230  1.00  0.00    -0.201 A  
HETATM   18  C   UNL     1      -6.652   8.392  68.813  1.00  0.00    -0.054 A  
HETATM   19  C   UNL     1      -8.893   7.742  69.422  1.00  0.00    -0.139 A  
HETATM   20  C   UNL     1      -6.762   9.516  69.628  1.00  0.00    -0.054 A  
HETATM   21  C   UNL     1      -7.716   7.501  68.712  1.00  0.00    -0.119 A  
HETATM   22  C   UNL     1      -7.948   9.765  70.327  1.00  0.00    -0.185 A  
ENDBRANCH   9  17
ENDBRANCH   5   6
ENDBRANCH   4   5
TORSDOF 4
ENDMDL
MODEL       89
REMARK 921   NORMALIZED FREE ENERGY PREDICTED BY IDOCK:   -4.86 KCAL/MOL
REMARK 922        TOTAL FREE ENERGY PREDICTED BY IDOCK:   -6.80 KCAL/MOL
REMARK 923 INTER-LIGAND FREE ENERGY PREDICTED BY IDOCK:   -5.99 KCAL/MOL
REMARK 924 INTRA-LIGAND FREE ENERGY PREDICTED BY IDOCK:   -0.81 KCAL/MOL
REMARK 927      BINDING AFFINITY PREDICTED BY RF-SCORE:    0.00 PKD
ROOT
HETATM    1  O   UNL     1     -11.067  14.147  64.457  1.00  0.00    -0.376 OA 
HETATM    2  C   UNL     1     -10.939  14.024  65.797  1.00  0.00    -0.294 C  
HETATM    3  O   UNL     1     -10.132  14.684  66.435  1.00  0.00    -0.260 OA 
HETATM    4  C   UNL     1     -11.871  12.993  66.376  1.00  0.00    -0.465 C  
ENDROOT
BRANCH   4   5
HETATM    5  C   UNL     1     -11.693  12.890  67.889  1.00  0.00    -0.405 C  
BRANCH   5   6
HETATM    6  C   UNL     1     -11.372  11.503  68.309  1.00  0.00    -0.286 A  
HETATM    7  N   UNL     1     -11.598  10.899  69.454  1.00  0.00    -0.289 NA 
HETATM    8  C   UNL     1     -11.040   9.640  69.289  1.00  0.00    -0.118 A  
HETATM    9  C   UNL     1     -10.478   9.543  68.025  1.00  0.00    -0.230 A  
HETATM   10  O   UNL     1     -10.719  10.740  67.391  1.00  0.00    -0.231 OA 
BRANCH   8  11
HETATM   11  C   UNL     1     -11.086   8.639  70.346  1.00  0.00    -0.250 A  
HETATM   12  C   UNL     1     -11.457   7.310  70.100  1.00  0.00    -0.197 A  
HETATM   13  C   UNL     1     -10.801   9.016  71.668  1.00  0.00    -0.437 A  
HETATM   14  C   UNL     1     -11.513   6.376  71.140  1.00  0.00    -0.381 A  
HETATM   15  C   UNL     1     -10.871   8.087  72.712  1.00  0.00    -0.438 A  
HETATM   16  C   UNL     1     -11.224   6.766  72.445  1.00  0.00    -0.300 A  
ENDBRANCH   8  11
BRANCH   9  17
HETATM   17  C   UNL     1      -9.687   8.611  67.233  1.00  0.00    -0.241 A  
HETATM   18  C   UNL     1      -8.041   6.784  65.865  1.00  0.00    -0.123 A  
HETATM   19  C   UNL     1      -8.412   8.987  66.773  1.00  0.00    -0.121 A  
HETATM   20  C   UNL     1      -9.310   6.401  66.291  1.00  0.00    -0.149 A  
HETATM   21  C   UNL     1      -7.591   8.080  66.101  1.00  0.00    -0.086 A  
HETATM   22  C   UNL     1     -10.126   7.306  66.977  1.00  0.00    -0.316 A  
ENDBRANCH   9  17
ENDBRANCH   5   6
ENDBRANCH   4   5
TORSDOF 4
ENDMDL
MODEL       90
REMARK 921   NORMALIZED FREE ENERGY PREDICTED BY IDOCK:   -4.84 KCAL/MOL
REMARK 922        TOTAL FREE ENERGY PREDICTED BY IDOCK:   -6.78 KCAL/MOL
REMARK 923 INTER-LIGAND FREE ENERGY PREDICTED BY IDOCK:   -5.91 KCAL/MOL
REMARK 924 INTRA-LIGAND FREE ENERGY PREDICTED BY IDOCK:   -0.88 KCAL/MOL
REMARK 927      BINDING AFFINITY PREDICTED BY RF-SCORE:    0.00 PKD
ROOT
HETATM    1  O   UNL     1     -12.715  14.348  66.068  1.00  0.00    -0.360 OA 
HETATM    2  C   UNL     1     -12.358  13.159  65.533  1.00  0.00    -0.474 C  
HETATM    3  O   UNL     1     -13.110  12.517  64.815  1.00  0.00    -0.853 OA 
HETATM    4  C   UNL     1     -10.972  12.734  65.939  1.00  0.00    -0.303 C  
ENDROOT
BRANCH   4   5
HETATM    5  C   UNL     1     -10.611  11.389  65.311  1.00  0.00    -0.336 C  
BRANCH   5   6
HETATM    6  C   UNL     1     -10.359  10.354  66.345  1.00  0.00    -0.213 A  
HETATM    7  N   UNL     1     -10.420  10.442  67.654  1.00  0.00    -0.215 NA 
HETATM    8  C   UNL     1     -10.036   9.185  68.098  1.00  0.00    -0.189 A  
HETATM    9  C   UNL     1      -9.740   8.379  67.008  1.00  0.00    -0.206 A  
HETATM   10  O   UNL     1      -9.975   9.133  65.882  1.00  0.00    -0.295 OA 
BRANCH   8  11
HETATM   11  C   UNL     1      -9.981   8.859  69.516  1.00  0.00    -0.191 A  
HETATM   12  C   UNL     1     -11.082   9.033  70.365  1.00  0.00    -0.279 A  
HETATM   13  C   UNL     1      -8.775   8.402  70.073  1.00  0.00    -0.133 A  
HETATM   14  C   UNL     1     -10.991   8.731  71.728  1.00  0.00    -0.415 A  
HETATM   15  C   UNL     1      -8.679   8.114  71.439  1.00  0.00    -0.179 A  
HETATM   16  C   UNL     1      -9.789   8.275  72.264  1.00  0.00    -0.364 A  
ENDBRANCH   8  11
BRANCH   9  17
HETATM   17  C   UNL     1      -9.215   7.051  66.724  1.00  0.00    -0.181 A  
HETATM   18  C   UNL     1      -8.298   4.491  66.000  1.00  0.00    -0.113 A  
HETATM   19  C   UNL     1     -10.064   5.932  66.786  1.00  0.00    -0.235 A  
HETATM   20  C   UNL     1      -7.434   5.583  65.956  1.00  0.00    -0.082 A  
HETATM   21  C   UNL     1      -9.613   4.663  66.419  1.00  0.00    -0.188 A  
HETATM   22  C   UNL     1      -7.892   6.857  66.309  1.00  0.00    -0.101 A  
ENDBRANCH   9  17
ENDBRANCH   5   6
ENDBRANCH   4   5
TORSDOF 4
ENDMDL
MODEL       91
REMARK 921   NORMALIZED FREE ENERGY PREDICTED BY IDOCK:   -4.82 KCAL/MOL
REMARK 922        TOTAL FREE ENERGY PREDICTED BY IDOCK:   -6.75 KCAL/MOL
REMARK 923 INTER-LIGAND FREE ENERGY PREDICTED BY IDOCK:   -5.95 KCAL/MOL
REMARK 924 INTRA-LIGAND FREE ENERGY PREDICTED BY IDOCK:   -0.80 KCAL/MOL
REMARK 927      BINDING AFFINITY PREDICTED BY RF-SCORE:    0.00 PKD
ROOT
HETATM    1  O   UNL     1     -13.069  13.607  72.781  1.00  0.00    -0.447 OA 
HETATM    2  C   UNL     1     -13.186  12.948  71.607  1.00  0.00    -0.324 C  
HETATM    3  O   UNL     1     -13.570  13.500  70.587  1.00  0.00     0.260 OA 
HETATM    4  C   UNL     1     -12.814  11.494  71.721  1.00  0.00    -0.441 C  
ENDROOT
BRANCH   4   5
HETATM    5  C   UNL     1     -12.959  10.790  70.373  1.00  0.00    -0.196 C  
BRANCH   5   6
HETATM    6  C   UNL     1     -11.861  11.157  69.443  1.00  0.00    -0.345 A  
HETATM    7  N   UNL     1     -10.611  11.466  69.702  1.00  0.00     0.009 NA 
HETATM    8  C   UNL     1     -10.071  11.766  68.460  1.00  0.00    -0.207 A  
HETATM    9  C   UNL     1     -11.049  11.633  67.485  1.00  0.00    -0.276 A  
HETATM   10  O   UNL     1     -12.193  11.216  68.124  1.00  0.00    -0.612 OA 
BRANCH   8  11
HETATM   11  C   UNL     1      -8.676  12.155  68.306  1.00  0.00    -0.178 A  
HETATM   12  C   UNL     1      -7.621  11.329  68.716  1.00  0.00    -0.130 A  
HETATM   13  C   UNL     1      -8.365  13.418  67.777  1.00  0.00    -0.178 A  
HETATM   14  C   UNL     1      -6.291  11.740  68.575  1.00  0.00    -0.053 A  
HETATM   15  C   UNL     1      -7.036  13.836  67.649  1.00  0.00    -0.187 A  
HETATM   16  C   UNL     1      -6.000  12.994  68.046  1.00  0.00    -0.112 A  
ENDBRANCH   8  11
BRANCH   9  17
HETATM   17  C   UNL     1     -11.227  11.860  66.058  1.00  0.00    -0.377 A  
HETATM   18  C   UNL     1     -11.443  12.452  63.315  1.00  0.00    -0.426 A  
HETATM   19  C   UNL     1     -11.981  12.959  65.610  1.00  0.00    -0.490 A  
HETATM   20  C   UNL     1     -10.712  11.344  63.737  1.00  0.00    -0.470 A  
HETATM   21  C   UNL     1     -12.082  13.259  64.250  1.00  0.00    -0.475 A  
HETATM   22  C   UNL     1     -10.599  11.053  65.101  1.00  0.00    -0.295 A  
ENDBRANCH   9  17
ENDBRANCH   5   6
ENDBRANCH   4   5
TORSDOF 4
ENDMDL
MODEL       92
REMARK 921   NORMALIZED FREE ENERGY PREDICTED BY IDOCK:   -4.80 KCAL/MOL
REMARK 922        TOTAL FREE ENERGY PREDICTED BY IDOCK:   -6.73 KCAL/MOL
REMARK 923 INTER-LIGAND FREE ENERGY PREDICTED BY IDOCK:   -5.97 KCAL/MOL
REMARK 924 INTRA-LIGAND FREE ENERGY PREDICTED BY IDOCK:   -0.76 KCAL/MOL
REMARK 927      BINDING AFFINITY PREDICTED BY RF-SCORE:    0.00 PKD
ROOT
HETATM    1  O   UNL     1     -13.717   9.299  72.339  1.00  0.00    -0.465 OA 
HETATM    2  C   UNL     1     -13.097   8.170  71.930  1.00  0.00    -0.327 C  
HETATM    3  O   UNL     1     -13.716   7.154  71.651  1.00  0.00    -0.376 OA 
HETATM    4  C   UNL     1     -11.599   8.315  71.886  1.00  0.00    -0.377 C  
ENDROOT
BRANCH   4   5
HETATM    5  C   UNL     1     -10.942   7.017  71.418  1.00  0.00    -0.266 C  
BRANCH   5   6
HETATM    6  C   UNL     1     -10.698   7.025  69.954  1.00  0.00    -0.240 A  
HETATM    7  N   UNL     1     -10.377   6.036  69.151  1.00  0.00    -0.205 NA 
HETATM    8  C   UNL     1     -10.228   6.640  67.911  1.00  0.00    -0.171 A  
HETATM    9  C   UNL     1     -10.459   8.003  68.028  1.00  0.00    -0.184 A  
HETATM   10  O   UNL     1     -10.785   8.238  69.342  1.00  0.00    -0.221 OA 
BRANCH   8  11
HETATM   11  C   UNL     1      -9.877   5.872  66.724  1.00  0.00    -0.191 A  
HETATM   12  C   UNL     1     -10.764   4.960  66.135  1.00  0.00    -0.243 A  
HETATM   13  C   UNL     1      -8.593   6.003  66.171  1.00  0.00    -0.142 A  
HETATM   14  C   UNL     1     -10.390   4.221  65.008  1.00  0.00    -0.203 A  
HETATM   15  C   UNL     1      -8.212   5.253  65.053  1.00  0.00    -0.134 A  
HETATM   16  C   UNL     1      -9.113   4.366  64.470  1.00  0.00    -0.152 A  
ENDBRANCH   8  11
BRANCH   9  17
HETATM   17  C   UNL     1     -10.394   9.210  67.216  1.00  0.00    -0.338 A  
HETATM   18  C   UNL     1     -10.417  11.467  65.534  1.00  0.00    -0.322 A  
HETATM   19  C   UNL     1      -9.832   9.161  65.928  1.00  0.00    -0.305 A  
HETATM   20  C   UNL     1     -10.956  11.542  66.816  1.00  0.00    -0.347 A  
HETATM   21  C   UNL     1      -9.850  10.277  65.089  1.00  0.00    -0.389 A  
HETATM   22  C   UNL     1     -10.951  10.419  67.650  1.00  0.00    -0.374 A  
ENDBRANCH   9  17
ENDBRANCH   5   6
ENDBRANCH   4   5
TORSDOF 4
ENDMDL
MODEL       93
REMARK 921   NORMALIZED FREE ENERGY PREDICTED BY IDOCK:   -4.77 KCAL/MOL
REMARK 922        TOTAL FREE ENERGY PREDICTED BY IDOCK:   -6.69 KCAL/MOL
REMARK 923 INTER-LIGAND FREE ENERGY PREDICTED BY IDOCK:   -5.86 KCAL/MOL
REMARK 924 INTRA-LIGAND FREE ENERGY PREDICTED BY IDOCK:   -0.83 KCAL/MOL
REMARK 927      BINDING AFFINITY PREDICTED BY RF-SCORE:    0.00 PKD
ROOT
HETATM    1  O   UNL     1     -10.959  16.198  65.749  1.00  0.00    -0.230 OA 
HETATM    2  C   UNL     1     -11.086  14.957  65.229  1.00  0.00    -0.378 C  
HETATM    3  O   UNL     1     -10.346  14.542  64.350  1.00  0.00    -0.141 OA 
HETATM    4  C   UNL     1     -12.229  14.189  65.837  1.00  0.00    -0.458 C  
ENDROOT
BRANCH   4   5
HETATM    5  C   UNL     1     -12.334  12.795  65.222  1.00  0.00    -0.546 C  
BRANCH   5   6
HETATM    6  C   UNL     1     -11.367  11.851  65.837  1.00  0.00    -0.308 A  
HETATM    7  N   UNL     1     -10.263  11.339  65.341  1.00  0.00    -0.258 NA 
HETATM    8  C   UNL     1      -9.804  10.491  66.339  1.00  0.00    -0.210 A  
HETATM    9  C   UNL     1     -10.682  10.522  67.413  1.00  0.00    -0.281 A  
HETATM   10  O   UNL     1     -11.672  11.419  67.091  1.00  0.00    -0.556 OA 
BRANCH   8  11
HETATM   11  C   UNL     1      -8.576   9.724  66.186  1.00  0.00    -0.138 A  
HETATM   12  C   UNL     1      -7.424  10.003  66.934  1.00  0.00    -0.095 A  
HETATM   13  C   UNL     1      -8.515   8.702  65.225  1.00  0.00    -0.196 A  
HETATM   14  C   UNL     1      -6.252   9.261  66.748  1.00  0.00    -0.065 A  
HETATM   15  C   UNL     1      -7.339   7.970  65.028  1.00  0.00    -0.079 A  
HETATM   16  C   UNL     1      -6.209   8.249  65.793  1.00  0.00    -0.052 A  
ENDBRANCH   8  11
BRANCH   9  17
HETATM   17  C   UNL     1     -10.886   9.861  68.695  1.00  0.00    -0.244 A  
HETATM   18  C   UNL     1     -11.085   8.614  71.210  1.00  0.00    -0.336 A  
HETATM   19  C   UNL     1     -10.389   8.562  68.902  1.00  0.00    -0.226 A  
HETATM   20  C   UNL     1     -11.606   9.892  71.018  1.00  0.00    -0.470 A  
HETATM   21  C   UNL     1     -10.480   7.945  70.151  1.00  0.00    -0.231 A  
HETATM   22  C   UNL     1     -11.500  10.515  69.770  1.00  0.00    -0.365 A  
ENDBRANCH   9  17
ENDBRANCH   5   6
ENDBRANCH   4   5
TORSDOF 4
ENDMDL
MODEL       94
REMARK 921   NORMALIZED FREE ENERGY PREDICTED BY IDOCK:   -4.75 KCAL/MOL
REMARK 922        TOTAL FREE ENERGY PREDICTED BY IDOCK:   -6.67 KCAL/MOL
REMARK 923 INTER-LIGAND FREE ENERGY PREDICTED BY IDOCK:   -5.84 KCAL/MOL
REMARK 924 INTRA-LIGAND FREE ENERGY PREDICTED BY IDOCK:   -0.83 KCAL/MOL
REMARK 927      BINDING AFFINITY PREDICTED BY RF-SCORE:    0.00 PKD
ROOT
HETATM    1  O   UNL     1     -10.430   4.572  65.561  1.00  0.00    -0.272 OA 
HETATM    2  C   UNL     1      -9.890   5.370  66.509  1.00  0.00    -0.176 C  
HETATM    3  O   UNL     1     -10.291   5.369  67.664  1.00  0.00    -0.193 OA 
HETATM    4  C   UNL     1      -8.786   6.241  65.974  1.00  0.00    -0.155 C  
ENDROOT
BRANCH   4   5
HETATM    5  C   UNL     1      -8.205   7.122  67.078  1.00  0.00    -0.117 C  
BRANCH   5   6
HETATM    6  C   UNL     1      -8.922   8.418  67.178  1.00  0.00    -0.137 A  
HETATM    7  N   UNL     1      -8.920   9.443  66.357  1.00  0.00    -0.146 NA 
HETATM    8  C   UNL     1      -9.724  10.383  66.985  1.00  0.00    -0.178 A  
HETATM    9  C   UNL     1     -10.175   9.874  68.194  1.00  0.00    -0.179 A  
HETATM   10  O   UNL     1      -9.673   8.598  68.299  1.00  0.00    -0.148 OA 
BRANCH   8  11
HETATM   11  C   UNL     1      -9.992  11.683  66.386  1.00  0.00    -0.235 A  
HETATM   12  C   UNL     1      -9.315  12.843  66.787  1.00  0.00    -0.243 A  
HETATM   13  C   UNL     1     -10.994  11.801  65.409  1.00  0.00    -0.352 A  
HETATM   14  C   UNL     1      -9.610  14.082  66.208  1.00  0.00    -0.284 A  
HETATM   15  C   UNL     1     -11.299  13.042  64.839  1.00  0.00    -0.332 A  
HETATM   16  C   UNL     1     -10.604  14.181  65.237  1.00  0.00    -0.387 A  
ENDBRANCH   8  11
BRANCH   9  17
HETATM   17  C   UNL     1     -10.934  10.301  69.361  1.00  0.00    -0.289 A  
HETATM   18  C   UNL     1     -12.567  11.119  71.502  1.00  0.00    -0.431 A  
HETATM   19  C   UNL     1     -11.437  11.612  69.430  1.00  0.00    -0.372 A  
HETATM   20  C   UNL     1     -12.058   9.823  71.464  1.00  0.00    -0.493 A  
HETATM   21  C   UNL     1     -12.254  12.017  70.487  1.00  0.00    -0.414 A  
HETATM   22  C   UNL     1     -11.252   9.414  70.397  1.00  0.00    -0.309 A  
ENDBRANCH   9  17
ENDBRANCH   5   6
ENDBRANCH   4   5
TORSDOF 4
ENDMDL
MODEL       95
REMARK 921   NORMALIZED FREE ENERGY PREDICTED BY IDOCK:   -4.75 KCAL/MOL
REMARK 922        TOTAL FREE ENERGY PREDICTED BY IDOCK:   -6.67 KCAL/MOL
REMARK 923 INTER-LIGAND FREE ENERGY PREDICTED BY IDOCK:   -5.75 KCAL/MOL
REMARK 924 INTRA-LIGAND FREE ENERGY PREDICTED BY IDOCK:   -0.92 KCAL/MOL
REMARK 927      BINDING AFFINITY PREDICTED BY RF-SCORE:    0.00 PKD
ROOT
HETATM    1  O   UNL     1      -9.882  20.536  67.502  1.00  0.00    -0.433 OA 
HETATM    2  C   UNL     1      -9.118  19.733  66.730  1.00  0.00    -0.361 C  
HETATM    3  O   UNL     1      -9.038  19.880  65.519  1.00  0.00    -0.228 OA 
HETATM    4  C   UNL     1      -8.421  18.660  67.523  1.00  0.00    -0.280 C  
ENDROOT
BRANCH   4   5
HETATM    5  C   UNL     1      -7.568  17.779  66.612  1.00  0.00    -0.271 C  
BRANCH   5   6
HETATM    6  C   UNL     1      -7.908  16.342  66.767  1.00  0.00    -0.265 A  
HETATM    7  N   UNL     1      -7.200  15.364  67.285  1.00  0.00    -0.207 NA 
HETATM    8  C   UNL     1      -7.997  14.241  67.115  1.00  0.00    -0.101 A  
HETATM    9  C   UNL     1      -9.174  14.600  66.475  1.00  0.00    -0.266 A  
HETATM   10  O   UNL     1      -9.119  15.960  66.277  1.00  0.00    -0.285 OA 
BRANCH   8  11
HETATM   11  C   UNL     1      -7.572  12.925  67.572  1.00  0.00    -0.164 A  
HETATM   12  C   UNL     1      -6.316  12.393  67.249  1.00  0.00    -0.142 A  
HETATM   13  C   UNL     1      -8.459  12.133  68.319  1.00  0.00    -0.176 A  
HETATM   14  C   UNL     1      -5.944  11.116  67.685  1.00  0.00    -0.049 A  
HETATM   15  C   UNL     1      -8.094  10.850  68.743  1.00  0.00    -0.145 A  
HETATM   16  C   UNL     1      -6.835  10.345  68.428  1.00  0.00    -0.064 A  
ENDBRANCH   8  11
BRANCH   9  17
HETATM   17  C   UNL     1     -10.366  13.976  65.917  1.00  0.00    -0.327 A  
HETATM   18  C   UNL     1     -12.716  12.948  64.760  1.00  0.00    -0.442 A  
HETATM   19  C   UNL     1     -11.629  14.258  66.467  1.00  0.00    -0.390 A  
HETATM   20  C   UNL     1     -11.473  12.637  64.215  1.00  0.00    -0.420 A  
HETATM   21  C   UNL     1     -12.796  13.756  65.890  1.00  0.00    -0.369 A  
HETATM   22  C   UNL     1     -10.305  13.153  64.786  1.00  0.00    -0.369 A  
ENDBRANCH   9  17
ENDBRANCH   5   6
ENDBRANCH   4   5
TORSDOF 4
ENDMDL
MODEL       96
REMARK 921   NORMALIZED FREE ENERGY PREDICTED BY IDOCK:   -4.73 KCAL/MOL
REMARK 922        TOTAL FREE ENERGY PREDICTED BY IDOCK:   -6.65 KCAL/MOL
REMARK 923 INTER-LIGAND FREE ENERGY PREDICTED BY IDOCK:   -5.81 KCAL/MOL
REMARK 924 INTRA-LIGAND FREE ENERGY PREDICTED BY IDOCK:   -0.84 KCAL/MOL
REMARK 927      BINDING AFFINITY PREDICTED BY RF-SCORE:    0.00 PKD
ROOT
HETATM    1  O   UNL     1      -5.612  14.103  72.065  1.00  0.00    -0.215 OA 
HETATM    2  C   UNL     1      -5.840  13.554  70.851  1.00  0.00    -0.150 C  
HETATM    3  O   UNL     1      -5.920  12.345  70.690  1.00  0.00    -0.238 OA 
HETATM    4  C   UNL     1      -5.958  14.585  69.761  1.00  0.00    -0.122 C  
ENDROOT
BRANCH   4   5
HETATM    5  C   UNL     1      -6.217  13.921  68.411  1.00  0.00    -0.101 C  
BRANCH   5   6
HETATM    6  C   UNL     1      -7.669  13.817  68.121  1.00  0.00    -0.140 A  
HETATM    7  N   UNL     1      -8.282  13.498  67.004  1.00  0.00    -0.096 NA 
HETATM    8  C   UNL     1      -9.630  13.615  67.310  1.00  0.00    -0.238 A  
HETATM    9  C   UNL     1      -9.772  14.023  68.628  1.00  0.00    -0.179 A  
HETATM   10  O   UNL     1      -8.505  14.127  69.151  1.00  0.00     0.025 OA 
BRANCH   8  11
HETATM   11  C   UNL     1     -10.665  13.333  66.325  1.00  0.00    -0.293 A  
HETATM   12  C   UNL     1     -10.640  12.183  65.524  1.00  0.00    -0.314 A  
HETATM   13  C   UNL     1     -11.701  14.261  66.127  1.00  0.00    -0.397 A  
HETATM   14  C   UNL     1     -11.637  11.951  64.571  1.00  0.00    -0.344 A  
HETATM   15  C   UNL     1     -12.691  14.036  65.163  1.00  0.00    -0.419 A  
HETATM   16  C   UNL     1     -12.659  12.879  64.389  1.00  0.00    -0.392 A  
ENDBRANCH   8  11
BRANCH   9  17
HETATM   17  C   UNL     1     -10.821  14.419  69.557  1.00  0.00    -0.179 A  
HETATM   18  C   UNL     1     -12.757  15.074  71.493  1.00  0.00    -0.414 A  
HETATM   19  C   UNL     1     -11.806  13.491  69.941  1.00  0.00    -0.386 A  
HETATM   20  C   UNL     1     -11.805  16.015  71.107  1.00  0.00    -0.465 A  
HETATM   21  C   UNL     1     -12.761  13.812  70.907  1.00  0.00    -0.394 A  
HETATM   22  C   UNL     1     -10.839  15.687  70.150  1.00  0.00    -0.356 A  
ENDBRANCH   9  17
ENDBRANCH   5   6
ENDBRANCH   4   5
TORSDOF 4
ENDMDL
MODEL       97
REMARK 921   NORMALIZED FREE ENERGY PREDICTED BY IDOCK:   -4.73 KCAL/MOL
REMARK 922        TOTAL FREE ENERGY PREDICTED BY IDOCK:   -6.65 KCAL/MOL
REMARK 923 INTER-LIGAND FREE ENERGY PREDICTED BY IDOCK:   -5.78 KCAL/MOL
REMARK 924 INTRA-LIGAND FREE ENERGY PREDICTED BY IDOCK:   -0.87 KCAL/MOL
REMARK 927      BINDING AFFINITY PREDICTED BY RF-SCORE:    0.00 PKD
ROOT
HETATM    1  O   UNL     1      -8.965   9.518  63.007  1.00  0.00    -0.241 OA 
HETATM    2  C   UNL     1      -9.450  10.287  64.006  1.00  0.00    -0.300 C  
HETATM    3  O   UNL     1     -10.603  10.694  64.011  1.00  0.00    -0.258 OA 
HETATM    4  C   UNL     1      -8.419  10.584  65.062  1.00  0.00    -0.166 C  
ENDROOT
BRANCH   4   5
HETATM    5  C   UNL     1      -9.011  11.453  66.170  1.00  0.00    -0.207 C  
BRANCH   5   6
HETATM    6  C   UNL     1      -9.483  10.634  67.314  1.00  0.00    -0.158 A  
HETATM    7  N   UNL     1      -9.224   9.381  67.613  1.00  0.00    -0.128 NA 
HETATM    8  C   UNL     1      -9.975   9.142  68.755  1.00  0.00    -0.176 A  
HETATM    9  C   UNL     1     -10.681  10.286  69.094  1.00  0.00    -0.228 A  
HETATM   10  O   UNL     1     -10.339  11.250  68.175  1.00  0.00    -0.175 OA 
BRANCH   8  11
HETATM   11  C   UNL     1      -9.959   7.847  69.423  1.00  0.00    -0.189 A  
HETATM   12  C   UNL     1      -9.058   7.551  70.454  1.00  0.00    -0.153 A  
HETATM   13  C   UNL     1     -10.837   6.838  68.995  1.00  0.00    -0.290 A  
HETATM   14  C   UNL     1      -9.053   6.290  71.062  1.00  0.00    -0.156 A  
HETATM   15  C   UNL     1     -10.823   5.573  69.592  1.00  0.00    -0.279 A  
HETATM   16  C   UNL     1      -9.933   5.302  70.628  1.00  0.00    -0.287 A  
ENDBRANCH   8  11
BRANCH   9  17
HETATM   17  C   UNL     1     -11.682  10.725  70.056  1.00  0.00    -0.417 A  
HETATM   18  C   UNL     1     -13.483  11.538  72.060  1.00  0.00    -0.298 A  
HETATM   19  C   UNL     1     -12.325   9.784  70.879  1.00  0.00    -0.379 A  
HETATM   20  C   UNL     1     -12.875  12.484  71.239  1.00  0.00    -0.337 A  
HETATM   21  C   UNL     1     -13.212  10.186  71.879  1.00  0.00    -0.557 A  
HETATM   22  C   UNL     1     -11.974  12.081  70.247  1.00  0.00    -0.398 A  
ENDBRANCH   9  17
ENDBRANCH   5   6
ENDBRANCH   4   5
TORSDOF 4
ENDMDL
MODEL       98
REMARK 921   NORMALIZED FREE ENERGY PREDICTED BY IDOCK:   -4.72 KCAL/MOL
REMARK 922        TOTAL FREE ENERGY PREDICTED BY IDOCK:   -6.64 KCAL/MOL
REMARK 923 INTER-LIGAND FREE ENERGY PREDICTED BY IDOCK:   -5.71 KCAL/MOL
REMARK 924 INTRA-LIGAND FREE ENERGY PREDICTED BY IDOCK:   -0.93 KCAL/MOL
REMARK 927      BINDING AFFINITY PREDICTED BY RF-SCORE:    0.00 PKD
ROOT
HETATM    1  O   UNL     1      -8.468  15.510  69.658  1.00  0.00    -0.244 OA 
HETATM    2  C   UNL     1      -8.118  14.518  68.810  1.00  0.00    -0.146 C  
HETATM    3  O   UNL     1      -6.953  14.287  68.525  1.00  0.00    -0.089 OA 
HETATM    4  C   UNL     1      -9.309  13.774  68.266  1.00  0.00    -0.209 C  
ENDROOT
BRANCH   4   5
HETATM    5  C   UNL     1      -8.868  12.663  67.316  1.00  0.00    -0.196 C  
BRANCH   5   6
HETATM    6  C   UNL     1      -9.316  11.329  67.789  1.00  0.00    -0.163 A  
HETATM    7  N   UNL     1      -9.083  10.138  67.285  1.00  0.00    -0.138 NA 
HETATM    8  C   UNL     1      -9.790   9.276  68.110  1.00  0.00    -0.162 A  
HETATM    9  C   UNL     1     -10.444  10.006  69.092  1.00  0.00    -0.219 A  
HETATM   10  O   UNL     1     -10.113  11.326  68.892  1.00  0.00    -0.204 OA 
BRANCH   8  11
HETATM   11  C   UNL     1      -9.787   7.836  67.894  1.00  0.00    -0.194 A  
HETATM   12  C   UNL     1      -8.799   7.002  68.437  1.00  0.00    -0.123 A  
HETATM   13  C   UNL     1     -10.770   7.258  67.075  1.00  0.00    -0.406 A  
HETATM   14  C   UNL     1      -8.811   5.625  68.193  1.00  0.00    -0.108 A  
HETATM   15  C   UNL     1     -10.773   5.882  66.819  1.00  0.00    -0.371 A  
HETATM   16  C   UNL     1      -9.795   5.067  67.382  1.00  0.00    -0.207 A  
ENDBRANCH   8  11
BRANCH   9  17
HETATM   17  C   UNL     1     -11.389   9.799  70.181  1.00  0.00    -0.305 A  
HETATM   18  C   UNL     1     -13.059   9.416  72.413  1.00  0.00    -0.458 A  
HETATM   19  C   UNL     1     -11.401   8.577  70.876  1.00  0.00    -0.304 A  
HETATM   20  C   UNL     1     -13.079  10.625  71.722  1.00  0.00    -0.571 A  
HETATM   21  C   UNL     1     -12.223   8.388  71.989  1.00  0.00    -0.419 A  
HETATM   22  C   UNL     1     -12.244  10.818  70.617  1.00  0.00    -0.474 A  
ENDBRANCH   9  17
ENDBRANCH   5   6
ENDBRANCH   4   5
TORSDOF 4
ENDMDL
MODEL       99
REMARK 921   NORMALIZED FREE ENERGY PREDICTED BY IDOCK:   -4.70 KCAL/MOL
REMARK 922        TOTAL FREE ENERGY PREDICTED BY IDOCK:   -6.61 KCAL/MOL
REMARK 923 INTER-LIGAND FREE ENERGY PREDICTED BY IDOCK:   -5.73 KCAL/MOL
REMARK 924 INTRA-LIGAND FREE ENERGY PREDICTED BY IDOCK:   -0.88 KCAL/MOL
REMARK 927      BINDING AFFINITY PREDICTED BY RF-SCORE:    0.00 PKD
ROOT
HETATM    1  O   UNL     1     -10.029   7.254  73.933  1.00  0.00    -0.311 OA 
HETATM    2  C   UNL     1     -10.851   7.249  72.859  1.00  0.00    -0.337 C  
HETATM    3  O   UNL     1     -11.994   7.676  72.914  1.00  0.00    -0.161 OA 
HETATM    4  C   UNL     1     -10.203   6.654  71.638  1.00  0.00    -0.212 C  
ENDROOT
BRANCH   4   5
HETATM    5  C   UNL     1     -11.164   6.670  70.451  1.00  0.00    -0.398 C  
BRANCH   5   6
HETATM    6  C   UNL     1     -10.873   7.795  69.527  1.00  0.00    -0.153 A  
HETATM    7  N   UNL     1     -10.164   7.811  68.421  1.00  0.00    -0.196 NA 
HETATM    8  C   UNL     1     -10.197   9.138  68.015  1.00  0.00    -0.211 A  
HETATM    9  C   UNL     1     -10.932   9.883  68.925  1.00  0.00    -0.179 A  
HETATM   10  O   UNL     1     -11.385   9.005  69.883  1.00  0.00    -0.149 OA 
BRANCH   8  11
HETATM   11  C   UNL     1      -9.526   9.583  66.802  1.00  0.00    -0.217 A  
HETATM   12  C   UNL     1      -8.142   9.796  66.750  1.00  0.00    -0.120 A  
HETATM   13  C   UNL     1     -10.286   9.860  65.654  1.00  0.00    -0.229 A  
HETATM   14  C   UNL     1      -7.529  10.245  65.575  1.00  0.00    -0.149 A  
HETATM   15  C   UNL     1      -9.675  10.324  64.483  1.00  0.00    -0.395 A  
HETATM   16  C   UNL     1      -8.296  10.512  64.445  1.00  0.00    -0.097 A  
ENDBRANCH   8  11
BRANCH   9  17
HETATM   17  C   UNL     1     -11.292  11.269  69.186  1.00  0.00    -0.349 A  
HETATM   18  C   UNL     1     -12.153  13.920  69.579  1.00  0.00    -0.393 A  
HETATM   19  C   UNL     1     -11.171  12.230  68.167  1.00  0.00    -0.320 A  
HETATM   20  C   UNL     1     -12.259  12.989  70.609  1.00  0.00    -0.390 A  
HETATM   21  C   UNL     1     -11.605  13.543  68.357  1.00  0.00    -0.378 A  
HETATM   22  C   UNL     1     -11.838  11.670  70.412  1.00  0.00    -0.385 A  
ENDBRANCH   9  17
ENDBRANCH   5   6
ENDBRANCH   4   5
TORSDOF 4
ENDMDL
MODEL      100
REMARK 921   NORMALIZED FREE ENERGY PREDICTED BY IDOCK:   -4.69 KCAL/MOL
REMARK 922        TOTAL FREE ENERGY PREDICTED BY IDOCK:   -6.59 KCAL/MOL
REMARK 923 INTER-LIGAND FREE ENERGY PREDICTED BY IDOCK:   -5.62 KCAL/MOL
REMARK 924 INTRA-LIGAND FREE ENERGY PREDICTED BY IDOCK:   -0.97 KCAL/MOL
REMARK 927      BINDING AFFINITY PREDICTED BY RF-SCORE:    0.00 PKD
ROOT
HETATM    1  O   UNL     1      -6.804   5.775  65.944  1.00  0.00    -0.057 OA 
HETATM    2  C   UNL     1      -8.103   5.724  66.313  1.00  0.00    -0.107 C  
HETATM    3  O   UNL     1      -8.685   4.666  66.501  1.00  0.00    -0.112 OA 
HETATM    4  C   UNL     1      -8.723   7.090  66.439  1.00  0.00    -0.148 C  
ENDROOT
BRANCH   4   5
HETATM    5  C   UNL     1     -10.188   6.986  66.858  1.00  0.00    -0.318 C  
BRANCH   5   6
HETATM    6  C   UNL     1     -10.365   7.276  68.303  1.00  0.00    -0.193 A  
HETATM    7  N   UNL     1     -10.175   6.499  69.345  1.00  0.00    -0.175 NA 
HETATM    8  C   UNL     1     -10.545   7.284  70.427  1.00  0.00    -0.226 A  
HETATM    9  C   UNL     1     -10.966   8.527  69.975  1.00  0.00    -0.196 A  
HETATM   10  O   UNL     1     -10.822   8.521  68.608  1.00  0.00    -0.094 OA 
BRANCH   8  11
HETATM   11  C   UNL     1     -10.472   6.787  71.794  1.00  0.00    -0.228 A  
HETATM   12  C   UNL     1     -11.224   5.687  72.229  1.00  0.00    -0.317 A  
HETATM   13  C   UNL     1      -9.664   7.453  72.729  1.00  0.00    -0.220 A  
HETATM   14  C   UNL     1     -11.148   5.246  73.554  1.00  0.00    -0.316 A  
HETATM   15  C   UNL     1      -9.599   7.022  74.059  1.00  0.00    -0.308 A  
HETATM   16  C   UNL     1     -10.339   5.915  74.468  1.00  0.00    -0.238 A  
ENDBRANCH   8  11
BRANCH   9  17
HETATM   17  C   UNL     1     -11.550   9.755  70.497  1.00  0.00    -0.365 A  
HETATM   18  C   UNL     1     -12.799  12.130  71.345  1.00  0.00    -0.378 A  
HETATM   19  C   UNL     1     -11.256  10.987  69.886  1.00  0.00    -0.327 A  
HETATM   20  C   UNL     1     -13.084  10.923  71.980  1.00  0.00    -0.462 A  
HETATM   21  C   UNL     1     -11.881  12.164  70.300  1.00  0.00    -0.339 A  
HETATM   22  C   UNL     1     -12.468   9.741  71.554  1.00  0.00    -0.495 A  
ENDBRANCH   9  17
ENDBRANCH   5   6
ENDBRANCH   4   5
TORSDOF 4
ENDMDL
MODEL      101
REMARK 921   NORMALIZED FREE ENERGY PREDICTED BY IDOCK:   -4.68 KCAL/MOL
REMARK 922        TOTAL FREE ENERGY PREDICTED BY IDOCK:   -6.58 KCAL/MOL
REMARK 923 INTER-LIGAND FREE ENERGY PREDICTED BY IDOCK:   -5.77 KCAL/MOL
REMARK 924 INTRA-LIGAND FREE ENERGY PREDICTED BY IDOCK:   -0.81 KCAL/MOL
REMARK 927      BINDING AFFINITY PREDICTED BY RF-SCORE:    0.00 PKD
ROOT
HETATM    1  O   UNL     1      -7.534   7.932  69.810  1.00  0.00    -0.083 OA 
HETATM    2  C   UNL     1      -7.321   8.822  68.815  1.00  0.00    -0.083 C  
HETATM    3  O   UNL     1      -7.406   8.511  67.636  1.00  0.00    -0.086 OA 
HETATM    4  C   UNL     1      -6.960  10.190  69.329  1.00  0.00    -0.068 C  
ENDROOT
BRANCH   4   5
HETATM    5  C   UNL     1      -6.731  11.161  68.173  1.00  0.00    -0.059 C  
BRANCH   5   6
HETATM    6  C   UNL     1      -8.005  11.760  67.701  1.00  0.00    -0.143 A  
HETATM    7  N   UNL     1      -8.568  11.709  66.515  1.00  0.00    -0.179 NA 
HETATM    8  C   UNL     1      -9.709  12.488  66.648  1.00  0.00    -0.242 A  
HETATM    9  C   UNL     1      -9.776  12.997  67.936  1.00  0.00    -0.218 A  
HETATM   10  O   UNL     1      -8.688  12.503  68.615  1.00  0.00    -0.088 OA 
BRANCH   8  11
HETATM   11  C   UNL     1     -10.633  12.684  65.539  1.00  0.00    -0.301 A  
HETATM   12  C   UNL     1     -10.865  11.692  64.577  1.00  0.00    -0.383 A  
HETATM   13  C   UNL     1     -11.281  13.921  65.390  1.00  0.00    -0.306 A  
HETATM   14  C   UNL     1     -11.743  11.918  63.511  1.00  0.00    -0.550 A  
HETATM   15  C   UNL     1     -12.147  14.153  64.316  1.00  0.00    -0.471 A  
HETATM   16  C   UNL     1     -12.380  13.149  63.380  1.00  0.00    -0.443 A  
ENDBRANCH   8  11
BRANCH   9  17
HETATM   17  C   UNL     1     -10.591  13.912  68.723  1.00  0.00    -0.258 A  
HETATM   18  C   UNL     1     -12.083  15.601  70.410  1.00  0.00    -0.425 A  
HETATM   19  C   UNL     1     -11.703  13.428  69.434  1.00  0.00    -0.382 A  
HETATM   20  C   UNL     1     -10.999  16.104  69.695  1.00  0.00    -0.346 A  
HETATM   21  C   UNL     1     -12.439  14.263  70.277  1.00  0.00    -0.422 A  
HETATM   22  C   UNL     1     -10.253  15.264  68.862  1.00  0.00    -0.232 A  
ENDBRANCH   9  17
ENDBRANCH   5   6
ENDBRANCH   4   5
TORSDOF 4
ENDMDL
MODEL      102
REMARK 921   NORMALIZED FREE ENERGY PREDICTED BY IDOCK:   -4.67 KCAL/MOL
REMARK 922        TOTAL FREE ENERGY PREDICTED BY IDOCK:   -6.57 KCAL/MOL
REMARK 923 INTER-LIGAND FREE ENERGY PREDICTED BY IDOCK:   -5.75 KCAL/MOL
REMARK 924 INTRA-LIGAND FREE ENERGY PREDICTED BY IDOCK:   -0.82 KCAL/MOL
REMARK 927      BINDING AFFINITY PREDICTED BY RF-SCORE:    0.00 PKD
ROOT
HETATM    1  O   UNL     1     -11.230  16.140  68.379  1.00  0.00    -0.345 OA 
HETATM    2  C   UNL     1     -11.143  15.001  67.656  1.00  0.00    -0.316 C  
HETATM    3  O   UNL     1     -12.080  14.576  66.997  1.00  0.00    -0.398 OA 
HETATM    4  C   UNL     1      -9.797  14.338  67.779  1.00  0.00    -0.223 C  
ENDROOT
BRANCH   4   5
HETATM    5  C   UNL     1      -9.743  13.059  66.946  1.00  0.00    -0.238 C  
BRANCH   5   6
HETATM    6  C   UNL     1      -9.670  11.850  67.805  1.00  0.00    -0.189 A  
HETATM    7  N   UNL     1      -8.855  10.822  67.740  1.00  0.00    -0.129 NA 
HETATM    8  C   UNL     1      -9.286   9.982  68.757  1.00  0.00    -0.159 A  
HETATM    9  C   UNL     1     -10.377  10.550  69.396  1.00  0.00    -0.234 A  
HETATM   10  O   UNL     1     -10.603  11.765  68.793  1.00  0.00    -0.208 OA 
BRANCH   8  11
HETATM   11  C   UNL     1      -8.626   8.713  69.031  1.00  0.00    -0.129 A  
HETATM   12  C   UNL     1      -8.093   8.406  70.290  1.00  0.00    -0.104 A  
HETATM   13  C   UNL     1      -8.468   7.778  67.994  1.00  0.00    -0.123 A  
HETATM   14  C   UNL     1      -7.446   7.186  70.516  1.00  0.00    -0.087 A  
HETATM   15  C   UNL     1      -7.808   6.565  68.216  1.00  0.00    -0.106 A  
HETATM   16  C   UNL     1      -7.301   6.269  69.479  1.00  0.00    -0.084 A  
ENDBRANCH   8  11
BRANCH   9  17
HETATM   17  C   UNL     1     -11.350  10.221  70.429  1.00  0.00    -0.410 A  
HETATM   18  C   UNL     1     -13.371   9.582  72.281  1.00  0.00    -0.526 A  
HETATM   19  C   UNL     1     -12.271  11.192  70.861  1.00  0.00    -0.468 A  
HETATM   20  C   UNL     1     -12.452   8.614  71.884  1.00  0.00    -0.412 A  
HETATM   21  C   UNL     1     -13.279  10.874  71.773  1.00  0.00    -0.513 A  
HETATM   22  C   UNL     1     -11.452   8.929  70.958  1.00  0.00    -0.351 A  
ENDBRANCH   9  17
ENDBRANCH   5   6
ENDBRANCH   4   5
TORSDOF 4
ENDMDL
MODEL      103
REMARK 921   NORMALIZED FREE ENERGY PREDICTED BY IDOCK:   -4.66 KCAL/MOL
REMARK 922        TOTAL FREE ENERGY PREDICTED BY IDOCK:   -6.56 KCAL/MOL
REMARK 923 INTER-LIGAND FREE ENERGY PREDICTED BY IDOCK:   -5.62 KCAL/MOL
REMARK 924 INTRA-LIGAND FREE ENERGY PREDICTED BY IDOCK:   -0.94 KCAL/MOL
REMARK 927      BINDING AFFINITY PREDICTED BY RF-SCORE:    0.00 PKD
ROOT
HETATM    1  O   UNL     1     -12.984  14.296  65.139  1.00  0.00    -0.692 OA 
HETATM    2  C   UNL     1     -12.449  13.195  64.565  1.00  0.00    -0.342 C  
HETATM    3  O   UNL     1     -13.140  12.274  64.158  1.00  0.00    -0.749 OA 
HETATM    4  C   UNL     1     -10.945  13.243  64.513  1.00  0.00    -0.398 C  
ENDROOT
BRANCH   4   5
HETATM    5  C   UNL     1     -10.384  11.983  63.855  1.00  0.00    -0.433 C  
BRANCH   5   6
HETATM    6  C   UNL     1      -9.887  11.015  64.865  1.00  0.00    -0.274 A  
HETATM    7  N   UNL     1     -10.160   9.738  65.009  1.00  0.00    -0.093 NA 
HETATM    8  C   UNL     1      -9.453   9.365  66.143  1.00  0.00    -0.226 A  
HETATM    9  C   UNL     1      -8.779  10.466  66.652  1.00  0.00    -0.135 A  
HETATM   10  O   UNL     1      -9.045  11.519  65.808  1.00  0.00    -0.209 OA 
BRANCH   8  11
HETATM   11  C   UNL     1      -9.481   7.999  66.647  1.00  0.00    -0.273 A  
HETATM   12  C   UNL     1     -10.601   7.468  67.300  1.00  0.00    -0.394 A  
HETATM   13  C   UNL     1      -8.336   7.195  66.526  1.00  0.00    -0.117 A  
HETATM   14  C   UNL     1     -10.589   6.158  67.793  1.00  0.00    -0.338 A  
HETATM   15  C   UNL     1      -8.319   5.890  67.031  1.00  0.00    -0.105 A  
HETATM   16  C   UNL     1      -9.448   5.372  67.661  1.00  0.00    -0.132 A  
ENDBRANCH   8  11
BRANCH   9  17
HETATM   17  C   UNL     1      -7.965  10.831  67.803  1.00  0.00    -0.110 A  
HETATM   18  C   UNL     1      -6.270  11.381  69.981  1.00  0.00    -0.148 A  
HETATM   19  C   UNL     1      -7.993  10.037  68.963  1.00  0.00    -0.108 A  
HETATM   20  C   UNL     1      -6.244  12.194  68.850  1.00  0.00    -0.077 A  
HETATM   21  C   UNL     1      -7.147  10.304  70.041  1.00  0.00    -0.161 A  
HETATM   22  C   UNL     1      -7.082  11.917  67.765  1.00  0.00    -0.103 A  
ENDBRANCH   9  17
ENDBRANCH   5   6
ENDBRANCH   4   5
TORSDOF 4
ENDMDL
MODEL      104
REMARK 921   NORMALIZED FREE ENERGY PREDICTED BY IDOCK:   -4.65 KCAL/MOL
REMARK 922        TOTAL FREE ENERGY PREDICTED BY IDOCK:   -6.55 KCAL/MOL
REMARK 923 INTER-LIGAND FREE ENERGY PREDICTED BY IDOCK:   -5.64 KCAL/MOL
REMARK 924 INTRA-LIGAND FREE ENERGY PREDICTED BY IDOCK:   -0.91 KCAL/MOL
REMARK 927      BINDING AFFINITY PREDICTED BY RF-SCORE:    0.00 PKD
ROOT
HETATM    1  O   UNL     1      -9.791  17.559  69.158  1.00  0.00    -0.250 OA 
HETATM    2  C   UNL     1      -8.914  16.672  68.638  1.00  0.00    -0.246 C  
HETATM    3  O   UNL     1      -8.291  16.900  67.611  1.00  0.00    -0.181 OA 
HETATM    4  C   UNL     1      -8.822  15.406  69.447  1.00  0.00    -0.251 C  
ENDROOT
BRANCH   4   5
HETATM    5  C   UNL     1      -7.820  14.436  68.825  1.00  0.00    -0.138 C  
BRANCH   5   6
HETATM    6  C   UNL     1      -8.502  13.328  68.111  1.00  0.00    -0.173 A  
HETATM    7  N   UNL     1      -8.338  12.029  68.223  1.00  0.00    -0.159 NA 
HETATM    8  C   UNL     1      -9.202  11.495  67.278  1.00  0.00    -0.167 A  
HETATM    9  C   UNL     1      -9.855  12.522  66.613  1.00  0.00    -0.241 A  
HETATM   10  O   UNL     1      -9.417  13.699  67.173  1.00  0.00    -0.227 OA 
BRANCH   8  11
HETATM   11  C   UNL     1      -9.330  10.057  67.087  1.00  0.00    -0.173 A  
HETATM   12  C   UNL     1      -8.494   9.342  66.218  1.00  0.00    -0.133 A  
HETATM   13  C   UNL     1     -10.354   9.360  67.749  1.00  0.00    -0.291 A  
HETATM   14  C   UNL     1      -8.655   7.964  66.039  1.00  0.00    -0.166 A  
HETATM   15  C   UNL     1     -10.526   7.984  67.559  1.00  0.00    -0.331 A  
HETATM   16  C   UNL     1      -9.673   7.287  66.706  1.00  0.00    -0.260 A  
ENDBRANCH   8  11
BRANCH   9  17
HETATM   17  C   UNL     1     -10.777  12.711  65.502  1.00  0.00    -0.303 A  
HETATM   18  C   UNL     1     -12.408  13.159  63.252  1.00  0.00    -0.366 A  
HETATM   19  C   UNL     1     -11.257  13.997  65.198  1.00  0.00    -0.329 A  
HETATM   20  C   UNL     1     -11.964  11.873  63.551  1.00  0.00    -0.567 A  
HETATM   21  C   UNL     1     -12.059  14.223  64.078  1.00  0.00    -0.350 A  
HETATM   22  C   UNL     1     -11.147  11.651  64.665  1.00  0.00    -0.342 A  
ENDBRANCH   9  17
ENDBRANCH   5   6
ENDBRANCH   4   5
TORSDOF 4
ENDMDL
MODEL      105
REMARK 921   NORMALIZED FREE ENERGY PREDICTED BY IDOCK:   -4.65 KCAL/MOL
REMARK 922        TOTAL FREE ENERGY PREDICTED BY IDOCK:   -6.55 KCAL/MOL
REMARK 923 INTER-LIGAND FREE ENERGY PREDICTED BY IDOCK:   -5.67 KCAL/MOL
REMARK 924 INTRA-LIGAND FREE ENERGY PREDICTED BY IDOCK:   -0.88 KCAL/MOL
REMARK 927      BINDING AFFINITY PREDICTED BY RF-SCORE:    0.00 PKD
ROOT
HETATM    1  O   UNL     1     -10.699  14.969  64.857  1.00  0.00    -0.400 OA 
HETATM    2  C   UNL     1     -11.065  14.473  66.059  1.00  0.00    -0.329 C  
HETATM    3  O   UNL     1     -11.022  15.143  67.080  1.00  0.00    -0.314 OA 
HETATM    4  C   UNL     1     -11.498  13.033  65.983  1.00  0.00    -0.374 C  
ENDROOT
BRANCH   4   5
HETATM    5  C   UNL     1     -11.904  12.515  67.362  1.00  0.00    -0.381 C  
BRANCH   5   6
HETATM    6  C   UNL     1     -11.169  11.276  67.718  1.00  0.00    -0.291 A  
HETATM    7  N   UNL     1     -10.232  10.635  67.056  1.00  0.00    -0.211 NA 
HETATM    8  C   UNL     1      -9.957   9.527  67.843  1.00  0.00    -0.172 A  
HETATM    9  C   UNL     1     -10.770   9.542  68.967  1.00  0.00    -0.202 A  
HETATM   10  O   UNL     1     -11.530  10.686  68.891  1.00  0.00    -0.262 OA 
BRANCH   8  11
HETATM   11  C   UNL     1      -8.949   8.548  67.460  1.00  0.00    -0.142 A  
HETATM   12  C   UNL     1      -7.748   8.396  68.167  1.00  0.00    -0.103 A  
HETATM   13  C   UNL     1      -9.152   7.759  66.316  1.00  0.00    -0.221 A  
HETATM   14  C   UNL     1      -6.790   7.462  67.761  1.00  0.00    -0.074 A  
HETATM   15  C   UNL     1      -8.187   6.834  65.901  1.00  0.00    -0.132 A  
HETATM   16  C   UNL     1      -7.008   6.685  66.626  1.00  0.00    -0.067 A  
ENDBRANCH   8  11
BRANCH   9  17
HETATM   17  C   UNL     1     -11.085   8.706  70.117  1.00  0.00    -0.199 A  
HETATM   18  C   UNL     1     -11.502   7.034  72.342  1.00  0.00    -0.300 A  
HETATM   19  C   UNL     1     -11.149   7.309  69.972  1.00  0.00    -0.262 A  
HETATM   20  C   UNL     1     -11.468   8.417  72.501  1.00  0.00    -0.422 A  
HETATM   21  C   UNL     1     -11.347   6.478  71.076  1.00  0.00    -0.378 A  
HETATM   22  C   UNL     1     -11.254   9.248  71.397  1.00  0.00    -0.433 A  
ENDBRANCH   9  17
ENDBRANCH   5   6
ENDBRANCH   4   5
TORSDOF 4
ENDMDL
MODEL      106
REMARK 921   NORMALIZED FREE ENERGY PREDICTED BY IDOCK:   -4.65 KCAL/MOL
REMARK 922        TOTAL FREE ENERGY PREDICTED BY IDOCK:   -6.55 KCAL/MOL
REMARK 923 INTER-LIGAND FREE ENERGY PREDICTED BY IDOCK:   -5.60 KCAL/MOL
REMARK 924 INTRA-LIGAND FREE ENERGY PREDICTED BY IDOCK:   -0.95 KCAL/MOL
REMARK 927      BINDING AFFINITY PREDICTED BY RF-SCORE:    0.00 PKD
ROOT
HETATM    1  O   UNL     1     -10.749   5.572  71.284  1.00  0.00    -0.251 OA 
HETATM    2  C   UNL     1     -11.374   6.765  71.175  1.00  0.00    -0.296 C  
HETATM    3  O   UNL     1     -12.568   6.853  70.931  1.00  0.00    -0.357 OA 
HETATM    4  C   UNL     1     -10.439   7.929  71.368  1.00  0.00    -0.242 C  
ENDROOT
BRANCH   4   5
HETATM    5  C   UNL     1     -11.187   9.254  71.239  1.00  0.00    -0.425 C  
BRANCH   5   6
HETATM    6  C   UNL     1     -10.822   9.970  69.991  1.00  0.00    -0.302 A  
HETATM    7  N   UNL     1     -11.194  11.155  69.562  1.00  0.00    -0.262 NA 
HETATM    8  C   UNL     1     -10.585  11.274  68.322  1.00  0.00    -0.197 A  
HETATM    9  C   UNL     1      -9.865  10.121  68.046  1.00  0.00    -0.148 A  
HETATM   10  O   UNL     1     -10.002   9.296  69.137  1.00  0.00    -0.169 OA 
BRANCH   8  11
HETATM   11  C   UNL     1     -10.741  12.470  67.505  1.00  0.00    -0.250 A  
HETATM   12  C   UNL     1      -9.648  13.119  66.915  1.00  0.00    -0.248 A  
HETATM   13  C   UNL     1     -12.018  13.030  67.338  1.00  0.00    -0.372 A  
HETATM   14  C   UNL     1      -9.828  14.279  66.154  1.00  0.00    -0.335 A  
HETATM   15  C   UNL     1     -12.197  14.199  66.589  1.00  0.00    -0.450 A  
HETATM   16  C   UNL     1     -11.101  14.819  65.995  1.00  0.00    -0.330 A  
ENDBRANCH   8  11
BRANCH   9  17
HETATM   17  C   UNL     1      -9.096   9.530  66.959  1.00  0.00    -0.154 A  
HETATM   18  C   UNL     1      -7.546   8.572  64.814  1.00  0.00    -0.100 A  
HETATM   19  C   UNL     1      -9.519   9.694  65.629  1.00  0.00    -0.318 A  
HETATM   20  C   UNL     1      -7.122   8.378  66.126  1.00  0.00    -0.076 A  
HETATM   21  C   UNL     1      -8.748   9.227  64.563  1.00  0.00    -0.218 A  
HETATM   22  C   UNL     1      -7.888   8.860  67.193  1.00  0.00    -0.096 A  
ENDBRANCH   9  17
ENDBRANCH   5   6
ENDBRANCH   4   5
TORSDOF 4
ENDMDL
MODEL      107
REMARK 921   NORMALIZED FREE ENERGY PREDICTED BY IDOCK:   -4.64 KCAL/MOL
REMARK 922        TOTAL FREE ENERGY PREDICTED BY IDOCK:   -6.54 KCAL/MOL
REMARK 923 INTER-LIGAND FREE ENERGY PREDICTED BY IDOCK:   -5.57 KCAL/MOL
REMARK 924 INTRA-LIGAND FREE ENERGY PREDICTED BY IDOCK:   -0.97 KCAL/MOL
REMARK 927      BINDING AFFINITY PREDICTED BY RF-SCORE:    0.00 PKD
ROOT
HETATM    1  O   UNL     1     -13.407   6.785  71.658  1.00  0.00    -0.293 OA 
HETATM    2  C   UNL     1     -12.833   7.980  71.918  1.00  0.00    -0.320 C  
HETATM    3  O   UNL     1     -11.800   8.078  72.565  1.00  0.00    -0.367 OA 
HETATM    4  C   UNL     1     -13.612   9.134  71.347  1.00  0.00    -0.348 C  
ENDROOT
BRANCH   4   5
HETATM    5  C   UNL     1     -12.927  10.462  71.663  1.00  0.00    -0.581 C  
BRANCH   5   6
HETATM    6  C   UNL     1     -12.149  10.965  70.503  1.00  0.00    -0.371 A  
HETATM    7  N   UNL     1     -12.471  11.868  69.604  1.00  0.00    -0.013 NA 
HETATM    8  C   UNL     1     -11.385  11.889  68.740  1.00  0.00    -0.274 A  
HETATM    9  C   UNL     1     -10.440  10.965  69.160  1.00  0.00    -0.221 A  
HETATM   10  O   UNL     1     -10.929  10.393  70.311  1.00  0.00    -0.294 OA 
BRANCH   8  11
HETATM   11  C   UNL     1     -11.341  12.781  67.589  1.00  0.00    -0.359 A  
HETATM   12  C   UNL     1     -12.404  12.880  66.681  1.00  0.00    -0.044 A  
HETATM   13  C   UNL     1     -10.182  13.534  67.343  1.00  0.00    -0.237 A  
HETATM   14  C   UNL     1     -12.324  13.731  65.573  1.00  0.00    -0.507 A  
HETATM   15  C   UNL     1     -10.095  14.374  66.227  1.00  0.00    -0.308 A  
HETATM   16  C   UNL     1     -11.168  14.473  65.345  1.00  0.00    -0.342 A  
ENDBRANCH   8  11
BRANCH   9  17
HETATM   17  C   UNL     1      -9.169  10.404  68.722  1.00  0.00    -0.172 A  
HETATM   18  C   UNL     1      -6.761   9.153  67.976  1.00  0.00    -0.068 A  
HETATM   19  C   UNL     1      -8.110  10.266  69.637  1.00  0.00    -0.157 A  
HETATM   20  C   UNL     1      -7.790   9.303  67.049  1.00  0.00    -0.098 A  
HETATM   21  C   UNL     1      -6.919   9.638  69.271  1.00  0.00    -0.055 A  
HETATM   22  C   UNL     1      -8.989   9.919  67.421  1.00  0.00    -0.144 A  
ENDBRANCH   9  17
ENDBRANCH   5   6
ENDBRANCH   4   5
TORSDOF 4
ENDMDL
MODEL      108
REMARK 921   NORMALIZED FREE ENERGY PREDICTED BY IDOCK:   -4.60 KCAL/MOL
REMARK 922        TOTAL FREE ENERGY PREDICTED BY IDOCK:   -6.48 KCAL/MOL
REMARK 923 INTER-LIGAND FREE ENERGY PREDICTED BY IDOCK:   -5.57 KCAL/MOL
REMARK 924 INTRA-LIGAND FREE ENERGY PREDICTED BY IDOCK:   -0.91 KCAL/MOL
REMARK 927      BINDING AFFINITY PREDICTED BY RF-SCORE:    0.00 PKD
ROOT
HETATM    1  O   UNL     1     -13.536  14.872  71.467  1.00  0.00    -0.369 OA 
HETATM    2  C   UNL     1     -12.375  15.020  70.792  1.00  0.00    -0.343 C  
HETATM    3  O   UNL     1     -11.362  15.446  71.327  1.00  0.00    -0.343 OA 
HETATM    4  C   UNL     1     -12.492  14.626  69.344  1.00  0.00    -0.104 C  
ENDROOT
BRANCH   4   5
HETATM    5  C   UNL     1     -11.158  14.808  68.622  1.00  0.00    -0.274 C  
BRANCH   5   6
HETATM    6  C   UNL     1     -10.690  13.538  68.010  1.00  0.00    -0.251 A  
HETATM    7  N   UNL     1     -10.235  13.308  66.800  1.00  0.00    -0.250 NA 
HETATM    8  C   UNL     1     -10.002  11.940  66.779  1.00  0.00    -0.195 A  
HETATM    9  C   UNL     1     -10.349  11.392  68.006  1.00  0.00    -0.184 A  
HETATM   10  O   UNL     1     -10.768  12.433  68.801  1.00  0.00    -0.230 OA 
BRANCH   8  11
HETATM   11  C   UNL     1      -9.474  11.272  65.598  1.00  0.00    -0.254 A  
HETATM   12  C   UNL     1     -10.243  11.083  64.441  1.00  0.00    -0.409 A  
HETATM   13  C   UNL     1      -8.171  10.750  65.623  1.00  0.00    -0.127 A  
HETATM   14  C   UNL     1      -9.715  10.418  63.330  1.00  0.00    -0.308 A  
HETATM   15  C   UNL     1      -7.647  10.072  64.517  1.00  0.00    -0.142 A  
HETATM   16  C   UNL     1      -8.419   9.910  63.370  1.00  0.00    -0.182 A  
ENDBRANCH   8  11
BRANCH   9  17
HETATM   17  C   UNL     1     -10.457  10.088  68.645  1.00  0.00    -0.228 A  
HETATM   18  C   UNL     1     -10.864   7.592  69.879  1.00  0.00    -0.250 A  
HETATM   19  C   UNL     1     -10.801   9.999  70.005  1.00  0.00    -0.352 A  
HETATM   20  C   UNL     1     -10.499   7.659  68.537  1.00  0.00    -0.206 A  
HETATM   21  C   UNL     1     -11.011   8.762  70.617  1.00  0.00    -0.278 A  
HETATM   22  C   UNL     1     -10.303   8.899  67.921  1.00  0.00    -0.286 A  
ENDBRANCH   9  17
ENDBRANCH   5   6
ENDBRANCH   4   5
TORSDOF 4
ENDMDL
MODEL      109
REMARK 921   NORMALIZED FREE ENERGY PREDICTED BY IDOCK:   -4.59 KCAL/MOL
REMARK 922        TOTAL FREE ENERGY PREDICTED BY IDOCK:   -6.48 KCAL/MOL
REMARK 923 INTER-LIGAND FREE ENERGY PREDICTED BY IDOCK:   -5.63 KCAL/MOL
REMARK 924 INTRA-LIGAND FREE ENERGY PREDICTED BY IDOCK:   -0.84 KCAL/MOL
REMARK 927      BINDING AFFINITY PREDICTED BY RF-SCORE:    0.00 PKD
ROOT
HETATM    1  O   UNL     1      -9.978  19.678  67.523  1.00  0.00    -0.343 OA 
HETATM    2  C   UNL     1      -9.181  18.624  67.810  1.00  0.00    -0.285 C  
HETATM    3  O   UNL     1      -8.004  18.592  67.483  1.00  0.00    -0.234 OA 
HETATM    4  C   UNL     1      -9.910  17.529  68.541  1.00  0.00    -0.330 C  
ENDROOT
BRANCH   4   5
HETATM    5  C   UNL     1      -8.973  16.362  68.847  1.00  0.00    -0.256 C  
BRANCH   5   6
HETATM    6  C   UNL     1      -9.189  15.229  67.913  1.00  0.00    -0.184 A  
HETATM    7  N   UNL     1     -10.171  15.013  67.067  1.00  0.00    -0.254 NA 
HETATM    8  C   UNL     1      -9.871  13.781  66.505  1.00  0.00    -0.290 A  
HETATM    9  C   UNL     1      -8.698  13.291  67.061  1.00  0.00    -0.186 A  
HETATM   10  O   UNL     1      -8.252  14.241  67.949  1.00  0.00    -0.134 OA 
BRANCH   8  11
HETATM   11  C   UNL     1     -10.724  13.174  65.492  1.00  0.00    -0.297 A  
HETATM   12  C   UNL     1     -10.204  12.609  64.320  1.00  0.00    -0.358 A  
HETATM   13  C   UNL     1     -12.118  13.195  65.660  1.00  0.00    -0.501 A  
HETATM   14  C   UNL     1     -11.051  12.053  63.355  1.00  0.00    -0.476 A  
HETATM   15  C   UNL     1     -12.966  12.653  64.689  1.00  0.00    -0.225 A  
HETATM   16  C   UNL     1     -12.431  12.079  63.539  1.00  0.00    -0.654 A  
ENDBRANCH   8  11
BRANCH   9  17
HETATM   17  C   UNL     1      -7.876  12.089  67.029  1.00  0.00    -0.138 A  
HETATM   18  C   UNL     1      -6.274   9.779  67.167  1.00  0.00    -0.064 A  
HETATM   19  C   UNL     1      -6.493  12.179  67.266  1.00  0.00    -0.152 A  
HETATM   20  C   UNL     1      -7.638   9.672  66.906  1.00  0.00    -0.095 A  
HETATM   21  C   UNL     1      -5.698  11.034  67.343  1.00  0.00    -0.048 A  
HETATM   22  C   UNL     1      -8.436  10.819  66.845  1.00  0.00    -0.131 A  
ENDBRANCH   9  17
ENDBRANCH   5   6
ENDBRANCH   4   5
TORSDOF 4
ENDMDL
MODEL      110
REMARK 921   NORMALIZED FREE ENERGY PREDICTED BY IDOCK:   -4.58 KCAL/MOL
REMARK 922        TOTAL FREE ENERGY PREDICTED BY IDOCK:   -6.47 KCAL/MOL
REMARK 923 INTER-LIGAND FREE ENERGY PREDICTED BY IDOCK:   -5.54 KCAL/MOL
REMARK 924 INTRA-LIGAND FREE ENERGY PREDICTED BY IDOCK:   -0.93 KCAL/MOL
REMARK 927      BINDING AFFINITY PREDICTED BY RF-SCORE:    0.00 PKD
ROOT
HETATM    1  O   UNL     1      -6.994   3.872  64.909  1.00  0.00    -0.051 OA 
HETATM    2  C   UNL     1      -8.128   3.847  65.644  1.00  0.00    -0.097 C  
HETATM    3  O   UNL     1      -8.212   3.217  66.687  1.00  0.00    -0.087 OA 
HETATM    4  C   UNL     1      -9.238   4.652  65.022  1.00  0.00    -0.152 C  
ENDROOT
BRANCH   4   5
HETATM    5  C   UNL     1     -10.497   4.597  65.886  1.00  0.00    -0.305 C  
BRANCH   5   6
HETATM    6  C   UNL     1     -10.506   5.675  66.907  1.00  0.00    -0.288 A  
HETATM    7  N   UNL     1     -10.617   5.592  68.214  1.00  0.00    -0.173 NA 
HETATM    8  C   UNL     1     -10.615   6.913  68.639  1.00  0.00    -0.223 A  
HETATM    9  C   UNL     1     -10.513   7.753  67.540  1.00  0.00    -0.268 A  
HETATM   10  O   UNL     1     -10.419   6.947  66.431  1.00  0.00    -0.070 OA 
BRANCH   8  11
HETATM   11  C   UNL     1     -10.713   7.262  70.050  1.00  0.00    -0.261 A  
HETATM   12  C   UNL     1      -9.682   7.927  70.727  1.00  0.00    -0.179 A  
HETATM   13  C   UNL     1     -11.850   6.879  70.779  1.00  0.00    -0.427 A  
HETATM   14  C   UNL     1      -9.796   8.230  72.088  1.00  0.00    -0.342 A  
HETATM   15  C   UNL     1     -11.959   7.168  72.143  1.00  0.00    -0.304 A  
HETATM   16  C   UNL     1     -10.932   7.847  72.795  1.00  0.00    -0.456 A  
ENDBRANCH   8  11
BRANCH   9  17
HETATM   17  C   UNL     1     -10.542   9.176  67.229  1.00  0.00    -0.303 A  
HETATM   18  C   UNL     1     -10.737  11.883  66.486  1.00  0.00    -0.293 A  
HETATM   19  C   UNL     1      -9.951   9.647  66.043  1.00  0.00    -0.344 A  
HETATM   20  C   UNL     1     -11.308  11.440  67.677  1.00  0.00    -0.359 A  
HETATM   21  C   UNL     1     -10.054  10.988  65.669  1.00  0.00    -0.310 A  
HETATM   22  C   UNL     1     -11.218  10.093  68.043  1.00  0.00    -0.247 A  
ENDBRANCH   9  17
ENDBRANCH   5   6
ENDBRANCH   4   5
TORSDOF 4
ENDMDL
MODEL      111
REMARK 921   NORMALIZED FREE ENERGY PREDICTED BY IDOCK:   -4.58 KCAL/MOL
REMARK 922        TOTAL FREE ENERGY PREDICTED BY IDOCK:   -6.46 KCAL/MOL
REMARK 923 INTER-LIGAND FREE ENERGY PREDICTED BY IDOCK:   -5.52 KCAL/MOL
REMARK 924 INTRA-LIGAND FREE ENERGY PREDICTED BY IDOCK:   -0.94 KCAL/MOL
REMARK 927      BINDING AFFINITY PREDICTED BY RF-SCORE:    0.00 PKD
ROOT
HETATM    1  O   UNL     1     -10.019  18.793  68.752  1.00  0.00    -0.380 OA 
HETATM    2  C   UNL     1      -9.115  17.821  68.497  1.00  0.00    -0.282 C  
HETATM    3  O   UNL     1      -8.141  18.010  67.785  1.00  0.00    -0.230 OA 
HETATM    4  C   UNL     1      -9.464  16.518  69.166  1.00  0.00    -0.212 C  
ENDROOT
BRANCH   4   5
HETATM    5  C   UNL     1      -8.417  15.450  68.853  1.00  0.00    -0.205 C  
BRANCH   5   6
HETATM    6  C   UNL     1      -8.991  14.338  68.056  1.00  0.00    -0.183 A  
HETATM    7  N   UNL     1      -9.671  14.374  66.933  1.00  0.00    -0.253 NA 
HETATM    8  C   UNL     1      -9.990  13.046  66.686  1.00  0.00    -0.250 A  
HETATM    9  C   UNL     1      -9.487  12.251  67.705  1.00  0.00    -0.197 A  
HETATM   10  O   UNL     1      -8.823  13.088  68.571  1.00  0.00    -0.141 OA 
BRANCH   8  11
HETATM   11  C   UNL     1     -10.747  12.648  65.507  1.00  0.00    -0.303 A  
HETATM   12  C   UNL     1     -12.146  12.729  65.456  1.00  0.00    -0.517 A  
HETATM   13  C   UNL     1     -10.070  12.116  64.398  1.00  0.00    -0.300 A  
HETATM   14  C   UNL     1     -12.847  12.319  64.317  1.00  0.00    -0.336 A  
HETATM   15  C   UNL     1     -10.772  11.691  63.265  1.00  0.00    -0.404 A  
HETATM   16  C   UNL     1     -12.160  11.797  63.225  1.00  0.00    -0.375 A  
ENDBRANCH   8  11
BRANCH   9  17
HETATM   17  C   UNL     1      -9.511  10.861  68.140  1.00  0.00    -0.167 A  
HETATM   18  C   UNL     1      -9.580   8.123  68.788  1.00  0.00    -0.149 A  
HETATM   19  C   UNL     1     -10.719  10.142  68.124  1.00  0.00    -0.285 A  
HETATM   20  C   UNL     1      -8.377   8.825  68.834  1.00  0.00    -0.127 A  
HETATM   21  C   UNL     1     -10.754   8.782  68.437  1.00  0.00    -0.112 A  
HETATM   22  C   UNL     1      -8.341  10.184  68.506  1.00  0.00    -0.116 A  
ENDBRANCH   9  17
ENDBRANCH   5   6
ENDBRANCH   4   5
TORSDOF 4
ENDMDL
MODEL      112
REMARK 921   NORMALIZED FREE ENERGY PREDICTED BY IDOCK:   -4.57 KCAL/MOL
REMARK 922        TOTAL FREE ENERGY PREDICTED BY IDOCK:   -6.45 KCAL/MOL
REMARK 923 INTER-LIGAND FREE ENERGY PREDICTED BY IDOCK:   -5.61 KCAL/MOL
REMARK 924 INTRA-LIGAND FREE ENERGY PREDICTED BY IDOCK:   -0.84 KCAL/MOL
REMARK 927      BINDING AFFINITY PREDICTED BY RF-SCORE:    0.00 PKD
ROOT
HETATM    1  O   UNL     1     -12.475   6.861  70.972  1.00  0.00    -0.382 OA 
HETATM    2  C   UNL     1     -11.548   7.822  70.761  1.00  0.00    -0.255 C  
HETATM    3  O   UNL     1     -10.350   7.581  70.767  1.00  0.00    -0.202 OA 
HETATM    4  C   UNL     1     -12.161   9.180  70.546  1.00  0.00    -0.014 C  
ENDROOT
BRANCH   4   5
HETATM    5  C   UNL     1     -11.078  10.232  70.310  1.00  0.00    -0.388 C  
BRANCH   5   6
HETATM    6  C   UNL     1     -10.898  10.517  68.864  1.00  0.00    -0.235 A  
HETATM    7  N   UNL     1     -11.453  11.444  68.116  1.00  0.00    -0.336 NA 
HETATM    8  C   UNL     1     -10.952  11.198  66.845  1.00  0.00    -0.273 A  
HETATM    9  C   UNL     1     -10.108  10.098  66.884  1.00  0.00    -0.223 A  
HETATM   10  O   UNL     1     -10.059   9.681  68.193  1.00  0.00    -0.161 OA 
BRANCH   8  11
HETATM   11  C   UNL     1     -11.322  12.026  65.705  1.00  0.00    -0.381 A  
HETATM   12  C   UNL     1     -11.162  13.418  65.711  1.00  0.00    -0.305 A  
HETATM   13  C   UNL     1     -11.905  11.427  64.577  1.00  0.00     0.131 A  
HETATM   14  C   UNL     1     -11.546  14.188  64.608  1.00  0.00    -0.414 A  
HETATM   15  C   UNL     1     -12.304  12.198  63.479  1.00  0.00    -0.682 A  
HETATM   16  C   UNL     1     -12.120  13.579  63.495  1.00  0.00    -0.425 A  
ENDBRANCH   8  11
BRANCH   9  17
HETATM   17  C   UNL     1      -9.345   9.256  65.973  1.00  0.00    -0.283 A  
HETATM   18  C   UNL     1      -8.044   7.541  64.161  1.00  0.00    -0.055 A  
HETATM   19  C   UNL     1      -9.132   7.901  66.282  1.00  0.00    -0.224 A  
HETATM   20  C   UNL     1      -8.223   8.886  63.847  1.00  0.00    -0.171 A  
HETATM   21  C   UNL     1      -8.495   7.047  65.380  1.00  0.00    -0.093 A  
HETATM   22  C   UNL     1      -8.876   9.737  64.745  1.00  0.00    -0.239 A  
ENDBRANCH   9  17
ENDBRANCH   5   6
ENDBRANCH   4   5
TORSDOF 4
ENDMDL
MODEL      113
REMARK 921   NORMALIZED FREE ENERGY PREDICTED BY IDOCK:   -4.57 KCAL/MOL
REMARK 922        TOTAL FREE ENERGY PREDICTED BY IDOCK:   -6.44 KCAL/MOL
REMARK 923 INTER-LIGAND FREE ENERGY PREDICTED BY IDOCK:   -5.52 KCAL/MOL
REMARK 924 INTRA-LIGAND FREE ENERGY PREDICTED BY IDOCK:   -0.92 KCAL/MOL
REMARK 927      BINDING AFFINITY PREDICTED BY RF-SCORE:    0.00 PKD
ROOT
HETATM    1  O   UNL     1     -12.595  14.063  63.220  1.00  0.00    -0.801 OA 
HETATM    2  C   UNL     1     -12.196  14.256  64.496  1.00  0.00    -0.455 C  
HETATM    3  O   UNL     1     -11.455  15.174  64.813  1.00  0.00    -0.398 OA 
HETATM    4  C   UNL     1     -12.748  13.220  65.439  1.00  0.00    -0.460 C  
ENDROOT
BRANCH   4   5
HETATM    5  C   UNL     1     -12.274  13.478  66.868  1.00  0.00    -0.377 C  
BRANCH   5   6
HETATM    6  C   UNL     1     -11.588  12.292  67.439  1.00  0.00    -0.355 A  
HETATM    7  N   UNL     1     -11.995  11.453  68.365  1.00  0.00    -0.590 NA 
HETATM    8  C   UNL     1     -10.926  10.583  68.527  1.00  0.00    -0.252 A  
HETATM    9  C   UNL     1      -9.892  10.955  67.680  1.00  0.00    -0.171 A  
HETATM   10  O   UNL     1     -10.337  12.042  66.965  1.00  0.00    -0.208 OA 
BRANCH   8  11
HETATM   11  C   UNL     1     -10.977   9.477  69.474  1.00  0.00    -0.217 A  
HETATM   12  C   UNL     1     -10.567   9.617  70.807  1.00  0.00    -0.392 A  
HETATM   13  C   UNL     1     -11.400   8.212  69.037  1.00  0.00     0.560 A  
HETATM   14  C   UNL     1     -10.608   8.531  71.688  1.00  0.00    -0.353 A  
HETATM   15  C   UNL     1     -11.427   7.121  69.913  1.00  0.00    -0.154 A  
HETATM   16  C   UNL     1     -11.034   7.283  71.239  1.00  0.00    -0.264 A  
ENDBRANCH   8  11
BRANCH   9  17
HETATM   17  C   UNL     1      -8.513  10.588  67.389  1.00  0.00    -0.122 A  
HETATM   18  C   UNL     1      -5.796   9.967  66.997  1.00  0.00    -0.051 A  
HETATM   19  C   UNL     1      -7.596  11.572  66.981  1.00  0.00    -0.154 A  
HETATM   20  C   UNL     1      -6.695   8.973  67.378  1.00  0.00    -0.069 A  
HETATM   21  C   UNL     1      -6.246  11.268  66.794  1.00  0.00    -0.134 A  
HETATM   22  C   UNL     1      -8.044   9.283  67.579  1.00  0.00    -0.107 A  
ENDBRANCH   9  17
ENDBRANCH   5   6
ENDBRANCH   4   5
TORSDOF 4
ENDMDL
MODEL      114
REMARK 921   NORMALIZED FREE ENERGY PREDICTED BY IDOCK:   -4.56 KCAL/MOL
REMARK 922        TOTAL FREE ENERGY PREDICTED BY IDOCK:   -6.44 KCAL/MOL
REMARK 923 INTER-LIGAND FREE ENERGY PREDICTED BY IDOCK:   -5.47 KCAL/MOL
REMARK 924 INTRA-LIGAND FREE ENERGY PREDICTED BY IDOCK:   -0.96 KCAL/MOL
REMARK 927      BINDING AFFINITY PREDICTED BY RF-SCORE:    0.00 PKD
ROOT
HETATM    1  O   UNL     1      -8.049   6.965  65.490  1.00  0.00    -0.119 OA 
HETATM    2  C   UNL     1      -7.593   7.027  66.761  1.00  0.00    -0.090 C  
HETATM    3  O   UNL     1      -6.740   6.260  67.183  1.00  0.00    -0.056 OA 
HETATM    4  C   UNL     1      -8.261   8.111  67.564  1.00  0.00    -0.123 C  
ENDROOT
BRANCH   4   5
HETATM    5  C   UNL     1      -7.714   8.146  68.990  1.00  0.00    -0.099 C  
BRANCH   5   6
HETATM    6  C   UNL     1      -8.625   7.464  69.942  1.00  0.00    -0.140 A  
HETATM    7  N   UNL     1      -8.510   6.288  70.518  1.00  0.00    -0.136 NA 
HETATM    8  C   UNL     1      -9.677   6.157  71.258  1.00  0.00    -0.175 A  
HETATM    9  C   UNL     1     -10.468   7.282  71.079  1.00  0.00    -0.215 A  
HETATM   10  O   UNL     1      -9.772   8.129  70.249  1.00  0.00    -0.174 OA 
BRANCH   8  11
HETATM   11  C   UNL     1      -9.940   4.975  72.067  1.00  0.00    -0.239 A  
HETATM   12  C   UNL     1     -10.357   5.062  73.402  1.00  0.00    -0.243 A  
HETATM   13  C   UNL     1      -9.725   3.700  71.518  1.00  0.00    -0.238 A  
HETATM   14  C   UNL     1     -10.581   3.908  74.160  1.00  0.00    -0.278 A  
HETATM   15  C   UNL     1      -9.934   2.546  72.280  1.00  0.00    -0.230 A  
HETATM   16  C   UNL     1     -10.366   2.652  73.600  1.00  0.00    -0.213 A  
ENDBRANCH   8  11
BRANCH   9  17
HETATM   17  C   UNL     1     -11.789   7.776  71.443  1.00  0.00    -0.324 A  
HETATM   18  C   UNL     1     -14.338   8.840  71.981  1.00  0.00    -0.466 A  
HETATM   19  C   UNL     1     -11.940   9.089  71.922  1.00  0.00    -0.445 A  
HETATM   20  C   UNL     1     -14.207   7.529  71.531  1.00  0.00    -0.580 A  
HETATM   21  C   UNL     1     -13.205   9.621  72.181  1.00  0.00    -0.535 A  
HETATM   22  C   UNL     1     -12.941   7.001  71.257  1.00  0.00    -0.357 A  
ENDBRANCH   9  17
ENDBRANCH   5   6
ENDBRANCH   4   5
TORSDOF 4
ENDMDL
MODEL      115
REMARK 921   NORMALIZED FREE ENERGY PREDICTED BY IDOCK:   -4.55 KCAL/MOL
REMARK 922        TOTAL FREE ENERGY PREDICTED BY IDOCK:   -6.42 KCAL/MOL
REMARK 923 INTER-LIGAND FREE ENERGY PREDICTED BY IDOCK:   -5.50 KCAL/MOL
REMARK 924 INTRA-LIGAND FREE ENERGY PREDICTED BY IDOCK:   -0.92 KCAL/MOL
REMARK 927      BINDING AFFINITY PREDICTED BY RF-SCORE:    0.00 PKD
ROOT
HETATM    1  O   UNL     1      -7.544   6.505  70.363  1.00  0.00    -0.092 OA 
HETATM    2  C   UNL     1      -8.596   6.962  69.646  1.00  0.00    -0.134 C  
HETATM    3  O   UNL     1      -8.928   6.455  68.585  1.00  0.00    -0.126 OA 
HETATM    4  C   UNL     1      -9.266   8.145  70.291  1.00  0.00    -0.151 C  
ENDROOT
BRANCH   4   5
HETATM    5  C   UNL     1     -10.447   8.625  69.450  1.00  0.00    -0.224 C  
BRANCH   5   6
HETATM    6  C   UNL     1     -10.121   9.870  68.710  1.00  0.00    -0.174 A  
HETATM    7  N   UNL     1      -9.353  10.877  69.059  1.00  0.00    -0.169 NA 
HETATM    8  C   UNL     1      -9.464  11.771  68.004  1.00  0.00    -0.188 A  
HETATM    9  C   UNL     1     -10.327  11.255  67.048  1.00  0.00    -0.227 A  
HETATM   10  O   UNL     1     -10.726  10.019  67.500  1.00  0.00    -0.256 OA 
BRANCH   8  11
HETATM   11  C   UNL     1      -8.745  13.038  67.996  1.00  0.00    -0.187 A  
HETATM   12  C   UNL     1      -7.405  13.132  67.597  1.00  0.00    -0.155 A  
HETATM   13  C   UNL     1      -9.389  14.200  68.448  1.00  0.00    -0.208 A  
HETATM   14  C   UNL     1      -6.735  14.360  67.621  1.00  0.00    -0.188 A  
HETATM   15  C   UNL     1      -8.715  15.426  68.486  1.00  0.00    -0.178 A  
HETATM   16  C   UNL     1      -7.389  15.504  68.069  1.00  0.00    -0.139 A  
ENDBRANCH   8  11
BRANCH   9  17
HETATM   17  C   UNL     1     -10.956  11.651  65.796  1.00  0.00    -0.329 A  
HETATM   18  C   UNL     1     -12.082  12.594  63.395  1.00  0.00    -0.614 A  
HETATM   19  C   UNL     1     -12.031  12.558  65.806  1.00  0.00    -0.482 A  
HETATM   20  C   UNL     1     -11.034  11.677  63.365  1.00  0.00    -0.442 A  
HETATM   21  C   UNL     1     -12.584  13.033  64.616  1.00  0.00    -0.425 A  
HETATM   22  C   UNL     1     -10.469  11.213  64.558  1.00  0.00    -0.415 A  
ENDBRANCH   9  17
ENDBRANCH   5   6
ENDBRANCH   4   5
TORSDOF 4
ENDMDL
MODEL      116
REMARK 921   NORMALIZED FREE ENERGY PREDICTED BY IDOCK:   -4.54 KCAL/MOL
REMARK 922        TOTAL FREE ENERGY PREDICTED BY IDOCK:   -6.41 KCAL/MOL
REMARK 923 INTER-LIGAND FREE ENERGY PREDICTED BY IDOCK:   -5.85 KCAL/MOL
REMARK 924 INTRA-LIGAND FREE ENERGY PREDICTED BY IDOCK:   -0.56 KCAL/MOL
REMARK 927      BINDING AFFINITY PREDICTED BY RF-SCORE:    0.00 PKD
ROOT
HETATM    1  O   UNL     1     -11.413  15.849  72.194  1.00  0.00    -0.399 OA 
HETATM    2  C   UNL     1     -11.116  15.649  70.890  1.00  0.00    -0.338 C  
HETATM    3  O   UNL     1      -9.977  15.754  70.460  1.00  0.00     0.090 OA 
HETATM    4  C   UNL     1     -12.330  15.312  70.065  1.00  0.00    -0.366 C  
ENDROOT
BRANCH   4   5
HETATM    5  C   UNL     1     -11.948  15.093  68.602  1.00  0.00    -0.270 C  
BRANCH   5   6
HETATM    6  C   UNL     1     -11.305  13.770  68.397  1.00  0.00    -0.293 A  
HETATM    7  N   UNL     1     -10.624  13.318  67.369  1.00  0.00    -0.245 NA 
HETATM    8  C   UNL     1     -10.315  12.011  67.714  1.00  0.00    -0.197 A  
HETATM    9  C   UNL     1     -10.849  11.722  68.962  1.00  0.00    -0.195 A  
HETATM   10  O   UNL     1     -11.463  12.869  69.405  1.00  0.00    -0.273 OA 
BRANCH   8  11
HETATM   11  C   UNL     1      -9.544  11.148  66.830  1.00  0.00    -0.215 A  
HETATM   12  C   UNL     1      -8.357  10.526  67.242  1.00  0.00    -0.122 A  
HETATM   13  C   UNL     1      -9.965  10.966  65.502  1.00  0.00    -0.315 A  
HETATM   14  C   UNL     1      -7.627   9.720  66.362  1.00  0.00    -0.099 A  
HETATM   15  C   UNL     1      -9.226  10.172  64.617  1.00  0.00    -0.300 A  
HETATM   16  C   UNL     1      -8.060   9.547  65.050  1.00  0.00    -0.125 A  
ENDBRANCH   8  11
BRANCH   9  17
HETATM   17  C   UNL     1     -10.997  10.591  69.867  1.00  0.00    -0.359 A  
HETATM   18  C   UNL     1     -11.184   8.512  71.755  1.00  0.00    -0.379 A  
HETATM   19  C   UNL     1      -9.890   9.777  70.161  1.00  0.00    -0.306 A  
HETATM   20  C   UNL     1     -12.299   9.292  71.459  1.00  0.00    -0.439 A  
HETATM   21  C   UNL     1      -9.978   8.750  71.103  1.00  0.00    -0.317 A  
HETATM   22  C   UNL     1     -12.205  10.330  70.526  1.00  0.00    -0.390 A  
ENDBRANCH   9  17
ENDBRANCH   5   6
ENDBRANCH   4   5
TORSDOF 4
ENDMDL
MODEL      117
REMARK 921   NORMALIZED FREE ENERGY PREDICTED BY IDOCK:   -4.51 KCAL/MOL
REMARK 922        TOTAL FREE ENERGY PREDICTED BY IDOCK:   -6.38 KCAL/MOL
REMARK 923 INTER-LIGAND FREE ENERGY PREDICTED BY IDOCK:   -5.70 KCAL/MOL
REMARK 924 INTRA-LIGAND FREE ENERGY PREDICTED BY IDOCK:   -0.68 KCAL/MOL
REMARK 927      BINDING AFFINITY PREDICTED BY RF-SCORE:    0.00 PKD
ROOT
HETATM    1  O   UNL     1     -10.058  12.330  63.107  1.00  0.00    -0.375 OA 
HETATM    2  C   UNL     1     -10.525  12.690  64.324  1.00  0.00    -0.392 C  
HETATM    3  O   UNL     1     -10.864  13.837  64.576  1.00  0.00    -0.393 OA 
HETATM    4  C   UNL     1     -10.555  11.541  65.296  1.00  0.00    -0.339 C  
ENDROOT
BRANCH   4   5
HETATM    5  C   UNL     1     -11.091  11.993  66.653  1.00  0.00    -0.358 C  
BRANCH   5   6
HETATM    6  C   UNL     1     -10.404  11.297  67.771  1.00  0.00    -0.182 A  
HETATM    7  N   UNL     1      -9.143  11.339  68.137  1.00  0.00    -0.160 NA 
HETATM    8  C   UNL     1      -9.070  10.455  69.204  1.00  0.00    -0.187 A  
HETATM    9  C   UNL     1     -10.319   9.896  69.429  1.00  0.00    -0.222 A  
HETATM   10  O   UNL     1     -11.178  10.462  68.517  1.00  0.00    -0.262 OA 
BRANCH   8  11
HETATM   11  C   UNL     1      -7.821  10.215  69.914  1.00  0.00    -0.164 A  
HETATM   12  C   UNL     1      -6.692  11.025  69.731  1.00  0.00    -0.136 A  
HETATM   13  C   UNL     1      -7.716   9.111  70.775  1.00  0.00    -0.162 A  
HETATM   14  C   UNL     1      -5.499  10.756  70.412  1.00  0.00    -0.082 A  
HETATM   15  C   UNL     1      -6.520   8.833  71.444  1.00  0.00    -0.071 A  
HETATM   16  C   UNL     1      -5.413   9.659  71.264  1.00  0.00    -0.071 A  
ENDBRANCH   8  11
BRANCH   9  17
HETATM   17  C   UNL     1     -10.943   8.882  70.268  1.00  0.00    -0.266 A  
HETATM   18  C   UNL     1     -12.326   7.001  71.839  1.00  0.00    -0.358 A  
HETATM   19  C   UNL     1     -11.494   9.240  71.511  1.00  0.00    -0.454 A  
HETATM   20  C   UNL     1     -11.766   6.620  70.622  1.00  0.00    -0.452 A  
HETATM   21  C   UNL     1     -12.187   8.310  72.288  1.00  0.00    -0.428 A  
HETATM   22  C   UNL     1     -11.084   7.556  69.838  1.00  0.00    -0.185 A  
ENDBRANCH   9  17
ENDBRANCH   5   6
ENDBRANCH   4   5
TORSDOF 4
ENDMDL
MODEL      118
REMARK 921   NORMALIZED FREE ENERGY PREDICTED BY IDOCK:   -4.51 KCAL/MOL
REMARK 922        TOTAL FREE ENERGY PREDICTED BY IDOCK:   -6.37 KCAL/MOL
REMARK 923 INTER-LIGAND FREE ENERGY PREDICTED BY IDOCK:   -5.46 KCAL/MOL
REMARK 924 INTRA-LIGAND FREE ENERGY PREDICTED BY IDOCK:   -0.91 KCAL/MOL
REMARK 927      BINDING AFFINITY PREDICTED BY RF-SCORE:    0.00 PKD
ROOT
HETATM    1  O   UNL     1     -14.181  13.180  72.779  1.00  0.00    -0.608 OA 
HETATM    2  C   UNL     1     -13.659  14.408  72.567  1.00  0.00    -0.500 C  
HETATM    3  O   UNL     1     -14.340  15.421  72.615  1.00  0.00    -0.422 OA 
HETATM    4  C   UNL     1     -12.187  14.365  72.254  1.00  0.00    -0.205 C  
ENDROOT
BRANCH   4   5
HETATM    5  C   UNL     1     -11.639  15.773  72.023  1.00  0.00    -0.541 C  
BRANCH   5   6
HETATM    6  C   UNL     1     -10.859  15.856  70.763  1.00  0.00    -0.141 A  
HETATM    7  N   UNL     1     -10.353  16.907  70.158  1.00  0.00     0.214 NA 
HETATM    8  C   UNL     1      -9.778  16.390  69.005  1.00  0.00    -0.262 A  
HETATM    9  C   UNL     1      -9.981  15.019  68.961  1.00  0.00    -0.246 A  
HETATM   10  O   UNL     1     -10.657  14.680  70.109  1.00  0.00    -0.039 OA 
BRANCH   8  11
HETATM   11  C   UNL     1      -9.090  17.243  68.045  1.00  0.00    -0.249 A  
HETATM   12  C   UNL     1      -9.783  18.018  67.105  1.00  0.00    -0.297 A  
HETATM   13  C   UNL     1      -7.686  17.259  68.018  1.00  0.00    -0.202 A  
HETATM   14  C   UNL     1      -9.093  18.811  66.182  1.00  0.00    -0.152 A  
HETATM   15  C   UNL     1      -6.996  18.040  67.085  1.00  0.00    -0.211 A  
HETATM   16  C   UNL     1      -7.701  18.818  66.170  1.00  0.00    -0.274 A  
ENDBRANCH   8  11
BRANCH   9  17
HETATM   17  C   UNL     1      -9.756  13.895  68.062  1.00  0.00    -0.226 A  
HETATM   18  C   UNL     1      -9.397  11.604  66.467  1.00  0.00    -0.216 A  
HETATM   19  C   UNL     1      -8.715  12.986  68.322  1.00  0.00    -0.173 A  
HETATM   20  C   UNL     1     -10.419  12.506  66.179  1.00  0.00    -0.272 A  
HETATM   21  C   UNL     1      -8.541  11.845  67.537  1.00  0.00    -0.160 A  
HETATM   22  C   UNL     1     -10.602  13.641  66.975  1.00  0.00    -0.274 A  
ENDBRANCH   9  17
ENDBRANCH   5   6
ENDBRANCH   4   5
TORSDOF 4
ENDMDL
MODEL      119
REMARK 921   NORMALIZED FREE ENERGY PREDICTED BY IDOCK:   -4.50 KCAL/MOL
REMARK 922        TOTAL FREE ENERGY PREDICTED BY IDOCK:   -6.36 KCAL/MOL
REMARK 923 INTER-LIGAND FREE ENERGY PREDICTED BY IDOCK:   -5.58 KCAL/MOL
REMARK 924 INTRA-LIGAND FREE ENERGY PREDICTED BY IDOCK:   -0.78 KCAL/MOL
REMARK 927      BINDING AFFINITY PREDICTED BY RF-SCORE:    0.00 PKD
ROOT
HETATM    1  O   UNL     1      -7.141  14.799  69.195  1.00  0.00    -0.123 OA 
HETATM    2  C   UNL     1      -7.325  13.666  68.481  1.00  0.00    -0.114 C  
HETATM    3  O   UNL     1      -6.495  12.770  68.459  1.00  0.00    -0.071 OA 
HETATM    4  C   UNL     1      -8.629  13.662  67.728  1.00  0.00    -0.182 C  
ENDROOT
BRANCH   4   5
HETATM    5  C   UNL     1      -8.795  12.366  66.938  1.00  0.00    -0.205 C  
BRANCH   5   6
HETATM    6  C   UNL     1      -9.530  11.340  67.720  1.00  0.00    -0.170 A  
HETATM    7  N   UNL     1     -10.302  11.481  68.774  1.00  0.00    -0.207 NA 
HETATM    8  C   UNL     1     -10.669  10.184  69.102  1.00  0.00    -0.226 A  
HETATM    9  C   UNL     1     -10.076   9.296  68.217  1.00  0.00    -0.185 A  
HETATM   10  O   UNL     1      -9.364  10.051  67.315  1.00  0.00    -0.146 OA 
BRANCH   8  11
HETATM   11  C   UNL     1     -11.547   9.900  70.229  1.00  0.00    -0.319 A  
HETATM   12  C   UNL     1     -12.432  10.857  70.745  1.00  0.00    -0.489 A  
HETATM   13  C   UNL     1     -11.479   8.647  70.860  1.00  0.00    -0.315 A  
HETATM   14  C   UNL     1     -13.248  10.561  71.842  1.00  0.00    -0.526 A  
HETATM   15  C   UNL     1     -12.284   8.356  71.967  1.00  0.00    -0.419 A  
HETATM   16  C   UNL     1     -13.170   9.313  72.454  1.00  0.00    -0.501 A  
ENDBRANCH   8  11
BRANCH   9  17
HETATM   17  C   UNL     1      -9.940   7.860  68.014  1.00  0.00    -0.213 A  
HETATM   18  C   UNL     1      -9.603   5.126  67.439  1.00  0.00    -0.154 A  
HETATM   19  C   UNL     1     -10.821   7.187  67.149  1.00  0.00    -0.403 A  
HETATM   20  C   UNL     1      -8.736   5.769  68.319  1.00  0.00    -0.111 A  
HETATM   21  C   UNL     1     -10.650   5.833  66.856  1.00  0.00    -0.377 A  
HETATM   22  C   UNL     1      -8.899   7.130  68.599  1.00  0.00    -0.126 A  
ENDBRANCH   9  17
ENDBRANCH   5   6
ENDBRANCH   4   5
TORSDOF 4
ENDMDL
MODEL      120
REMARK 921   NORMALIZED FREE ENERGY PREDICTED BY IDOCK:   -4.49 KCAL/MOL
REMARK 922        TOTAL FREE ENERGY PREDICTED BY IDOCK:   -6.34 KCAL/MOL
REMARK 923 INTER-LIGAND FREE ENERGY PREDICTED BY IDOCK:   -5.46 KCAL/MOL
REMARK 924 INTRA-LIGAND FREE ENERGY PREDICTED BY IDOCK:   -0.88 KCAL/MOL
REMARK 927      BINDING AFFINITY PREDICTED BY RF-SCORE:    0.00 PKD
ROOT
HETATM    1  O   UNL     1     -14.153   9.433  72.283  1.00  0.00    -0.374 OA 
HETATM    2  C   UNL     1     -13.697   8.254  71.806  1.00  0.00    -0.377 C  
HETATM    3  O   UNL     1     -14.407   7.494  71.165  1.00  0.00    -0.370 OA 
HETATM    4  C   UNL     1     -12.258   8.000  72.170  1.00  0.00    -0.377 C  
ENDROOT
BRANCH   4   5
HETATM    5  C   UNL     1     -11.785   6.660  71.609  1.00  0.00    -0.362 C  
BRANCH   5   6
HETATM    6  C   UNL     1     -11.053   6.831  70.329  1.00  0.00    -0.310 A  
HETATM    7  N   UNL     1     -10.655   7.931  69.730  1.00  0.00    -0.240 NA 
HETATM    8  C   UNL     1     -10.074   7.484  68.552  1.00  0.00    -0.184 A  
HETATM    9  C   UNL     1     -10.163   6.102  68.486  1.00  0.00    -0.185 A  
HETATM   10  O   UNL     1     -10.773   5.687  69.646  1.00  0.00    -0.311 OA 
BRANCH   8  11
HETATM   11  C   UNL     1      -9.489   8.408  67.590  1.00  0.00    -0.176 A  
HETATM   12  C   UNL     1      -8.350   9.170  67.885  1.00  0.00    -0.117 A  
HETATM   13  C   UNL     1     -10.106   8.588  66.341  1.00  0.00    -0.271 A  
HETATM   14  C   UNL     1      -7.824  10.065  66.948  1.00  0.00    -0.106 A  
HETATM   15  C   UNL     1      -9.589   9.495  65.409  1.00  0.00    -0.342 A  
HETATM   16  C   UNL     1      -8.446  10.230  65.713  1.00  0.00    -0.161 A  
ENDBRANCH   8  11
BRANCH   9  17
HETATM   17  C   UNL     1      -9.872   5.017  67.559  1.00  0.00    -0.201 A  
HETATM   18  C   UNL     1      -9.179   3.042  65.677  1.00  0.00    -0.129 A  
HETATM   19  C   UNL     1     -10.344   5.078  66.236  1.00  0.00    -0.332 A  
HETATM   20  C   UNL     1      -8.722   2.951  66.989  1.00  0.00    -0.137 A  
HETATM   21  C   UNL     1      -9.995   4.104  65.299  1.00  0.00    -0.216 A  
HETATM   22  C   UNL     1      -9.060   3.936  67.923  1.00  0.00    -0.187 A  
ENDBRANCH   9  17
ENDBRANCH   5   6
ENDBRANCH   4   5
TORSDOF 4
ENDMDL
MODEL      121
REMARK 921   NORMALIZED FREE ENERGY PREDICTED BY IDOCK:   -4.46 KCAL/MOL
REMARK 922        TOTAL FREE ENERGY PREDICTED BY IDOCK:   -6.31 KCAL/MOL
REMARK 923 INTER-LIGAND FREE ENERGY PREDICTED BY IDOCK:   -5.34 KCAL/MOL
REMARK 924 INTRA-LIGAND FREE ENERGY PREDICTED BY IDOCK:   -0.98 KCAL/MOL
REMARK 927      BINDING AFFINITY PREDICTED BY RF-SCORE:    0.00 PKD
ROOT
HETATM    1  O   UNL     1      -7.650   3.547  66.158  1.00  0.00    -0.079 OA 
HETATM    2  C   UNL     1      -8.651   4.410  65.876  1.00  0.00    -0.114 C  
HETATM    3  O   UNL     1      -8.642   5.111  64.876  1.00  0.00    -0.145 OA 
HETATM    4  C   UNL     1      -9.729   4.410  66.928  1.00  0.00    -0.233 C  
ENDROOT
BRANCH   4   5
HETATM    5  C   UNL     1     -10.838   5.397  66.569  1.00  0.00    -0.222 C  
BRANCH   5   6
HETATM    6  C   UNL     1     -10.773   6.621  67.406  1.00  0.00    -0.339 A  
HETATM    7  N   UNL     1     -10.746   7.884  67.045  1.00  0.00    -0.306 NA 
HETATM    8  C   UNL     1     -10.633   8.577  68.242  1.00  0.00    -0.119 A  
HETATM    9  C   UNL     1     -10.582   7.677  69.295  1.00  0.00    -0.201 A  
HETATM   10  O   UNL     1     -10.698   6.420  68.750  1.00  0.00    -0.227 OA 
BRANCH   8  11
HETATM   11  C   UNL     1     -10.580  10.032  68.281  1.00  0.00    -0.264 A  
HETATM   12  C   UNL     1      -9.547  10.758  67.671  1.00  0.00    -0.174 A  
HETATM   13  C   UNL     1     -11.562  10.740  68.992  1.00  0.00    -0.370 A  
HETATM   14  C   UNL     1      -9.512  12.154  67.744  1.00  0.00    -0.192 A  
HETATM   15  C   UNL     1     -11.519  12.136  69.079  1.00  0.00    -0.351 A  
HETATM   16  C   UNL     1     -10.495  12.842  68.451  1.00  0.00    -0.253 A  
ENDBRANCH   8  11
BRANCH   9  17
HETATM   17  C   UNL     1     -10.384   7.671  70.738  1.00  0.00    -0.203 A  
HETATM   18  C   UNL     1      -9.899   7.490  73.505  1.00  0.00    -0.372 A  
HETATM   19  C   UNL     1     -11.097   6.765  71.542  1.00  0.00    -0.289 A  
HETATM   20  C   UNL     1      -9.199   8.412  72.730  1.00  0.00    -0.311 A  
HETATM   21  C   UNL     1     -10.852   6.667  72.913  1.00  0.00    -0.293 A  
HETATM   22  C   UNL     1      -9.435   8.498  71.354  1.00  0.00    -0.279 A  
ENDBRANCH   9  17
ENDBRANCH   5   6
ENDBRANCH   4   5
TORSDOF 4
ENDMDL
MODEL      122
REMARK 921   NORMALIZED FREE ENERGY PREDICTED BY IDOCK:   -4.46 KCAL/MOL
REMARK 922        TOTAL FREE ENERGY PREDICTED BY IDOCK:   -6.31 KCAL/MOL
REMARK 923 INTER-LIGAND FREE ENERGY PREDICTED BY IDOCK:   -5.46 KCAL/MOL
REMARK 924 INTRA-LIGAND FREE ENERGY PREDICTED BY IDOCK:   -0.84 KCAL/MOL
REMARK 927      BINDING AFFINITY PREDICTED BY RF-SCORE:    0.00 PKD
ROOT
HETATM    1  O   UNL     1     -12.297   6.995  70.690  1.00  0.00    -0.319 OA 
HETATM    2  C   UNL     1     -11.147   7.603  70.323  1.00  0.00    -0.244 C  
HETATM    3  O   UNL     1     -10.271   7.015  69.706  1.00  0.00    -0.193 OA 
HETATM    4  C   UNL     1     -11.080   9.037  70.774  1.00  0.00    -0.328 C  
ENDROOT
BRANCH   4   5
HETATM    5  C   UNL     1      -9.767   9.683  70.336  1.00  0.00    -0.304 C  
BRANCH   5   6
HETATM    6  C   UNL     1      -9.897  10.344  69.014  1.00  0.00    -0.212 A  
HETATM    7  N   UNL     1     -10.699  11.314  68.635  1.00  0.00    -0.194 NA 
HETATM    8  C   UNL     1     -10.414  11.484  67.288  1.00  0.00    -0.212 A  
HETATM    9  C   UNL     1      -9.437  10.577  66.903  1.00  0.00    -0.165 A  
HETATM   10  O   UNL     1      -9.092   9.864  68.026  1.00  0.00    -0.122 OA 
BRANCH   8  11
HETATM   11  C   UNL     1     -11.095  12.489  66.483  1.00  0.00    -0.330 A  
HETATM   12  C   UNL     1     -11.877  12.149  65.371  1.00  0.00    -0.357 A  
HETATM   13  C   UNL     1     -10.930  13.849  66.792  1.00  0.00    -0.301 A  
HETATM   14  C   UNL     1     -12.502  13.139  64.605  1.00  0.00    -0.433 A  
HETATM   15  C   UNL     1     -11.542  14.840  66.017  1.00  0.00    -0.286 A  
HETATM   16  C   UNL     1     -12.331  14.483  64.926  1.00  0.00    -0.378 A  
ENDBRANCH   8  11
BRANCH   9  17
HETATM   17  C   UNL     1      -8.750  10.137  65.697  1.00  0.00    -0.173 A  
HETATM   18  C   UNL     1      -7.459   9.466  63.288  1.00  0.00    -0.105 A  
HETATM   19  C   UNL     1      -9.487   9.848  64.534  1.00  0.00    -0.328 A  
HETATM   20  C   UNL     1      -6.712   9.724  64.435  1.00  0.00    -0.119 A  
HETATM   21  C   UNL     1      -8.848   9.524  63.336  1.00  0.00    -0.236 A  
HETATM   22  C   UNL     1      -7.354  10.064  65.631  1.00  0.00    -0.127 A  
ENDBRANCH   9  17
ENDBRANCH   5   6
ENDBRANCH   4   5
TORSDOF 4
ENDMDL
MODEL      123
REMARK 921   NORMALIZED FREE ENERGY PREDICTED BY IDOCK:   -4.39 KCAL/MOL
REMARK 922        TOTAL FREE ENERGY PREDICTED BY IDOCK:   -6.22 KCAL/MOL
REMARK 923 INTER-LIGAND FREE ENERGY PREDICTED BY IDOCK:   -5.42 KCAL/MOL
REMARK 924 INTRA-LIGAND FREE ENERGY PREDICTED BY IDOCK:   -0.80 KCAL/MOL
REMARK 927      BINDING AFFINITY PREDICTED BY RF-SCORE:    0.00 PKD
ROOT
HETATM    1  O   UNL     1      -6.232   6.922  65.451  1.00  0.00    -0.035 OA 
HETATM    2  C   UNL     1      -7.468   7.422  65.231  1.00  0.00    -0.085 C  
HETATM    3  O   UNL     1      -8.478   6.751  65.390  1.00  0.00    -0.145 OA 
HETATM    4  C   UNL     1      -7.440   8.852  64.764  1.00  0.00    -0.103 C  
ENDROOT
BRANCH   4   5
HETATM    5  C   UNL     1      -8.857   9.375  64.530  1.00  0.00    -0.235 C  
BRANCH   5   6
HETATM    6  C   UNL     1      -9.301  10.261  65.635  1.00  0.00    -0.192 A  
HETATM    7  N   UNL     1     -10.009   9.978  66.706  1.00  0.00    -0.200 NA 
HETATM    8  C   UNL     1     -10.158  11.199  67.347  1.00  0.00    -0.185 A  
HETATM    9  C   UNL     1      -9.529  12.191  66.608  1.00  0.00    -0.223 A  
HETATM   10  O   UNL     1      -8.959  11.574  65.520  1.00  0.00    -0.152 OA 
BRANCH   8  11
HETATM   11  C   UNL     1     -10.887  11.320  68.602  1.00  0.00    -0.246 A  
HETATM   12  C   UNL     1     -11.128  10.217  69.433  1.00  0.00    -0.299 A  
HETATM   13  C   UNL     1     -11.414  12.566  68.978  1.00  0.00    -0.355 A  
HETATM   14  C   UNL     1     -11.851  10.361  70.623  1.00  0.00    -0.445 A  
HETATM   15  C   UNL     1     -12.149  12.707  70.160  1.00  0.00    -0.368 A  
HETATM   16  C   UNL     1     -12.363  11.604  70.983  1.00  0.00    -0.405 A  
ENDBRANCH   8  11
BRANCH   9  17
HETATM   17  C   UNL     1      -9.361  13.637  66.614  1.00  0.00    -0.265 A  
HETATM   18  C   UNL     1      -8.881  16.408  66.502  1.00  0.00    -0.316 A  
HETATM   19  C   UNL     1      -8.288  14.217  67.315  1.00  0.00    -0.212 A  
HETATM   20  C   UNL     1      -9.964  15.856  65.822  1.00  0.00    -0.391 A  
HETATM   21  C   UNL     1      -8.044  15.590  67.253  1.00  0.00    -0.226 A  
HETATM   22  C   UNL     1     -10.199  14.478  65.872  1.00  0.00    -0.339 A  
ENDBRANCH   9  17
ENDBRANCH   5   6
ENDBRANCH   4   5
TORSDOF 4
ENDMDL
MODEL      124
REMARK 921   NORMALIZED FREE ENERGY PREDICTED BY IDOCK:   -4.35 KCAL/MOL
REMARK 922        TOTAL FREE ENERGY PREDICTED BY IDOCK:   -6.17 KCAL/MOL
REMARK 923 INTER-LIGAND FREE ENERGY PREDICTED BY IDOCK:   -5.31 KCAL/MOL
REMARK 924 INTRA-LIGAND FREE ENERGY PREDICTED BY IDOCK:   -0.86 KCAL/MOL
REMARK 927      BINDING AFFINITY PREDICTED BY RF-SCORE:    0.00 PKD
ROOT
HETATM    1  O   UNL     1      -9.245  20.680  67.418  1.00  0.00    -0.382 OA 
HETATM    2  C   UNL     1      -8.425  19.774  66.840  1.00  0.00    -0.320 C  
HETATM    3  O   UNL     1      -8.277  19.713  65.628  1.00  0.00    -0.398 OA 
HETATM    4  C   UNL     1      -7.759  18.872  67.844  1.00  0.00    -0.286 C  
ENDROOT
BRANCH   4   5
HETATM    5  C   UNL     1      -6.843  17.868  67.147  1.00  0.00    -0.201 C  
BRANCH   5   6
HETATM    6  C   UNL     1      -7.501  16.548  66.984  1.00  0.00    -0.204 A  
HETATM    7  N   UNL     1      -8.651  16.247  66.422  1.00  0.00    -0.299 NA 
HETATM    8  C   UNL     1      -8.771  14.877  66.609  1.00  0.00    -0.227 A  
HETATM    9  C   UNL     1      -7.667  14.405  67.303  1.00  0.00    -0.137 A  
HETATM   10  O   UNL     1      -6.842  15.484  67.519  1.00  0.00    -0.166 OA 
BRANCH   8  11
HETATM   11  C   UNL     1      -9.924  14.137  66.115  1.00  0.00    -0.328 A  
HETATM   12  C   UNL     1      -9.798  13.087  65.194  1.00  0.00    -0.078 A  
HETATM   13  C   UNL     1     -11.213  14.510  66.527  1.00  0.00    -0.344 A  
HETATM   14  C   UNL     1     -10.927  12.409  64.722  1.00  0.00    -0.340 A  
HETATM   15  C   UNL     1     -12.343  13.841  66.044  1.00  0.00    -0.499 A  
HETATM   16  C   UNL     1     -12.198  12.789  65.144  1.00  0.00    -0.530 A  
ENDBRANCH   8  11
BRANCH   9  17
HETATM   17  C   UNL     1      -7.181  13.169  67.901  1.00  0.00    -0.133 A  
HETATM   18  C   UNL     1      -6.074  10.802  68.947  1.00  0.00    -0.040 A  
HETATM   19  C   UNL     1      -7.129  11.991  67.134  1.00  0.00    -0.130 A  
HETATM   20  C   UNL     1      -6.139  11.952  69.731  1.00  0.00    -0.141 A  
HETATM   21  C   UNL     1      -6.572  10.819  67.649  1.00  0.00    -0.061 A  
HETATM   22  C   UNL     1      -6.683  13.130  69.209  1.00  0.00    -0.061 A  
ENDBRANCH   9  17
ENDBRANCH   5   6
ENDBRANCH   4   5
TORSDOF 4
ENDMDL
MODEL      125
REMARK 921   NORMALIZED FREE ENERGY PREDICTED BY IDOCK:   -4.34 KCAL/MOL
REMARK 922        TOTAL FREE ENERGY PREDICTED BY IDOCK:   -6.17 KCAL/MOL
REMARK 923 INTER-LIGAND FREE ENERGY PREDICTED BY IDOCK:   -5.40 KCAL/MOL
REMARK 924 INTRA-LIGAND FREE ENERGY PREDICTED BY IDOCK:   -0.77 KCAL/MOL
REMARK 927      BINDING AFFINITY PREDICTED BY RF-SCORE:    0.00 PKD
ROOT
HETATM    1  O   UNL     1      -8.381   8.455  64.761  1.00  0.00    -0.163 OA 
HETATM    2  C   UNL     1      -8.959   9.326  65.618  1.00  0.00    -0.199 C  
HETATM    3  O   UNL     1     -10.067   9.799  65.415  1.00  0.00    -0.305 OA 
HETATM    4  C   UNL     1      -8.083   9.641  66.801  1.00  0.00    -0.113 C  
ENDROOT
BRANCH   4   5
HETATM    5  C   UNL     1      -8.775  10.626  67.742  1.00  0.00    -0.129 C  
BRANCH   5   6
HETATM    6  C   UNL     1      -9.077  10.005  69.056  1.00  0.00    -0.171 A  
HETATM    7  N   UNL     1      -8.258   9.563  69.984  1.00  0.00    -0.152 NA 
HETATM    8  C   UNL     1      -9.098   9.046  70.960  1.00  0.00    -0.257 A  
HETATM    9  C   UNL     1     -10.418   9.193  70.561  1.00  0.00    -0.236 A  
HETATM   10  O   UNL     1     -10.396   9.834  69.345  1.00  0.00    -0.191 OA 
BRANCH   8  11
HETATM   11  C   UNL     1      -8.574   8.456  72.184  1.00  0.00    -0.257 A  
HETATM   12  C   UNL     1      -9.413   7.945  73.184  1.00  0.00    -0.344 A  
HETATM   13  C   UNL     1      -7.188   8.439  72.405  1.00  0.00    -0.113 A  
HETATM   14  C   UNL     1      -8.881   7.404  74.359  1.00  0.00    -0.220 A  
HETATM   15  C   UNL     1      -6.655   7.911  73.587  1.00  0.00    -0.107 A  
HETATM   16  C   UNL     1      -7.503   7.391  74.561  1.00  0.00    -0.152 A  
ENDBRANCH   8  11
BRANCH   9  17
HETATM   17  C   UNL     1     -11.755   8.823  71.003  1.00  0.00    -0.329 A  
HETATM   18  C   UNL     1     -14.256   8.029  72.021  1.00  0.00    -0.465 A  
HETATM   19  C   UNL     1     -12.166   7.479  70.950  1.00  0.00    -0.224 A  
HETATM   20  C   UNL     1     -13.878   9.368  72.059  1.00  0.00    -0.409 A  
HETATM   21  C   UNL     1     -13.403   7.082  71.462  1.00  0.00    -0.370 A  
HETATM   22  C   UNL     1     -12.632   9.763  71.560  1.00  0.00    -0.493 A  
ENDBRANCH   9  17
ENDBRANCH   5   6
ENDBRANCH   4   5
TORSDOF 4
ENDMDL
MODEL      126
REMARK 921   NORMALIZED FREE ENERGY PREDICTED BY IDOCK:   -4.25 KCAL/MOL
REMARK 922        TOTAL FREE ENERGY PREDICTED BY IDOCK:   -6.05 KCAL/MOL
REMARK 923 INTER-LIGAND FREE ENERGY PREDICTED BY IDOCK:   -5.65 KCAL/MOL
REMARK 924 INTRA-LIGAND FREE ENERGY PREDICTED BY IDOCK:   -0.40 KCAL/MOL
REMARK 927      BINDING AFFINITY PREDICTED BY RF-SCORE:    0.00 PKD
ROOT
HETATM    1  O   UNL     1     -13.084  10.269  70.547  1.00  0.00    -0.320 OA 
HETATM    2  C   UNL     1     -11.833  10.742  70.349  1.00  0.00    -0.358 C  
HETATM    3  O   UNL     1     -11.555  11.924  70.492  1.00  0.00    -0.150 OA 
HETATM    4  C   UNL     1     -10.867   9.667  69.927  1.00  0.00    -0.287 C  
ENDROOT
BRANCH   4   5
HETATM    5  C   UNL     1      -9.469  10.246  69.718  1.00  0.00    -0.128 C  
BRANCH   5   6
HETATM    6  C   UNL     1      -9.467  11.310  68.683  1.00  0.00    -0.175 A  
HETATM    7  N   UNL     1      -8.901  12.496  68.700  1.00  0.00    -0.030 NA 
HETATM    8  C   UNL     1      -9.278  13.069  67.493  1.00  0.00    -0.195 A  
HETATM    9  C   UNL     1     -10.085  12.185  66.792  1.00  0.00    -0.200 A  
HETATM   10  O   UNL     1     -10.181  11.045  67.555  1.00  0.00    -0.179 OA 
BRANCH   8  11
HETATM   11  C   UNL     1      -8.841  14.405  67.113  1.00  0.00    -0.244 A  
HETATM   12  C   UNL     1      -9.596  15.222  66.259  1.00  0.00    -0.331 A  
HETATM   13  C   UNL     1      -7.602  14.884  67.568  1.00  0.00    -0.218 A  
HETATM   14  C   UNL     1      -9.140  16.493  65.895  1.00  0.00    -0.188 A  
HETATM   15  C   UNL     1      -7.139  16.149  67.192  1.00  0.00    -0.253 A  
HETATM   16  C   UNL     1      -7.911  16.954  66.358  1.00  0.00    -0.348 A  
ENDBRANCH   8  11
BRANCH   9  17
HETATM   17  C   UNL     1     -10.877  12.140  65.571  1.00  0.00    -0.324 A  
HETATM   18  C   UNL     1     -12.407  12.254  63.212  1.00  0.00    -0.518 A  
HETATM   19  C   UNL     1     -12.245  12.463  65.609  1.00  0.00    -0.322 A  
HETATM   20  C   UNL     1     -11.059  11.908  63.156  1.00  0.00    -0.267 A  
HETATM   21  C   UNL     1     -13.003  12.528  64.439  1.00  0.00    -0.248 A  
HETATM   22  C   UNL     1     -10.296  11.858  64.328  1.00  0.00    -0.362 A  
ENDBRANCH   9  17
ENDBRANCH   5   6
ENDBRANCH   4   5
TORSDOF 4
ENDMDL
MODEL      127
REMARK 921   NORMALIZED FREE ENERGY PREDICTED BY IDOCK:   -4.24 KCAL/MOL
REMARK 922        TOTAL FREE ENERGY PREDICTED BY IDOCK:   -6.03 KCAL/MOL
REMARK 923 INTER-LIGAND FREE ENERGY PREDICTED BY IDOCK:   -5.34 KCAL/MOL
REMARK 924 INTRA-LIGAND FREE ENERGY PREDICTED BY IDOCK:   -0.69 KCAL/MOL
REMARK 927      BINDING AFFINITY PREDICTED BY RF-SCORE:    0.00 PKD
ROOT
HETATM    1  O   UNL     1      -9.072   4.385  63.503  1.00  0.00    -0.137 OA 
HETATM    2  C   UNL     1      -8.660   4.713  64.748  1.00  0.00    -0.142 C  
HETATM    3  O   UNL     1      -8.597   3.889  65.649  1.00  0.00    -0.109 OA 
HETATM    4  C   UNL     1      -8.322   6.174  64.881  1.00  0.00    -0.092 C  
ENDROOT
BRANCH   4   5
HETATM    5  C   UNL     1      -7.861   6.498  66.300  1.00  0.00    -0.105 C  
BRANCH   5   6
HETATM    6  C   UNL     1      -8.763   7.475  66.959  1.00  0.00    -0.127 A  
HETATM    7  N   UNL     1      -9.114   8.683  66.578  1.00  0.00    -0.154 NA 
HETATM    8  C   UNL     1      -9.928   9.139  67.605  1.00  0.00    -0.195 A  
HETATM    9  C   UNL     1     -10.023   8.166  68.589  1.00  0.00    -0.190 A  
HETATM   10  O   UNL     1      -9.290   7.088  68.153  1.00  0.00    -0.127 OA 
BRANCH   8  11
HETATM   11  C   UNL     1     -10.542  10.459  67.564  1.00  0.00    -0.312 A  
HETATM   12  C   UNL     1     -11.296  10.965  68.632  1.00  0.00    -0.360 A  
HETATM   13  C   UNL     1     -10.425  11.240  66.403  1.00  0.00    -0.306 A  
HETATM   14  C   UNL     1     -11.892  12.228  68.554  1.00  0.00    -0.359 A  
HETATM   15  C   UNL     1     -11.033  12.498  66.319  1.00  0.00    -0.311 A  
HETATM   16  C   UNL     1     -11.763  12.992  67.397  1.00  0.00    -0.427 A  
ENDBRANCH   8  11
BRANCH   9  17
HETATM   17  C   UNL     1     -10.592   7.988  69.918  1.00  0.00    -0.242 A  
HETATM   18  C   UNL     1     -11.779   7.823  72.464  1.00  0.00    -0.393 A  
HETATM   19  C   UNL     1     -10.084   8.722  71.004  1.00  0.00    -0.301 A  
HETATM   20  C   UNL     1     -12.282   7.069  71.407  1.00  0.00    -0.407 A  
HETATM   21  C   UNL     1     -10.676   8.647  72.266  1.00  0.00    -0.383 A  
HETATM   22  C   UNL     1     -11.697   7.156  70.139  1.00  0.00    -0.165 A  
ENDBRANCH   9  17
ENDBRANCH   5   6
ENDBRANCH   4   5
TORSDOF 4
ENDMDL
MODEL      128
REMARK 921   NORMALIZED FREE ENERGY PREDICTED BY IDOCK:   -4.22 KCAL/MOL
REMARK 922        TOTAL FREE ENERGY PREDICTED BY IDOCK:   -6.01 KCAL/MOL
REMARK 923 INTER-LIGAND FREE ENERGY PREDICTED BY IDOCK:   -5.08 KCAL/MOL
REMARK 924 INTRA-LIGAND FREE ENERGY PREDICTED BY IDOCK:   -0.94 KCAL/MOL
REMARK 927      BINDING AFFINITY PREDICTED BY RF-SCORE:    0.00 PKD
ROOT
HETATM    1  O   UNL     1      -8.160   9.211  64.140  1.00  0.00    -0.132 OA 
HETATM    2  C   UNL     1      -8.777   9.748  65.216  1.00  0.00    -0.159 C  
HETATM    3  O   UNL     1      -9.945  10.106  65.183  1.00  0.00    -0.310 OA 
HETATM    4  C   UNL     1      -7.866   9.861  66.410  1.00  0.00    -0.107 C  
ENDROOT
BRANCH   4   5
HETATM    5  C   UNL     1      -8.605  10.470  67.600  1.00  0.00    -0.118 C  
BRANCH   5   6
HETATM    6  C   UNL     1      -9.127   9.422  68.513  1.00  0.00    -0.131 A  
HETATM    7  N   UNL     1      -8.701   8.196  68.714  1.00  0.00    -0.137 NA 
HETATM    8  C   UNL     1      -9.599   7.671  69.632  1.00  0.00    -0.160 A  
HETATM    9  C   UNL     1     -10.558   8.625  69.941  1.00  0.00    -0.224 A  
HETATM   10  O   UNL     1     -10.232   9.758  69.234  1.00  0.00    -0.182 OA 
BRANCH   8  11
HETATM   11  C   UNL     1      -9.472   6.309  70.134  1.00  0.00    -0.172 A  
HETATM   12  C   UNL     1      -9.679   5.190  69.315  1.00  0.00    -0.242 A  
HETATM   13  C   UNL     1      -9.182   6.097  71.491  1.00  0.00    -0.152 A  
HETATM   14  C   UNL     1      -9.570   3.895  69.831  1.00  0.00    -0.270 A  
HETATM   15  C   UNL     1      -9.088   4.802  72.012  1.00  0.00    -0.152 A  
HETATM   16  C   UNL     1      -9.279   3.702  71.179  1.00  0.00    -0.196 A  
ENDBRANCH   8  11
BRANCH   9  17
HETATM   17  C   UNL     1     -11.790   8.748  70.708  1.00  0.00    -0.209 A  
HETATM   18  C   UNL     1     -14.080   8.883  72.337  1.00  0.00    -0.493 A  
HETATM   19  C   UNL     1     -12.628   7.631  70.875  1.00  0.00    -0.086 A  
HETATM   20  C   UNL     1     -13.276  10.007  72.164  1.00  0.00    -0.489 A  
HETATM   21  C   UNL     1     -13.760   7.694  71.690  1.00  0.00    -0.454 A  
HETATM   22  C   UNL     1     -12.134   9.939  71.360  1.00  0.00    -0.501 A  
ENDBRANCH   9  17
ENDBRANCH   5   6
ENDBRANCH   4   5
TORSDOF 4
ENDMDL
MODEL      129
REMARK 921   NORMALIZED FREE ENERGY PREDICTED BY IDOCK:   -4.22 KCAL/MOL
REMARK 922        TOTAL FREE ENERGY PREDICTED BY IDOCK:   -6.01 KCAL/MOL
REMARK 923 INTER-LIGAND FREE ENERGY PREDICTED BY IDOCK:   -5.05 KCAL/MOL
REMARK 924 INTRA-LIGAND FREE ENERGY PREDICTED BY IDOCK:   -0.97 KCAL/MOL
REMARK 927      BINDING AFFINITY PREDICTED BY RF-SCORE:    0.00 PKD
ROOT
HETATM    1  O   UNL     1      -7.972   8.998  66.288  1.00  0.00    -0.101 OA 
HETATM    2  C   UNL     1      -7.343   9.856  67.122  1.00  0.00    -0.091 C  
HETATM    3  O   UNL     1      -7.184   9.610  68.308  1.00  0.00    -0.077 OA 
HETATM    4  C   UNL     1      -6.899  11.116  66.428  1.00  0.00    -0.095 C  
ENDROOT
BRANCH   4   5
HETATM    5  C   UNL     1      -6.193  12.053  67.406  1.00  0.00    -0.136 C  
BRANCH   5   6
HETATM    6  C   UNL     1      -6.962  13.305  67.615  1.00  0.00    -0.160 A  
HETATM    7  N   UNL     1      -6.608  14.553  67.403  1.00  0.00    -0.297 NA 
HETATM    8  C   UNL     1      -7.705  15.293  67.823  1.00  0.00    -0.149 A  
HETATM    9  C   UNL     1      -8.689  14.436  68.293  1.00  0.00    -0.180 A  
HETATM   10  O   UNL     1      -8.212  13.156  68.132  1.00  0.00    -0.145 OA 
BRANCH   8  11
HETATM   11  C   UNL     1      -7.721  16.747  67.746  1.00  0.00    -0.180 A  
HETATM   12  C   UNL     1      -7.327  17.556  68.820  1.00  0.00    -0.260 A  
HETATM   13  C   UNL     1      -8.193  17.371  66.580  1.00  0.00    -0.311 A  
HETATM   14  C   UNL     1      -7.375  18.951  68.723  1.00  0.00    -0.356 A  
HETATM   15  C   UNL     1      -8.255  18.766  66.487  1.00  0.00    -0.303 A  
HETATM   16  C   UNL     1      -7.842  19.554  67.558  1.00  0.00    -0.299 A  
ENDBRANCH   8  11
BRANCH   9  17
HETATM   17  C   UNL     1      -9.994  14.497  68.938  1.00  0.00    -0.206 A  
HETATM   18  C   UNL     1     -12.450  14.472  70.312  1.00  0.00    -0.405 A  
HETATM   19  C   UNL     1     -10.917  13.453  68.754  1.00  0.00    -0.290 A  
HETATM   20  C   UNL     1     -11.558  15.527  70.489  1.00  0.00    -0.371 A  
HETATM   21  C   UNL     1     -12.132  13.435  69.441  1.00  0.00    -0.321 A  
HETATM   22  C   UNL     1     -10.335  15.537  69.812  1.00  0.00    -0.316 A  
ENDBRANCH   9  17
ENDBRANCH   5   6
ENDBRANCH   4   5
TORSDOF 4
ENDMDL
MODEL      130
REMARK 921   NORMALIZED FREE ENERGY PREDICTED BY IDOCK:   -4.17 KCAL/MOL
REMARK 922        TOTAL FREE ENERGY PREDICTED BY IDOCK:   -5.95 KCAL/MOL
REMARK 923 INTER-LIGAND FREE ENERGY PREDICTED BY IDOCK:   -5.10 KCAL/MOL
REMARK 924 INTRA-LIGAND FREE ENERGY PREDICTED BY IDOCK:   -0.85 KCAL/MOL
REMARK 927      BINDING AFFINITY PREDICTED BY RF-SCORE:    0.00 PKD
ROOT
HETATM    1  O   UNL     1     -10.162   7.581  73.801  1.00  0.00    -0.322 OA 
HETATM    2  C   UNL     1     -11.027   7.601  72.763  1.00  0.00    -0.377 C  
HETATM    3  O   UNL     1     -11.860   8.485  72.629  1.00  0.00    -0.369 OA 
HETATM    4  C   UNL     1     -10.849   6.427  71.838  1.00  0.00    -0.279 C  
ENDROOT
BRANCH   4   5
HETATM    5  C   UNL     1     -11.844   6.492  70.681  1.00  0.00    -0.398 C  
BRANCH   5   6
HETATM    6  C   UNL     1     -11.156   6.673  69.378  1.00  0.00    -0.310 A  
HETATM    7  N   UNL     1     -10.834   7.779  68.746  1.00  0.00    -0.050 NA 
HETATM    8  C   UNL     1     -10.261   7.339  67.562  1.00  0.00    -0.221 A  
HETATM    9  C   UNL     1     -10.276   5.952  67.527  1.00  0.00    -0.190 A  
HETATM   10  O   UNL     1     -10.831   5.531  68.712  1.00  0.00    -0.195 OA 
BRANCH   8  11
HETATM   11  C   UNL     1      -9.753   8.271  66.565  1.00  0.00    -0.323 A  
HETATM   12  C   UNL     1     -10.405   9.476  66.269  1.00  0.00    -0.226 A  
HETATM   13  C   UNL     1      -8.600   7.942  65.834  1.00  0.00    -0.171 A  
HETATM   14  C   UNL     1      -9.904  10.341  65.291  1.00  0.00    -0.372 A  
HETATM   15  C   UNL     1      -8.106   8.800  64.846  1.00  0.00    -0.147 A  
HETATM   16  C   UNL     1      -8.758  10.001  64.578  1.00  0.00    -0.214 A  
ENDBRANCH   8  11
BRANCH   9  17
HETATM   17  C   UNL     1      -9.950   4.864  66.615  1.00  0.00    -0.254 A  
HETATM   18  C   UNL     1      -9.426   2.640  64.972  1.00  0.00    -0.068 A  
HETATM   19  C   UNL     1      -9.013   3.886  66.995  1.00  0.00    -0.150 A  
HETATM   20  C   UNL     1     -10.339   3.611  64.567  1.00  0.00    -0.161 A  
HETATM   21  C   UNL     1      -8.759   2.778  66.185  1.00  0.00    -0.131 A  
HETATM   22  C   UNL     1     -10.604   4.713  65.387  1.00  0.00    -0.167 A  
ENDBRANCH   9  17
ENDBRANCH   5   6
ENDBRANCH   4   5
TORSDOF 4
ENDMDL
MODEL      131
REMARK 921   NORMALIZED FREE ENERGY PREDICTED BY IDOCK:   -4.15 KCAL/MOL
REMARK 922        TOTAL FREE ENERGY PREDICTED BY IDOCK:   -5.92 KCAL/MOL
REMARK 923 INTER-LIGAND FREE ENERGY PREDICTED BY IDOCK:   -5.08 KCAL/MOL
REMARK 924 INTRA-LIGAND FREE ENERGY PREDICTED BY IDOCK:   -0.85 KCAL/MOL
REMARK 927      BINDING AFFINITY PREDICTED BY RF-SCORE:    0.00 PKD
ROOT
HETATM    1  O   UNL     1      -9.791   4.105  63.658  1.00  0.00    -0.153 OA 
HETATM    2  C   UNL     1      -9.267   4.230  64.898  1.00  0.00    -0.156 C  
HETATM    3  O   UNL     1      -9.464   3.400  65.773  1.00  0.00    -0.164 OA 
HETATM    4  C   UNL     1      -8.457   5.488  65.060  1.00  0.00    -0.147 C  
ENDROOT
BRANCH   4   5
HETATM    5  C   UNL     1      -7.884   5.587  66.473  1.00  0.00    -0.101 C  
BRANCH   5   6
HETATM    6  C   UNL     1      -8.652   6.542  67.309  1.00  0.00    -0.111 A  
HETATM    7  N   UNL     1      -9.341   6.331  68.408  1.00  0.00    -0.114 NA 
HETATM    8  C   UNL     1      -9.881   7.572  68.714  1.00  0.00    -0.166 A  
HETATM    9  C   UNL     1      -9.495   8.495  67.755  1.00  0.00    -0.145 A  
HETATM   10  O   UNL     1      -8.683   7.830  66.867  1.00  0.00    -0.125 OA 
BRANCH   8  11
HETATM   11  C   UNL     1     -10.720   7.772  69.888  1.00  0.00    -0.245 A  
HETATM   12  C   UNL     1     -11.661   6.820  70.304  1.00  0.00    -0.417 A  
HETATM   13  C   UNL     1     -10.628   8.975  70.606  1.00  0.00    -0.290 A  
HETATM   14  C   UNL     1     -12.467   7.050  71.424  1.00  0.00    -0.426 A  
HETATM   15  C   UNL     1     -11.444   9.212  71.718  1.00  0.00    -0.452 A  
HETATM   16  C   UNL     1     -12.361   8.247  72.127  1.00  0.00    -0.410 A  
ENDBRANCH   8  11
BRANCH   9  17
HETATM   17  C   UNL     1      -9.740   9.885  67.393  1.00  0.00    -0.199 A  
HETATM   18  C   UNL     1     -10.252  12.606  66.889  1.00  0.00    -0.242 A  
HETATM   19  C   UNL     1     -11.054  10.387  67.385  1.00  0.00    -0.297 A  
HETATM   20  C   UNL     1      -8.946  12.123  66.868  1.00  0.00    -0.201 A  
HETATM   21  C   UNL     1     -11.308  11.738  67.144  1.00  0.00    -0.387 A  
HETATM   22  C   UNL     1      -8.690  10.772  67.125  1.00  0.00    -0.131 A  
ENDBRANCH   9  17
ENDBRANCH   5   6
ENDBRANCH   4   5
TORSDOF 4
ENDMDL
MODEL      132
REMARK 921   NORMALIZED FREE ENERGY PREDICTED BY IDOCK:   -4.14 KCAL/MOL
REMARK 922        TOTAL FREE ENERGY PREDICTED BY IDOCK:   -5.91 KCAL/MOL
REMARK 923 INTER-LIGAND FREE ENERGY PREDICTED BY IDOCK:   -4.95 KCAL/MOL
REMARK 924 INTRA-LIGAND FREE ENERGY PREDICTED BY IDOCK:   -0.96 KCAL/MOL
REMARK 927      BINDING AFFINITY PREDICTED BY RF-SCORE:    0.00 PKD
ROOT
HETATM    1  O   UNL     1      -6.726   4.829  66.031  1.00  0.00    -0.047 OA 
HETATM    2  C   UNL     1      -7.759   4.457  66.818  1.00  0.00    -0.094 C  
HETATM    3  O   UNL     1      -7.762   3.400  67.431  1.00  0.00    -0.076 OA 
HETATM    4  C   UNL     1      -8.874   5.469  66.826  1.00  0.00    -0.114 C  
ENDROOT
BRANCH   4   5
HETATM    5  C   UNL     1     -10.018   5.009  67.728  1.00  0.00    -0.198 C  
BRANCH   5   6
HETATM    6  C   UNL     1      -9.988   5.698  69.043  1.00  0.00    -0.174 A  
HETATM    7  N   UNL     1      -9.042   5.727  69.954  1.00  0.00    -0.142 NA 
HETATM    8  C   UNL     1      -9.587   6.478  70.986  1.00  0.00    -0.175 A  
HETATM    9  C   UNL     1     -10.874   6.866  70.647  1.00  0.00    -0.245 A  
HETATM   10  O   UNL     1     -11.116   6.380  69.383  1.00  0.00    -0.323 OA 
BRANCH   8  11
HETATM   11  C   UNL     1      -8.840   6.759  72.204  1.00  0.00    -0.134 A  
HETATM   12  C   UNL     1      -8.242   8.004  72.442  1.00  0.00    -0.193 A  
HETATM   13  C   UNL     1      -8.662   5.742  73.156  1.00  0.00    -0.122 A  
HETATM   14  C   UNL     1      -7.512   8.237  73.613  1.00  0.00    -0.182 A  
HETATM   15  C   UNL     1      -7.920   5.969  74.320  1.00  0.00    -0.102 A  
HETATM   16  C   UNL     1      -7.349   7.218  74.549  1.00  0.00    -0.133 A  
ENDBRANCH   8  11
BRANCH   9  17
HETATM   17  C   UNL     1     -12.016   7.550  71.238  1.00  0.00    -0.333 A  
HETATM   18  C   UNL     1     -14.238   8.978  72.211  1.00  0.00    -0.432 A  
HETATM   19  C   UNL     1     -11.890   8.881  71.672  1.00  0.00    -0.415 A  
HETATM   20  C   UNL     1     -14.379   7.652  71.808  1.00  0.00    -0.586 A  
HETATM   21  C   UNL     1     -12.992   9.594  72.147  1.00  0.00    -0.493 A  
HETATM   22  C   UNL     1     -13.276   6.944  71.318  1.00  0.00    -0.237 A  
ENDBRANCH   9  17
ENDBRANCH   5   6
ENDBRANCH   4   5
TORSDOF 4
ENDMDL
MODEL      133
REMARK 921   NORMALIZED FREE ENERGY PREDICTED BY IDOCK:   -4.05 KCAL/MOL
REMARK 922        TOTAL FREE ENERGY PREDICTED BY IDOCK:   -5.80 KCAL/MOL
REMARK 923 INTER-LIGAND FREE ENERGY PREDICTED BY IDOCK:   -4.85 KCAL/MOL
REMARK 924 INTRA-LIGAND FREE ENERGY PREDICTED BY IDOCK:   -0.95 KCAL/MOL
REMARK 927      BINDING AFFINITY PREDICTED BY RF-SCORE:    0.00 PKD
ROOT
HETATM    1  O   UNL     1      -5.788  13.910  70.869  1.00  0.00    -0.189 OA 
HETATM    2  C   UNL     1      -6.089  13.015  69.901  1.00  0.00    -0.125 C  
HETATM    3  O   UNL     1      -6.519  13.358  68.810  1.00  0.00    -0.085 OA 
HETATM    4  C   UNL     1      -5.853  11.593  70.334  1.00  0.00    -0.156 C  
ENDROOT
BRANCH   4   5
HETATM    5  C   UNL     1      -6.204  10.618  69.211  1.00  0.00    -0.050 C  
BRANCH   5   6
HETATM    6  C   UNL     1      -7.517   9.967  69.443  1.00  0.00    -0.113 A  
HETATM    7  N   UNL     1      -8.474  10.283  70.286  1.00  0.00     0.115 NA 
HETATM    8  C   UNL     1      -9.433   9.299  70.097  1.00  0.00    -0.226 A  
HETATM    9  C   UNL     1      -8.994   8.404  69.132  1.00  0.00    -0.147 A  
HETATM   10  O   UNL     1      -7.770   8.856  68.698  1.00  0.00    -0.094 OA 
BRANCH   8  11
HETATM   11  C   UNL     1     -10.680   9.291  70.849  1.00  0.00    -0.371 A  
HETATM   12  C   UNL     1     -11.048   8.219  71.673  1.00  0.00    -0.326 A  
HETATM   13  C   UNL     1     -11.575  10.365  70.713  1.00  0.00    -0.450 A  
HETATM   14  C   UNL     1     -12.263   8.232  72.367  1.00  0.00    -0.412 A  
HETATM   15  C   UNL     1     -12.797  10.371  71.395  1.00  0.00    -0.556 A  
HETATM   16  C   UNL     1     -13.138   9.305  72.224  1.00  0.00    -0.517 A  
ENDBRANCH   8  11
BRANCH   9  17
HETATM   17  C   UNL     1      -9.403   7.147  68.521  1.00  0.00    -0.136 A  
HETATM   18  C   UNL     1     -10.323   4.695  67.491  1.00  0.00     0.007 A  
HETATM   19  C   UNL     1      -9.016   5.925  69.100  1.00  0.00    -0.119 A  
HETATM   20  C   UNL     1     -10.698   5.893  66.887  1.00  0.00    -0.395 A  
HETATM   21  C   UNL     1      -9.479   4.709  68.596  1.00  0.00    -0.213 A  
HETATM   22  C   UNL     1     -10.246   7.112  67.403  1.00  0.00    -0.291 A  
ENDBRANCH   9  17
ENDBRANCH   5   6
ENDBRANCH   4   5
TORSDOF 4
ENDMDL
MODEL      134
REMARK 921   NORMALIZED FREE ENERGY PREDICTED BY IDOCK:   -4.03 KCAL/MOL
REMARK 922        TOTAL FREE ENERGY PREDICTED BY IDOCK:   -5.78 KCAL/MOL
REMARK 923 INTER-LIGAND FREE ENERGY PREDICTED BY IDOCK:   -4.79 KCAL/MOL
REMARK 924 INTRA-LIGAND FREE ENERGY PREDICTED BY IDOCK:   -0.98 KCAL/MOL
REMARK 927      BINDING AFFINITY PREDICTED BY RF-SCORE:    0.00 PKD
ROOT
HETATM    1  O   UNL     1     -13.040  14.792  73.400  1.00  0.00    -0.538 OA 
HETATM    2  C   UNL     1     -13.369  13.985  72.367  1.00  0.00    -0.518 C  
HETATM    3  O   UNL     1     -14.004  14.389  71.404  1.00  0.00    -0.377 OA 
HETATM    4  C   UNL     1     -12.888  12.572  72.560  1.00  0.00     0.436 C  
ENDROOT
BRANCH   4   5
HETATM    5  C   UNL     1     -13.280  11.698  71.370  1.00  0.00    -0.207 C  
BRANCH   5   6
HETATM    6  C   UNL     1     -12.165  11.565  70.399  1.00  0.00    -0.355 A  
HETATM    7  N   UNL     1     -11.115  10.776  70.429  1.00  0.00    -0.204 NA 
HETATM    8  C   UNL     1     -10.397  11.123  69.294  1.00  0.00    -0.120 A  
HETATM    9  C   UNL     1     -11.057  12.140  68.620  1.00  0.00    -0.251 A  
HETATM   10  O   UNL     1     -12.208  12.401  69.326  1.00  0.00    -0.195 OA 
BRANCH   8  11
HETATM   11  C   UNL     1      -9.146  10.461  68.949  1.00  0.00    -0.175 A  
HETATM   12  C   UNL     1      -9.107   9.153  68.447  1.00  0.00    -0.132 A  
HETATM   13  C   UNL     1      -7.929  11.127  69.168  1.00  0.00    -0.046 A  
HETATM   14  C   UNL     1      -7.888   8.537  68.145  1.00  0.00    -0.103 A  
HETATM   15  C   UNL     1      -6.709  10.506  68.880  1.00  0.00    -0.060 A  
HETATM   16  C   UNL     1      -6.690   9.212  68.366  1.00  0.00    -0.059 A  
ENDBRANCH   8  11
BRANCH   9  17
HETATM   17  C   UNL     1     -10.863  13.016  67.473  1.00  0.00    -0.264 A  
HETATM   18  C   UNL     1     -10.293  14.720  65.307  1.00  0.00    -0.425 A  
HETATM   19  C   UNL     1     -10.655  14.393  67.669  1.00  0.00    -0.260 A  
HETATM   20  C   UNL     1     -10.520  13.364  65.090  1.00  0.00    -0.358 A  
HETATM   21  C   UNL     1     -10.364  15.238  66.597  1.00  0.00    -0.281 A  
HETATM   22  C   UNL     1     -10.797  12.515  66.167  1.00  0.00    -0.304 A  
ENDBRANCH   9  17
ENDBRANCH   5   6
ENDBRANCH   4   5
TORSDOF 4
ENDMDL
MODEL      135
REMARK 921   NORMALIZED FREE ENERGY PREDICTED BY IDOCK:   -4.02 KCAL/MOL
REMARK 922        TOTAL FREE ENERGY PREDICTED BY IDOCK:   -5.76 KCAL/MOL
REMARK 923 INTER-LIGAND FREE ENERGY PREDICTED BY IDOCK:   -4.90 KCAL/MOL
REMARK 924 INTRA-LIGAND FREE ENERGY PREDICTED BY IDOCK:   -0.87 KCAL/MOL
REMARK 927      BINDING AFFINITY PREDICTED BY RF-SCORE:    0.00 PKD
ROOT
HETATM    1  O   UNL     1      -9.856  12.033  62.956  1.00  0.00    -0.372 OA 
HETATM    2  C   UNL     1     -10.651  11.705  63.999  1.00  0.00    -0.373 C  
HETATM    3  O   UNL     1     -11.863  11.607  63.885  1.00  0.00    -0.362 OA 
HETATM    4  C   UNL     1      -9.878  11.502  65.274  1.00  0.00    -0.286 C  
ENDROOT
BRANCH   4   5
HETATM    5  C   UNL     1     -10.814  11.131  66.423  1.00  0.00    -0.284 C  
BRANCH   5   6
HETATM    6  C   UNL     1     -10.522   9.775  66.950  1.00  0.00    -0.211 A  
HETATM    7  N   UNL     1     -10.141   8.691  66.312  1.00  0.00    -0.237 NA 
HETATM    8  C   UNL     1     -10.073   7.721  67.302  1.00  0.00    -0.238 A  
HETATM    9  C   UNL     1     -10.438   8.275  68.520  1.00  0.00    -0.162 A  
HETATM   10  O   UNL     1     -10.702   9.604  68.288  1.00  0.00    -0.231 OA 
BRANCH   8  11
HETATM   11  C   UNL     1      -9.671   6.353  67.005  1.00  0.00    -0.182 A  
HETATM   12  C   UNL     1     -10.190   5.254  67.704  1.00  0.00    -0.223 A  
HETATM   13  C   UNL     1      -8.694   6.117  66.024  1.00  0.00    -0.157 A  
HETATM   14  C   UNL     1      -9.768   3.953  67.410  1.00  0.00    -0.173 A  
HETATM   15  C   UNL     1      -8.261   4.817  65.740  1.00  0.00    -0.112 A  
HETATM   16  C   UNL     1      -8.802   3.736  66.432  1.00  0.00    -0.128 A  
ENDBRANCH   8  11
BRANCH   9  17
HETATM   17  C   UNL     1     -10.677   7.863  69.896  1.00  0.00    -0.244 A  
HETATM   18  C   UNL     1     -11.211   6.894  72.484  1.00  0.00    -0.304 A  
HETATM   19  C   UNL     1     -11.988   7.829  70.402  1.00  0.00     0.103 A  
HETATM   20  C   UNL     1      -9.902   6.942  72.010  1.00  0.00    -0.172 A  
HETATM   21  C   UNL     1     -12.256   7.341  71.682  1.00  0.00    -0.377 A  
HETATM   22  C   UNL     1      -9.637   7.417  70.721  1.00  0.00    -0.170 A  
ENDBRANCH   9  17
ENDBRANCH   5   6
ENDBRANCH   4   5
TORSDOF 4
ENDMDL
MODEL      136
REMARK 921   NORMALIZED FREE ENERGY PREDICTED BY IDOCK:   -3.97 KCAL/MOL
REMARK 922        TOTAL FREE ENERGY PREDICTED BY IDOCK:   -5.71 KCAL/MOL
REMARK 923 INTER-LIGAND FREE ENERGY PREDICTED BY IDOCK:   -4.92 KCAL/MOL
REMARK 924 INTRA-LIGAND FREE ENERGY PREDICTED BY IDOCK:   -0.79 KCAL/MOL
REMARK 927      BINDING AFFINITY PREDICTED BY RF-SCORE:    0.00 PKD
ROOT
HETATM    1  O   UNL     1      -6.025  14.194  68.199  1.00  0.00    -0.110 OA 
HETATM    2  C   UNL     1      -5.801  12.878  67.989  1.00  0.00    -0.107 C  
HETATM    3  O   UNL     1      -5.249  12.466  66.979  1.00  0.00    -0.299 OA 
HETATM    4  C   UNL     1      -6.318  12.016  69.109  1.00  0.00    -0.093 C  
ENDROOT
BRANCH   4   5
HETATM    5  C   UNL     1      -6.042  10.540  68.831  1.00  0.00    -0.040 C  
BRANCH   5   6
HETATM    6  C   UNL     1      -7.180   9.893  68.131  1.00  0.00    -0.078 A  
HETATM    7  N   UNL     1      -7.461   8.618  67.987  1.00  0.00    -0.095 NA 
HETATM    8  C   UNL     1      -8.607   8.609  67.204  1.00  0.00    -0.121 A  
HETATM    9  C   UNL     1      -8.966   9.912  66.894  1.00  0.00    -0.138 A  
HETATM   10  O   UNL     1      -8.056  10.734  67.516  1.00  0.00    -0.110 OA 
BRANCH   8  11
HETATM   11  C   UNL     1      -9.258   7.366  66.817  1.00  0.00    -0.190 A  
HETATM   12  C   UNL     1     -10.569   7.057  67.207  1.00  0.00    -0.395 A  
HETATM   13  C   UNL     1      -8.544   6.415  66.070  1.00  0.00    -0.149 A  
HETATM   14  C   UNL     1     -11.160   5.844  66.837  1.00  0.00    -0.175 A  
HETATM   15  C   UNL     1      -9.130   5.195  65.712  1.00  0.00    -0.158 A  
HETATM   16  C   UNL     1     -10.439   4.913  66.093  1.00  0.00    -0.346 A  
ENDBRANCH   8  11
BRANCH   9  17
HETATM   17  C   UNL     1      -9.942  10.628  66.084  1.00  0.00    -0.283 A  
HETATM   18  C   UNL     1     -11.720  12.178  64.549  1.00  0.00    -0.410 A  
HETATM   19  C   UNL     1     -10.849  11.512  66.696  1.00  0.00    -0.335 A  
HETATM   20  C   UNL     1     -10.846  11.291  63.926  1.00  0.00    -0.427 A  
HETATM   21  C   UNL     1     -11.726  12.287  65.936  1.00  0.00    -0.451 A  
HETATM   22  C   UNL     1      -9.958  10.525  64.688  1.00  0.00    -0.415 A  
ENDBRANCH   9  17
ENDBRANCH   5   6
ENDBRANCH   4   5
TORSDOF 4
ENDMDL
MODEL      137
REMARK 921   NORMALIZED FREE ENERGY PREDICTED BY IDOCK:   -3.93 KCAL/MOL
REMARK 922        TOTAL FREE ENERGY PREDICTED BY IDOCK:   -5.66 KCAL/MOL
REMARK 923 INTER-LIGAND FREE ENERGY PREDICTED BY IDOCK:   -4.80 KCAL/MOL
REMARK 924 INTRA-LIGAND FREE ENERGY PREDICTED BY IDOCK:   -0.86 KCAL/MOL
REMARK 927      BINDING AFFINITY PREDICTED BY RF-SCORE:    0.00 PKD
ROOT
HETATM    1  O   UNL     1     -11.978  14.698  67.064  1.00  0.00    -0.382 OA 
HETATM    2  C   UNL     1     -11.260  13.870  66.273  1.00  0.00    -0.309 C  
HETATM    3  O   UNL     1     -10.644  14.275  65.298  1.00  0.00    -0.333 OA 
HETATM    4  C   UNL     1     -11.331  12.435  66.720  1.00  0.00    -0.391 C  
ENDROOT
BRANCH   4   5
HETATM    5  C   UNL     1     -10.505  11.537  65.800  1.00  0.00    -0.308 C  
BRANCH   5   6
HETATM    6  C   UNL     1     -10.228  10.220  66.426  1.00  0.00    -0.225 A  
HETATM    7  N   UNL     1     -10.518   9.786  67.632  1.00  0.00    -0.234 NA 
HETATM    8  C   UNL     1      -9.974   8.510  67.673  1.00  0.00    -0.198 A  
HETATM    9  C   UNL     1      -9.354   8.231  66.464  1.00  0.00    -0.206 A  
HETATM   10  O   UNL     1      -9.544   9.328  65.658  1.00  0.00    -0.265 OA 
BRANCH   8  11
HETATM   11  C   UNL     1     -10.087   7.668  68.856  1.00  0.00    -0.202 A  
HETATM   12  C   UNL     1      -9.150   7.714  69.896  1.00  0.00    -0.147 A  
HETATM   13  C   UNL     1     -11.138   6.741  68.947  1.00  0.00    -0.243 A  
HETATM   14  C   UNL     1      -9.274   6.878  71.011  1.00  0.00    -0.156 A  
HETATM   15  C   UNL     1     -11.254   5.894  70.054  1.00  0.00    -0.341 A  
HETATM   16  C   UNL     1     -10.323   5.966  71.087  1.00  0.00    -0.276 A  
ENDBRANCH   8  11
BRANCH   9  17
HETATM   17  C   UNL     1      -8.542   7.189  65.851  1.00  0.00    -0.157 A  
HETATM   18  C   UNL     1      -6.851   5.186  64.826  1.00  0.00    -0.049 A  
HETATM   19  C   UNL     1      -7.293   7.510  65.292  1.00  0.00    -0.072 A  
HETATM   20  C   UNL     1      -8.096   4.850  65.353  1.00  0.00    -0.114 A  
HETATM   21  C   UNL     1      -6.449   6.517  64.791  1.00  0.00    -0.041 A  
HETATM   22  C   UNL     1      -8.934   5.845  65.869  1.00  0.00    -0.149 A  
ENDBRANCH   9  17
ENDBRANCH   5   6
ENDBRANCH   4   5
TORSDOF 4
ENDMDL
MODEL      138
REMARK 921   NORMALIZED FREE ENERGY PREDICTED BY IDOCK:   -3.87 KCAL/MOL
REMARK 922        TOTAL FREE ENERGY PREDICTED BY IDOCK:   -5.59 KCAL/MOL
REMARK 923 INTER-LIGAND FREE ENERGY PREDICTED BY IDOCK:   -4.68 KCAL/MOL
REMARK 924 INTRA-LIGAND FREE ENERGY PREDICTED BY IDOCK:   -0.91 KCAL/MOL
REMARK 927      BINDING AFFINITY PREDICTED BY RF-SCORE:    0.00 PKD
ROOT
HETATM    1  O   UNL     1      -8.218  10.839  62.334  1.00  0.00    -0.193 OA 
HETATM    2  C   UNL     1      -9.057  10.400  63.300  1.00  0.00    -0.263 C  
HETATM    3  O   UNL     1     -10.229  10.741  63.346  1.00  0.00    -0.330 OA 
HETATM    4  C   UNL     1      -8.377   9.488  64.285  1.00  0.00    -0.172 C  
ENDROOT
BRANCH   4   5
HETATM    5  C   UNL     1      -9.360   9.015  65.355  1.00  0.00    -0.213 C  
BRANCH   5   6
HETATM    6  C   UNL     1      -9.006   9.546  66.695  1.00  0.00    -0.146 A  
HETATM    7  N   UNL     1      -7.922  10.175  67.089  1.00  0.00    -0.109 NA 
HETATM    8  C   UNL     1      -8.124  10.382  68.446  1.00  0.00    -0.112 A  
HETATM    9  C   UNL     1      -9.347   9.844  68.821  1.00  0.00    -0.157 A  
HETATM   10  O   UNL     1      -9.919   9.329  67.681  1.00  0.00    -0.173 OA 
BRANCH   8  11
HETATM   11  C   UNL     1      -7.139  11.070  69.270  1.00  0.00    -0.123 A  
HETATM   12  C   UNL     1      -6.408  10.409  70.266  1.00  0.00    -0.132 A  
HETATM   13  C   UNL     1      -6.943  12.451  69.105  1.00  0.00    -0.034 A  
HETATM   14  C   UNL     1      -5.483  11.102  71.056  1.00  0.00    -0.069 A  
HETATM   15  C   UNL     1      -6.030  13.147  69.904  1.00  0.00    -0.138 A  
HETATM   16  C   UNL     1      -5.299  12.470  70.877  1.00  0.00    -0.166 A  
ENDBRANCH   8  11
BRANCH   9  17
HETATM   17  C   UNL     1     -10.134   9.616  70.024  1.00  0.00    -0.293 A  
HETATM   18  C   UNL     1     -11.787   9.076  72.237  1.00  0.00    -0.306 A  
HETATM   19  C   UNL     1     -11.336  10.318  70.221  1.00  0.00    -0.398 A  
HETATM   20  C   UNL     1     -10.587   8.387  72.074  1.00  0.00    -0.387 A  
HETATM   21  C   UNL     1     -12.161  10.046  71.313  1.00  0.00    -0.498 A  
HETATM   22  C   UNL     1      -9.769   8.650  70.970  1.00  0.00    -0.266 A  
ENDBRANCH   9  17
ENDBRANCH   5   6
ENDBRANCH   4   5
TORSDOF 4
ENDMDL
MODEL      139
REMARK 921   NORMALIZED FREE ENERGY PREDICTED BY IDOCK:   -3.81 KCAL/MOL
REMARK 922        TOTAL FREE ENERGY PREDICTED BY IDOCK:   -5.51 KCAL/MOL
REMARK 923 INTER-LIGAND FREE ENERGY PREDICTED BY IDOCK:   -4.88 KCAL/MOL
REMARK 924 INTRA-LIGAND FREE ENERGY PREDICTED BY IDOCK:   -0.63 KCAL/MOL
REMARK 927      BINDING AFFINITY PREDICTED BY RF-SCORE:    0.00 PKD
ROOT
HETATM    1  O   UNL     1      -9.850  13.618  65.779  1.00  0.00    -0.274 OA 
HETATM    2  C   UNL     1      -9.146  13.175  66.844  1.00  0.00    -0.229 C  
HETATM    3  O   UNL     1      -8.134  13.739  67.233  1.00  0.00    -0.175 OA 
HETATM    4  C   UNL     1      -9.738  11.932  67.453  1.00  0.00    -0.189 C  
ENDROOT
BRANCH   4   5
HETATM    5  C   UNL     1      -8.912  11.470  68.652  1.00  0.00    -0.115 C  
BRANCH   5   6
HETATM    6  C   UNL     1      -9.290  10.099  69.080  1.00  0.00    -0.188 A  
HETATM    7  N   UNL     1      -9.580   9.644  70.277  1.00  0.00    -0.256 NA 
HETATM    8  C   UNL     1      -9.803   8.288  70.080  1.00  0.00    -0.184 A  
HETATM    9  C   UNL     1      -9.619   7.978  68.741  1.00  0.00    -0.149 A  
HETATM   10  O   UNL     1      -9.314   9.155  68.099  1.00  0.00    -0.138 OA 
BRANCH   8  11
HETATM   11  C   UNL     1     -10.166   7.405  71.180  1.00  0.00    -0.199 A  
HETATM   12  C   UNL     1     -10.464   7.892  72.460  1.00  0.00    -0.363 A  
HETATM   13  C   UNL     1     -10.173   6.016  70.978  1.00  0.00    -0.253 A  
HETATM   14  C   UNL     1     -10.789   7.017  73.503  1.00  0.00    -0.289 A  
HETATM   15  C   UNL     1     -10.484   5.139  72.023  1.00  0.00    -0.278 A  
HETATM   16  C   UNL     1     -10.795   5.642  73.284  1.00  0.00    -0.321 A  
ENDBRANCH   8  11
BRANCH   9  17
HETATM   17  C   UNL     1      -9.592   6.812  67.868  1.00  0.00    -0.125 A  
HETATM   18  C   UNL     1      -9.579   4.447  66.344  1.00  0.00    -0.205 A  
HETATM   19  C   UNL     1      -8.501   5.927  67.913  1.00  0.00    -0.107 A  
HETATM   20  C   UNL     1     -10.658   5.324  66.267  1.00  0.00    -0.308 A  
HETATM   21  C   UNL     1      -8.496   4.749  67.164  1.00  0.00    -0.105 A  
HETATM   22  C   UNL     1     -10.668   6.496  67.030  1.00  0.00    -0.434 A  
ENDBRANCH   9  17
ENDBRANCH   5   6
ENDBRANCH   4   5
TORSDOF 4
ENDMDL
MODEL      140
REMARK 921   NORMALIZED FREE ENERGY PREDICTED BY IDOCK:   -3.80 KCAL/MOL
REMARK 922        TOTAL FREE ENERGY PREDICTED BY IDOCK:   -5.49 KCAL/MOL
REMARK 923 INTER-LIGAND FREE ENERGY PREDICTED BY IDOCK:   -4.61 KCAL/MOL
REMARK 924 INTRA-LIGAND FREE ENERGY PREDICTED BY IDOCK:   -0.89 KCAL/MOL
REMARK 927      BINDING AFFINITY PREDICTED BY RF-SCORE:    0.00 PKD
ROOT
HETATM    1  O   UNL     1      -8.991   4.358  62.713  1.00  0.00    -0.114 OA 
HETATM    2  C   UNL     1      -9.479   3.837  63.861  1.00  0.00    -0.151 C  
HETATM    3  O   UNL     1     -10.674   3.645  64.031  1.00  0.00    -0.271 OA 
HETATM    4  C   UNL     1      -8.401   3.555  64.873  1.00  0.00    -0.097 C  
ENDROOT
BRANCH   4   5
HETATM    5  C   UNL     1      -8.996   2.967  66.151  1.00  0.00    -0.150 C  
BRANCH   5   6
HETATM    6  C   UNL     1      -9.304   4.024  67.147  1.00  0.00    -0.184 A  
HETATM    7  N   UNL     1      -9.905   3.930  68.312  1.00  0.00    -0.040 NA 
HETATM    8  C   UNL     1      -9.958   5.238  68.772  1.00  0.00    -0.174 A  
HETATM    9  C   UNL     1      -9.384   6.084  67.835  1.00  0.00    -0.110 A  
HETATM   10  O   UNL     1      -8.943   5.290  66.802  1.00  0.00    -0.111 OA 
BRANCH   8  11
HETATM   11  C   UNL     1     -10.551   5.571  70.060  1.00  0.00    -0.384 A  
HETATM   12  C   UNL     1     -10.157   4.942  71.249  1.00  0.00    -0.269 A  
HETATM   13  C   UNL     1     -11.588   6.516  70.119  1.00  0.00    -0.466 A  
HETATM   14  C   UNL     1     -10.761   5.268  72.468  1.00  0.00    -0.290 A  
HETATM   15  C   UNL     1     -12.203   6.832  71.336  1.00  0.00    -0.413 A  
HETATM   16  C   UNL     1     -11.786   6.210  72.509  1.00  0.00    -0.259 A  
ENDBRANCH   8  11
BRANCH   9  17
HETATM   17  C   UNL     1      -9.182   7.508  67.606  1.00  0.00    -0.135 A  
HETATM   18  C   UNL     1      -8.697  10.211  66.992  1.00  0.00    -0.137 A  
HETATM   19  C   UNL     1      -7.904   8.070  67.769  1.00  0.00    -0.126 A  
HETATM   20  C   UNL     1      -9.976   9.678  66.848  1.00  0.00    -0.272 A  
HETATM   21  C   UNL     1      -7.660   9.409  67.457  1.00  0.00    -0.091 A  
HETATM   22  C   UNL     1     -10.216   8.333  67.146  1.00  0.00    -0.365 A  
ENDBRANCH   9  17
ENDBRANCH   5   6
ENDBRANCH   4   5
TORSDOF 4
ENDMDL
MODEL      141
REMARK 921   NORMALIZED FREE ENERGY PREDICTED BY IDOCK:   -3.74 KCAL/MOL
REMARK 922        TOTAL FREE ENERGY PREDICTED BY IDOCK:   -5.42 KCAL/MOL
REMARK 923 INTER-LIGAND FREE ENERGY PREDICTED BY IDOCK:   -4.56 KCAL/MOL
REMARK 924 INTRA-LIGAND FREE ENERGY PREDICTED BY IDOCK:   -0.86 KCAL/MOL
REMARK 927      BINDING AFFINITY PREDICTED BY RF-SCORE:    0.00 PKD
ROOT
HETATM    1  O   UNL     1      -8.310   9.128  64.150  1.00  0.00    -0.161 OA 
HETATM    2  C   UNL     1      -8.254   9.845  65.295  1.00  0.00    -0.145 C  
HETATM    3  O   UNL     1      -8.791  10.937  65.404  1.00  0.00    -0.193 OA 
HETATM    4  C   UNL     1      -7.457   9.157  66.371  1.00  0.00    -0.092 C  
ENDROOT
BRANCH   4   5
HETATM    5  C   UNL     1      -7.423  10.000  67.644  1.00  0.00    -0.090 C  
BRANCH   5   6
HETATM    6  C   UNL     1      -7.970   9.257  68.807  1.00  0.00    -0.099 A  
HETATM    7  N   UNL     1      -7.520   8.174  69.399  1.00  0.00    -0.089 NA 
HETATM    8  C   UNL     1      -8.460   7.911  70.385  1.00  0.00    -0.131 A  
HETATM    9  C   UNL     1      -9.467   8.863  70.332  1.00  0.00    -0.195 A  
HETATM   10  O   UNL     1      -9.131   9.741  69.329  1.00  0.00    -0.160 OA 
BRANCH   8  11
HETATM   11  C   UNL     1      -8.322   6.777  71.288  1.00  0.00    -0.120 A  
HETATM   12  C   UNL     1      -7.776   6.908  72.572  1.00  0.00    -0.095 A  
HETATM   13  C   UNL     1      -8.699   5.496  70.852  1.00  0.00    -0.140 A  
HETATM   14  C   UNL     1      -7.637   5.795  73.409  1.00  0.00    -0.095 A  
HETATM   15  C   UNL     1      -8.546   4.381  71.683  1.00  0.00    -0.126 A  
HETATM   16  C   UNL     1      -8.018   4.533  72.963  1.00  0.00    -0.095 A  
ENDBRANCH   8  11
BRANCH   9  17
HETATM   17  C   UNL     1     -10.750   9.153  70.957  1.00  0.00    -0.363 A  
HETATM   18  C   UNL     1     -13.312   9.706  71.982  1.00  0.00    -0.547 A  
HETATM   19  C   UNL     1     -11.327  10.427  70.817  1.00  0.00    -0.370 A  
HETATM   20  C   UNL     1     -12.747   8.445  72.152  1.00  0.00    -0.399 A  
HETATM   21  C   UNL     1     -12.602  10.701  71.317  1.00  0.00    -0.533 A  
HETATM   22  C   UNL     1     -11.476   8.167  71.637  1.00  0.00    -0.323 A  
ENDBRANCH   9  17
ENDBRANCH   5   6
ENDBRANCH   4   5
TORSDOF 4
ENDMDL
MODEL      142
REMARK 921   NORMALIZED FREE ENERGY PREDICTED BY IDOCK:   -3.71 KCAL/MOL
REMARK 922        TOTAL FREE ENERGY PREDICTED BY IDOCK:   -5.39 KCAL/MOL
REMARK 923 INTER-LIGAND FREE ENERGY PREDICTED BY IDOCK:   -4.51 KCAL/MOL
REMARK 924 INTRA-LIGAND FREE ENERGY PREDICTED BY IDOCK:   -0.88 KCAL/MOL
REMARK 927      BINDING AFFINITY PREDICTED BY RF-SCORE:    0.00 PKD
ROOT
HETATM    1  O   UNL     1      -5.210  19.964  72.031  1.00  0.00    -0.449 OA 
HETATM    2  C   UNL     1      -5.807  19.929  70.819  1.00  0.00    -0.295 C  
HETATM    3  O   UNL     1      -6.340  20.913  70.329  1.00  0.00    -0.150 OA 
HETATM    4  C   UNL     1      -5.748  18.566  70.183  1.00  0.00    -0.229 C  
ENDROOT
BRANCH   4   5
HETATM    5  C   UNL     1      -6.432  18.574  68.817  1.00  0.00    -0.239 C  
BRANCH   5   6
HETATM    6  C   UNL     1      -7.106  17.282  68.535  1.00  0.00    -0.220 A  
HETATM    7  N   UNL     1      -8.365  17.036  68.251  1.00  0.00    -0.220 NA 
HETATM    8  C   UNL     1      -8.424  15.655  68.138  1.00  0.00    -0.147 A  
HETATM    9  C   UNL     1      -7.169  15.115  68.378  1.00  0.00    -0.114 A  
HETATM   10  O   UNL     1      -6.320  16.172  68.609  1.00  0.00    -0.114 OA 
BRANCH   8  11
HETATM   11  C   UNL     1      -9.667  14.967  67.816  1.00  0.00    -0.212 A  
HETATM   12  C   UNL     1      -9.915  14.431  66.545  1.00  0.00    -0.291 A  
HETATM   13  C   UNL     1     -10.678  14.875  68.787  1.00  0.00    -0.252 A  
HETATM   14  C   UNL     1     -11.128  13.794  66.260  1.00  0.00    -0.302 A  
HETATM   15  C   UNL     1     -11.897  14.252  68.497  1.00  0.00    -0.382 A  
HETATM   16  C   UNL     1     -12.119  13.709  67.234  1.00  0.00    -0.385 A  
ENDBRANCH   8  11
BRANCH   9  17
HETATM   17  C   UNL     1      -6.532  13.813  68.517  1.00  0.00    -0.093 A  
HETATM   18  C   UNL     1      -5.429  11.258  68.933  1.00  0.00    -0.039 A  
HETATM   19  C   UNL     1      -5.687  13.558  69.611  1.00  0.00    -0.104 A  
HETATM   20  C   UNL     1      -6.244  11.498  67.829  1.00  0.00    -0.052 A  
HETATM   21  C   UNL     1      -5.146  12.288  69.824  1.00  0.00    -0.074 A  
HETATM   22  C   UNL     1      -6.798  12.766  67.626  1.00  0.00    -0.147 A  
ENDBRANCH   9  17
ENDBRANCH   5   6
ENDBRANCH   4   5
TORSDOF 4
ENDMDL
MODEL      143
REMARK 921   NORMALIZED FREE ENERGY PREDICTED BY IDOCK:   -3.35 KCAL/MOL
REMARK 922        TOTAL FREE ENERGY PREDICTED BY IDOCK:   -4.94 KCAL/MOL
REMARK 923 INTER-LIGAND FREE ENERGY PREDICTED BY IDOCK:   -3.98 KCAL/MOL
REMARK 924 INTRA-LIGAND FREE ENERGY PREDICTED BY IDOCK:   -0.96 KCAL/MOL
REMARK 927      BINDING AFFINITY PREDICTED BY RF-SCORE:    0.00 PKD
ROOT
HETATM    1  O   UNL     1      -9.732  21.125  66.916  1.00  0.00    -0.083 OA 
HETATM    2  C   UNL     1      -8.911  20.053  66.988  1.00  0.00    -0.350 C  
HETATM    3  O   UNL     1      -8.506  19.477  65.989  1.00  0.00    -0.373 OA 
HETATM    4  C   UNL     1      -8.588  19.665  68.406  1.00  0.00    -0.357 C  
ENDROOT
BRANCH   4   5
HETATM    5  C   UNL     1      -7.658  18.453  68.439  1.00  0.00    -0.307 C  
BRANCH   5   6
HETATM    6  C   UNL     1      -8.418  17.179  68.382  1.00  0.00    -0.241 A  
HETATM    7  N   UNL     1      -8.250  16.136  67.602  1.00  0.00    -0.145 NA 
HETATM    8  C   UNL     1      -9.276  15.274  67.962  1.00  0.00    -0.188 A  
HETATM    9  C   UNL     1     -10.044  15.858  68.959  1.00  0.00    -0.228 A  
HETATM   10  O   UNL     1      -9.469  17.074  69.241  1.00  0.00    -0.159 OA 
BRANCH   8  11
HETATM   11  C   UNL     1      -9.441  13.974  67.326  1.00  0.00    -0.231 A  
HETATM   12  C   UNL     1     -10.280  13.786  66.219  1.00  0.00    -0.298 A  
HETATM   13  C   UNL     1      -8.784  12.855  67.861  1.00  0.00    -0.186 A  
HETATM   14  C   UNL     1     -10.434  12.520  65.643  1.00  0.00    -0.299 A  
HETATM   15  C   UNL     1      -8.950  11.586  67.295  1.00  0.00    -0.162 A  
HETATM   16  C   UNL     1      -9.772  11.421  66.184  1.00  0.00    -0.248 A  
ENDBRANCH   8  11
BRANCH   9  17
HETATM   17  C   UNL     1     -11.262  15.598  69.713  1.00  0.00    -0.322 A  
HETATM   18  C   UNL     1     -13.606  14.905  71.108  1.00  0.00    -0.467 A  
HETATM   19  C   UNL     1     -12.478  15.400  69.035  1.00  0.00     0.099 A  
HETATM   20  C   UNL     1     -12.417  15.122  71.800  1.00  0.00    -0.415 A  
HETATM   21  C   UNL     1     -13.640  15.048  69.725  1.00  0.00     1.391 A  
HETATM   22  C   UNL     1     -11.250  15.460  71.106  1.00  0.00    -0.410 A  
ENDBRANCH   9  17
ENDBRANCH   5   6
ENDBRANCH   4   5
TORSDOF 4
ENDMDL
MODEL      144
REMARK 921   NORMALIZED FREE ENERGY PREDICTED BY IDOCK:   -3.31 KCAL/MOL
REMARK 922        TOTAL FREE ENERGY PREDICTED BY IDOCK:   -4.90 KCAL/MOL
REMARK 923 INTER-LIGAND FREE ENERGY PREDICTED BY IDOCK:   -4.00 KCAL/MOL
REMARK 924 INTRA-LIGAND FREE ENERGY PREDICTED BY IDOCK:   -0.90 KCAL/MOL
REMARK 927      BINDING AFFINITY PREDICTED BY RF-SCORE:    0.00 PKD
ROOT
HETATM    1  O   UNL     1      -9.945  11.409  62.339  1.00  0.00     0.069 OA 
HETATM    2  C   UNL     1      -9.424  10.858  63.458  1.00  0.00    -0.294 C  
HETATM    3  O   UNL     1      -8.219  10.761  63.634  1.00  0.00    -0.062 OA 
HETATM    4  C   UNL     1     -10.483  10.379  64.414  1.00  0.00     0.066 C  
ENDROOT
BRANCH   4   5
HETATM    5  C   UNL     1      -9.851   9.766  65.662  1.00  0.00    -0.371 C  
BRANCH   5   6
HETATM    6  C   UNL     1      -9.692  10.770  66.744  1.00  0.00    -0.187 A  
HETATM    7  N   UNL     1      -8.628  11.448  67.110  1.00  0.00    -0.146 NA 
HETATM    8  C   UNL     1      -9.057  12.191  68.201  1.00  0.00    -0.196 A  
HETATM    9  C   UNL     1     -10.391  11.909  68.457  1.00  0.00    -0.218 A  
HETATM   10  O   UNL     1     -10.799  11.012  67.499  1.00  0.00    -0.226 OA 
BRANCH   8  11
HETATM   11  C   UNL     1      -8.164  13.100  68.906  1.00  0.00     0.223 A  
HETATM   12  C   UNL     1      -8.506  14.435  69.158  1.00  0.00     0.080 A  
HETATM   13  C   UNL     1      -6.896  12.650  69.307  1.00  0.00    -0.012 A  
HETATM   14  C   UNL     1      -7.618  15.290  69.820  1.00  0.00    -0.101 A  
HETATM   15  C   UNL     1      -6.001  13.508  69.955  1.00  0.00    -0.143 A  
HETATM   16  C   UNL     1      -6.365  14.827  70.214  1.00  0.00    -0.162 A  
ENDBRANCH   8  11
BRANCH   9  17
HETATM   17  C   UNL     1     -11.419  12.222  69.440  1.00  0.00    -0.341 A  
HETATM   18  C   UNL     1     -13.267  12.806  71.482  1.00  0.00    -0.330 A  
HETATM   19  C   UNL     1     -11.940  11.205  70.260  1.00  0.00    -0.460 A  
HETATM   20  C   UNL     1     -12.781  13.824  70.663  1.00  0.00    -0.330 A  
HETATM   21  C   UNL     1     -12.849  11.495  71.279  1.00  0.00    -0.463 A  
HETATM   22  C   UNL     1     -11.858  13.535  69.653  1.00  0.00    -0.398 A  
ENDBRANCH   9  17
ENDBRANCH   5   6
ENDBRANCH   4   5
TORSDOF 4
ENDMDL
MODEL      145
REMARK 921   NORMALIZED FREE ENERGY PREDICTED BY IDOCK:   -3.21 KCAL/MOL
REMARK 922        TOTAL FREE ENERGY PREDICTED BY IDOCK:   -4.76 KCAL/MOL
REMARK 923 INTER-LIGAND FREE ENERGY PREDICTED BY IDOCK:   -3.78 KCAL/MOL
REMARK 924 INTRA-LIGAND FREE ENERGY PREDICTED BY IDOCK:   -0.99 KCAL/MOL
REMARK 927      BINDING AFFINITY PREDICTED BY RF-SCORE:    0.00 PKD
ROOT
HETATM    1  O   UNL     1      -7.871   6.577  72.666  1.00  0.00    -0.102 OA 
HETATM    2  C   UNL     1      -7.599   7.694  71.956  1.00  0.00    -0.083 C  
HETATM    3  O   UNL     1      -6.481   8.187  71.923  1.00  0.00    -0.046 OA 
HETATM    4  C   UNL     1      -8.812   8.244  71.254  1.00  0.00    -0.193 C  
ENDROOT
BRANCH   4   5
HETATM    5  C   UNL     1      -8.458   9.502  70.464  1.00  0.00    -0.213 C  
BRANCH   5   6
HETATM    6  C   UNL     1      -8.613   9.292  69.002  1.00  0.00    -0.134 A  
HETATM    7  N   UNL     1      -8.844  10.166  68.049  1.00  0.00    -0.125 NA 
HETATM    8  C   UNL     1      -8.942   9.396  66.899  1.00  0.00    -0.131 A  
HETATM    9  C   UNL     1      -8.775   8.057  67.222  1.00  0.00    -0.131 A  
HETATM   10  O   UNL     1      -8.539   8.002  68.575  1.00  0.00    -0.127 OA 
BRANCH   8  11
HETATM   11  C   UNL     1      -9.189   9.996  65.595  1.00  0.00    -0.234 A  
HETATM   12  C   UNL     1     -10.433  10.541  65.248  1.00  0.00    -0.232 A  
HETATM   13  C   UNL     1      -8.172   9.990  64.627  1.00  0.00    -0.163 A  
HETATM   14  C   UNL     1     -10.646  11.092  63.980  1.00  0.00    -0.395 A  
HETATM   15  C   UNL     1      -8.389  10.527  63.354  1.00  0.00    -0.123 A  
HETATM   16  C   UNL     1      -9.626  11.081  63.033  1.00  0.00    -0.386 A  
ENDBRANCH   8  11
BRANCH   9  17
HETATM   17  C   UNL     1      -8.840   6.749  66.586  1.00  0.00    -0.142 A  
HETATM   18  C   UNL     1      -9.075   4.304  65.211  1.00  0.00    -0.143 A  
HETATM   19  C   UNL     1     -10.038   6.013  66.614  1.00  0.00    -0.226 A  
HETATM   20  C   UNL     1      -7.872   5.006  65.193  1.00  0.00    -0.089 A  
HETATM   21  C   UNL     1     -10.159   4.804  65.925  1.00  0.00    -0.265 A  
HETATM   22  C   UNL     1      -7.757   6.224  65.870  1.00  0.00    -0.093 A  
ENDBRANCH   9  17
ENDBRANCH   5   6
ENDBRANCH   4   5
TORSDOF 4
ENDMDL
MODEL      146
REMARK 921   NORMALIZED FREE ENERGY PREDICTED BY IDOCK:   -3.08 KCAL/MOL
REMARK 922        TOTAL FREE ENERGY PREDICTED BY IDOCK:   -4.60 KCAL/MOL
REMARK 923 INTER-LIGAND FREE ENERGY PREDICTED BY IDOCK:   -3.64 KCAL/MOL
REMARK 924 INTRA-LIGAND FREE ENERGY PREDICTED BY IDOCK:   -0.97 KCAL/MOL
REMARK 927      BINDING AFFINITY PREDICTED BY RF-SCORE:    0.00 PKD
ROOT
HETATM    1  O   UNL     1      -6.976  10.123  67.995  1.00  0.00    -0.080 OA 
HETATM    2  C   UNL     1      -6.503  11.088  68.814  1.00  0.00    -0.051 C  
HETATM    3  O   UNL     1      -6.746  11.101  70.012  1.00  0.00    -0.145 OA 
HETATM    4  C   UNL     1      -5.686  12.119  68.083  1.00  0.00    -0.053 C  
ENDROOT
BRANCH   4   5
HETATM    5  C   UNL     1      -5.171  13.187  69.046  1.00  0.00    -0.069 C  
BRANCH   5   6
HETATM    6  C   UNL     1      -5.852  14.489  68.832  1.00  0.00    -0.085 A  
HETATM    7  N   UNL     1      -5.339  15.682  68.633  1.00  0.00    -0.090 NA 
HETATM    8  C   UNL     1      -6.443  16.518  68.551  1.00  0.00    -0.137 A  
HETATM    9  C   UNL     1      -7.601  15.774  68.723  1.00  0.00    -0.173 A  
HETATM   10  O   UNL     1      -7.212  14.464  68.878  1.00  0.00    -0.114 OA 
BRANCH   8  11
HETATM   11  C   UNL     1      -6.304  17.949  68.321  1.00  0.00    -0.187 A  
HETATM   12  C   UNL     1      -6.133  18.861  69.372  1.00  0.00    -0.285 A  
HETATM   13  C   UNL     1      -6.392  18.451  67.012  1.00  0.00    -0.191 A  
HETATM   14  C   UNL     1      -6.023  20.232  69.121  1.00  0.00    -0.361 A  
HETATM   15  C   UNL     1      -6.298  19.824  66.762  1.00  0.00    -0.192 A  
HETATM   16  C   UNL     1      -6.110  20.713  67.817  1.00  0.00    -0.320 A  
ENDBRANCH   8  11
BRANCH   9  17
HETATM   17  C   UNL     1      -9.038  15.975  68.846  1.00  0.00    -0.235 A  
HETATM   18  C   UNL     1     -11.841  16.184  69.002  1.00  0.00    -0.181 A  
HETATM   19  C   UNL     1      -9.810  16.250  67.703  1.00  0.00    -0.238 A  
HETATM   20  C   UNL     1     -11.092  15.937  70.150  1.00  0.00    -0.369 A  
HETATM   21  C   UNL     1     -11.201  16.345  67.777  1.00  0.00    -0.124 A  
HETATM   22  C   UNL     1      -9.699  15.826  70.072  1.00  0.00     0.042 A  
ENDBRANCH   9  17
ENDBRANCH   5   6
ENDBRANCH   4   5
TORSDOF 4
ENDMDL
MODEL      147
REMARK 921   NORMALIZED FREE ENERGY PREDICTED BY IDOCK:   -3.07 KCAL/MOL
REMARK 922        TOTAL FREE ENERGY PREDICTED BY IDOCK:   -4.60 KCAL/MOL
REMARK 923 INTER-LIGAND FREE ENERGY PREDICTED BY IDOCK:   -3.65 KCAL/MOL
REMARK 924 INTRA-LIGAND FREE ENERGY PREDICTED BY IDOCK:   -0.95 KCAL/MOL
REMARK 927      BINDING AFFINITY PREDICTED BY RF-SCORE:    0.00 PKD
ROOT
HETATM    1  O   UNL     1      -8.612   9.564  63.180  1.00  0.00    -0.188 OA 
HETATM    2  C   UNL     1      -8.498   9.880  64.489  1.00  0.00    -0.175 C  
HETATM    3  O   UNL     1      -9.377  10.477  65.093  1.00  0.00    -0.185 OA 
HETATM    4  C   UNL     1      -7.186   9.434  65.079  1.00  0.00    -0.105 C  
ENDROOT
BRANCH   4   5
HETATM    5  C   UNL     1      -7.101   9.809  66.558  1.00  0.00    -0.090 C  
BRANCH   5   6
HETATM    6  C   UNL     1      -7.581   8.707  67.429  1.00  0.00    -0.093 A  
HETATM    7  N   UNL     1      -7.393   7.411  67.324  1.00  0.00    -0.095 NA 
HETATM    8  C   UNL     1      -8.113   6.877  68.384  1.00  0.00    -0.120 A  
HETATM    9  C   UNL     1      -8.729   7.900  69.089  1.00  0.00    -0.138 A  
HETATM   10  O   UNL     1      -8.360   9.078  68.482  1.00  0.00    -0.121 OA 
BRANCH   8  11
HETATM   11  C   UNL     1      -8.157   5.442  68.632  1.00  0.00    -0.091 A  
HETATM   12  C   UNL     1      -9.037   4.593  67.947  1.00  0.00    -0.140 A  
HETATM   13  C   UNL     1      -7.331   4.887  69.622  1.00  0.00    -0.056 A  
HETATM   14  C   UNL     1      -9.071   3.222  68.223  1.00  0.00    -0.211 A  
HETATM   15  C   UNL     1      -7.374   3.518  69.909  1.00  0.00    -0.041 A  
HETATM   16  C   UNL     1      -8.242   2.687  69.206  1.00  0.00    -0.071 A  
ENDBRANCH   8  11
BRANCH   9  17
HETATM   17  C   UNL     1      -9.661   8.078  70.193  1.00  0.00    -0.176 A  
HETATM   18  C   UNL     1     -11.448   8.225  72.362  1.00  0.00    -0.463 A  
HETATM   19  C   UNL     1     -10.987   7.627  70.072  1.00  0.00    -0.237 A  
HETATM   20  C   UNL     1     -10.146   8.700  72.494  1.00  0.00    -0.242 A  
HETATM   21  C   UNL     1     -11.873   7.691  71.150  1.00  0.00    -0.314 A  
HETATM   22  C   UNL     1      -9.255   8.621  71.419  1.00  0.00    -0.303 A  
ENDBRANCH   9  17
ENDBRANCH   5   6
ENDBRANCH   4   5
TORSDOF 4
ENDMDL
MODEL      148
REMARK 921   NORMALIZED FREE ENERGY PREDICTED BY IDOCK:   -3.06 KCAL/MOL
REMARK 922        TOTAL FREE ENERGY PREDICTED BY IDOCK:   -4.59 KCAL/MOL
REMARK 923 INTER-LIGAND FREE ENERGY PREDICTED BY IDOCK:   -3.60 KCAL/MOL
REMARK 924 INTRA-LIGAND FREE ENERGY PREDICTED BY IDOCK:   -0.99 KCAL/MOL
REMARK 927      BINDING AFFINITY PREDICTED BY RF-SCORE:    0.00 PKD
ROOT
HETATM    1  O   UNL     1     -13.788  14.954  71.129  1.00  0.00    -0.406 OA 
HETATM    2  C   UNL     1     -12.891  13.944  71.155  1.00  0.00    -0.351 C  
HETATM    3  O   UNL     1     -11.941  13.938  71.925  1.00  0.00     0.043 OA 
HETATM    4  C   UNL     1     -13.190  12.876  70.137  1.00  0.00     1.011 C  
ENDROOT
BRANCH   4   5
HETATM    5  C   UNL     1     -12.153  11.756  70.204  1.00  0.00    -0.398 C  
BRANCH   5   6
HETATM    6  C   UNL     1     -11.252  11.774  69.025  1.00  0.00    -0.265 A  
HETATM    7  N   UNL     1     -11.183  10.945  68.008  1.00  0.00    -0.294 NA 
HETATM    8  C   UNL     1     -10.127  11.428  67.248  1.00  0.00    -0.192 A  
HETATM    9  C   UNL     1      -9.585  12.546  67.864  1.00  0.00    -0.206 A  
HETATM   10  O   UNL     1     -10.332  12.777  68.995  1.00  0.00    -0.093 OA 
BRANCH   8  11
HETATM   11  C   UNL     1      -9.723  10.784  66.006  1.00  0.00    -0.264 A  
HETATM   12  C   UNL     1      -8.745   9.780  65.970  1.00  0.00    -0.156 A  
HETATM   13  C   UNL     1     -10.286  11.209  64.792  1.00  0.00    -0.365 A  
HETATM   14  C   UNL     1      -8.362   9.195  64.758  1.00  0.00    -0.176 A  
HETATM   15  C   UNL     1      -9.892  10.635  63.578  1.00  0.00    -0.384 A  
HETATM   16  C   UNL     1      -8.933   9.626  63.563  1.00  0.00    -0.247 A  
ENDBRANCH   8  11
BRANCH   9  17
HETATM   17  C   UNL     1      -8.467  13.466  67.704  1.00  0.00    -0.187 A  
HETATM   18  C   UNL     1      -6.324  15.286  67.589  1.00  0.00    -0.171 A  
HETATM   19  C   UNL     1      -8.694  14.853  67.700  1.00  0.00    -0.181 A  
HETATM   20  C   UNL     1      -6.081  13.915  67.566  1.00  0.00     0.015 A  
HETATM   21  C   UNL     1      -7.631  15.758  67.652  1.00  0.00    -0.177 A  
HETATM   22  C   UNL     1      -7.145  13.010  67.630  1.00  0.00    -0.156 A  
ENDBRANCH   9  17
ENDBRANCH   5   6
ENDBRANCH   4   5
TORSDOF 4
ENDMDL
MODEL      149
REMARK 921   NORMALIZED FREE ENERGY PREDICTED BY IDOCK:   -2.84 KCAL/MOL
REMARK 922        TOTAL FREE ENERGY PREDICTED BY IDOCK:   -4.31 KCAL/MOL
REMARK 923 INTER-LIGAND FREE ENERGY PREDICTED BY IDOCK:   -3.35 KCAL/MOL
REMARK 924 INTRA-LIGAND FREE ENERGY PREDICTED BY IDOCK:   -0.96 KCAL/MOL
REMARK 927      BINDING AFFINITY PREDICTED BY RF-SCORE:    0.00 PKD
ROOT
HETATM    1  O   UNL     1     -10.563   3.725  64.014  1.00  0.00    -0.257 OA 
HETATM    2  C   UNL     1      -9.680   3.954  65.011  1.00  0.00    -0.192 C  
HETATM    3  O   UNL     1      -9.681   3.298  66.042  1.00  0.00    -0.068 OA 
HETATM    4  C   UNL     1      -8.744   5.093  64.706  1.00  0.00    -0.133 C  
ENDROOT
BRANCH   4   5
HETATM    5  C   UNL     1      -7.765   5.314  65.858  1.00  0.00    -0.091 C  
BRANCH   5   6
HETATM    6  C   UNL     1      -8.245   6.365  66.790  1.00  0.00    -0.110 A  
HETATM    7  N   UNL     1      -8.577   7.613  66.549  1.00  0.00    -0.131 NA 
HETATM    8  C   UNL     1      -8.896   8.127  67.797  1.00  0.00    -0.130 A  
HETATM    9  C   UNL     1      -8.725   7.144  68.761  1.00  0.00    -0.124 A  
HETATM   10  O   UNL     1      -8.329   6.005  68.100  1.00  0.00    -0.112 OA 
BRANCH   8  11
HETATM   11  C   UNL     1      -9.333   9.506  67.968  1.00  0.00    -0.143 A  
HETATM   12  C   UNL     1     -10.604   9.831  68.460  1.00  0.00    -0.252 A  
HETATM   13  C   UNL     1      -8.480  10.553  67.583  1.00  0.00    -0.115 A  
HETATM   14  C   UNL     1     -11.002  11.165  68.592  1.00  0.00    -0.268 A  
HETATM   15  C   UNL     1      -8.883  11.888  67.701  1.00  0.00    -0.169 A  
HETATM   16  C   UNL     1     -10.143  12.192  68.209  1.00  0.00    -0.210 A  
ENDBRANCH   8  11
BRANCH   9  17
HETATM   17  C   UNL     1      -8.775   6.992  70.208  1.00  0.00    -0.144 A  
HETATM   18  C   UNL     1      -8.785   6.879  73.021  1.00  0.00    -0.135 A  
HETATM   19  C   UNL     1      -7.597   6.723  70.928  1.00  0.00    -0.088 A  
HETATM   20  C   UNL     1      -9.967   7.122  72.325  1.00  0.00    -0.193 A  
HETATM   21  C   UNL     1      -7.599   6.674  72.323  1.00  0.00    -0.095 A  
HETATM   22  C   UNL     1      -9.961   7.186  70.927  1.00  0.00    -0.193 A  
ENDBRANCH   9  17
ENDBRANCH   5   6
ENDBRANCH   4   5
TORSDOF 4
ENDMDL
MODEL      150
REMARK 921   NORMALIZED FREE ENERGY PREDICTED BY IDOCK:   -2.78 KCAL/MOL
REMARK 922        TOTAL FREE ENERGY PREDICTED BY IDOCK:   -4.24 KCAL/MOL
REMARK 923 INTER-LIGAND FREE ENERGY PREDICTED BY IDOCK:   -3.83 KCAL/MOL
REMARK 924 INTRA-LIGAND FREE ENERGY PREDICTED BY IDOCK:   -0.40 KCAL/MOL
REMARK 927      BINDING AFFINITY PREDICTED BY RF-SCORE:    0.00 PKD
ROOT
HETATM    1  O   UNL     1      -7.757   6.826  68.705  1.00  0.00    -0.108 OA 
HETATM    2  C   UNL     1      -7.248   8.001  68.271  1.00  0.00    -0.093 C  
HETATM    3  O   UNL     1      -7.176   8.279  67.084  1.00  0.00    -0.081 OA 
HETATM    4  C   UNL     1      -6.782   8.881  69.400  1.00  0.00    -0.048 C  
ENDROOT
BRANCH   4   5
HETATM    5  C   UNL     1      -6.218  10.196  68.865  1.00  0.00    -0.043 C  
BRANCH   5   6
HETATM    6  C   UNL     1      -7.297  11.112  68.418  1.00  0.00    -0.094 A  
HETATM    7  N   UNL     1      -8.025  11.955  69.115  1.00  0.00     0.154 NA 
HETATM    8  C   UNL     1      -8.900  12.497  68.185  1.00  0.00    -0.191 A  
HETATM    9  C   UNL     1      -8.663  11.932  66.940  1.00  0.00    -0.191 A  
HETATM   10  O   UNL     1      -7.612  11.059  67.095  1.00  0.00    -0.105 OA 
BRANCH   8  11
HETATM   11  C   UNL     1      -9.887  13.501  68.558  1.00  0.00    -0.189 A  
HETATM   12  C   UNL     1      -9.572  14.865  68.634  1.00  0.00    -0.222 A  
HETATM   13  C   UNL     1     -11.187  13.097  68.904  1.00  0.00    -0.324 A  
HETATM   14  C   UNL     1     -10.537  15.803  69.017  1.00  0.00    -0.232 A  
HETATM   15  C   UNL     1     -12.148  14.034  69.301  1.00  0.00    -0.380 A  
HETATM   16  C   UNL     1     -11.822  15.386  69.354  1.00  0.00    -0.372 A  
ENDBRANCH   8  11
BRANCH   9  17
HETATM   17  C   UNL     1      -9.221  11.943  65.595  1.00  0.00    -0.060 A  
HETATM   18  C   UNL     1     -10.398  11.799  63.043  1.00  0.00    -0.237 A  
HETATM   19  C   UNL     1      -8.772  11.013  64.641  1.00  0.00     0.045 A  
HETATM   20  C   UNL     1     -10.839  12.744  63.965  1.00  0.00    -0.458 A  
HETATM   21  C   UNL     1      -9.360  10.934  63.377  1.00  0.00    -0.308 A  
HETATM   22  C   UNL     1     -10.259  12.811  65.237  1.00  0.00    -0.296 A  
ENDBRANCH   9  17
ENDBRANCH   5   6
ENDBRANCH   4   5
TORSDOF 4
ENDMDL
MODEL      151
REMARK 921   NORMALIZED FREE ENERGY PREDICTED BY IDOCK:   -2.56 KCAL/MOL
REMARK 922        TOTAL FREE ENERGY PREDICTED BY IDOCK:   -3.96 KCAL/MOL
REMARK 923 INTER-LIGAND FREE ENERGY PREDICTED BY IDOCK:   -3.27 KCAL/MOL
REMARK 924 INTRA-LIGAND FREE ENERGY PREDICTED BY IDOCK:   -0.69 KCAL/MOL
REMARK 927      BINDING AFFINITY PREDICTED BY RF-SCORE:    0.00 PKD
ROOT
HETATM    1  O   UNL     1     -11.110   3.824  63.590  1.00  0.00    -0.238 OA 
HETATM    2  C   UNL     1     -10.391   4.104  64.700  1.00  0.00    -0.175 C  
HETATM    3  O   UNL     1     -10.905   4.565  65.708  1.00  0.00    -0.247 OA 
HETATM    4  C   UNL     1      -8.926   3.802  64.531  1.00  0.00    -0.124 C  
ENDROOT
BRANCH   4   5
HETATM    5  C   UNL     1      -8.154   4.131  65.808  1.00  0.00    -0.101 C  
BRANCH   5   6
HETATM    6  C   UNL     1      -8.063   5.595  66.030  1.00  0.00    -0.109 A  
HETATM    7  N   UNL     1      -7.945   6.269  67.153  1.00  0.00    -0.108 NA 
HETATM    8  C   UNL     1      -7.960   7.598  66.754  1.00  0.00    -0.111 A  
HETATM    9  C   UNL     1      -8.103   7.668  65.377  1.00  0.00    -0.128 A  
HETATM   10  O   UNL     1      -8.143   6.373  64.916  1.00  0.00    -0.121 OA 
BRANCH   8  11
HETATM   11  C   UNL     1      -7.841   8.685  67.716  1.00  0.00    -0.103 A  
HETATM   12  C   UNL     1      -8.941   9.463  68.102  1.00  0.00    -0.128 A  
HETATM   13  C   UNL     1      -6.579   9.007  68.242  1.00  0.00    -0.060 A  
HETATM   14  C   UNL     1      -8.790  10.515  69.012  1.00  0.00    -0.174 A  
HETATM   15  C   UNL     1      -6.426  10.069  69.141  1.00  0.00    -0.048 A  
HETATM   16  C   UNL     1      -7.533  10.819  69.528  1.00  0.00    -0.113 A  
ENDBRANCH   8  11
BRANCH   9  17
HETATM   17  C   UNL     1      -8.281   8.666  64.331  1.00  0.00    -0.163 A  
HETATM   18  C   UNL     1      -8.570  10.735  62.445  1.00  0.00    -0.322 A  
HETATM   19  C   UNL     1      -9.387   9.532  64.369  1.00  0.00    -0.120 A  
HETATM   20  C   UNL     1      -7.479   9.871  62.376  1.00  0.00    -0.127 A  
HETATM   21  C   UNL     1      -9.528  10.564  63.439  1.00  0.00    -0.354 A  
HETATM   22  C   UNL     1      -7.331   8.847  63.318  1.00  0.00    -0.098 A  
ENDBRANCH   9  17
ENDBRANCH   5   6
ENDBRANCH   4   5
TORSDOF 4
ENDMDL
MODEL      152
REMARK 921   NORMALIZED FREE ENERGY PREDICTED BY IDOCK:   -2.26 KCAL/MOL
REMARK 922        TOTAL FREE ENERGY PREDICTED BY IDOCK:   -3.60 KCAL/MOL
REMARK 923 INTER-LIGAND FREE ENERGY PREDICTED BY IDOCK:   -2.76 KCAL/MOL
REMARK 924 INTRA-LIGAND FREE ENERGY PREDICTED BY IDOCK:   -0.85 KCAL/MOL
REMARK 927      BINDING AFFINITY PREDICTED BY RF-SCORE:    0.00 PKD
ROOT
HETATM    1  O   UNL     1      -5.328  17.056  67.994  1.00  0.00    -0.115 OA 
HETATM    2  C   UNL     1      -6.525  16.432  67.908  1.00  0.00    -0.135 C  
HETATM    3  O   UNL     1      -7.177  16.417  66.875  1.00  0.00    -0.198 OA 
HETATM    4  C   UNL     1      -6.942  15.801  69.209  1.00  0.00    -0.186 C  
ENDROOT
BRANCH   4   5
HETATM    5  C   UNL     1      -8.296  15.108  69.066  1.00  0.00    -0.209 C  
BRANCH   5   6
HETATM    6  C   UNL     1      -8.151  13.728  68.538  1.00  0.00    -0.128 A  
HETATM    7  N   UNL     1      -8.542  13.223  67.390  1.00  0.00    -0.194 NA 
HETATM    8  C   UNL     1      -8.185  11.884  67.469  1.00  0.00    -0.155 A  
HETATM    9  C   UNL     1      -7.593  11.634  68.698  1.00  0.00    -0.133 A  
HETATM   10  O   UNL     1      -7.552  12.832  69.370  1.00  0.00     0.287 OA 
BRANCH   8  11
HETATM   11  C   UNL     1      -8.441  10.959  66.373  1.00  0.00    -0.163 A  
HETATM   12  C   UNL     1      -9.622  11.003  65.620  1.00  0.00    -0.265 A  
HETATM   13  C   UNL     1      -7.505   9.953  66.085  1.00  0.00    -0.104 A  
HETATM   14  C   UNL     1      -9.849  10.087  64.587  1.00  0.00    -0.288 A  
HETATM   15  C   UNL     1      -7.737   9.027  65.062  1.00  0.00    -0.109 A  
HETATM   16  C   UNL     1      -8.908   9.098  64.312  1.00  0.00    -0.139 A  
ENDBRANCH   8  11
BRANCH   9  17
HETATM   17  C   UNL     1      -7.085  10.510  69.473  1.00  0.00    -0.124 A  
HETATM   18  C   UNL     1      -6.041   8.472  71.109  1.00  0.00    -0.039 A  
HETATM   19  C   UNL     1      -5.701  10.274  69.543  1.00  0.00    -0.038 A  
HETATM   20  C   UNL     1      -7.417   8.675  71.034  1.00  0.00    -0.093 A  
HETATM   21  C   UNL     1      -5.180   9.269  70.360  1.00  0.00    -0.027 A  
HETATM   22  C   UNL     1      -7.936   9.692  70.226  1.00  0.00    -0.198 A  
ENDBRANCH   9  17
ENDBRANCH   5   6
ENDBRANCH   4   5
TORSDOF 4
ENDMDL
MODEL      153
REMARK 921   NORMALIZED FREE ENERGY PREDICTED BY IDOCK:   -2.01 KCAL/MOL
REMARK 922        TOTAL FREE ENERGY PREDICTED BY IDOCK:   -3.28 KCAL/MOL
REMARK 923 INTER-LIGAND FREE ENERGY PREDICTED BY IDOCK:   -3.17 KCAL/MOL
REMARK 924 INTRA-LIGAND FREE ENERGY PREDICTED BY IDOCK:   -0.12 KCAL/MOL
REMARK 927      BINDING AFFINITY PREDICTED BY RF-SCORE:    0.00 PKD
ROOT
HETATM    1  O   UNL     1     -11.903  11.562  67.679  1.00  0.00    -0.595 OA 
HETATM    2  C   UNL     1     -10.910  10.671  67.460  1.00  0.00    -0.296 C  
HETATM    3  O   UNL     1     -11.133   9.531  67.082  1.00  0.00    -0.078 OA 
HETATM    4  C   UNL     1      -9.547  11.240  67.751  1.00  0.00    -0.181 C  
ENDROOT
BRANCH   4   5
HETATM    5  C   UNL     1      -8.458  10.202  67.489  1.00  0.00    -0.118 C  
BRANCH   5   6
HETATM    6  C   UNL     1      -8.738   8.926  68.194  1.00  0.00    -0.134 A  
HETATM    7  N   UNL     1      -8.892   8.694  69.478  1.00  0.00    -0.142 NA 
HETATM    8  C   UNL     1      -9.078   7.321  69.555  1.00  0.00    -0.143 A  
HETATM    9  C   UNL     1      -9.012   6.772  68.283  1.00  0.00    -0.123 A  
HETATM   10  O   UNL     1      -8.817   7.816  67.410  1.00  0.00    -0.126 OA 
BRANCH   8  11
HETATM   11  C   UNL     1      -9.299   6.649  70.828  1.00  0.00    -0.159 A  
HETATM   12  C   UNL     1     -10.311   7.043  71.714  1.00  0.00    -0.216 A  
HETATM   13  C   UNL     1      -8.445   5.604  71.215  1.00  0.00    -0.128 A  
HETATM   14  C   UNL     1     -10.485   6.391  72.940  1.00  0.00    -0.243 A  
HETATM   15  C   UNL     1      -8.608   4.962  72.448  1.00  0.00    -0.123 A  
HETATM   16  C   UNL     1      -9.631   5.355  73.307  1.00  0.00    -0.150 A  
ENDBRANCH   8  11
BRANCH   9  17
HETATM   17  C   UNL     1      -9.022   5.466  67.638  1.00  0.00    -0.108 A  
HETATM   18  C   UNL     1      -9.064   3.037  66.218  1.00  0.00    -0.150 A  
HETATM   19  C   UNL     1     -10.225   4.943  67.131  1.00  0.00    -0.211 A  
HETATM   20  C   UNL     1      -7.866   3.526  66.734  1.00  0.00    -0.080 A  
HETATM   21  C   UNL     1     -10.246   3.742  66.419  1.00  0.00     0.430 A  
HETATM   22  C   UNL     1      -7.844   4.737  67.435  1.00  0.00    -0.094 A  
ENDBRANCH   9  17
ENDBRANCH   5   6
ENDBRANCH   4   5
TORSDOF 4
ENDMDL
MODEL      154
REMARK 921   NORMALIZED FREE ENERGY PREDICTED BY IDOCK:   -1.92 KCAL/MOL
REMARK 922        TOTAL FREE ENERGY PREDICTED BY IDOCK:   -3.18 KCAL/MOL
REMARK 923 INTER-LIGAND FREE ENERGY PREDICTED BY IDOCK:   -2.91 KCAL/MOL
REMARK 924 INTRA-LIGAND FREE ENERGY PREDICTED BY IDOCK:   -0.27 KCAL/MOL
REMARK 927      BINDING AFFINITY PREDICTED BY RF-SCORE:    0.00 PKD
ROOT
HETATM    1  O   UNL     1     -10.317  12.330  62.875  1.00  0.00    -0.088 OA 
HETATM    2  C   UNL     1      -9.860  11.666  63.960  1.00  0.00    -0.257 C  
HETATM    3  O   UNL     1      -8.685  11.698  64.295  1.00  0.00     0.408 OA 
HETATM    4  C   UNL     1     -10.944  10.894  64.665  1.00  0.00    -0.027 C  
ENDROOT
BRANCH   4   5
HETATM    5  C   UNL     1     -10.384  10.162  65.883  1.00  0.00    -0.221 C  
BRANCH   5   6
HETATM    6  C   UNL     1      -9.709  11.096  66.820  1.00  0.00    -0.193 A  
HETATM    7  N   UNL     1      -8.627  10.922  67.544  1.00  0.00    -0.126 NA 
HETATM    8  C   UNL     1      -8.502  12.105  68.257  1.00  0.00    -0.176 A  
HETATM    9  C   UNL     1      -9.549  12.955  67.932  1.00  0.00    -0.215 A  
HETATM   10  O   UNL     1     -10.308  12.307  66.987  1.00  0.00    -0.217 OA 
BRANCH   8  11
HETATM   11  C   UNL     1      -7.403  12.325  69.188  1.00  0.00     0.091 A  
HETATM   12  C   UNL     1      -6.858  13.596  69.411  1.00  0.00    -0.022 A  
HETATM   13  C   UNL     1      -6.829  11.228  69.850  1.00  0.00    -0.017 A  
HETATM   14  C   UNL     1      -5.787  13.772  70.295  1.00  0.00    -0.152 A  
HETATM   15  C   UNL     1      -5.749  11.401  70.723  1.00  0.00    -0.079 A  
HETATM   16  C   UNL     1      -5.232  12.674  70.947  1.00  0.00    -0.158 A  
ENDBRANCH   8  11
BRANCH   9  17
HETATM   17  C   UNL     1     -10.090  14.247  68.331  1.00  0.00    -0.243 A  
HETATM   18  C   UNL     1     -10.996  16.750  69.245  1.00  0.00    -0.197 A  
HETATM   19  C   UNL     1     -10.846  14.358  69.511  1.00  0.00    -0.179 A  
HETATM   20  C   UNL     1     -10.270  16.658  68.060  1.00  0.00    -0.280 A  
HETATM   21  C   UNL     1     -11.289  15.600  69.970  1.00  0.00    -0.341 A  
HETATM   22  C   UNL     1      -9.813  15.415  67.609  1.00  0.00    -0.220 A  
ENDBRANCH   9  17
ENDBRANCH   5   6
ENDBRANCH   4   5
TORSDOF 4
ENDMDL
MODEL      155
REMARK 921   NORMALIZED FREE ENERGY PREDICTED BY IDOCK:   -1.55 KCAL/MOL
REMARK 922        TOTAL FREE ENERGY PREDICTED BY IDOCK:   -2.72 KCAL/MOL
REMARK 923 INTER-LIGAND FREE ENERGY PREDICTED BY IDOCK:   -2.69 KCAL/MOL
REMARK 924 INTRA-LIGAND FREE ENERGY PREDICTED BY IDOCK:   -0.03 KCAL/MOL
REMARK 927      BINDING AFFINITY PREDICTED BY RF-SCORE:    0.00 PKD
ROOT
HETATM    1  O   UNL     1     -11.648  11.300  67.079  1.00  0.00    -0.496 OA 
HETATM    2  C   UNL     1     -10.567  10.644  66.601  1.00  0.00    -0.214 C  
HETATM    3  O   UNL     1     -10.620   9.474  66.250  1.00  0.00    -0.117 OA 
HETATM    4  C   UNL     1      -9.331  11.503  66.577  1.00  0.00    -0.210 C  
ENDROOT
BRANCH   4   5
HETATM    5  C   UNL     1      -8.138  10.722  66.029  1.00  0.00    -0.158 C  
BRANCH   5   6
HETATM    6  C   UNL     1      -7.977   9.416  66.716  1.00  0.00    -0.108 A  
HETATM    7  N   UNL     1      -7.760   9.157  67.985  1.00  0.00    -0.092 NA 
HETATM    8  C   UNL     1      -7.647   7.775  68.035  1.00  0.00    -0.120 A  
HETATM    9  C   UNL     1      -7.792   7.252  66.758  1.00  0.00    -0.113 A  
HETATM   10  O   UNL     1      -8.029   8.314  65.919  1.00  0.00    -0.089 OA 
BRANCH   8  11
HETATM   11  C   UNL     1      -7.409   7.072  69.288  1.00  0.00    -0.092 A  
HETATM   12  C   UNL     1      -8.196   7.289  70.427  1.00  0.00    -0.125 A  
HETATM   13  C   UNL     1      -6.327   6.182  69.386  1.00  0.00    -0.041 A  
HETATM   14  C   UNL     1      -7.929   6.614  71.623  1.00  0.00    -0.103 A  
HETATM   15  C   UNL     1      -6.050   5.518  70.586  1.00  0.00    -0.026 A  
HETATM   16  C   UNL     1      -6.854   5.733  71.702  1.00  0.00    -0.067 A  
ENDBRANCH   8  11
BRANCH   9  17
HETATM   17  C   UNL     1      -7.704   5.971  66.071  1.00  0.00    -0.095 A  
HETATM   18  C   UNL     1      -7.620   3.584  64.583  1.00  0.00    -0.077 A  
HETATM   19  C   UNL     1      -8.863   5.202  65.867  1.00  0.00    -0.142 A  
HETATM   20  C   UNL     1      -6.456   4.318  64.795  1.00  0.00    -0.039 A  
HETATM   21  C   UNL     1      -8.825   4.023  65.122  1.00  0.00    -0.127 A  
HETATM   22  C   UNL     1      -6.498   5.509  65.529  1.00  0.00    -0.040 A  
ENDBRANCH   9  17
ENDBRANCH   5   6
ENDBRANCH   4   5
TORSDOF 4
ENDMDL
MODEL      156
REMARK 921   NORMALIZED FREE ENERGY PREDICTED BY IDOCK:   -0.12 KCAL/MOL
REMARK 922        TOTAL FREE ENERGY PREDICTED BY IDOCK:   -0.95 KCAL/MOL
REMARK 923 INTER-LIGAND FREE ENERGY PREDICTED BY IDOCK:   -1.59 KCAL/MOL
REMARK 924 INTRA-LIGAND FREE ENERGY PREDICTED BY IDOCK:    0.63 KCAL/MOL
REMARK 927      BINDING AFFINITY PREDICTED BY RF-SCORE:    0.00 PKD
ROOT
HETATM    1  O   UNL     1     -11.178   4.875  67.911  1.00  0.00     1.076 OA 
HETATM    2  C   UNL     1     -11.131   6.212  68.100  1.00  0.00    -0.227 C  
HETATM    3  O   UNL     1     -11.145   7.001  67.167  1.00  0.00    -0.350 OA 
HETATM    4  C   UNL     1     -11.041   6.588  69.555  1.00  0.00    -0.425 C  
ENDROOT
BRANCH   4   5
HETATM    5  C   UNL     1     -10.992   8.106  69.722  1.00  0.00    -0.133 C  
BRANCH   5   6
HETATM    6  C   UNL     1      -9.740   8.676  69.165  1.00  0.00    -0.173 A  
HETATM    7  N   UNL     1      -9.329   9.924  69.129  1.00  0.00    -0.181 NA 
HETATM    8  C   UNL     1      -8.122   9.865  68.448  1.00  0.00    -0.101 A  
HETATM    9  C   UNL     1      -7.859   8.552  68.084  1.00  0.00    -0.103 A  
HETATM   10  O   UNL     1      -8.894   7.790  68.571  1.00  0.00    -0.131 OA 
BRANCH   8  11
HETATM   11  C   UNL     1      -7.325  11.058  68.200  1.00  0.00    -0.086 A  
HETATM   12  C   UNL     1      -5.984  10.989  67.797  1.00  0.00    -0.046 A  
HETATM   13  C   UNL     1      -7.891  12.325  68.416  1.00  0.00    -0.151 A  
HETATM   14  C   UNL     1      -5.238  12.154  67.587  1.00  0.00    -0.085 A  
HETATM   15  C   UNL     1      -7.141  13.490  68.220  1.00  0.00    -0.110 A  
HETATM   16  C   UNL     1      -5.816  13.402  67.803  1.00  0.00    -0.128 A  
ENDBRANCH   8  11
BRANCH   9  17
HETATM   17  C   UNL     1      -6.884   7.791  67.315  1.00  0.00    -0.069 A  
HETATM   18  C   UNL     1      -5.152   6.206  65.763  1.00  0.00    -0.013 A  
HETATM   19  C   UNL     1      -6.517   6.499  67.729  1.00  0.00    -0.052 A  
HETATM   20  C   UNL     1      -5.485   7.493  65.348  1.00  0.00    -0.033 A  
HETATM   21  C   UNL     1      -5.665   5.708  66.956  1.00  0.00    -0.017 A  
HETATM   22  C   UNL     1      -6.351   8.279  66.115  1.00  0.00    -0.049 A  
ENDBRANCH   9  17
ENDBRANCH   5   6
ENDBRANCH   4   5
TORSDOF 4
ENDMDL
MODEL      157
REMARK 921   NORMALIZED FREE ENERGY PREDICTED BY IDOCK:    1.55 KCAL/MOL
REMARK 922        TOTAL FREE ENERGY PREDICTED BY IDOCK:    1.11 KCAL/MOL
REMARK 923 INTER-LIGAND FREE ENERGY PREDICTED BY IDOCK:   -0.67 KCAL/MOL
REMARK 924 INTRA-LIGAND FREE ENERGY PREDICTED BY IDOCK:    1.78 KCAL/MOL
REMARK 927      BINDING AFFINITY PREDICTED BY RF-SCORE:    0.00 PKD
ROOT
HETATM    1  O   UNL     1     -11.462   4.676  68.054  1.00  0.00     2.840 OA 
HETATM    2  C   UNL     1     -11.350   5.959  68.464  1.00  0.00     0.321 C  
HETATM    3  O   UNL     1     -11.231   6.885  67.675  1.00  0.00    -0.205 OA 
HETATM    4  C   UNL     1     -11.371   6.092  69.963  1.00  0.00    -0.354 C  
ENDROOT
BRANCH   4   5
HETATM    5  C   UNL     1     -11.244   7.556  70.381  1.00  0.00    -0.270 C  
BRANCH   5   6
HETATM    6  C   UNL     1     -10.414   8.328  69.422  1.00  0.00    -0.220 A  
HETATM    7  N   UNL     1      -9.178   8.122  69.028  1.00  0.00    -0.148 NA 
HETATM    8  C   UNL     1      -8.914   9.182  68.172  1.00  0.00    -0.129 A  
HETATM    9  C   UNL     1     -10.027  10.007  68.098  1.00  0.00    -0.153 A  
HETATM   10  O   UNL     1     -10.997   9.435  68.887  1.00  0.00    -0.165 OA 
BRANCH   8  11
HETATM   11  C   UNL     1      -7.628   9.323  67.503  1.00  0.00    -0.088 A  
HETATM   12  C   UNL     1      -6.413   9.121  68.172  1.00  0.00    -0.059 A  
HETATM   13  C   UNL     1      -7.589   9.721  66.157  1.00  0.00    -0.101 A  
HETATM   14  C   UNL     1      -5.193   9.285  67.506  1.00  0.00    -0.037 A  
HETATM   15  C   UNL     1      -6.370   9.899  65.495  1.00  0.00    -0.086 A  
HETATM   16  C   UNL     1      -5.172   9.677  66.171  1.00  0.00    -0.039 A  
ENDBRANCH   8  11
BRANCH   9  17
HETATM   17  C   UNL     1     -10.426  11.277  67.509  1.00  0.00    -0.234 A  
HETATM   18  C   UNL     1     -11.069  13.822  66.493  1.00  0.00    -0.309 A  
HETATM   19  C   UNL     1     -11.239  12.164  68.236  1.00  0.00    -0.319 A  
HETATM   20  C   UNL     1     -10.282  12.947  65.746  1.00  0.00    -0.298 A  
HETATM   21  C   UNL     1     -11.552  13.430  67.737  1.00  0.00    -0.375 A  
HETATM   22  C   UNL     1      -9.957  11.685  66.254  1.00  0.00    -0.247 A  
ENDBRANCH   9  17
ENDBRANCH   5   6
ENDBRANCH   4   5
TORSDOF 4
ENDMDL
MODEL      158
REMARK 921   NORMALIZED FREE ENERGY PREDICTED BY IDOCK:    7.20 KCAL/MOL
REMARK 922        TOTAL FREE ENERGY PREDICTED BY IDOCK:    8.07 KCAL/MOL
REMARK 923 INTER-LIGAND FREE ENERGY PREDICTED BY IDOCK:    8.08 KCAL/MOL
REMARK 924 INTRA-LIGAND FREE ENERGY PREDICTED BY IDOCK:   -0.00 KCAL/MOL
REMARK 927      BINDING AFFINITY PREDICTED BY RF-SCORE:    0.00 PKD
ROOT
HETATM    1  O   UNL     1     -13.724  15.631  64.988  1.00  0.00     1.513 OA 
HETATM    2  C   UNL     1     -13.007  15.172  66.038  1.00  0.00     1.365 C  
HETATM    3  O   UNL     1     -11.913  14.645  65.897  1.00  0.00    -0.332 OA 
HETATM    4  C   UNL     1     -13.714  15.368  67.352  1.00  0.00     6.961 C  
ENDROOT
BRANCH   4   5
HETATM    5  C   UNL     1     -12.868  14.837  68.508  1.00  0.00     1.150 C  
BRANCH   5   6
HETATM    6  C   UNL     1     -11.473  15.340  68.441  1.00  0.00    -0.345 A  
HETATM    7  N   UNL     1     -10.341  14.700  68.624  1.00  0.00    -0.239 NA 
HETATM    8  C   UNL     1      -9.370  15.681  68.487  1.00  0.00    -0.197 A  
HETATM    9  C   UNL     1      -9.977  16.902  68.234  1.00  0.00    -0.282 A  
HETATM   10  O   UNL     1     -11.331  16.669  68.181  1.00  0.00    -0.289 OA 
BRANCH   8  11
HETATM   11  C   UNL     1      -7.951  15.376  68.612  1.00  0.00    -0.149 A  
HETATM   12  C   UNL     1      -7.231  15.641  69.785  1.00  0.00    -0.086 A  
HETATM   13  C   UNL     1      -7.259  14.846  67.511  1.00  0.00    -0.227 A  
HETATM   14  C   UNL     1      -5.864  15.356  69.867  1.00  0.00    -0.141 A  
HETATM   15  C   UNL     1      -5.888  14.575  67.587  1.00  0.00    -0.017 A  
HETATM   16  C   UNL     1      -5.193  14.827  68.767  1.00  0.00    -0.089 A  
ENDBRANCH   8  11
BRANCH   9  17
HETATM   17  C   UNL     1      -9.620  18.306  68.080  1.00  0.00    -0.316 A  
HETATM   18  C   UNL     1      -8.787  20.989  67.922  1.00  0.00     0.251 A  
HETATM   19  C   UNL     1      -9.954  19.229  69.086  1.00  0.00    -0.373 A  
HETATM   20  C   UNL     1      -8.468  20.095  66.903  1.00  0.00    -0.376 A  
HETATM   21  C   UNL     1      -9.534  20.559  69.014  1.00  0.00     0.597 A  
HETATM   22  C   UNL     1      -8.875  18.760  66.985  1.00  0.00    -0.302 A  
ENDBRANCH   9  17
ENDBRANCH   5   6
ENDBRANCH   4   5
TORSDOF 4
ENDMDL
MODEL      159
REMARK 921   NORMALIZED FREE ENERGY PREDICTED BY IDOCK:   11.59 KCAL/MOL
REMARK 922        TOTAL FREE ENERGY PREDICTED BY IDOCK:   13.49 KCAL/MOL
REMARK 923 INTER-LIGAND FREE ENERGY PREDICTED BY IDOCK:   10.85 KCAL/MOL
REMARK 924 INTRA-LIGAND FREE ENERGY PREDICTED BY IDOCK:    2.64 KCAL/MOL
REMARK 927      BINDING AFFINITY PREDICTED BY RF-SCORE:    0.00 PKD
ROOT
HETATM    1  O   UNL     1     -12.849  14.115  72.407  1.00  0.00    -0.356 OA 
HETATM    2  C   UNL     1     -11.701  14.661  71.946  1.00  0.00    -0.101 C  
HETATM    3  O   UNL     1     -11.662  15.319  70.917  1.00  0.00    -0.287 OA 
HETATM    4  C   UNL     1     -10.518  14.348  72.824  1.00  0.00     4.358 C  
ENDROOT
BRANCH   4   5
HETATM    5  C   UNL     1      -9.246  14.986  72.267  1.00  0.00     6.115 C  
BRANCH   5   6
HETATM    6  C   UNL     1      -9.346  15.217  70.805  1.00  0.00     1.607 A  
HETATM    7  N   UNL     1      -9.145  16.317  70.113  1.00  0.00     0.919 NA 
HETATM    8  C   UNL     1      -9.431  15.953  68.805  1.00  0.00    -0.221 A  
HETATM    9  C   UNL     1      -9.814  14.620  68.768  1.00  0.00    -0.227 A  
HETATM   10  O   UNL     1      -9.732  14.147  70.057  1.00  0.00     0.849 OA 
BRANCH   8  11
HETATM   11  C   UNL     1      -9.319  16.901  67.706  1.00  0.00    -0.235 A  
HETATM   12  C   UNL     1      -8.288  17.847  67.639  1.00  0.00    -0.234 A  
HETATM   13  C   UNL     1     -10.300  16.912  66.700  1.00  0.00    -0.299 A  
HETATM   14  C   UNL     1      -8.220  18.760  66.580  1.00  0.00    -0.298 A  
HETATM   15  C   UNL     1     -10.240  17.834  65.650  1.00  0.00    -0.020 A  
HETATM   16  C   UNL     1      -9.198  18.755  65.589  1.00  0.00     0.682 A  
ENDBRANCH   8  11
BRANCH   9  17
HETATM   17  C   UNL     1     -10.318  13.639  67.817  1.00  0.00    -0.241 A  
HETATM   18  C   UNL     1     -11.373  11.896  65.876  1.00  0.00    -0.365 A  
HETATM   19  C   UNL     1     -11.688  13.321  67.795  1.00  0.00    -0.398 A  
HETATM   20  C   UNL     1     -10.009  12.179  65.897  1.00  0.00    -0.267 A  
HETATM   21  C   UNL     1     -12.214  12.464  66.828  1.00  0.00     0.108 A  
HETATM   22  C   UNL     1      -9.486  13.050  66.857  1.00  0.00    -0.242 A  
ENDBRANCH   9  17
ENDBRANCH   5   6
ENDBRANCH   4   5
TORSDOF 4
ENDMDL
MODEL      160
REMARK 921   NORMALIZED FREE ENERGY PREDICTED BY IDOCK:   30.43 KCAL/MOL
REMARK 922        TOTAL FREE ENERGY PREDICTED BY IDOCK:   36.74 KCAL/MOL
REMARK 923 INTER-LIGAND FREE ENERGY PREDICTED BY IDOCK:   37.63 KCAL/MOL
REMARK 924 INTRA-LIGAND FREE ENERGY PREDICTED BY IDOCK:   -0.89 KCAL/MOL
REMARK 927      BINDING AFFINITY PREDICTED BY RF-SCORE:    0.00 PKD
ROOT
HETATM    1  O   UNL     1     -14.098  17.088  72.769  1.00  0.00     2.072 OA 
HETATM    2  C   UNL     1     -13.298  17.498  71.761  1.00  0.00    10.658 C  
HETATM    3  O   UNL     1     -13.724  18.143  70.814  1.00  0.00    18.264 OA 
HETATM    4  C   UNL     1     -11.870  17.056  71.939  1.00  0.00     0.917 C  
ENDROOT
BRANCH   4   5
HETATM    5  C   UNL     1     -11.002  17.542  70.779  1.00  0.00     1.594 C  
BRANCH   5   6
HETATM    6  C   UNL     1     -10.301  16.417  70.111  1.00  0.00     0.095 A  
HETATM    7  N   UNL     1      -9.239  15.745  70.494  1.00  0.00     1.066 NA 
HETATM    8  C   UNL     1      -9.011  14.852  69.456  1.00  0.00     0.027 A  
HETATM    9  C   UNL     1      -9.962  15.041  68.465  1.00  0.00    -0.219 A  
HETATM   10  O   UNL     1     -10.804  16.034  68.906  1.00  0.00    -0.250 OA 
BRANCH   8  11
HETATM   11  C   UNL     1      -7.909  13.901  69.495  1.00  0.00     0.500 A  
HETATM   12  C   UNL     1      -7.936  12.760  70.308  1.00  0.00     3.644 A  
HETATM   13  C   UNL     1      -6.754  14.149  68.735  1.00  0.00    -0.098 A  
HETATM   14  C   UNL     1      -6.852  11.876  70.340  1.00  0.00     1.090 A  
HETATM   15  C   UNL     1      -5.664  13.273  68.777  1.00  0.00    -0.074 A  
HETATM   16  C   UNL     1      -5.716  12.135  69.578  1.00  0.00    -0.087 A  
ENDBRANCH   8  11
BRANCH   9  17
HETATM   17  C   UNL     1     -10.275  14.561  67.125  1.00  0.00    -0.260 A  
HETATM   18  C   UNL     1     -10.688  13.578  64.521  1.00  0.00    -0.431 A  
HETATM   19  C   UNL     1      -9.823  15.274  66.001  1.00  0.00    -0.357 A  
HETATM   20  C   UNL     1     -11.166  12.870  65.621  1.00  0.00    -0.325 A  
HETATM   21  C   UNL     1     -10.019  14.784  64.709  1.00  0.00     0.100 A  
HETATM   22  C   UNL     1     -10.955  13.355  66.916  1.00  0.00    -0.295 A  
ENDBRANCH   9  17
ENDBRANCH   5   6
ENDBRANCH   4   5
TORSDOF 4
ENDMDL
MODEL      161
REMARK 921   NORMALIZED FREE ENERGY PREDICTED BY IDOCK:   32.67 KCAL/MOL
REMARK 922        TOTAL FREE ENERGY PREDICTED BY IDOCK:   39.51 KCAL/MOL
REMARK 923 INTER-LIGAND FREE ENERGY PREDICTED BY IDOCK:   37.85 KCAL/MOL
REMARK 924 INTRA-LIGAND FREE ENERGY PREDICTED BY IDOCK:    1.66 KCAL/MOL
REMARK 927      BINDING AFFINITY PREDICTED BY RF-SCORE:    0.00 PKD
ROOT
HETATM    1  O   UNL     1     -14.291  16.728  67.199  1.00  0.00     8.349 OA 
HETATM    2  C   UNL     1     -13.994  15.505  66.706  1.00  0.00     7.652 C  
HETATM    3  O   UNL     1     -14.084  14.492  67.383  1.00  0.00     6.909 OA 
HETATM    4  C   UNL     1     -13.537  15.554  65.272  1.00  0.00     2.610 C  
ENDROOT
BRANCH   4   5
HETATM    5  C   UNL     1     -13.216  14.153  64.756  1.00  0.00     0.548 C  
BRANCH   5   6
HETATM    6  C   UNL     1     -12.109  13.528  65.524  1.00  0.00    -0.419 A  
HETATM    7  N   UNL     1     -11.225  12.633  65.145  1.00  0.00    -0.293 NA 
HETATM    8  C   UNL     1     -10.478  12.388  66.288  1.00  0.00    -0.245 A  
HETATM    9  C   UNL     1     -10.966  13.156  67.335  1.00  0.00    -0.264 A  
HETATM   10  O   UNL     1     -12.001  13.906  66.827  1.00  0.00    -0.396 OA 
BRANCH   8  11
HETATM   11  C   UNL     1      -9.368  11.445  66.288  1.00  0.00    -0.228 A  
HETATM   12  C   UNL     1      -8.092  11.795  66.748  1.00  0.00    -0.133 A  
HETATM   13  C   UNL     1      -9.558  10.155  65.767  1.00  0.00    -0.288 A  
HETATM   14  C   UNL     1      -7.040  10.873  66.716  1.00  0.00    -0.129 A  
HETATM   15  C   UNL     1      -8.503   9.237  65.721  1.00  0.00    -0.144 A  
HETATM   16  C   UNL     1      -7.246   9.596  66.199  1.00  0.00    -0.098 A  
ENDBRANCH   8  11
BRANCH   9  17
HETATM   17  C   UNL     1     -10.755  13.342  68.763  1.00  0.00    -0.257 A  
HETATM   18  C   UNL     1     -10.161  13.765  71.482  1.00  0.00     6.009 A  
HETATM   19  C   UNL     1      -9.937  12.447  69.475  1.00  0.00     1.013 A  
HETATM   20  C   UNL     1     -10.994  14.649  70.801  1.00  0.00     0.118 A  
HETATM   21  C   UNL     1      -9.635  12.660  70.821  1.00  0.00     7.849 A  
HETATM   22  C   UNL     1     -11.284  14.444  69.448  1.00  0.00    -0.317 A  
ENDBRANCH   9  17
ENDBRANCH   5   6
ENDBRANCH   4   5
TORSDOF 4
ENDMDL
