MODEL        1
REMARK 921   NORMALIZED FREE ENERGY PREDICTED BY IDOCK:   -7.65 KCAL/MOL
REMARK 922        TOTAL FREE ENERGY PREDICTED BY IDOCK:   -8.51 KCAL/MOL
REMARK 923 INTER-LIGAND FREE ENERGY PREDICTED BY IDOCK:   -8.10 KCAL/MOL
REMARK 924 INTRA-LIGAND FREE ENERGY PREDICTED BY IDOCK:   -0.41 KCAL/MOL
REMARK 927      BINDING AFFINITY PREDICTED BY RF-SCORE:    0.00 PKD
ROOT
HETATM    1  O   UNL     1     -12.165  14.076  66.465  1.00  0.00    -0.447 OA 
HETATM    2  H   UNL     1     -11.938  13.561  65.700  1.00  0.00     0.000 HD 
HETATM    3  C   UNL     1     -11.824  13.386  67.648  1.00  0.00    -0.354 C  
HETATM    4  N   UNL     1     -12.172  14.176  68.820  1.00  0.00    -0.546 NA 
HETATM    5  H   UNL     1     -12.387  15.168  68.729  1.00  0.00     0.000 HD 
HETATM    6  C   UNL     1     -12.204  13.603  69.977  1.00  0.00    -0.329 C  
HETATM    7  C   UNL     1     -12.764  11.452  71.089  1.00  0.00    -0.479 A  
HETATM    8  C   UNL     1     -11.920  12.154  70.211  1.00  0.00    -0.389 A  
HETATM    9 CL   UNL     1     -13.480   9.302  72.548  1.00  0.00    -0.510 Cl 
HETATM   10  C   UNL     1     -10.803  11.511  69.650  1.00  0.00     0.008 A  
HETATM   11  C   UNL     1     -10.492  10.204  70.052  1.00  0.00    -0.325 A  
HETATM   12  O   UNL     1      -9.439  13.472  66.990  1.00  0.00    -0.234 OA 
HETATM   13  N   UNL     1      -9.954  12.093  68.693  1.00  0.00    -0.361 N  
HETATM   14  C   UNL     1     -11.323   9.519  70.942  1.00  0.00    -0.410 A  
HETATM   15  C   UNL     1     -12.460  10.143  71.449  1.00  0.00    -0.423 A  
HETATM   16  C   UNL     1     -10.307  13.034  67.748  1.00  0.00    -0.226 C  
HETATM   17  H   UNL     1      -8.980  11.790  68.697  1.00  0.00     0.000 HD 
ENDROOT
BRANCH   6  18
HETATM   18  C   UNL     1     -12.554  14.472  71.152  1.00  0.00    -0.406 A  
HETATM   19  C   UNL     1     -11.923  15.812  73.073  1.00  0.00    -0.596 A  
HETATM   20  C   UNL     1     -14.256  15.552  72.502  1.00  0.00    -0.502 A  
HETATM   21  C   UNL     1     -13.901  14.756  71.412  1.00  0.00    -0.509 A  
HETATM   22  C   UNL     1     -13.267  16.072  73.336  1.00  0.00    -0.645 A  
HETATM   23  C   UNL     1     -11.564  15.024  71.977  1.00  0.00    -0.419 A  
ENDBRANCH   6  18
TORSDOF 1
ENDMDL
MODEL        2
REMARK 921   NORMALIZED FREE ENERGY PREDICTED BY IDOCK:   -7.65 KCAL/MOL
REMARK 922        TOTAL FREE ENERGY PREDICTED BY IDOCK:   -8.50 KCAL/MOL
REMARK 923 INTER-LIGAND FREE ENERGY PREDICTED BY IDOCK:   -8.05 KCAL/MOL
REMARK 924 INTRA-LIGAND FREE ENERGY PREDICTED BY IDOCK:   -0.45 KCAL/MOL
REMARK 927      BINDING AFFINITY PREDICTED BY RF-SCORE:    0.00 PKD
ROOT
HETATM    1  O   UNL     1     -12.274  14.040  66.389  1.00  0.00    -0.442 OA 
HETATM    2  H   UNL     1     -12.039  13.536  65.619  1.00  0.00     0.000 HD 
HETATM    3  C   UNL     1     -11.908  13.352  67.565  1.00  0.00    -0.366 C  
HETATM    4  N   UNL     1     -12.269  14.126  68.744  1.00  0.00    -0.546 NA 
HETATM    5  H   UNL     1     -12.510  15.113  68.660  1.00  0.00     0.000 HD 
HETATM    6  C   UNL     1     -12.279  13.546  69.898  1.00  0.00    -0.292 C  
HETATM    7  C   UNL     1     -12.775  11.374  71.000  1.00  0.00    -0.447 A  
HETATM    8  C   UNL     1     -11.956  12.103  70.122  1.00  0.00    -0.394 A  
HETATM    9 CL   UNL     1     -13.426   9.197  72.450  1.00  0.00    -0.520 Cl 
HETATM   10  C   UNL     1     -10.825  11.493  69.549  1.00  0.00    -0.064 A  
HETATM   11  C   UNL     1     -10.478  10.193  69.941  1.00  0.00    -0.322 A  
HETATM   12  O   UNL     1      -9.530  13.506  66.893  1.00  0.00    -0.241 OA 
HETATM   13  N   UNL     1      -9.998  12.103  68.590  1.00  0.00    -0.361 N  
HETATM   14  C   UNL     1     -11.286   9.481  70.833  1.00  0.00    -0.411 A  
HETATM   15  C   UNL     1     -12.435  10.072  71.350  1.00  0.00    -0.411 A  
HETATM   16  C   UNL     1     -10.382  13.040  67.654  1.00  0.00    -0.222 C  
HETATM   17  H   UNL     1      -9.017  11.826  68.587  1.00  0.00     0.000 HD 
ENDROOT
BRANCH   6  18
HETATM   18  C   UNL     1     -12.644  14.398  71.080  1.00  0.00    -0.422 A  
HETATM   19  C   UNL     1     -14.281  15.536  72.460  1.00  0.00    -0.502 A  
HETATM   20  C   UNL     1     -11.938  15.652  73.033  1.00  0.00    -0.590 A  
HETATM   21  C   UNL     1     -11.628  14.852  71.933  1.00  0.00    -0.335 A  
HETATM   22  C   UNL     1     -13.263  16.001  73.291  1.00  0.00    -0.651 A  
HETATM   23  C   UNL     1     -13.977  14.727  71.365  1.00  0.00    -0.512 A  
ENDBRANCH   6  18
TORSDOF 1
ENDMDL
MODEL        3
REMARK 921   NORMALIZED FREE ENERGY PREDICTED BY IDOCK:   -7.62 KCAL/MOL
REMARK 922        TOTAL FREE ENERGY PREDICTED BY IDOCK:   -8.48 KCAL/MOL
REMARK 923 INTER-LIGAND FREE ENERGY PREDICTED BY IDOCK:   -8.06 KCAL/MOL
REMARK 924 INTRA-LIGAND FREE ENERGY PREDICTED BY IDOCK:   -0.42 KCAL/MOL
REMARK 927      BINDING AFFINITY PREDICTED BY RF-SCORE:    0.00 PKD
ROOT
HETATM    1  O   UNL     1     -12.498  14.216  63.085  1.00  0.00    -1.126 OA 
HETATM    2  H   UNL     1     -13.083  13.488  62.908  1.00  0.00     0.000 HD 
HETATM    3  C   UNL     1     -11.974  14.126  64.391  1.00  0.00    -0.457 C  
HETATM    4  N   UNL     1     -11.078  15.241  64.662  1.00  0.00    -0.631 NA 
HETATM    5  H   UNL     1     -10.728  15.819  63.898  1.00  0.00     0.000 HD 
HETATM    6  C   UNL     1     -10.733  15.489  65.881  1.00  0.00    -0.339 C  
HETATM    7  C   UNL     1     -11.585  15.427  68.215  1.00  0.00    -0.361 A  
HETATM    8  C   UNL     1     -11.204  14.711  67.068  1.00  0.00    -0.348 A  
HETATM    9 CL   UNL     1     -12.331  15.634  70.797  1.00  0.00    -0.446 Cl 
HETATM   10  C   UNL     1     -11.196  13.305  67.091  1.00  0.00    -0.299 A  
HETATM   11  C   UNL     1     -11.476  12.639  68.292  1.00  0.00    -0.356 A  
HETATM   12  O   UNL     1     -10.856  12.004  63.778  1.00  0.00    -0.340 OA 
HETATM   13  N   UNL     1     -10.922  12.498  65.973  1.00  0.00    -0.274 N  
HETATM   14  C   UNL     1     -11.833  13.359  69.436  1.00  0.00    -0.390 A  
HETATM   15  C   UNL     1     -11.895  14.749  69.389  1.00  0.00    -0.323 A  
HETATM   16  C   UNL     1     -11.180  12.808  64.655  1.00  0.00    -0.319 C  
HETATM   17  H   UNL     1     -10.489  11.593  66.155  1.00  0.00     0.000 HD 
ENDROOT
BRANCH   6  18
HETATM   18  C   UNL     1      -9.795  16.643  66.097  1.00  0.00    -0.340 A  
HETATM   19  C   UNL     1      -9.359  19.015  66.348  1.00  0.00    -0.358 A  
HETATM   20  C   UNL     1      -7.531  17.440  66.455  1.00  0.00    -0.341 A  
HETATM   21  C   UNL     1      -8.427  16.387  66.262  1.00  0.00    -0.372 A  
HETATM   22  C   UNL     1      -7.997  18.754  66.489  1.00  0.00    -0.294 A  
HETATM   23  C   UNL     1     -10.259  17.964  66.164  1.00  0.00    -0.343 A  
ENDBRANCH   6  18
TORSDOF 1
ENDMDL
MODEL        4
REMARK 921   NORMALIZED FREE ENERGY PREDICTED BY IDOCK:   -7.60 KCAL/MOL
REMARK 922        TOTAL FREE ENERGY PREDICTED BY IDOCK:   -8.46 KCAL/MOL
REMARK 923 INTER-LIGAND FREE ENERGY PREDICTED BY IDOCK:   -8.06 KCAL/MOL
REMARK 924 INTRA-LIGAND FREE ENERGY PREDICTED BY IDOCK:   -0.40 KCAL/MOL
REMARK 927      BINDING AFFINITY PREDICTED BY RF-SCORE:    0.00 PKD
ROOT
HETATM    1  O   UNL     1     -12.451  14.269  63.109  1.00  0.00    -1.102 OA 
HETATM    2  H   UNL     1     -12.995  13.509  62.940  1.00  0.00     0.000 HD 
HETATM    3  C   UNL     1     -11.925  14.222  64.418  1.00  0.00    -0.456 C  
HETATM    4  N   UNL     1     -11.092  15.388  64.677  1.00  0.00    -0.646 NA 
HETATM    5  H   UNL     1     -10.772  15.975  63.907  1.00  0.00     0.000 HD 
HETATM    6  C   UNL     1     -10.763  15.667  65.893  1.00  0.00    -0.329 C  
HETATM    7  C   UNL     1     -11.615  15.586  68.227  1.00  0.00    -0.344 A  
HETATM    8  C   UNL     1     -11.193  14.878  67.088  1.00  0.00    -0.345 A  
HETATM    9 CL   UNL     1     -12.376  15.781  70.805  1.00  0.00    -0.451 Cl 
HETATM   10  C   UNL     1     -11.109  13.475  67.127  1.00  0.00    -0.293 A  
HETATM   11  C   UNL     1     -11.355  12.808  68.336  1.00  0.00    -0.331 A  
HETATM   12  O   UNL     1     -10.693  12.157  63.830  1.00  0.00    -0.357 OA 
HETATM   13  N   UNL     1     -10.789  12.671  66.019  1.00  0.00    -0.272 N  
HETATM   14  C   UNL     1     -11.753  13.521  69.470  1.00  0.00    -0.382 A  
HETATM   15  C   UNL     1     -11.890  14.904  69.408  1.00  0.00    -0.324 A  
HETATM   16  C   UNL     1     -11.062  12.953  64.697  1.00  0.00    -0.324 C  
HETATM   17  H   UNL     1     -10.308  11.793  66.212  1.00  0.00     0.000 HD 
ENDROOT
BRANCH   6  18
HETATM   18  C   UNL     1      -9.889  16.873  66.098  1.00  0.00    -0.318 A  
HETATM   19  C   UNL     1      -7.715  17.896  66.426  1.00  0.00    -0.311 A  
HETATM   20  C   UNL     1      -9.693  19.279  66.341  1.00  0.00    -0.435 A  
HETATM   21  C   UNL     1     -10.480  18.143  66.143  1.00  0.00    -0.377 A  
HETATM   22  C   UNL     1      -8.313  19.153  66.491  1.00  0.00    -0.324 A  
HETATM   23  C   UNL     1      -8.497  16.758  66.218  1.00  0.00    -0.342 A  
ENDBRANCH   6  18
TORSDOF 1
ENDMDL
MODEL        5
REMARK 921   NORMALIZED FREE ENERGY PREDICTED BY IDOCK:   -7.60 KCAL/MOL
REMARK 922        TOTAL FREE ENERGY PREDICTED BY IDOCK:   -8.45 KCAL/MOL
REMARK 923 INTER-LIGAND FREE ENERGY PREDICTED BY IDOCK:   -7.97 KCAL/MOL
REMARK 924 INTRA-LIGAND FREE ENERGY PREDICTED BY IDOCK:   -0.47 KCAL/MOL
REMARK 927      BINDING AFFINITY PREDICTED BY RF-SCORE:    0.00 PKD
ROOT
HETATM    1  O   UNL     1     -11.505  16.382  63.723  1.00  0.00    -1.590 OA 
HETATM    2  H   UNL     1     -12.124  15.822  63.270  1.00  0.00     0.000 HD 
HETATM    3  C   UNL     1     -11.271  15.909  65.031  1.00  0.00    -0.290 C  
HETATM    4  N   UNL     1     -10.323  16.769  65.725  1.00  0.00    -0.505 NA 
HETATM    5  H   UNL     1      -9.759  17.442  65.205  1.00  0.00     0.000 HD 
HETATM    6  C   UNL     1     -10.205  16.670  67.007  1.00  0.00    -0.290 C  
HETATM    7  C   UNL     1     -11.514  16.214  69.070  1.00  0.00    -0.323 A  
HETATM    8  C   UNL     1     -10.995  15.728  67.858  1.00  0.00    -0.324 A  
HETATM    9 CL   UNL     1     -12.737  15.941  71.456  1.00  0.00    -0.496 Cl 
HETATM   10  C   UNL     1     -11.158  14.373  67.519  1.00  0.00    -0.302 A  
HETATM   11  C   UNL     1     -11.753  13.504  68.445  1.00  0.00    -0.393 A  
HETATM   12  O   UNL     1     -10.311  13.831  64.088  1.00  0.00    -0.267 OA 
HETATM   13  N   UNL     1     -10.761  13.810  66.294  1.00  0.00    -0.284 N  
HETATM   14  C   UNL     1     -12.247  13.990  69.658  1.00  0.00    -0.383 A  
HETATM   15  C   UNL     1     -12.133  15.343  69.961  1.00  0.00    -0.359 A  
HETATM   16  C   UNL     1     -10.709  14.454  65.076  1.00  0.00    -0.423 C  
HETATM   17  H   UNL     1     -10.484  12.829  66.307  1.00  0.00     0.000 HD 
ENDROOT
BRANCH   6  18
HETATM   18  C   UNL     1      -9.201  17.572  67.666  1.00  0.00    -0.243 A  
HETATM   19  C   UNL     1      -7.086  17.939  68.795  1.00  0.00    -0.268 A  
HETATM   20  C   UNL     1      -8.560  19.804  68.367  1.00  0.00    -0.296 A  
HETATM   21  C   UNL     1      -9.471  18.944  67.752  1.00  0.00    -0.342 A  
HETATM   22  C   UNL     1      -7.372  19.300  68.896  1.00  0.00    -0.392 A  
HETATM   23  C   UNL     1      -7.990  17.077  68.172  1.00  0.00    -0.206 A  
ENDBRANCH   6  18
TORSDOF 1
ENDMDL
MODEL        6
REMARK 921   NORMALIZED FREE ENERGY PREDICTED BY IDOCK:   -7.35 KCAL/MOL
REMARK 922        TOTAL FREE ENERGY PREDICTED BY IDOCK:   -8.19 KCAL/MOL
REMARK 923 INTER-LIGAND FREE ENERGY PREDICTED BY IDOCK:   -7.81 KCAL/MOL
REMARK 924 INTRA-LIGAND FREE ENERGY PREDICTED BY IDOCK:   -0.38 KCAL/MOL
REMARK 927      BINDING AFFINITY PREDICTED BY RF-SCORE:    0.00 PKD
ROOT
HETATM    1  O   UNL     1      -9.907  11.403  68.824  1.00  0.00    -0.238 OA 
HETATM    2  H   UNL     1      -9.431  11.067  68.074  1.00  0.00     0.000 HD 
HETATM    3  C   UNL     1     -10.384  12.706  68.568  1.00  0.00    -0.221 C  
HETATM    4  N   UNL     1     -11.113  13.220  69.718  1.00  0.00    -0.470 NA 
HETATM    5  H   UNL     1     -11.416  12.591  70.461  1.00  0.00     0.000 HD 
HETATM    6  C   UNL     1     -11.372  14.483  69.785  1.00  0.00    -0.260 C  
HETATM    7  C   UNL     1     -10.439  16.713  69.204  1.00  0.00    -0.333 A  
HETATM    8  C   UNL     1     -10.959  15.487  68.756  1.00  0.00    -0.270 A  
HETATM    9 CL   UNL     1      -9.567  19.239  68.855  1.00  0.00    -0.467 Cl 
HETATM   10  C   UNL     1     -11.151  15.269  67.380  1.00  0.00    -0.326 A  
HETATM   11  C   UNL     1     -10.911  16.318  66.481  1.00  0.00    -0.105 A  
HETATM   12  O   UNL     1     -11.796  11.810  66.741  1.00  0.00    -0.586 OA 
HETATM   13  N   UNL     1     -11.575  14.049  66.824  1.00  0.00    -0.366 N  
HETATM   14  C   UNL     1     -10.415  17.542  66.937  1.00  0.00    -0.285 A  
HETATM   15  C   UNL     1     -10.173  17.730  68.294  1.00  0.00    -0.382 A  
HETATM   16  C   UNL     1     -11.333  12.790  67.331  1.00  0.00    -0.313 C  
HETATM   17  H   UNL     1     -12.115  14.100  65.961  1.00  0.00     0.000 HD 
ENDROOT
BRANCH   6  18
HETATM   18  C   UNL     1     -12.140  14.954  70.987  1.00  0.00    -0.380 A  
HETATM   19  C   UNL     1     -14.217  15.553  72.087  1.00  0.00    -0.617 A  
HETATM   20  C   UNL     1     -12.134  15.679  73.303  1.00  0.00    -0.600 A  
HETATM   21  C   UNL     1     -11.447  15.231  72.173  1.00  0.00    -0.499 A  
HETATM   22  C   UNL     1     -13.518  15.847  73.256  1.00  0.00    -0.599 A  
HETATM   23  C   UNL     1     -13.535  15.095  70.958  1.00  0.00    -0.493 A  
ENDBRANCH   6  18
TORSDOF 1
ENDMDL
MODEL        7
REMARK 921   NORMALIZED FREE ENERGY PREDICTED BY IDOCK:   -7.02 KCAL/MOL
REMARK 922        TOTAL FREE ENERGY PREDICTED BY IDOCK:   -7.84 KCAL/MOL
REMARK 923 INTER-LIGAND FREE ENERGY PREDICTED BY IDOCK:   -7.36 KCAL/MOL
REMARK 924 INTRA-LIGAND FREE ENERGY PREDICTED BY IDOCK:   -0.48 KCAL/MOL
REMARK 927      BINDING AFFINITY PREDICTED BY RF-SCORE:    0.00 PKD
ROOT
HETATM    1  O   UNL     1     -12.395  14.032  62.860  1.00  0.00    -1.011 OA 
HETATM    2  H   UNL     1     -12.933  13.331  62.511  1.00  0.00     0.000 HD 
HETATM    3  C   UNL     1     -11.851  13.666  64.109  1.00  0.00    -0.422 C  
HETATM    4  N   UNL     1     -11.027  14.741  64.643  1.00  0.00    -0.596 NA 
HETATM    5  H   UNL     1     -10.724  15.508  64.042  1.00  0.00     0.000 HD 
HETATM    6  C   UNL     1     -10.685  14.711  65.888  1.00  0.00    -0.309 C  
HETATM    7  C   UNL     1     -11.503  14.034  68.135  1.00  0.00    -0.341 A  
HETATM    8  C   UNL     1     -11.089  13.641  66.851  1.00  0.00    -0.314 A  
HETATM    9 CL   UNL     1     -12.230  13.565  70.687  1.00  0.00    -0.437 Cl 
HETATM   10  C   UNL     1     -10.989  12.275  66.535  1.00  0.00    -0.279 A  
HETATM   11  C   UNL     1     -11.211  11.322  67.540  1.00  0.00    -0.357 A  
HETATM   12  O   UNL     1     -10.604  11.833  63.008  1.00  0.00    -0.298 OA 
HETATM   13  N   UNL     1     -10.676  11.779  65.257  1.00  0.00    -0.279 N  
HETATM   14  C   UNL     1     -11.601  11.721  68.821  1.00  0.00    -0.367 A  
HETATM   15  C   UNL     1     -11.754  13.074  69.109  1.00  0.00    -0.326 A  
HETATM   16  C   UNL     1     -10.970  12.380  64.051  1.00  0.00    -0.391 C  
HETATM   17  H   UNL     1     -10.182  10.888  65.218  1.00  0.00     0.000 HD 
ENDROOT
BRANCH   6  18
HETATM   18  C   UNL     1      -9.821  15.839  66.379  1.00  0.00    -0.296 A  
HETATM   19  C   UNL     1      -7.733  16.689  67.272  1.00  0.00    -0.198 A  
HETATM   20  C   UNL     1      -9.565  18.205  66.848  1.00  0.00    -0.299 A  
HETATM   21  C   UNL     1     -10.341  17.140  66.388  1.00  0.00    -0.307 A  
HETATM   22  C   UNL     1      -8.265  17.977  67.297  1.00  0.00    -0.224 A  
HETATM   23  C   UNL     1      -8.503  15.623  66.804  1.00  0.00    -0.307 A  
ENDBRANCH   6  18
TORSDOF 1
ENDMDL
MODEL        8
REMARK 921   NORMALIZED FREE ENERGY PREDICTED BY IDOCK:   -6.98 KCAL/MOL
REMARK 922        TOTAL FREE ENERGY PREDICTED BY IDOCK:   -7.79 KCAL/MOL
REMARK 923 INTER-LIGAND FREE ENERGY PREDICTED BY IDOCK:   -7.34 KCAL/MOL
REMARK 924 INTRA-LIGAND FREE ENERGY PREDICTED BY IDOCK:   -0.45 KCAL/MOL
REMARK 927      BINDING AFFINITY PREDICTED BY RF-SCORE:    0.00 PKD
ROOT
HETATM    1  O   UNL     1     -11.288  11.265  63.183  1.00  0.00    -0.837 OA 
HETATM    2  H   UNL     1     -11.110  11.596  62.311  1.00  0.00     0.000 HD 
HETATM    3  C   UNL     1     -10.956  12.229  64.158  1.00  0.00    -0.363 C  
HETATM    4  N   UNL     1     -11.229  11.721  65.495  1.00  0.00    -0.292 NA 
HETATM    5  H   UNL     1     -11.808  10.891  65.624  1.00  0.00     0.000 HD 
HETATM    6  C   UNL     1     -10.728  12.334  66.515  1.00  0.00    -0.246 C  
HETATM    7  C   UNL     1      -8.721  13.600  67.255  1.00  0.00    -0.223 A  
HETATM    8  C   UNL     1      -9.856  13.546  66.429  1.00  0.00    -0.299 A  
HETATM    9 CL   UNL     1      -6.589  14.830  68.352  1.00  0.00    -0.094 Cl 
HETATM   10  C   UNL     1     -10.185  14.646  65.617  1.00  0.00    -0.359 A  
HETATM   11  C   UNL     1      -9.426  15.821  65.717  1.00  0.00    -0.334 A  
HETATM   12  O   UNL     1     -12.689  13.736  63.232  1.00  0.00    -0.783 OA 
HETATM   13  N   UNL     1     -11.241  14.657  64.689  1.00  0.00    -0.548 N  
HETATM   14  C   UNL     1      -8.311  15.875  66.558  1.00  0.00    -0.330 A  
HETATM   15  C   UNL     1      -7.959  14.762  67.315  1.00  0.00    -0.205 A  
HETATM   16  C   UNL     1     -11.734  13.572  63.996  1.00  0.00    -0.395 C  
HETATM   17  H   UNL     1     -11.688  15.557  64.512  1.00  0.00     0.000 HD 
ENDROOT
BRANCH   6  18
HETATM   18  C   UNL     1     -11.056  11.773  67.870  1.00  0.00    -0.302 A  
HETATM   19  C   UNL     1     -10.999   9.981  69.503  1.00  0.00    -0.289 A  
HETATM   20  C   UNL     1     -12.074  12.074  70.051  1.00  0.00    -0.355 A  
HETATM   21  C   UNL     1     -11.748  12.573  68.789  1.00  0.00    -0.371 A  
HETATM   22  C   UNL     1     -11.707  10.776  70.404  1.00  0.00    -0.445 A  
HETATM   23  C   UNL     1     -10.663  10.480  68.243  1.00  0.00    -0.270 A  
ENDBRANCH   6  18
TORSDOF 1
ENDMDL
MODEL        9
REMARK 921   NORMALIZED FREE ENERGY PREDICTED BY IDOCK:   -6.97 KCAL/MOL
REMARK 922        TOTAL FREE ENERGY PREDICTED BY IDOCK:   -7.79 KCAL/MOL
REMARK 923 INTER-LIGAND FREE ENERGY PREDICTED BY IDOCK:   -7.73 KCAL/MOL
REMARK 924 INTRA-LIGAND FREE ENERGY PREDICTED BY IDOCK:   -0.05 KCAL/MOL
REMARK 927      BINDING AFFINITY PREDICTED BY RF-SCORE:    0.00 PKD
ROOT
HETATM    1  O   UNL     1     -14.323  15.558  72.306  1.00  0.00    -0.562 OA 
HETATM    2  H   UNL     1     -14.494  16.490  72.238  1.00  0.00     0.000 HD 
HETATM    3  C   UNL     1     -13.351  15.161  71.363  1.00  0.00    -0.467 C  
HETATM    4  N   UNL     1     -13.089  13.733  71.467  1.00  0.00    -0.353 NA 
HETATM    5  H   UNL     1     -13.403  13.209  72.284  1.00  0.00     0.000 HD 
HETATM    6  C   UNL     1     -12.456  13.139  70.512  1.00  0.00    -0.248 C  
HETATM    7  C   UNL     1     -12.157  13.154  68.045  1.00  0.00    -0.240 A  
HETATM    8  C   UNL     1     -11.970  13.815  69.270  1.00  0.00    -0.399 A  
HETATM    9 CL   UNL     1     -11.808  12.842  65.391  1.00  0.00    -0.427 Cl 
HETATM   10  C   UNL     1     -11.270  15.034  69.309  1.00  0.00    -0.286 A  
HETATM   11  C   UNL     1     -10.685  15.524  68.132  1.00  0.00    -0.282 A  
HETATM   12  O   UNL     1     -11.694  16.619  72.486  1.00  0.00    -0.485 OA 
HETATM   13  N   UNL     1     -11.110  15.818  70.465  1.00  0.00    -0.343 N  
HETATM   14  C   UNL     1     -10.857  14.850  66.921  1.00  0.00    -0.319 A  
HETATM   15  C   UNL     1     -11.600  13.674  66.881  1.00  0.00    -0.367 A  
HETATM   16  C   UNL     1     -11.988  15.904  71.524  1.00  0.00    -0.471 C  
HETATM   17  H   UNL     1     -10.260  16.379  70.526  1.00  0.00     0.000 HD 
ENDROOT
BRANCH   6  18
HETATM   18  C   UNL     1     -12.201  11.667  70.682  1.00  0.00    -0.461 A  
HETATM   19  C   UNL     1     -10.992   9.638  70.134  1.00  0.00    -0.320 A  
HETATM   20  C   UNL     1     -12.770   9.574  71.768  1.00  0.00    -0.492 A  
HETATM   21  C   UNL     1     -12.977  10.943  71.597  1.00  0.00    -0.569 A  
HETATM   22  C   UNL     1     -11.783   8.921  71.031  1.00  0.00    -0.340 A  
HETATM   23  C   UNL     1     -11.190  11.010  69.967  1.00  0.00    -0.303 A  
ENDBRANCH   6  18
TORSDOF 1
ENDMDL
MODEL       10
REMARK 921   NORMALIZED FREE ENERGY PREDICTED BY IDOCK:   -6.97 KCAL/MOL
REMARK 922        TOTAL FREE ENERGY PREDICTED BY IDOCK:   -7.78 KCAL/MOL
REMARK 923 INTER-LIGAND FREE ENERGY PREDICTED BY IDOCK:   -7.37 KCAL/MOL
REMARK 924 INTRA-LIGAND FREE ENERGY PREDICTED BY IDOCK:   -0.42 KCAL/MOL
REMARK 927      BINDING AFFINITY PREDICTED BY RF-SCORE:    0.00 PKD
ROOT
HETATM    1  O   UNL     1     -13.939   8.963  73.358  1.00  0.00    -1.236 OA 
HETATM    2  H   UNL     1     -13.985   8.176  73.887  1.00  0.00     0.000 HD 
HETATM    3  C   UNL     1     -13.000   8.808  72.317  1.00  0.00    -0.408 C  
HETATM    4  N   UNL     1     -12.930  10.015  71.506  1.00  0.00    -0.399 NA 
HETATM    5  H   UNL     1     -13.657  10.727  71.576  1.00  0.00     0.000 HD 
HETATM    6  C   UNL     1     -11.937  10.171  70.696  1.00  0.00    -0.332 C  
HETATM    7  C   UNL     1      -9.509   9.699  70.450  1.00  0.00    -0.280 A  
HETATM    8  C   UNL     1     -10.817   9.194  70.532  1.00  0.00    -0.306 A  
HETATM    9 CL   UNL     1      -6.856   9.479  70.029  1.00  0.00    -0.064 Cl 
HETATM   10  C   UNL     1     -11.046   7.815  70.377  1.00  0.00    -0.251 A  
HETATM   11  C   UNL     1      -9.972   6.976  70.046  1.00  0.00    -0.188 A  
HETATM   12  O   UNL     1     -14.378   6.982  71.370  1.00  0.00    -0.330 OA 
HETATM   13  N   UNL     1     -12.300   7.199  70.533  1.00  0.00    -0.607 N  
HETATM   14  C   UNL     1      -8.676   7.490  69.946  1.00  0.00    -0.140 A  
HETATM   15  C   UNL     1      -8.450   8.847  70.157  1.00  0.00    -0.146 A  
HETATM   16  C   UNL     1     -13.320   7.615  71.362  1.00  0.00    -0.288 C  
HETATM   17  H   UNL     1     -12.473   6.361  69.977  1.00  0.00     0.000 HD 
ENDROOT
BRANCH   6  18
HETATM   18  C   UNL     1     -11.926  11.429  69.873  1.00  0.00    -0.434 A  
HETATM   19  C   UNL     1     -11.782  12.580  67.744  1.00  0.00    -0.419 A  
HETATM   20  C   UNL     1     -12.049  13.850  69.780  1.00  0.00    -0.404 A  
HETATM   21  C   UNL     1     -12.065  12.665  70.518  1.00  0.00    -0.360 A  
HETATM   22  C   UNL     1     -11.899  13.807  68.395  1.00  0.00    -0.411 A  
HETATM   23  C   UNL     1     -11.808  11.392  68.477  1.00  0.00    -0.364 A  
ENDBRANCH   6  18
TORSDOF 1
ENDMDL
MODEL       11
REMARK 921   NORMALIZED FREE ENERGY PREDICTED BY IDOCK:   -6.93 KCAL/MOL
REMARK 922        TOTAL FREE ENERGY PREDICTED BY IDOCK:   -7.75 KCAL/MOL
REMARK 923 INTER-LIGAND FREE ENERGY PREDICTED BY IDOCK:   -7.29 KCAL/MOL
REMARK 924 INTRA-LIGAND FREE ENERGY PREDICTED BY IDOCK:   -0.46 KCAL/MOL
REMARK 927      BINDING AFFINITY PREDICTED BY RF-SCORE:    0.00 PKD
ROOT
HETATM    1  O   UNL     1     -12.889  13.953  65.034  1.00  0.00    -0.693 OA 
HETATM    2  H   UNL     1     -13.496  13.240  64.876  1.00  0.00     0.000 HD 
HETATM    3  C   UNL     1     -12.456  13.951  66.377  1.00  0.00    -0.370 C  
HETATM    4  N   UNL     1     -11.526  15.045  66.617  1.00  0.00    -0.302 NA 
HETATM    5  H   UNL     1     -11.099  15.541  65.836  1.00  0.00     0.000 HD 
HETATM    6  C   UNL     1     -11.250  15.378  67.834  1.00  0.00    -0.329 C  
HETATM    7  C   UNL     1     -12.254  15.550  70.100  1.00  0.00    -0.404 A  
HETATM    8  C   UNL     1     -11.835  14.724  69.044  1.00  0.00    -0.337 A  
HETATM    9 CL   UNL     1     -13.156  16.005  72.599  1.00  0.00    -0.519 Cl 
HETATM   10  C   UNL     1     -11.897  13.326  69.181  1.00  0.00    -0.329 A  
HETATM   11  C   UNL     1     -12.288  12.776  70.410  1.00  0.00    -0.324 A  
HETATM   12  O   UNL     1     -11.407  11.738  66.015  1.00  0.00    -0.330 OA 
HETATM   13  N   UNL     1     -11.591  12.416  68.153  1.00  0.00    -0.321 N  
HETATM   14  C   UNL     1     -12.683  13.604  71.464  1.00  0.00    -0.420 A  
HETATM   15  C   UNL     1     -12.674  14.986  71.301  1.00  0.00    -0.348 A  
HETATM   16  C   UNL     1     -11.747  12.626  66.800  1.00  0.00    -0.392 C  
HETATM   17  H   UNL     1     -11.216  11.511  68.437  1.00  0.00     0.000 HD 
ENDROOT
BRANCH   6  18
HETATM   18  C   UNL     1     -10.272  16.504  68.021  1.00  0.00    -0.271 A  
HETATM   19  C   UNL     1      -9.706  18.862  67.983  1.00  0.00    -0.386 A  
HETATM   20  C   UNL     1      -8.033  17.235  68.603  1.00  0.00    -0.267 A  
HETATM   21  C   UNL     1      -8.965  16.210  68.431  1.00  0.00    -0.196 A  
HETATM   22  C   UNL     1      -8.403  18.559  68.371  1.00  0.00    -0.355 A  
HETATM   23  C   UNL     1     -10.644  17.841  67.820  1.00  0.00    -0.392 A  
ENDBRANCH   6  18
TORSDOF 1
ENDMDL
MODEL       12
REMARK 921   NORMALIZED FREE ENERGY PREDICTED BY IDOCK:   -6.91 KCAL/MOL
REMARK 922        TOTAL FREE ENERGY PREDICTED BY IDOCK:   -7.73 KCAL/MOL
REMARK 923 INTER-LIGAND FREE ENERGY PREDICTED BY IDOCK:   -7.74 KCAL/MOL
REMARK 924 INTRA-LIGAND FREE ENERGY PREDICTED BY IDOCK:    0.01 KCAL/MOL
REMARK 927      BINDING AFFINITY PREDICTED BY RF-SCORE:    0.00 PKD
ROOT
HETATM    1  O   UNL     1     -14.386  15.608  72.424  1.00  0.00    -0.546 OA 
HETATM    2  H   UNL     1     -14.532  16.544  72.345  1.00  0.00     0.000 HD 
HETATM    3  C   UNL     1     -13.396  15.182  71.514  1.00  0.00    -0.448 C  
HETATM    4  N   UNL     1     -13.172  13.748  71.635  1.00  0.00    -0.363 NA 
HETATM    5  H   UNL     1     -13.523  13.237  72.445  1.00  0.00     0.000 HD 
HETATM    6  C   UNL     1     -12.525  13.132  70.703  1.00  0.00    -0.286 C  
HETATM    7  C   UNL     1     -12.153  13.122  68.246  1.00  0.00    -0.217 A  
HETATM    8  C   UNL     1     -11.986  13.787  69.472  1.00  0.00    -0.399 A  
HETATM    9 CL   UNL     1     -11.733  12.783  65.605  1.00  0.00    -0.416 Cl 
HETATM   10  C   UNL     1     -11.259  14.990  69.524  1.00  0.00    -0.276 A  
HETATM   11  C   UNL     1     -10.627  15.457  68.362  1.00  0.00    -0.247 A  
HETATM   12  O   UNL     1     -11.738  16.607  72.676  1.00  0.00    -0.486 OA 
HETATM   13  N   UNL     1     -11.114  15.778  70.679  1.00  0.00    -0.342 N  
HETATM   14  C   UNL     1     -10.780  14.778  67.150  1.00  0.00    -0.299 A  
HETATM   15  C   UNL     1     -11.549  13.620  67.096  1.00  0.00    -0.361 A  
HETATM   16  C   UNL     1     -12.021  15.892  71.711  1.00  0.00    -0.494 C  
HETATM   17  H   UNL     1     -10.253  16.318  70.761  1.00  0.00     0.000 HD 
ENDROOT
BRANCH   6  18
HETATM   18  C   UNL     1     -12.312  11.656  70.890  1.00  0.00    -0.436 A  
HETATM   19  C   UNL     1     -12.888   9.534  71.912  1.00  0.00    -0.508 A  
HETATM   20  C   UNL     1     -11.066   9.651  70.331  1.00  0.00    -0.346 A  
HETATM   21  C   UNL     1     -11.293  11.019  70.170  1.00  0.00    -0.335 A  
HETATM   22  C   UNL     1     -11.858   8.911  71.208  1.00  0.00    -0.371 A  
HETATM   23  C   UNL     1     -13.124  10.899  71.746  1.00  0.00    -0.564 A  
ENDBRANCH   6  18
TORSDOF 1
ENDMDL
MODEL       13
REMARK 921   NORMALIZED FREE ENERGY PREDICTED BY IDOCK:   -6.75 KCAL/MOL
REMARK 922        TOTAL FREE ENERGY PREDICTED BY IDOCK:   -7.55 KCAL/MOL
REMARK 923 INTER-LIGAND FREE ENERGY PREDICTED BY IDOCK:   -7.13 KCAL/MOL
REMARK 924 INTRA-LIGAND FREE ENERGY PREDICTED BY IDOCK:   -0.42 KCAL/MOL
REMARK 927      BINDING AFFINITY PREDICTED BY RF-SCORE:    0.00 PKD
ROOT
HETATM    1  O   UNL     1      -8.301  12.539  68.493  1.00  0.00    -0.258 OA 
HETATM    2  H   UNL     1      -7.693  12.357  67.785  1.00  0.00     0.000 HD 
HETATM    3  C   UNL     1      -9.105  13.656  68.183  1.00  0.00    -0.195 C  
HETATM    4  N   UNL     1     -10.035  13.935  69.267  1.00  0.00    -0.409 NA 
HETATM    5  H   UNL     1     -10.204  13.240  69.994  1.00  0.00     0.000 HD 
HETATM    6  C   UNL     1     -10.644  15.073  69.296  1.00  0.00    -0.247 C  
HETATM    7  C   UNL     1     -10.336  17.480  68.757  1.00  0.00    -0.358 A  
HETATM    8  C   UNL     1     -10.453  16.161  68.288  1.00  0.00    -0.276 A  
HETATM    9 CL   UNL     1     -10.187  20.152  68.440  1.00  0.00    -0.510 Cl 
HETATM   10  C   UNL     1     -10.469  15.908  66.905  1.00  0.00    -0.309 A  
HETATM   11  C   UNL     1     -10.467  16.990  66.012  1.00  0.00    -0.280 A  
HETATM   12  O   UNL     1     -10.062  12.414  66.267  1.00  0.00    -0.231 OA 
HETATM   13  N   UNL     1     -10.488  14.623  66.336  1.00  0.00    -0.288 N  
HETATM   14  C   UNL     1     -10.373  18.301  66.487  1.00  0.00    -0.410 A  
HETATM   15  C   UNL     1     -10.298  18.538  67.856  1.00  0.00    -0.392 A  
HETATM   16  C   UNL     1      -9.940  13.479  66.877  1.00  0.00    -0.256 C  
HETATM   17  H   UNL     1     -10.953  14.526  65.433  1.00  0.00     0.000 HD 
ENDROOT
BRANCH   6  18
HETATM   18  C   UNL     1     -11.604  15.298  70.430  1.00  0.00    -0.341 A  
HETATM   19  C   UNL     1     -12.078  15.896  72.732  1.00  0.00    -0.611 A  
HETATM   20  C   UNL     1     -13.888  15.304  71.247  1.00  0.00    -0.562 A  
HETATM   21  C   UNL     1     -12.975  15.112  70.209  1.00  0.00    -0.220 A  
HETATM   22  C   UNL     1     -13.438  15.688  72.510  1.00  0.00    -0.630 A  
HETATM   23  C   UNL     1     -11.162  15.714  71.694  1.00  0.00    -0.345 A  
ENDBRANCH   6  18
TORSDOF 1
ENDMDL
MODEL       14
REMARK 921   NORMALIZED FREE ENERGY PREDICTED BY IDOCK:   -6.71 KCAL/MOL
REMARK 922        TOTAL FREE ENERGY PREDICTED BY IDOCK:   -7.51 KCAL/MOL
REMARK 923 INTER-LIGAND FREE ENERGY PREDICTED BY IDOCK:   -7.04 KCAL/MOL
REMARK 924 INTRA-LIGAND FREE ENERGY PREDICTED BY IDOCK:   -0.48 KCAL/MOL
REMARK 927      BINDING AFFINITY PREDICTED BY RF-SCORE:    0.00 PKD
ROOT
HETATM    1  O   UNL     1     -12.571  13.180  64.265  1.00  0.00    -0.610 OA 
HETATM    2  H   UNL     1     -12.278  13.217  63.362  1.00  0.00     0.000 HD 
HETATM    3  C   UNL     1     -11.729  13.953  65.092  1.00  0.00    -0.350 C  
HETATM    4  N   UNL     1     -12.179  13.897  66.476  1.00  0.00    -0.450 NA 
HETATM    5  H   UNL     1     -13.110  13.546  66.703  1.00  0.00     0.000 HD 
HETATM    6  C   UNL     1     -11.384  14.296  67.412  1.00  0.00    -0.332 C  
HETATM    7  C   UNL     1      -8.983  14.373  68.050  1.00  0.00    -0.183 A  
HETATM    8  C   UNL     1      -9.999  14.810  67.183  1.00  0.00    -0.236 A  
HETATM    9 CL   UNL     1      -6.482  14.411  69.052  1.00  0.00    -0.093 Cl 
HETATM   10  C   UNL     1      -9.711  15.765  66.192  1.00  0.00    -0.322 A  
HETATM   11  C   UNL     1      -8.433  16.340  66.147  1.00  0.00    -0.313 A  
HETATM   12  O   UNL     1     -12.403  15.985  63.849  1.00  0.00    -0.855 OA 
HETATM   13  N   UNL     1     -10.630  16.197  65.219  1.00  0.00    -0.397 N  
HETATM   14  C   UNL     1      -7.433  15.917  67.027  1.00  0.00    -0.254 A  
HETATM   15  C   UNL     1      -7.711  14.929  67.967  1.00  0.00    -0.122 A  
HETATM   16  C   UNL     1     -11.660  15.457  64.679  1.00  0.00    -0.311 C  
HETATM   17  H   UNL     1     -10.524  17.152  64.878  1.00  0.00     0.000 HD 
ENDROOT
BRANCH   6  18
HETATM   18  C   UNL     1     -11.908  14.229  68.819  1.00  0.00    -0.377 A  
HETATM   19  C   UNL     1     -12.582  12.976  70.783  1.00  0.00    -0.321 A  
HETATM   20  C   UNL     1     -12.708  15.388  70.794  1.00  0.00    -0.516 A  
HETATM   21  C   UNL     1     -12.211  15.421  69.490  1.00  0.00    -0.277 A  
HETATM   22  C   UNL     1     -12.901  14.165  71.436  1.00  0.00    -0.428 A  
HETATM   23  C   UNL     1     -12.075  13.005  69.482  1.00  0.00    -0.289 A  
ENDBRANCH   6  18
TORSDOF 1
ENDMDL
MODEL       15
REMARK 921   NORMALIZED FREE ENERGY PREDICTED BY IDOCK:   -6.69 KCAL/MOL
REMARK 922        TOTAL FREE ENERGY PREDICTED BY IDOCK:   -7.49 KCAL/MOL
REMARK 923 INTER-LIGAND FREE ENERGY PREDICTED BY IDOCK:   -7.12 KCAL/MOL
REMARK 924 INTRA-LIGAND FREE ENERGY PREDICTED BY IDOCK:   -0.37 KCAL/MOL
REMARK 927      BINDING AFFINITY PREDICTED BY RF-SCORE:    0.00 PKD
ROOT
HETATM    1  O   UNL     1     -11.739  16.632  71.808  1.00  0.00    -0.638 OA 
HETATM    2  H   UNL     1     -11.811  16.610  72.754  1.00  0.00     0.000 HD 
HETATM    3  C   UNL     1     -12.007  15.360  71.259  1.00  0.00    -0.374 C  
HETATM    4  N   UNL     1     -11.895  15.394  69.808  1.00  0.00    -0.325 NA 
HETATM    5  H   UNL     1     -11.877  16.285  69.312  1.00  0.00     0.000 HD 
HETATM    6  C   UNL     1     -11.820  14.281  69.158  1.00  0.00    -0.330 C  
HETATM    7  C   UNL     1     -10.913  11.973  69.312  1.00  0.00    -0.189 A  
HETATM    8  C   UNL     1     -11.824  12.928  69.793  1.00  0.00    -0.380 A  
HETATM    9 CL   UNL     1      -9.873   9.491  69.155  1.00  0.00    -0.169 Cl 
HETATM   10  C   UNL     1     -12.755  12.571  70.785  1.00  0.00    -0.125 A  
HETATM   11  C   UNL     1     -12.823  11.236  71.210  1.00  0.00    -0.491 A  
HETATM   12  O   UNL     1     -14.317  15.487  72.140  1.00  0.00    -0.548 OA 
HETATM   13  N   UNL     1     -13.643  13.472  71.397  1.00  0.00    -0.176 N  
HETATM   14  C   UNL     1     -11.928  10.286  70.711  1.00  0.00    -0.456 A  
HETATM   15  C   UNL     1     -10.971  10.661  69.772  1.00  0.00    -0.280 A  
HETATM   16  C   UNL     1     -13.427  14.817  71.612  1.00  0.00    -0.384 C  
HETATM   17  H   UNL     1     -14.535  13.094  71.714  1.00  0.00     0.000 HD 
ENDROOT
BRANCH   6  18
HETATM   18  C   UNL     1     -11.722  14.378  67.661  1.00  0.00    -0.421 A  
HETATM   19  C   UNL     1     -12.405  13.702  65.434  1.00  0.00    -0.510 A  
HETATM   20  C   UNL     1     -10.697  15.389  65.708  1.00  0.00    -0.360 A  
HETATM   21  C   UNL     1     -10.816  15.285  67.095  1.00  0.00    -0.322 A  
HETATM   22  C   UNL     1     -11.486  14.592  64.879  1.00  0.00    -0.396 A  
HETATM   23  C   UNL     1     -12.534  13.602  66.820  1.00  0.00    -0.241 A  
ENDBRANCH   6  18
TORSDOF 1
ENDMDL
MODEL       16
REMARK 921   NORMALIZED FREE ENERGY PREDICTED BY IDOCK:   -6.67 KCAL/MOL
REMARK 922        TOTAL FREE ENERGY PREDICTED BY IDOCK:   -7.47 KCAL/MOL
REMARK 923 INTER-LIGAND FREE ENERGY PREDICTED BY IDOCK:   -7.53 KCAL/MOL
REMARK 924 INTRA-LIGAND FREE ENERGY PREDICTED BY IDOCK:    0.06 KCAL/MOL
REMARK 927      BINDING AFFINITY PREDICTED BY RF-SCORE:    0.00 PKD
ROOT
HETATM    1  O   UNL     1     -10.710  10.674  63.955  1.00  0.00    -0.432 OA 
HETATM    2  H   UNL     1     -10.494  10.729  63.032  1.00  0.00     0.000 HD 
HETATM    3  C   UNL     1     -10.973  11.957  64.480  1.00  0.00    -0.322 C  
HETATM    4  N   UNL     1     -11.304  11.874  65.895  1.00  0.00    -0.330 NA 
HETATM    5  H   UNL     1     -11.543  10.977  66.318  1.00  0.00     0.000 HD 
HETATM    6  C   UNL     1     -11.292  12.950  66.608  1.00  0.00    -0.317 C  
HETATM    7  C   UNL     1     -10.106  15.119  66.872  1.00  0.00    -0.256 A  
HETATM    8  C   UNL     1     -10.941  14.307  66.086  1.00  0.00    -0.313 A  
HETATM    9 CL   UNL     1      -8.867  17.433  67.483  1.00  0.00    -0.222 Cl 
HETATM   10  C   UNL     1     -11.484  14.810  64.890  1.00  0.00    -0.412 A  
HETATM   11  C   UNL     1     -11.260  16.151  64.549  1.00  0.00    -0.275 A  
HETATM   12  O   UNL     1     -12.913  12.164  62.956  1.00  0.00    -0.535 OA 
HETATM   13  N   UNL     1     -12.251  14.051  63.989  1.00  0.00    -0.761 N  
HETATM   14  C   UNL     1     -10.445  16.960  65.347  1.00  0.00    -0.172 A  
HETATM   15  C   UNL     1      -9.865  16.437  66.499  1.00  0.00    -0.274 A  
HETATM   16  C   UNL     1     -12.146  12.695  63.763  1.00  0.00    -0.522 C  
HETATM   17  H   UNL     1     -12.956  14.554  63.450  1.00  0.00     0.000 HD 
ENDROOT
BRANCH   6  18
HETATM   18  C   UNL     1     -11.657  12.805  68.059  1.00  0.00    -0.388 A  
HETATM   19  C   UNL     1     -12.239  13.753  70.214  1.00  0.00    -0.429 A  
HETATM   20  C   UNL     1     -12.090  11.357  69.956  1.00  0.00    -0.417 A  
HETATM   21  C   UNL     1     -11.762  11.521  68.610  1.00  0.00    -0.389 A  
HETATM   22  C   UNL     1     -12.320  12.473  70.759  1.00  0.00    -0.376 A  
HETATM   23  C   UNL     1     -11.921  13.922  68.865  1.00  0.00    -0.393 A  
ENDBRANCH   6  18
TORSDOF 1
ENDMDL
MODEL       17
REMARK 921   NORMALIZED FREE ENERGY PREDICTED BY IDOCK:   -6.65 KCAL/MOL
REMARK 922        TOTAL FREE ENERGY PREDICTED BY IDOCK:   -7.45 KCAL/MOL
REMARK 923 INTER-LIGAND FREE ENERGY PREDICTED BY IDOCK:   -7.01 KCAL/MOL
REMARK 924 INTRA-LIGAND FREE ENERGY PREDICTED BY IDOCK:   -0.44 KCAL/MOL
REMARK 927      BINDING AFFINITY PREDICTED BY RF-SCORE:    0.00 PKD
ROOT
HETATM    1  O   UNL     1      -7.328  16.764  66.366  1.00  0.00    -0.258 OA 
HETATM    2  H   UNL     1      -6.959  17.392  66.977  1.00  0.00     0.000 HD 
HETATM    3  C   UNL     1      -8.579  16.301  66.826  1.00  0.00    -0.237 C  
HETATM    4  N   UNL     1      -9.143  15.339  65.890  1.00  0.00    -0.452 NA 
HETATM    5  H   UNL     1      -8.765  15.252  64.947  1.00  0.00     0.000 HD 
HETATM    6  C   UNL     1     -10.130  14.597  66.270  1.00  0.00    -0.294 C  
HETATM    7  C   UNL     1     -11.049  13.416  68.254  1.00  0.00    -0.289 A  
HETATM    8  C   UNL     1     -10.743  14.639  67.633  1.00  0.00    -0.271 A  
HETATM    9 CL   UNL     1     -12.145  11.901  70.195  1.00  0.00    -0.395 Cl 
HETATM   10  C   UNL     1     -11.090  15.849  68.259  1.00  0.00    -0.345 A  
HETATM   11  C   UNL     1     -11.825  15.815  69.453  1.00  0.00    -0.361 A  
HETATM   12  O   UNL     1      -9.478  18.600  66.641  1.00  0.00    -0.298 OA 
HETATM   13  N   UNL     1     -10.747  17.121  67.768  1.00  0.00    -0.355 N  
HETATM   14  C   UNL     1     -12.145  14.595  70.054  1.00  0.00    -0.383 A  
HETATM   15  C   UNL     1     -11.748  13.402  69.457  1.00  0.00    -0.324 A  
HETATM   16  C   UNL     1      -9.629  17.438  67.026  1.00  0.00    -0.273 C  
HETATM   17  H   UNL     1     -11.388  17.884  67.981  1.00  0.00     0.000 HD 
ENDROOT
BRANCH   6  18
HETATM   18  C   UNL     1     -10.681  13.634  65.257  1.00  0.00    -0.340 A  
HETATM   19  C   UNL     1     -10.580  11.545  64.029  1.00  0.00    -0.437 A  
HETATM   20  C   UNL     1     -12.396  13.086  63.630  1.00  0.00    -0.499 A  
HETATM   21  C   UNL     1     -11.866  13.958  64.583  1.00  0.00    -0.428 A  
HETATM   22  C   UNL     1     -11.748  11.885  63.348  1.00  0.00    -0.500 A  
HETATM   23  C   UNL     1     -10.052  12.409  64.990  1.00  0.00    -0.269 A  
ENDBRANCH   6  18
TORSDOF 1
ENDMDL
MODEL       18
REMARK 921   NORMALIZED FREE ENERGY PREDICTED BY IDOCK:   -6.63 KCAL/MOL
REMARK 922        TOTAL FREE ENERGY PREDICTED BY IDOCK:   -7.43 KCAL/MOL
REMARK 923 INTER-LIGAND FREE ENERGY PREDICTED BY IDOCK:   -7.05 KCAL/MOL
REMARK 924 INTRA-LIGAND FREE ENERGY PREDICTED BY IDOCK:   -0.37 KCAL/MOL
REMARK 927      BINDING AFFINITY PREDICTED BY RF-SCORE:    0.00 PKD
ROOT
HETATM    1  O   UNL     1      -7.886  17.091  66.310  1.00  0.00    -0.281 OA 
HETATM    2  H   UNL     1      -7.514  17.722  66.915  1.00  0.00     0.000 HD 
HETATM    3  C   UNL     1      -9.035  16.488  66.865  1.00  0.00    -0.219 C  
HETATM    4  N   UNL     1      -9.605  15.521  65.937  1.00  0.00    -0.340 NA 
HETATM    5  H   UNL     1      -9.321  15.515  64.958  1.00  0.00     0.000 HD 
HETATM    6  C   UNL     1     -10.475  14.671  66.371  1.00  0.00    -0.295 C  
HETATM    7  C   UNL     1     -11.070  13.316  68.367  1.00  0.00    -0.299 A  
HETATM    8  C   UNL     1     -10.943  14.590  67.789  1.00  0.00    -0.282 A  
HETATM    9 CL   UNL     1     -11.815  11.613  70.320  1.00  0.00    -0.429 Cl 
HETATM   10  C   UNL     1     -11.331  15.730  68.514  1.00  0.00    -0.374 A  
HETATM   11  C   UNL     1     -11.930  15.570  69.771  1.00  0.00    -0.384 A  
HETATM   12  O   UNL     1     -10.154  18.696  66.901  1.00  0.00    -0.326 OA 
HETATM   13  N   UNL     1     -11.158  17.051  68.063  1.00  0.00    -0.253 N  
HETATM   14  C   UNL     1     -12.074  14.298  70.332  1.00  0.00    -0.409 A  
HETATM   15  C   UNL     1     -11.634  13.178  69.632  1.00  0.00    -0.253 A  
HETATM   16  C   UNL     1     -10.158  17.508  67.232  1.00  0.00    -0.327 C  
HETATM   17  H   UNL     1     -11.840  17.738  68.383  1.00  0.00     0.000 HD 
ENDROOT
BRANCH   6  18
HETATM   18  C   UNL     1     -11.039  13.708  65.365  1.00  0.00    -0.304 A  
HETATM   19  C   UNL     1     -12.910  12.570  64.323  1.00  0.00    -0.350 A  
HETATM   20  C   UNL     1     -10.661  12.129  63.563  1.00  0.00    -0.501 A  
HETATM   21  C   UNL     1     -10.165  13.036  64.500  1.00  0.00    -0.331 A  
HETATM   22  C   UNL     1     -12.032  11.891  63.481  1.00  0.00    -0.567 A  
HETATM   23  C   UNL     1     -12.419  13.486  65.255  1.00  0.00    -0.525 A  
ENDBRANCH   6  18
TORSDOF 1
ENDMDL
MODEL       19
REMARK 921   NORMALIZED FREE ENERGY PREDICTED BY IDOCK:   -6.62 KCAL/MOL
REMARK 922        TOTAL FREE ENERGY PREDICTED BY IDOCK:   -7.42 KCAL/MOL
REMARK 923 INTER-LIGAND FREE ENERGY PREDICTED BY IDOCK:   -6.97 KCAL/MOL
REMARK 924 INTRA-LIGAND FREE ENERGY PREDICTED BY IDOCK:   -0.45 KCAL/MOL
REMARK 927      BINDING AFFINITY PREDICTED BY RF-SCORE:    0.00 PKD
ROOT
HETATM    1  O   UNL     1     -11.811  16.508  72.761  1.00  0.00    -0.539 OA 
HETATM    2  H   UNL     1     -12.166  15.862  73.360  1.00  0.00     0.000 HD 
HETATM    3  C   UNL     1     -11.621  15.947  71.481  1.00  0.00    -0.465 C  
HETATM    4  N   UNL     1     -11.077  16.938  70.563  1.00  0.00    -0.269 NA 
HETATM    5  H   UNL     1     -11.094  17.929  70.803  1.00  0.00     0.000 HD 
HETATM    6  C   UNL     1     -10.571  16.545  69.442  1.00  0.00    -0.329 C  
HETATM    7  C   UNL     1      -9.291  14.682  68.410  1.00  0.00    -0.201 A  
HETATM    8  C   UNL     1     -10.486  15.117  69.007  1.00  0.00    -0.248 A  
HETATM    9 CL   UNL     1      -7.755  12.892  67.105  1.00  0.00    -0.109 Cl 
HETATM   10  C   UNL     1     -11.580  14.240  69.104  1.00  0.00    -0.305 A  
HETATM   11  C   UNL     1     -11.494  12.971  68.514  1.00  0.00    -0.340 A  
HETATM   12  O   UNL     1     -14.063  15.578  71.302  1.00  0.00    -0.548 OA 
HETATM   13  N   UNL     1     -12.783  14.546  69.764  1.00  0.00    -0.550 N  
HETATM   14  C   UNL     1     -10.309  12.552  67.903  1.00  0.00    -0.219 A  
HETATM   15  C   UNL     1      -9.211  13.406  67.862  1.00  0.00    -0.216 A  
HETATM   16  C   UNL     1     -12.933  15.387  70.846  1.00  0.00    -0.478 C  
HETATM   17  H   UNL     1     -13.629  14.103  69.407  1.00  0.00     0.000 HD 
ENDROOT
BRANCH   6  18
HETATM   18  C   UNL     1     -10.038  17.613  68.529  1.00  0.00    -0.375 A  
HETATM   19  C   UNL     1     -10.232  19.036  66.574  1.00  0.00    -0.487 A  
HETATM   20  C   UNL     1      -8.275  19.188  67.982  1.00  0.00    -0.339 A  
HETATM   21  C   UNL     1      -8.799  18.200  68.818  1.00  0.00    -0.227 A  
HETATM   22  C   UNL     1      -8.988  19.599  66.857  1.00  0.00    -0.395 A  
HETATM   23  C   UNL     1     -10.763  18.055  67.413  1.00  0.00    -0.334 A  
ENDBRANCH   6  18
TORSDOF 1
ENDMDL
MODEL       20
REMARK 921   NORMALIZED FREE ENERGY PREDICTED BY IDOCK:   -6.58 KCAL/MOL
REMARK 922        TOTAL FREE ENERGY PREDICTED BY IDOCK:   -7.37 KCAL/MOL
REMARK 923 INTER-LIGAND FREE ENERGY PREDICTED BY IDOCK:   -6.93 KCAL/MOL
REMARK 924 INTRA-LIGAND FREE ENERGY PREDICTED BY IDOCK:   -0.44 KCAL/MOL
REMARK 927      BINDING AFFINITY PREDICTED BY RF-SCORE:    0.00 PKD
ROOT
HETATM    1  O   UNL     1     -11.663  16.556  71.383  1.00  0.00    -0.648 OA 
HETATM    2  H   UNL     1     -11.707  16.547  72.332  1.00  0.00     0.000 HD 
HETATM    3  C   UNL     1     -11.845  15.256  70.865  1.00  0.00    -0.341 C  
HETATM    4  N   UNL     1     -11.777  15.270  69.411  1.00  0.00    -0.320 NA 
HETATM    5  H   UNL     1     -11.842  16.150  68.899  1.00  0.00     0.000 HD 
HETATM    6  C   UNL     1     -11.632  14.154  68.778  1.00  0.00    -0.327 C  
HETATM    7  C   UNL     1     -10.543  11.927  68.947  1.00  0.00    -0.205 A  
HETATM    8  C   UNL     1     -11.512  12.817  69.437  1.00  0.00    -0.321 A  
HETATM    9 CL   UNL     1      -9.316   9.531  68.802  1.00  0.00    -0.145 Cl 
HETATM   10  C   UNL     1     -12.385  12.408  70.461  1.00  0.00    -0.262 A  
HETATM   11  C   UNL     1     -12.337  11.081  70.911  1.00  0.00    -0.503 A  
HETATM   12  O   UNL     1     -14.133  15.220  71.810  1.00  0.00    -0.474 OA 
HETATM   13  N   UNL     1     -13.324  13.250  71.083  1.00  0.00    -0.070 N  
HETATM   14  C   UNL     1     -11.384  10.194  70.403  1.00  0.00    -0.401 A  
HETATM   15  C   UNL     1     -10.486  10.624  69.430  1.00  0.00    -0.225 A  
HETATM   16  C   UNL     1     -13.208  14.611  71.268  1.00  0.00    -0.369 C  
HETATM   17  H   UNL     1     -14.175  12.810  71.433  1.00  0.00     0.000 HD 
ENDROOT
BRANCH   6  18
HETATM   18  C   UNL     1     -11.583  14.229  67.278  1.00  0.00    -0.401 A  
HETATM   19  C   UNL     1     -10.597  15.043  65.217  1.00  0.00    -0.418 A  
HETATM   20  C   UNL     1     -12.508  13.569  65.135  1.00  0.00    -0.495 A  
HETATM   21  C   UNL     1     -12.524  13.510  66.529  1.00  0.00    -0.309 A  
HETATM   22  C   UNL     1     -11.550  14.342  64.480  1.00  0.00    -0.397 A  
HETATM   23  C   UNL     1     -10.603  14.979  66.612  1.00  0.00    -0.301 A  
ENDBRANCH   6  18
TORSDOF 1
ENDMDL
MODEL       21
REMARK 921   NORMALIZED FREE ENERGY PREDICTED BY IDOCK:   -6.53 KCAL/MOL
REMARK 922        TOTAL FREE ENERGY PREDICTED BY IDOCK:   -7.32 KCAL/MOL
REMARK 923 INTER-LIGAND FREE ENERGY PREDICTED BY IDOCK:   -6.84 KCAL/MOL
REMARK 924 INTRA-LIGAND FREE ENERGY PREDICTED BY IDOCK:   -0.48 KCAL/MOL
REMARK 927      BINDING AFFINITY PREDICTED BY RF-SCORE:    0.00 PKD
ROOT
HETATM    1  O   UNL     1     -10.879  14.070  64.185  1.00  0.00    -0.578 OA 
HETATM    2  H   UNL     1     -10.445  14.318  63.377  1.00  0.00     0.000 HD 
HETATM    3  C   UNL     1     -10.453  14.892  65.250  1.00  0.00    -0.404 C  
HETATM    4  N   UNL     1     -11.118  14.511  66.488  1.00  0.00    -0.325 NA 
HETATM    5  H   UNL     1     -11.941  13.909  66.469  1.00  0.00     0.000 HD 
HETATM    6  C   UNL     1     -10.653  14.947  67.611  1.00  0.00    -0.264 C  
HETATM    7  C   UNL     1      -8.529  15.523  68.767  1.00  0.00    -0.190 A  
HETATM    8  C   UNL     1      -9.447  15.820  67.745  1.00  0.00    -0.212 A  
HETATM    9 CL   UNL     1      -6.367  16.029  70.295  1.00  0.00    -0.008 Cl 
HETATM   10  C   UNL     1      -9.256  16.959  66.942  1.00  0.00    -0.238 A  
HETATM   11  C   UNL     1      -8.201  17.835  67.237  1.00  0.00    -0.226 A  
HETATM   12  O   UNL     1     -11.420  16.858  64.097  1.00  0.00    -1.174 OA 
HETATM   13  N   UNL     1     -10.060  17.292  65.838  1.00  0.00    -0.255 N  
HETATM   14  C   UNL     1      -7.305  17.544  68.269  1.00  0.00    -0.223 A  
HETATM   15  C   UNL     1      -7.468  16.385  69.022  1.00  0.00    -0.227 A  
HETATM   16  C   UNL     1     -10.727  16.410  65.014  1.00  0.00    -0.259 C  
HETATM   17  H   UNL     1     -10.162  18.284  65.626  1.00  0.00     0.000 HD 
ENDROOT
BRANCH   6  18
HETATM   18  C   UNL     1     -11.390  14.534  68.854  1.00  0.00    -0.298 A  
HETATM   19  C   UNL     1     -12.714  15.057  70.818  1.00  0.00    -0.438 A  
HETATM   20  C   UNL     1     -12.103  12.766  70.355  1.00  0.00    -0.382 A  
HETATM   21  C   UNL     1     -11.434  13.177  69.201  1.00  0.00    -0.358 A  
HETATM   22  C   UNL     1     -12.735  13.708  71.166  1.00  0.00    -0.432 A  
HETATM   23  C   UNL     1     -12.054  15.471  69.659  1.00  0.00    -0.352 A  
ENDBRANCH   6  18
TORSDOF 1
ENDMDL
MODEL       22
REMARK 921   NORMALIZED FREE ENERGY PREDICTED BY IDOCK:   -6.51 KCAL/MOL
REMARK 922        TOTAL FREE ENERGY PREDICTED BY IDOCK:   -7.30 KCAL/MOL
REMARK 923 INTER-LIGAND FREE ENERGY PREDICTED BY IDOCK:   -6.92 KCAL/MOL
REMARK 924 INTRA-LIGAND FREE ENERGY PREDICTED BY IDOCK:   -0.38 KCAL/MOL
REMARK 927      BINDING AFFINITY PREDICTED BY RF-SCORE:    0.00 PKD
ROOT
HETATM    1  O   UNL     1     -13.065  15.887  70.376  1.00  0.00    -0.712 OA 
HETATM    2  H   UNL     1     -13.377  16.766  70.198  1.00  0.00     0.000 HD 
HETATM    3  C   UNL     1     -12.398  15.359  69.250  1.00  0.00    -0.093 C  
HETATM    4  N   UNL     1     -11.920  14.012  69.524  1.00  0.00    -0.320 NA 
HETATM    5  H   UNL     1     -11.880  13.662  70.481  1.00  0.00     0.000 HD 
HETATM    6  C   UNL     1     -11.546  13.265  68.539  1.00  0.00    -0.333 C  
HETATM    7  C   UNL     1     -12.055  12.751  66.161  1.00  0.00    -0.429 A  
HETATM    8  C   UNL     1     -11.582  13.680  67.102  1.00  0.00    -0.392 A  
HETATM    9 CL   UNL     1     -12.530  11.881  63.655  1.00  0.00    -0.614 Cl 
HETATM   10  C   UNL     1     -11.085  14.923  66.671  1.00  0.00    -0.329 A  
HETATM   11  C   UNL     1     -10.980  15.178  65.297  1.00  0.00    -0.405 A  
HETATM   12  O   UNL     1     -10.691  17.142  69.447  1.00  0.00    -0.288 OA 
HETATM   13  N   UNL     1     -10.676  15.954  67.535  1.00  0.00    -0.315 N  
HETATM   14  C   UNL     1     -11.433  14.240  64.365  1.00  0.00    -0.321 A  
HETATM   15  C   UNL     1     -11.977  13.036  64.802  1.00  0.00    -0.395 A  
HETATM   16  C   UNL     1     -11.173  16.212  68.795  1.00  0.00    -0.365 C  
HETATM   17  H   UNL     1      -9.939  16.572  67.197  1.00  0.00     0.000 HD 
ENDROOT
BRANCH   6  18
HETATM   18  C   UNL     1     -11.048  11.890  68.883  1.00  0.00    -0.299 A  
HETATM   19  C   UNL     1      -9.422  10.102  68.681  1.00  0.00    -0.164 A  
HETATM   20  C   UNL     1     -11.353   9.816  70.103  1.00  0.00    -0.305 A  
HETATM   21  C   UNL     1     -11.788  11.100  69.773  1.00  0.00    -0.422 A  
HETATM   22  C   UNL     1     -10.175   9.315  69.551  1.00  0.00    -0.214 A  
HETATM   23  C   UNL     1      -9.848  11.391  68.356  1.00  0.00    -0.205 A  
ENDBRANCH   6  18
TORSDOF 1
ENDMDL
MODEL       23
REMARK 921   NORMALIZED FREE ENERGY PREDICTED BY IDOCK:   -6.49 KCAL/MOL
REMARK 922        TOTAL FREE ENERGY PREDICTED BY IDOCK:   -7.27 KCAL/MOL
REMARK 923 INTER-LIGAND FREE ENERGY PREDICTED BY IDOCK:   -7.15 KCAL/MOL
REMARK 924 INTRA-LIGAND FREE ENERGY PREDICTED BY IDOCK:   -0.13 KCAL/MOL
REMARK 927      BINDING AFFINITY PREDICTED BY RF-SCORE:    0.00 PKD
ROOT
HETATM    1  O   UNL     1     -13.129  14.152  65.288  1.00  0.00    -0.763 OA 
HETATM    2  H   UNL     1     -12.998  13.797  64.417  1.00  0.00     0.000 HD 
HETATM    3  C   UNL     1     -12.152  13.659  66.179  1.00  0.00    -0.436 C  
HETATM    4  N   UNL     1     -12.354  14.204  67.514  1.00  0.00    -0.560 NA 
HETATM    5  H   UNL     1     -12.965  15.008  67.657  1.00  0.00     0.000 HD 
HETATM    6  C   UNL     1     -11.749  13.656  68.514  1.00  0.00    -0.357 C  
HETATM    7  C   UNL     1     -10.976  11.457  69.377  1.00  0.00    -0.260 A  
HETATM    8  C   UNL     1     -10.847  12.467  68.410  1.00  0.00    -0.266 A  
HETATM    9 CL   UNL     1     -10.215   9.186  70.614  1.00  0.00    -0.279 Cl 
HETATM   10  C   UNL     1      -9.839  12.378  67.433  1.00  0.00    -0.199 A  
HETATM   11  C   UNL     1      -8.913  11.327  67.501  1.00  0.00    -0.140 A  
HETATM   12  O   UNL     1     -10.394  14.777  64.841  1.00  0.00    -0.406 OA 
HETATM   13  N   UNL     1      -9.686  13.285  66.370  1.00  0.00    -0.275 N  
HETATM   14  C   UNL     1      -9.034  10.338  68.480  1.00  0.00    -0.134 A  
HETATM   15  C   UNL     1     -10.070  10.402  69.407  1.00  0.00    -0.229 A  
HETATM   16  C   UNL     1     -10.690  13.995  65.747  1.00  0.00    -0.293 C  
HETATM   17  H   UNL     1      -8.738  13.432  66.024  1.00  0.00     0.000 HD 
ENDROOT
BRANCH   6  18
HETATM   18  C   UNL     1     -11.983  14.270  69.865  1.00  0.00    -0.397 A  
HETATM   19  C   UNL     1     -12.980  14.238  72.076  1.00  0.00    -0.437 A  
HETATM   20  C   UNL     1     -11.588  16.097  71.412  1.00  0.00    -0.495 A  
HETATM   21  C   UNL     1     -11.380  15.499  70.168  1.00  0.00    -0.339 A  
HETATM   22  C   UNL     1     -12.394  15.470  72.361  1.00  0.00    -0.496 A  
HETATM   23  C   UNL     1     -12.767  13.631  70.837  1.00  0.00    -0.382 A  
ENDBRANCH   6  18
TORSDOF 1
ENDMDL
MODEL       24
REMARK 921   NORMALIZED FREE ENERGY PREDICTED BY IDOCK:   -6.43 KCAL/MOL
REMARK 922        TOTAL FREE ENERGY PREDICTED BY IDOCK:   -7.22 KCAL/MOL
REMARK 923 INTER-LIGAND FREE ENERGY PREDICTED BY IDOCK:   -7.01 KCAL/MOL
REMARK 924 INTRA-LIGAND FREE ENERGY PREDICTED BY IDOCK:   -0.21 KCAL/MOL
REMARK 927      BINDING AFFINITY PREDICTED BY RF-SCORE:    0.00 PKD
ROOT
HETATM    1  O   UNL     1     -14.223  13.777  72.659  1.00  0.00    -0.710 OA 
HETATM    2  H   UNL     1     -14.564  14.662  72.711  1.00  0.00     0.000 HD 
HETATM    3  C   UNL     1     -13.260  13.676  71.633  1.00  0.00    -0.367 C  
HETATM    4  N   UNL     1     -12.738  12.319  71.553  1.00  0.00    -0.293 NA 
HETATM    5  H   UNL     1     -12.897  11.659  72.314  1.00  0.00     0.000 HD 
HETATM    6  C   UNL     1     -12.072  11.962  70.506  1.00  0.00    -0.331 C  
HETATM    7  C   UNL     1     -11.946  12.303  68.047  1.00  0.00    -0.251 A  
HETATM    8  C   UNL     1     -11.801  12.850  69.333  1.00  0.00    -0.371 A  
HETATM    9 CL   UNL     1     -11.724  12.355  65.362  1.00  0.00    -0.433 Cl 
HETATM   10  C   UNL     1     -11.332  14.167  69.486  1.00  0.00    -0.259 A  
HETATM   11  C   UNL     1     -10.925  14.883  68.352  1.00  0.00    -0.266 A  
HETATM   12  O   UNL     1     -11.824  15.286  72.846  1.00  0.00    -0.414 OA 
HETATM   13  N   UNL     1     -11.240  14.835  70.719  1.00  0.00    -0.501 N  
HETATM   14  C   UNL     1     -11.052  14.326  67.077  1.00  0.00    -0.317 A  
HETATM   15  C   UNL     1     -11.571  13.043  66.930  1.00  0.00    -0.366 A  
HETATM   16  C   UNL     1     -12.046  14.638  71.820  1.00  0.00    -0.319 C  
HETATM   17  H   UNL     1     -10.504  15.535  70.809  1.00  0.00     0.000 HD 
ENDROOT
BRANCH   6  18
HETATM   18  C   UNL     1     -11.545  10.555  70.486  1.00  0.00    -0.441 A  
HETATM   19  C   UNL     1     -11.750   8.196  71.012  1.00  0.00    -0.295 A  
HETATM   20  C   UNL     1      -9.786   9.005  69.863  1.00  0.00    -0.194 A  
HETATM   21  C   UNL     1     -10.304  10.301  69.887  1.00  0.00    -0.281 A  
HETATM   22  C   UNL     1     -10.506   7.956  70.433  1.00  0.00    -0.218 A  
HETATM   23  C   UNL     1     -12.277   9.489  71.029  1.00  0.00    -0.385 A  
ENDBRANCH   6  18
TORSDOF 1
ENDMDL
MODEL       25
REMARK 921   NORMALIZED FREE ENERGY PREDICTED BY IDOCK:   -6.38 KCAL/MOL
REMARK 922        TOTAL FREE ENERGY PREDICTED BY IDOCK:   -7.16 KCAL/MOL
REMARK 923 INTER-LIGAND FREE ENERGY PREDICTED BY IDOCK:   -6.69 KCAL/MOL
REMARK 924 INTRA-LIGAND FREE ENERGY PREDICTED BY IDOCK:   -0.47 KCAL/MOL
REMARK 927      BINDING AFFINITY PREDICTED BY RF-SCORE:    0.00 PKD
ROOT
HETATM    1  O   UNL     1     -11.251  12.618  63.090  1.00  0.00    -0.727 OA 
HETATM    2  H   UNL     1     -11.876  11.952  62.827  1.00  0.00     0.000 HD 
HETATM    3  C   UNL     1     -10.997  12.542  64.476  1.00  0.00    -0.323 C  
HETATM    4  N   UNL     1     -10.040  13.562  64.878  1.00  0.00    -0.585 NA 
HETATM    5  H   UNL     1      -9.485  14.054  64.178  1.00  0.00     0.000 HD 
HETATM    6  C   UNL     1      -9.903  13.836  66.133  1.00  0.00    -0.297 C  
HETATM    7  C   UNL     1     -11.181  13.999  68.258  1.00  0.00    -0.293 A  
HETATM    8  C   UNL     1     -10.680  13.182  67.230  1.00  0.00    -0.262 A  
HETATM    9 CL   UNL     1     -12.369  14.430  70.639  1.00  0.00    -0.395 Cl 
HETATM   10  C   UNL     1     -10.847  11.788  67.300  1.00  0.00    -0.253 A  
HETATM   11  C   UNL     1     -11.427  11.225  68.445  1.00  0.00    -0.377 A  
HETATM   12  O   UNL     1     -10.050  10.276  64.159  1.00  0.00    -0.287 OA 
HETATM   13  N   UNL     1     -10.467  10.894  66.283  1.00  0.00    -0.256 N  
HETATM   14  C   UNL     1     -11.903  12.042  69.474  1.00  0.00    -0.390 A  
HETATM   15  C   UNL     1     -11.787  13.425  69.371  1.00  0.00    -0.335 A  
HETATM   16  C   UNL     1     -10.433  11.159  64.930  1.00  0.00    -0.308 C  
HETATM   17  H   UNL     1     -10.189   9.958  66.574  1.00  0.00     0.000 HD 
ENDROOT
BRANCH   6  18
HETATM   18  C   UNL     1      -8.890  14.886  66.489  1.00  0.00    -0.256 A  
HETATM   19  C   UNL     1      -8.095  17.177  66.454  1.00  0.00    -0.337 A  
HETATM   20  C   UNL     1      -6.795  15.471  67.564  1.00  0.00    -0.225 A  
HETATM   21  C   UNL     1      -7.757  14.518  67.227  1.00  0.00    -0.177 A  
HETATM   22  C   UNL     1      -6.961  16.798  67.170  1.00  0.00    -0.226 A  
HETATM   23  C   UNL     1      -9.064  16.229  66.123  1.00  0.00    -0.377 A  
ENDBRANCH   6  18
TORSDOF 1
ENDMDL
MODEL       26
REMARK 921   NORMALIZED FREE ENERGY PREDICTED BY IDOCK:   -6.31 KCAL/MOL
REMARK 922        TOTAL FREE ENERGY PREDICTED BY IDOCK:   -7.09 KCAL/MOL
REMARK 923 INTER-LIGAND FREE ENERGY PREDICTED BY IDOCK:   -6.63 KCAL/MOL
REMARK 924 INTRA-LIGAND FREE ENERGY PREDICTED BY IDOCK:   -0.46 KCAL/MOL
REMARK 927      BINDING AFFINITY PREDICTED BY RF-SCORE:    0.00 PKD
ROOT
HETATM    1  O   UNL     1      -8.179  16.076  68.942  1.00  0.00    -0.194 OA 
HETATM    2  H   UNL     1      -7.922  16.545  69.727  1.00  0.00     0.000 HD 
HETATM    3  C   UNL     1      -9.403  15.404  69.142  1.00  0.00    -0.246 C  
HETATM    4  N   UNL     1      -9.795  14.684  67.939  1.00  0.00    -0.215 NA 
HETATM    5  H   UNL     1      -9.344  14.885  67.047  1.00  0.00     0.000 HD 
HETATM    6  C   UNL     1     -10.722  13.789  68.016  1.00  0.00    -0.250 C  
HETATM    7  C   UNL     1     -11.650  12.048  69.527  1.00  0.00    -0.389 A  
HETATM    8  C   UNL     1     -11.432  13.413  69.277  1.00  0.00    -0.345 A  
HETATM    9 CL   UNL     1     -12.714   9.982  70.893  1.00  0.00    -0.416 Cl 
HETATM   10  C   UNL     1     -11.948  14.378  70.160  1.00  0.00    -0.322 A  
HETATM   11  C   UNL     1     -12.757  13.964  71.228  1.00  0.00    -0.444 A  
HETATM   12  O   UNL     1     -10.525  17.586  69.476  1.00  0.00    -0.217 OA 
HETATM   13  N   UNL     1     -11.707  15.759  70.052  1.00  0.00    -0.346 N  
HETATM   14  C   UNL     1     -12.989  12.605  71.458  1.00  0.00    -0.380 A  
HETATM   15  C   UNL     1     -12.426  11.654  70.612  1.00  0.00    -0.295 A  
HETATM   16  C   UNL     1     -10.579  16.355  69.529  1.00  0.00    -0.320 C  
HETATM   17  H   UNL     1     -12.438  16.381  70.394  1.00  0.00     0.000 HD 
ENDROOT
BRANCH   6  18
HETATM   18  C   UNL     1     -11.095  13.090  66.739  1.00  0.00    -0.316 A  
HETATM   19  C   UNL     1     -12.612  12.706  64.887  1.00  0.00    -0.525 A  
HETATM   20  C   UNL     1     -10.544  11.467  65.023  1.00  0.00    -0.359 A  
HETATM   21  C   UNL     1     -10.218  12.138  66.202  1.00  0.00    -0.254 A  
HETATM   22  C   UNL     1     -11.744  11.745  64.371  1.00  0.00    -0.301 A  
HETATM   23  C   UNL     1     -12.286  13.387  66.061  1.00  0.00    -0.491 A  
ENDBRANCH   6  18
TORSDOF 1
ENDMDL
MODEL       27
REMARK 921   NORMALIZED FREE ENERGY PREDICTED BY IDOCK:   -6.30 KCAL/MOL
REMARK 922        TOTAL FREE ENERGY PREDICTED BY IDOCK:   -7.08 KCAL/MOL
REMARK 923 INTER-LIGAND FREE ENERGY PREDICTED BY IDOCK:   -7.36 KCAL/MOL
REMARK 924 INTRA-LIGAND FREE ENERGY PREDICTED BY IDOCK:    0.28 KCAL/MOL
REMARK 927      BINDING AFFINITY PREDICTED BY RF-SCORE:    0.00 PKD
ROOT
HETATM    1  O   UNL     1     -10.136  11.966  66.631  1.00  0.00    -0.197 OA 
HETATM    2  H   UNL     1      -9.680  11.313  66.114  1.00  0.00     0.000 HD 
HETATM    3  C   UNL     1     -10.395  11.479  67.930  1.00  0.00    -0.183 C  
HETATM    4  N   UNL     1     -11.095  12.480  68.722  1.00  0.00    -0.257 NA 
HETATM    5  H   UNL     1     -11.134  13.451  68.411  1.00  0.00     0.000 HD 
HETATM    6  C   UNL     1     -11.667  12.123  69.823  1.00  0.00    -0.310 C  
HETATM    7  C   UNL     1     -12.885  10.233  70.881  1.00  0.00    -0.463 A  
HETATM    8  C   UNL     1     -11.679  10.726  70.355  1.00  0.00    -0.445 A  
HETATM    9 CL   UNL     1     -14.387   8.413  72.183  1.00  0.00    -0.517 Cl 
HETATM   10  C   UNL     1     -10.515   9.939  70.416  1.00  0.00    -0.285 A  
HETATM   11  C   UNL     1     -10.554   8.710  71.089  1.00  0.00    -0.291 A  
HETATM   12  O   UNL     1      -7.958  11.330  68.340  1.00  0.00    -0.124 OA 
HETATM   13  N   UNL     1      -9.285  10.301  69.838  1.00  0.00    -0.404 N  
HETATM   14  C   UNL     1     -11.753   8.236  71.630  1.00  0.00    -0.341 A  
HETATM   15  C   UNL     1     -12.913   8.995  71.515  1.00  0.00    -0.337 A  
HETATM   16  C   UNL     1      -9.106  11.075  68.712  1.00  0.00    -0.157 C  
HETATM   17  H   UNL     1      -8.443   9.955  70.296  1.00  0.00     0.000 HD 
ENDROOT
BRANCH   6  18
HETATM   18  C   UNL     1     -12.361  13.202  70.606  1.00  0.00    -0.405 A  
HETATM   19  C   UNL     1     -13.814  13.927  72.407  1.00  0.00    -0.668 A  
HETATM   20  C   UNL     1     -12.815  15.562  70.937  1.00  0.00    -0.535 A  
HETATM   21  C   UNL     1     -12.174  14.540  70.234  1.00  0.00    -0.391 A  
HETATM   22  C   UNL     1     -13.640  15.254  72.017  1.00  0.00    -0.571 A  
HETATM   23  C   UNL     1     -13.168  12.903  71.713  1.00  0.00    -0.479 A  
ENDBRANCH   6  18
TORSDOF 1
ENDMDL
MODEL       28
REMARK 921   NORMALIZED FREE ENERGY PREDICTED BY IDOCK:   -6.27 KCAL/MOL
REMARK 922        TOTAL FREE ENERGY PREDICTED BY IDOCK:   -7.05 KCAL/MOL
REMARK 923 INTER-LIGAND FREE ENERGY PREDICTED BY IDOCK:   -6.57 KCAL/MOL
REMARK 924 INTRA-LIGAND FREE ENERGY PREDICTED BY IDOCK:   -0.47 KCAL/MOL
REMARK 927      BINDING AFFINITY PREDICTED BY RF-SCORE:    0.00 PKD
ROOT
HETATM    1  O   UNL     1     -10.906  10.773  63.900  1.00  0.00    -0.469 OA 
HETATM    2  H   UNL     1     -10.851  11.187  63.047  1.00  0.00     0.000 HD 
HETATM    3  C   UNL     1     -10.966  11.744  64.921  1.00  0.00    -0.300 C  
HETATM    4  N   UNL     1     -11.049  11.109  66.228  1.00  0.00    -0.179 NA 
HETATM    5  H   UNL     1     -11.282  10.119  66.308  1.00  0.00     0.000 HD 
HETATM    6  C   UNL     1     -10.823  11.814  67.286  1.00  0.00    -0.253 C  
HETATM    7  C   UNL     1      -9.437  13.694  68.134  1.00  0.00    -0.217 A  
HETATM    8  C   UNL     1     -10.460  13.265  67.273  1.00  0.00    -0.247 A  
HETATM    9 CL   UNL     1      -7.924  15.570  69.342  1.00  0.00    -0.232 Cl 
HETATM   10  C   UNL     1     -11.162  14.203  66.496  1.00  0.00    -0.330 A  
HETATM   11  C   UNL     1     -10.892  15.569  66.665  1.00  0.00    -0.285 A  
HETATM   12  O   UNL     1     -13.120  12.549  64.004  1.00  0.00    -0.741 OA 
HETATM   13  N   UNL     1     -12.135  13.868  65.539  1.00  0.00    -0.383 N  
HETATM   14  C   UNL     1      -9.887  15.991  67.540  1.00  0.00    -0.235 A  
HETATM   15  C   UNL     1      -9.158  15.051  68.262  1.00  0.00    -0.182 A  
HETATM   16  C   UNL     1     -12.183  12.712  64.789  1.00  0.00    -0.465 C  
HETATM   17  H   UNL     1     -12.880  14.547  65.384  1.00  0.00     0.000 HD 
ENDROOT
BRANCH   6  18
HETATM   18  C   UNL     1     -10.938  11.108  68.607  1.00  0.00    -0.268 A  
HETATM   19  C   UNL     1     -11.976  10.809  70.779  1.00  0.00    -0.464 A  
HETATM   20  C   UNL     1     -10.150   9.375  70.111  1.00  0.00    -0.273 A  
HETATM   21  C   UNL     1     -10.072  10.043  68.888  1.00  0.00    -0.200 A  
HETATM   22  C   UNL     1     -11.096   9.764  71.059  1.00  0.00    -0.431 A  
HETATM   23  C   UNL     1     -11.907  11.473  69.553  1.00  0.00    -0.419 A  
ENDBRANCH   6  18
TORSDOF 1
ENDMDL
MODEL       29
REMARK 921   NORMALIZED FREE ENERGY PREDICTED BY IDOCK:   -6.14 KCAL/MOL
REMARK 922        TOTAL FREE ENERGY PREDICTED BY IDOCK:   -6.90 KCAL/MOL
REMARK 923 INTER-LIGAND FREE ENERGY PREDICTED BY IDOCK:   -6.50 KCAL/MOL
REMARK 924 INTRA-LIGAND FREE ENERGY PREDICTED BY IDOCK:   -0.40 KCAL/MOL
REMARK 927      BINDING AFFINITY PREDICTED BY RF-SCORE:    0.00 PKD
ROOT
HETATM    1  O   UNL     1     -10.029  16.165  69.473  1.00  0.00    -0.250 OA 
HETATM    2  H   UNL     1      -9.940  16.428  70.381  1.00  0.00     0.000 HD 
HETATM    3  C   UNL     1     -10.642  14.897  69.381  1.00  0.00    -0.246 C  
HETATM    4  N   UNL     1     -10.777  14.494  67.988  1.00  0.00    -0.239 NA 
HETATM    5  H   UNL     1     -10.663  15.177  67.239  1.00  0.00     0.000 HD 
HETATM    6  C   UNL     1     -11.045  13.261  67.714  1.00  0.00    -0.265 C  
HETATM    7  C   UNL     1     -10.616  10.939  68.489  1.00  0.00    -0.219 A  
HETATM    8  C   UNL     1     -11.215  12.185  68.738  1.00  0.00    -0.314 A  
HETATM    9 CL   UNL     1     -10.148   8.336  69.010  1.00  0.00    -0.200 Cl 
HETATM   10  C   UNL     1     -12.015  12.361  69.881  1.00  0.00    -0.299 A  
HETATM   11  C   UNL     1     -12.280  11.260  70.707  1.00  0.00    -0.479 A  
HETATM   12  O   UNL     1     -12.690  15.833  70.410  1.00  0.00    -0.393 OA 
HETATM   13  N   UNL     1     -12.581  13.589  70.269  1.00  0.00    -0.210 N  
HETATM   14  C   UNL     1     -11.698  10.018  70.441  1.00  0.00    -0.365 A  
HETATM   15  C   UNL     1     -10.862   9.866  69.340  1.00  0.00    -0.237 A  
HETATM   16  C   UNL     1     -12.060  14.843  70.029  1.00  0.00    -0.338 C  
HETATM   17  H   UNL     1     -13.463  13.548  70.778  1.00  0.00     0.000 HD 
ENDROOT
BRANCH   6  18
HETATM   18  C   UNL     1     -11.188  12.907  66.261  1.00  0.00    -0.337 A  
HETATM   19  C   UNL     1     -10.240  12.301  64.113  1.00  0.00    -0.376 A  
HETATM   20  C   UNL     1     -12.632  12.532  64.348  1.00  0.00    -0.497 A  
HETATM   21  C   UNL     1     -12.470  12.848  65.697  1.00  0.00    -0.400 A  
HETATM   22  C   UNL     1     -11.516  12.266  63.555  1.00  0.00    -0.558 A  
HETATM   23  C   UNL     1     -10.074  12.608  65.464  1.00  0.00    -0.279 A  
ENDBRANCH   6  18
TORSDOF 1
ENDMDL
MODEL       30
REMARK 921   NORMALIZED FREE ENERGY PREDICTED BY IDOCK:   -6.05 KCAL/MOL
REMARK 922        TOTAL FREE ENERGY PREDICTED BY IDOCK:   -6.81 KCAL/MOL
REMARK 923 INTER-LIGAND FREE ENERGY PREDICTED BY IDOCK:   -6.67 KCAL/MOL
REMARK 924 INTRA-LIGAND FREE ENERGY PREDICTED BY IDOCK:   -0.15 KCAL/MOL
REMARK 927      BINDING AFFINITY PREDICTED BY RF-SCORE:    0.00 PKD
ROOT
HETATM    1  O   UNL     1     -13.036  15.344  69.720  1.00  0.00    -0.597 OA 
HETATM    2  H   UNL     1     -12.932  16.150  69.230  1.00  0.00     0.000 HD 
HETATM    3  C   UNL     1     -12.038  14.412  69.364  1.00  0.00    -0.297 C  
HETATM    4  N   UNL     1     -12.199  13.176  70.115  1.00  0.00    -0.318 NA 
HETATM    5  H   UNL     1     -12.800  13.146  70.939  1.00  0.00     0.000 HD 
HETATM    6  C   UNL     1     -11.570  12.117  69.726  1.00  0.00    -0.262 C  
HETATM    7  C   UNL     1     -10.788  10.937  67.684  1.00  0.00    -0.317 A  
HETATM    8  C   UNL     1     -10.680  12.056  68.527  1.00  0.00    -0.261 A  
HETATM    9 CL   UNL     1     -10.009   9.375  65.630  1.00  0.00    -0.320 Cl 
HETATM   10  C   UNL     1      -9.699  13.031  68.273  1.00  0.00    -0.221 A  
HETATM   11  C   UNL     1      -8.779  12.822  67.236  1.00  0.00    -0.200 A  
HETATM   12  O   UNL     1     -10.310  15.957  70.235  1.00  0.00    -0.249 OA 
HETATM   13  N   UNL     1      -9.570  14.229  68.997  1.00  0.00    -0.394 N  
HETATM   14  C   UNL     1      -8.879  11.696  66.415  1.00  0.00    -0.182 A  
HETATM   15  C   UNL     1      -9.888  10.764  66.637  1.00  0.00    -0.200 A  
HETATM   16  C   UNL     1     -10.586  14.930  69.610  1.00  0.00    -0.197 C  
HETATM   17  H   UNL     1      -8.631  14.619  69.077  1.00  0.00     0.000 HD 
ENDROOT
BRANCH   6  18
HETATM   18  C   UNL     1     -11.763  10.875  70.550  1.00  0.00    -0.441 A  
HETATM   19  C   UNL     1     -13.112   9.457  71.982  1.00  0.00    -0.516 A  
HETATM   20  C   UNL     1     -10.864   8.790  71.404  1.00  0.00    -0.359 A  
HETATM   21  C   UNL     1     -10.716   9.948  70.638  1.00  0.00    -0.372 A  
HETATM   22  C   UNL     1     -12.058   8.550  72.082  1.00  0.00    -0.449 A  
HETATM   23  C   UNL     1     -12.972  10.611  71.209  1.00  0.00    -0.513 A  
ENDBRANCH   6  18
TORSDOF 1
ENDMDL
MODEL       31
REMARK 921   NORMALIZED FREE ENERGY PREDICTED BY IDOCK:   -6.05 KCAL/MOL
REMARK 922        TOTAL FREE ENERGY PREDICTED BY IDOCK:   -6.81 KCAL/MOL
REMARK 923 INTER-LIGAND FREE ENERGY PREDICTED BY IDOCK:   -7.13 KCAL/MOL
REMARK 924 INTRA-LIGAND FREE ENERGY PREDICTED BY IDOCK:    0.32 KCAL/MOL
REMARK 927      BINDING AFFINITY PREDICTED BY RF-SCORE:    0.00 PKD
ROOT
HETATM    1  O   UNL     1     -12.645  12.655  62.990  1.00  0.00    -0.673 OA 
HETATM    2  H   UNL     1     -12.854  11.803  62.628  1.00  0.00     0.000 HD 
HETATM    3  C   UNL     1     -12.013  12.520  64.244  1.00  0.00    -0.408 C  
HETATM    4  N   UNL     1     -11.693  13.827  64.801  1.00  0.00    -0.363 NA 
HETATM    5  H   UNL     1     -11.716  14.659  64.211  1.00  0.00     0.000 HD 
HETATM    6  C   UNL     1     -11.380  13.919  66.050  1.00  0.00    -0.324 C  
HETATM    7  C   UNL     1     -11.883  12.940  68.278  1.00  0.00    -0.372 A  
HETATM    8  C   UNL     1     -11.334  12.763  66.997  1.00  0.00    -0.364 A  
HETATM    9 CL   UNL     1     -12.388  12.183  70.815  1.00  0.00    -0.449 Cl 
HETATM   10  C   UNL     1     -10.692  11.555  66.671  1.00  0.00    -0.268 A  
HETATM   11  C   UNL     1     -10.525  10.579  67.665  1.00  0.00    -0.276 A  
HETATM   12  O   UNL     1     -10.125  11.353  63.147  1.00  0.00    -0.351 OA 
HETATM   13  N   UNL     1     -10.193  11.244  65.394  1.00  0.00    -0.258 N  
HETATM   14  C   UNL     1     -11.055  10.771  68.943  1.00  0.00    -0.307 A  
HETATM   15  C   UNL     1     -11.740  11.946  69.241  1.00  0.00    -0.328 A  
HETATM   16  C   UNL     1     -10.690  11.693  64.189  1.00  0.00    -0.362 C  
HETATM   17  H   UNL     1      -9.384  10.625  65.355  1.00  0.00     0.000 HD 
ENDROOT
BRANCH   6  18
HETATM   18  C   UNL     1     -11.045  15.290  66.564  1.00  0.00    -0.271 A  
HETATM   19  C   UNL     1     -10.822  16.892  68.372  1.00  0.00    -0.347 A  
HETATM   20  C   UNL     1     -10.311  17.557  66.107  1.00  0.00    -0.330 A  
HETATM   21  C   UNL     1     -10.620  16.272  65.659  1.00  0.00    -0.360 A  
HETATM   22  C   UNL     1     -10.420  17.868  67.462  1.00  0.00    -0.398 A  
HETATM   23  C   UNL     1     -11.122  15.602  67.929  1.00  0.00    -0.324 A  
ENDBRANCH   6  18
TORSDOF 1
ENDMDL
MODEL       32
REMARK 921   NORMALIZED FREE ENERGY PREDICTED BY IDOCK:   -6.00 KCAL/MOL
REMARK 922        TOTAL FREE ENERGY PREDICTED BY IDOCK:   -6.76 KCAL/MOL
REMARK 923 INTER-LIGAND FREE ENERGY PREDICTED BY IDOCK:   -6.29 KCAL/MOL
REMARK 924 INTRA-LIGAND FREE ENERGY PREDICTED BY IDOCK:   -0.47 KCAL/MOL
REMARK 927      BINDING AFFINITY PREDICTED BY RF-SCORE:    0.00 PKD
ROOT
HETATM    1  O   UNL     1     -12.796  10.281  70.172  1.00  0.00    -0.569 OA 
HETATM    2  H   UNL     1     -12.643  10.057  71.082  1.00  0.00     0.000 HD 
HETATM    3  C   UNL     1     -11.576  10.535  69.511  1.00  0.00    -0.260 C  
HETATM    4  N   UNL     1     -11.810  10.880  68.116  1.00  0.00    -0.753 NA 
HETATM    5  H   UNL     1     -12.716  10.697  67.684  1.00  0.00     0.000 HD 
HETATM    6  C   UNL     1     -10.857  11.420  67.433  1.00  0.00    -0.254 C  
HETATM    7  C   UNL     1      -8.933  12.980  67.639  1.00  0.00    -0.192 A  
HETATM    8  C   UNL     1      -9.503  11.741  67.979  1.00  0.00    -0.188 A  
HETATM    9 CL   UNL     1      -6.923  14.773  67.556  1.00  0.00    -0.206 Cl 
HETATM   10  C   UNL     1      -8.766  10.818  68.741  1.00  0.00    -0.163 A  
HETATM   11  C   UNL     1      -7.434  11.109  69.069  1.00  0.00    -0.124 A  
HETATM   12  O   UNL     1     -10.889   8.191  69.915  1.00  0.00    -0.247 OA 
HETATM   13  N   UNL     1      -9.276   9.595  69.212  1.00  0.00    -0.172 N  
HETATM   14  C   UNL     1      -6.867  12.334  68.708  1.00  0.00    -0.092 A  
HETATM   15  C   UNL     1      -7.622  13.267  68.003  1.00  0.00    -0.145 A  
HETATM   16  C   UNL     1     -10.588   9.327  69.540  1.00  0.00    -0.224 C  
HETATM   17  H   UNL     1      -8.610   8.831  69.321  1.00  0.00     0.000 HD 
ENDROOT
BRANCH   6  18
HETATM   18  C   UNL     1     -11.153  11.739  65.995  1.00  0.00    -0.363 A  
HETATM   19  C   UNL     1     -10.729  11.468  63.622  1.00  0.00    -0.491 A  
HETATM   20  C   UNL     1     -12.472  12.965  64.368  1.00  0.00    -0.447 A  
HETATM   21  C   UNL     1     -12.182  12.642  65.695  1.00  0.00    -0.474 A  
HETATM   22  C   UNL     1     -11.739  12.383  63.334  1.00  0.00    -0.554 A  
HETATM   23  C   UNL     1     -10.442  11.136  64.948  1.00  0.00    -0.372 A  
ENDBRANCH   6  18
TORSDOF 1
ENDMDL
MODEL       33
REMARK 921   NORMALIZED FREE ENERGY PREDICTED BY IDOCK:   -5.97 KCAL/MOL
REMARK 922        TOTAL FREE ENERGY PREDICTED BY IDOCK:   -6.73 KCAL/MOL
REMARK 923 INTER-LIGAND FREE ENERGY PREDICTED BY IDOCK:   -6.26 KCAL/MOL
REMARK 924 INTRA-LIGAND FREE ENERGY PREDICTED BY IDOCK:   -0.47 KCAL/MOL
REMARK 927      BINDING AFFINITY PREDICTED BY RF-SCORE:    0.00 PKD
ROOT
HETATM    1  O   UNL     1     -13.058  11.198  71.225  1.00  0.00    -0.366 OA 
HETATM    2  H   UNL     1     -13.307  11.634  72.031  1.00  0.00     0.000 HD 
HETATM    3  C   UNL     1     -12.325  10.024  71.500  1.00  0.00    -0.419 C  
HETATM    4  N   UNL     1     -11.942   9.358  70.263  1.00  0.00    -0.470 NA 
HETATM    5  H   UNL     1     -12.386   9.612  69.381  1.00  0.00     0.000 HD 
HETATM    6  C   UNL     1     -11.034   8.440  70.299  1.00  0.00    -0.232 C  
HETATM    7  C   UNL     1      -8.929   7.803  71.456  1.00  0.00    -0.156 A  
HETATM    8  C   UNL     1     -10.317   8.008  71.537  1.00  0.00    -0.258 A  
HETATM    9 CL   UNL     1      -6.547   6.991  72.420  1.00  0.00    -0.056 Cl 
HETATM   10  C   UNL     1     -10.997   7.727  72.736  1.00  0.00    -0.388 A  
HETATM   11  C   UNL     1     -10.293   7.154  73.804  1.00  0.00    -0.390 A  
HETATM   12  O   UNL     1     -14.308   9.074  72.638  1.00  0.00    -0.603 OA 
HETATM   13  N   UNL     1     -12.363   7.985  72.949  1.00  0.00    -0.586 N  
HETATM   14  C   UNL     1      -8.916   6.933  73.708  1.00  0.00    -0.187 A  
HETATM   15  C   UNL     1      -8.240   7.267  72.539  1.00  0.00    -0.107 A  
HETATM   16  C   UNL     1     -13.106   8.992  72.371  1.00  0.00    -0.423 C  
HETATM   17  H   UNL     1     -12.852   7.366  73.594  1.00  0.00     0.000 HD 
ENDROOT
BRANCH   6  18
HETATM   18  C   UNL     1     -10.692   7.777  68.995  1.00  0.00    -0.119 A  
HETATM   19  C   UNL     1      -9.797   7.843  66.742  1.00  0.00    -0.318 A  
HETATM   20  C   UNL     1     -10.664   5.771  67.630  1.00  0.00    -0.313 A  
HETATM   21  C   UNL     1     -10.963   6.411  68.833  1.00  0.00    -0.412 A  
HETATM   22  C   UNL     1     -10.089   6.490  66.582  1.00  0.00    -0.201 A  
HETATM   23  C   UNL     1     -10.085   8.485  67.948  1.00  0.00    -0.258 A  
ENDBRANCH   6  18
TORSDOF 1
ENDMDL
MODEL       34
REMARK 921   NORMALIZED FREE ENERGY PREDICTED BY IDOCK:   -5.96 KCAL/MOL
REMARK 922        TOTAL FREE ENERGY PREDICTED BY IDOCK:   -6.72 KCAL/MOL
REMARK 923 INTER-LIGAND FREE ENERGY PREDICTED BY IDOCK:   -6.25 KCAL/MOL
REMARK 924 INTRA-LIGAND FREE ENERGY PREDICTED BY IDOCK:   -0.48 KCAL/MOL
REMARK 927      BINDING AFFINITY PREDICTED BY RF-SCORE:    0.00 PKD
ROOT
HETATM    1  O   UNL     1     -14.401   9.024  73.021  1.00  0.00    -1.108 OA 
HETATM    2  H   UNL     1     -15.123   9.423  72.551  1.00  0.00     0.000 HD 
HETATM    3  C   UNL     1     -13.247   8.972  72.210  1.00  0.00    -0.460 C  
HETATM    4  N   UNL     1     -12.141   8.360  72.932  1.00  0.00    -0.516 NA 
HETATM    5  H   UNL     1     -12.186   8.244  73.944  1.00  0.00     0.000 HD 
HETATM    6  C   UNL     1     -11.102   7.966  72.273  1.00  0.00    -0.318 C  
HETATM    7  C   UNL     1     -10.413   6.979  70.099  1.00  0.00    -0.232 A  
HETATM    8  C   UNL     1     -10.949   8.079  70.790  1.00  0.00    -0.259 A  
HETATM    9 CL   UNL     1      -9.435   5.743  67.912  1.00  0.00    -0.110 Cl 
HETATM   10  C   UNL     1     -11.245   9.265  70.096  1.00  0.00    -0.208 A  
HETATM   11  C   UNL     1     -10.909   9.366  68.738  1.00  0.00    -0.147 A  
HETATM   12  O   UNL     1     -13.213  11.447  72.134  1.00  0.00    -0.490 OA 
HETATM   13  N   UNL     1     -11.867  10.386  70.674  1.00  0.00    -0.322 N  
HETATM   14  C   UNL     1     -10.356   8.275  68.062  1.00  0.00    -0.268 A  
HETATM   15  C   UNL     1     -10.120   7.084  68.744  1.00  0.00    -0.170 A  
HETATM   16  C   UNL     1     -12.771  10.374  71.716  1.00  0.00    -0.421 C  
HETATM   17  H   UNL     1     -11.627  11.297  70.286  1.00  0.00     0.000 HD 
ENDROOT
BRANCH   6  18
HETATM   18  C   UNL     1      -9.986   7.356  73.073  1.00  0.00    -0.299 A  
HETATM   19  C   UNL     1      -7.753   7.433  74.017  1.00  0.00    -0.151 A  
HETATM   20  C   UNL     1      -9.146   5.494  74.381  1.00  0.00    -0.122 A  
HETATM   21  C   UNL     1     -10.169   6.089  73.642  1.00  0.00    -0.239 A  
HETATM   22  C   UNL     1      -7.936   6.163  74.561  1.00  0.00    -0.101 A  
HETATM   23  C   UNL     1      -8.778   8.036  73.285  1.00  0.00    -0.308 A  
ENDBRANCH   6  18
TORSDOF 1
ENDMDL
MODEL       35
REMARK 921   NORMALIZED FREE ENERGY PREDICTED BY IDOCK:   -5.93 KCAL/MOL
REMARK 922        TOTAL FREE ENERGY PREDICTED BY IDOCK:   -6.69 KCAL/MOL
REMARK 923 INTER-LIGAND FREE ENERGY PREDICTED BY IDOCK:   -6.65 KCAL/MOL
REMARK 924 INTRA-LIGAND FREE ENERGY PREDICTED BY IDOCK:   -0.04 KCAL/MOL
REMARK 927      BINDING AFFINITY PREDICTED BY RF-SCORE:    0.00 PKD
ROOT
HETATM    1  O   UNL     1     -12.966  13.184  65.131  1.00  0.00    -0.695 OA 
HETATM    2  H   UNL     1     -12.919  13.461  64.224  1.00  0.00     0.000 HD 
HETATM    3  C   UNL     1     -11.845  12.398  65.470  1.00  0.00    -0.412 C  
HETATM    4  N   UNL     1     -11.917  11.974  66.860  1.00  0.00    -0.609 NA 
HETATM    5  H   UNL     1     -12.570  12.421  67.504  1.00  0.00     0.000 HD 
HETATM    6  C   UNL     1     -11.145  11.023  67.269  1.00  0.00    -0.294 C  
HETATM    7  C   UNL     1     -10.085   8.899  66.532  1.00  0.00    -0.356 A  
HETATM    8  C   UNL     1     -10.168  10.296  66.401  1.00  0.00    -0.290 A  
HETATM    9 CL   UNL     1      -8.984   6.489  66.041  1.00  0.00    -0.160 Cl 
HETATM   10  C   UNL     1      -9.290  10.972  65.536  1.00  0.00    -0.215 A  
HETATM   11  C   UNL     1      -8.278  10.249  64.887  1.00  0.00    -0.157 A  
HETATM   12  O   UNL     1     -10.374  14.342  65.038  1.00  0.00    -0.402 OA 
HETATM   13  N   UNL     1      -9.351  12.350  65.265  1.00  0.00    -0.429 N  
HETATM   14  C   UNL     1      -8.188   8.863  65.038  1.00  0.00    -0.154 A  
HETATM   15  C   UNL     1      -9.097   8.194  65.852  1.00  0.00    -0.130 A  
HETATM   16  C   UNL     1     -10.484  13.136  65.271  1.00  0.00    -0.307 C  
HETATM   17  H   UNL     1      -8.472  12.814  65.041  1.00  0.00     0.000 HD 
ENDROOT
BRANCH   6  18
HETATM   18  C   UNL     1     -11.253  10.638  68.717  1.00  0.00    -0.337 A  
HETATM   19  C   UNL     1     -10.369   9.579  70.712  1.00  0.00    -0.377 A  
HETATM   20  C   UNL     1     -12.527  10.661  70.782  1.00  0.00    -0.480 A  
HETATM   21  C   UNL     1     -12.395  11.014  69.438  1.00  0.00    -0.222 A  
HETATM   22  C   UNL     1     -11.517   9.937  71.415  1.00  0.00    -0.393 A  
HETATM   23  C   UNL     1     -10.229   9.938  69.370  1.00  0.00    -0.231 A  
ENDBRANCH   6  18
TORSDOF 1
ENDMDL
MODEL       36
REMARK 921   NORMALIZED FREE ENERGY PREDICTED BY IDOCK:   -5.88 KCAL/MOL
REMARK 922        TOTAL FREE ENERGY PREDICTED BY IDOCK:   -6.64 KCAL/MOL
REMARK 923 INTER-LIGAND FREE ENERGY PREDICTED BY IDOCK:   -6.49 KCAL/MOL
REMARK 924 INTRA-LIGAND FREE ENERGY PREDICTED BY IDOCK:   -0.15 KCAL/MOL
REMARK 927      BINDING AFFINITY PREDICTED BY RF-SCORE:    0.00 PKD
ROOT
HETATM    1  O   UNL     1     -14.309   9.277  72.866  1.00  0.00    -0.934 OA 
HETATM    2  H   UNL     1     -15.137   9.633  72.565  1.00  0.00     0.000 HD 
HETATM    3  C   UNL     1     -13.274   9.593  71.961  1.00  0.00    -0.453 C  
HETATM    4  N   UNL     1     -12.005   9.048  72.423  1.00  0.00    -0.268 NA 
HETATM    5  H   UNL     1     -11.903   8.722  73.384  1.00  0.00     0.000 HD 
HETATM    6  C   UNL     1     -11.012   8.982  71.601  1.00  0.00    -0.365 C  
HETATM    7  C   UNL     1     -10.466   8.592  69.208  1.00  0.00    -0.226 A  
HETATM    8  C   UNL     1     -11.067   9.419  70.172  1.00  0.00    -0.277 A  
HETATM    9 CL   UNL     1      -9.602   8.016  66.721  1.00  0.00    -0.256 Cl 
HETATM   10  C   UNL     1     -11.623  10.652  69.789  1.00  0.00    -0.309 A  
HETATM   11  C   UNL     1     -11.482  11.083  68.462  1.00  0.00    -0.379 A  
HETATM   12  O   UNL     1     -13.619  11.999  72.432  1.00  0.00    -0.338 OA 
HETATM   13  N   UNL     1     -12.327  11.506  70.656  1.00  0.00    -0.373 N  
HETATM   14  C   UNL     1     -10.863  10.265  67.512  1.00  0.00    -0.355 A  
HETATM   15  C   UNL     1     -10.367   9.021  67.888  1.00  0.00    -0.235 A  
HETATM   16  C   UNL     1     -13.079  11.126  71.747  1.00  0.00    -0.431 C  
HETATM   17  H   UNL     1     -12.277  12.505  70.458  1.00  0.00     0.000 HD 
ENDROOT
BRANCH   6  18
HETATM   18  C   UNL     1      -9.724   8.425  72.138  1.00  0.00    -0.370 A  
HETATM   19  C   UNL     1      -7.305   8.260  72.125  1.00  0.00    -0.125 A  
HETATM   20  C   UNL     1      -8.588   6.977  73.719  1.00  0.00    -0.172 A  
HETATM   21  C   UNL     1      -9.768   7.518  73.206  1.00  0.00    -0.326 A  
HETATM   22  C   UNL     1      -7.358   7.342  73.172  1.00  0.00    -0.085 A  
HETATM   23  C   UNL     1      -8.482   8.811  71.615  1.00  0.00    -0.209 A  
ENDBRANCH   6  18
TORSDOF 1
ENDMDL
MODEL       37
REMARK 921   NORMALIZED FREE ENERGY PREDICTED BY IDOCK:   -5.84 KCAL/MOL
REMARK 922        TOTAL FREE ENERGY PREDICTED BY IDOCK:   -6.59 KCAL/MOL
REMARK 923 INTER-LIGAND FREE ENERGY PREDICTED BY IDOCK:   -6.73 KCAL/MOL
REMARK 924 INTRA-LIGAND FREE ENERGY PREDICTED BY IDOCK:    0.13 KCAL/MOL
REMARK 927      BINDING AFFINITY PREDICTED BY RF-SCORE:    0.00 PKD
ROOT
HETATM    1  O   UNL     1      -9.019  12.209  65.729  1.00  0.00    -0.425 OA 
HETATM    2  H   UNL     1      -8.501  12.264  64.934  1.00  0.00     0.000 HD 
HETATM    3  C   UNL     1      -9.655  13.440  65.993  1.00  0.00    -0.159 C  
HETATM    4  N   UNL     1     -10.448  13.355  67.211  1.00  0.00    -0.247 NA 
HETATM    5  H   UNL     1     -10.672  12.448  67.620  1.00  0.00     0.000 HD 
HETATM    6  C   UNL     1     -10.865  14.444  67.767  1.00  0.00    -0.258 C  
HETATM    7  C   UNL     1     -10.219  16.807  68.186  1.00  0.00    -0.301 A  
HETATM    8  C   UNL     1     -10.578  15.819  67.254  1.00  0.00    -0.313 A  
HETATM    9 CL   UNL     1      -9.671  19.338  68.932  1.00  0.00    -0.488 Cl 
HETATM   10  C   UNL     1     -10.736  16.158  65.899  1.00  0.00    -0.255 A  
HETATM   11  C   UNL     1     -10.627  17.502  65.513  1.00  0.00    -0.097 A  
HETATM   12  O   UNL     1     -10.936  13.210  63.887  1.00  0.00    -0.381 OA 
HETATM   13  N   UNL     1     -11.000  15.230  64.876  1.00  0.00    -0.504 N  
HETATM   14  C   UNL     1     -10.292  18.483  66.450  1.00  0.00    -0.456 A  
HETATM   15  C   UNL     1     -10.080  18.130  67.779  1.00  0.00    -0.362 A  
HETATM   16  C   UNL     1     -10.602  13.910  64.845  1.00  0.00    -0.419 C  
HETATM   17  H   UNL     1     -11.539  15.566  64.079  1.00  0.00     0.000 HD 
ENDROOT
BRANCH   6  18
HETATM   18  C   UNL     1     -11.691  14.294  69.013  1.00  0.00    -0.352 A  
HETATM   19  C   UNL     1     -12.568  12.960  70.840  1.00  0.00    -0.355 A  
HETATM   20  C   UNL     1     -13.153  15.298  70.669  1.00  0.00    -0.407 A  
HETATM   21  C   UNL     1     -12.370  15.410  69.519  1.00  0.00    -0.207 A  
HETATM   22  C   UNL     1     -13.257  14.071  71.324  1.00  0.00    -0.373 A  
HETATM   23  C   UNL     1     -11.776  13.071  69.695  1.00  0.00    -0.364 A  
ENDBRANCH   6  18
TORSDOF 1
ENDMDL
MODEL       38
REMARK 921   NORMALIZED FREE ENERGY PREDICTED BY IDOCK:   -5.84 KCAL/MOL
REMARK 922        TOTAL FREE ENERGY PREDICTED BY IDOCK:   -6.59 KCAL/MOL
REMARK 923 INTER-LIGAND FREE ENERGY PREDICTED BY IDOCK:   -6.63 KCAL/MOL
REMARK 924 INTRA-LIGAND FREE ENERGY PREDICTED BY IDOCK:    0.04 KCAL/MOL
REMARK 927      BINDING AFFINITY PREDICTED BY RF-SCORE:    0.00 PKD
ROOT
HETATM    1  O   UNL     1     -12.769  12.854  64.558  1.00  0.00    -0.654 OA 
HETATM    2  H   UNL     1     -12.487  12.818  63.652  1.00  0.00     0.000 HD 
HETATM    3  C   UNL     1     -11.714  12.489  65.421  1.00  0.00    -0.398 C  
HETATM    4  N   UNL     1     -12.146  12.544  66.811  1.00  0.00    -0.546 NA 
HETATM    5  H   UNL     1     -13.008  13.026  67.064  1.00  0.00     0.000 HD 
HETATM    6  C   UNL     1     -11.423  11.976  67.717  1.00  0.00    -0.325 C  
HETATM    7  C   UNL     1      -9.949  10.014  68.108  1.00  0.00    -0.176 A  
HETATM    8  C   UNL     1     -10.154  11.234  67.444  1.00  0.00    -0.214 A  
HETATM    9 CL   UNL     1      -8.475   7.879  68.840  1.00  0.00    -0.127 Cl 
HETATM   10  C   UNL     1      -9.144  11.760  66.618  1.00  0.00    -0.194 A  
HETATM   11  C   UNL     1      -7.907  11.103  66.547  1.00  0.00    -0.151 A  
HETATM   12  O   UNL     1     -10.422  14.453  64.643  1.00  0.00    -0.412 OA 
HETATM   13  N   UNL     1      -9.285  12.922  65.839  1.00  0.00    -0.451 N  
HETATM   14  C   UNL     1      -7.703   9.900  67.228  1.00  0.00    -0.095 A  
HETATM   15  C   UNL     1      -8.728   9.357  67.998  1.00  0.00    -0.124 A  
HETATM   16  C   UNL     1     -10.453  13.399  65.283  1.00  0.00    -0.324 C  
HETATM   17  H   UNL     1      -8.440  13.466  65.668  1.00  0.00     0.000 HD 
ENDROOT
BRANCH   6  18
HETATM   18  C   UNL     1     -11.911  12.079  69.134  1.00  0.00    -0.326 A  
HETATM   19  C   UNL     1     -12.678  11.068  71.201  1.00  0.00    -0.521 A  
HETATM   20  C   UNL     1     -12.506  13.471  71.030  1.00  0.00    -0.451 A  
HETATM   21  C   UNL     1     -12.046  13.345  69.718  1.00  0.00    -0.374 A  
HETATM   22  C   UNL     1     -12.830  12.332  71.767  1.00  0.00    -0.359 A  
HETATM   23  C   UNL     1     -12.209  10.938  69.893  1.00  0.00    -0.408 A  
ENDBRANCH   6  18
TORSDOF 1
ENDMDL
MODEL       39
REMARK 921   NORMALIZED FREE ENERGY PREDICTED BY IDOCK:   -5.84 KCAL/MOL
REMARK 922        TOTAL FREE ENERGY PREDICTED BY IDOCK:   -6.59 KCAL/MOL
REMARK 923 INTER-LIGAND FREE ENERGY PREDICTED BY IDOCK:   -6.17 KCAL/MOL
REMARK 924 INTRA-LIGAND FREE ENERGY PREDICTED BY IDOCK:   -0.42 KCAL/MOL
REMARK 927      BINDING AFFINITY PREDICTED BY RF-SCORE:    0.00 PKD
ROOT
HETATM    1  O   UNL     1     -13.785  14.278  65.539  1.00  0.00    -0.543 OA 
HETATM    2  H   UNL     1     -14.441  13.792  65.054  1.00  0.00     0.000 HD 
HETATM    3  C   UNL     1     -12.541  13.614  65.494  1.00  0.00    -0.496 C  
HETATM    4  N   UNL     1     -11.535  14.359  66.238  1.00  0.00    -0.351 NA 
HETATM    5  H   UNL     1     -11.705  15.328  66.507  1.00  0.00     0.000 HD 
HETATM    6  C   UNL     1     -10.427  13.777  66.552  1.00  0.00    -0.282 C  
HETATM    7  C   UNL     1      -9.482  11.574  67.210  1.00  0.00    -0.176 A  
HETATM    8  C   UNL     1     -10.091  12.359  66.217  1.00  0.00    -0.257 A  
HETATM    9 CL   UNL     1      -8.251   9.355  68.119  1.00  0.00    -0.117 Cl 
HETATM   10  C   UNL     1     -10.292  11.828  64.930  1.00  0.00    -0.289 A  
HETATM   11  C   UNL     1      -9.792  10.553  64.631  1.00  0.00    -0.404 A  
HETATM   12  O   UNL     1     -12.481  13.929  63.039  1.00  0.00    -0.689 OA 
HETATM   13  N   UNL     1     -10.974  12.494  63.897  1.00  0.00    -0.390 N  
HETATM   14  C   UNL     1      -9.167   9.786  65.618  1.00  0.00    -0.252 A  
HETATM   15  C   UNL     1      -9.024  10.297  66.905  1.00  0.00    -0.136 A  
HETATM   16  C   UNL     1     -11.999  13.405  64.046  1.00  0.00    -0.464 C  
HETATM   17  H   UNL     1     -10.682  12.284  62.943  1.00  0.00     0.000 HD 
ENDROOT
BRANCH   6  18
HETATM   18  C   UNL     1      -9.421  14.600  67.306  1.00  0.00    -0.221 A  
HETATM   19  C   UNL     1      -7.414  15.960  67.389  1.00  0.00    -0.217 A  
HETATM   20  C   UNL     1      -8.657  15.526  69.415  1.00  0.00    -0.259 A  
HETATM   21  C   UNL     1      -9.581  14.775  68.687  1.00  0.00    -0.218 A  
HETATM   22  C   UNL     1      -7.570  16.111  68.766  1.00  0.00    -0.193 A  
HETATM   23  C   UNL     1      -8.342  15.218  66.657  1.00  0.00    -0.216 A  
ENDBRANCH   6  18
TORSDOF 1
ENDMDL
MODEL       40
REMARK 921   NORMALIZED FREE ENERGY PREDICTED BY IDOCK:   -5.82 KCAL/MOL
REMARK 922        TOTAL FREE ENERGY PREDICTED BY IDOCK:   -6.57 KCAL/MOL
REMARK 923 INTER-LIGAND FREE ENERGY PREDICTED BY IDOCK:   -6.14 KCAL/MOL
REMARK 924 INTRA-LIGAND FREE ENERGY PREDICTED BY IDOCK:   -0.43 KCAL/MOL
REMARK 927      BINDING AFFINITY PREDICTED BY RF-SCORE:    0.00 PKD
ROOT
HETATM    1  O   UNL     1     -12.573  13.233  71.094  1.00  0.00    -0.360 OA 
HETATM    2  H   UNL     1     -13.127  13.976  71.301  1.00  0.00     0.000 HD 
HETATM    3  C   UNL     1     -12.057  13.347  69.786  1.00  0.00    -0.310 C  
HETATM    4  N   UNL     1     -11.208  12.208  69.469  1.00  0.00    -0.450 NA 
HETATM    5  H   UNL     1     -10.874  11.591  70.209  1.00  0.00     0.000 HD 
HETATM    6  C   UNL     1     -10.883  11.989  68.238  1.00  0.00    -0.229 C  
HETATM    7  C   UNL     1     -11.753  12.163  65.917  1.00  0.00    -0.393 A  
HETATM    8  C   UNL     1     -11.334  12.824  67.083  1.00  0.00    -0.365 A  
HETATM    9 CL   UNL     1     -12.529  12.073  63.337  1.00  0.00    -0.688 Cl 
HETATM   10  C   UNL     1     -11.271  14.229  67.108  1.00  0.00    -0.322 A  
HETATM   11  C   UNL     1     -11.536  14.946  65.932  1.00  0.00    -0.276 A  
HETATM   12  O   UNL     1     -10.852  15.403  70.459  1.00  0.00    -0.309 OA 
HETATM   13  N   UNL     1     -10.956  14.987  68.249  1.00  0.00    -0.261 N  
HETATM   14  C   UNL     1     -11.931  14.280  64.769  1.00  0.00    -0.449 A  
HETATM   15  C   UNL     1     -12.047  12.893  64.770  1.00  0.00    -0.422 A  
HETATM   16  C   UNL     1     -11.215  14.642  69.559  1.00  0.00    -0.269 C  
HETATM   17  H   UNL     1     -10.490  15.880  68.094  1.00  0.00     0.000 HD 
ENDROOT
BRANCH   6  18
HETATM   18  C   UNL     1      -9.993  10.808  67.974  1.00  0.00    -0.183 A  
HETATM   19  C   UNL     1      -7.816   9.842  67.515  1.00  0.00    -0.098 A  
HETATM   20  C   UNL     1      -9.752   8.409  67.697  1.00  0.00    -0.201 A  
HETATM   21  C   UNL     1     -10.553   9.523  67.950  1.00  0.00    -0.299 A  
HETATM   22  C   UNL     1      -8.385   8.571  67.472  1.00  0.00    -0.128 A  
HETATM   23  C   UNL     1      -8.613  10.958  67.777  1.00  0.00    -0.128 A  
ENDBRANCH   6  18
TORSDOF 1
ENDMDL
MODEL       41
REMARK 921   NORMALIZED FREE ENERGY PREDICTED BY IDOCK:   -5.81 KCAL/MOL
REMARK 922        TOTAL FREE ENERGY PREDICTED BY IDOCK:   -6.56 KCAL/MOL
REMARK 923 INTER-LIGAND FREE ENERGY PREDICTED BY IDOCK:   -6.24 KCAL/MOL
REMARK 924 INTRA-LIGAND FREE ENERGY PREDICTED BY IDOCK:   -0.32 KCAL/MOL
REMARK 927      BINDING AFFINITY PREDICTED BY RF-SCORE:    0.00 PKD
ROOT
HETATM    1  O   UNL     1     -13.127  12.915  64.225  1.00  0.00    -0.631 OA 
HETATM    2  H   UNL     1     -13.249  12.360  63.463  1.00  0.00     0.000 HD 
HETATM    3  C   UNL     1     -12.199  12.338  65.117  1.00  0.00    -0.276 C  
HETATM    4  N   UNL     1     -12.013  13.189  66.283  1.00  0.00    -0.406 NA 
HETATM    5  H   UNL     1     -12.336  14.156  66.274  1.00  0.00     0.000 HD 
HETATM    6  C   UNL     1     -11.433  12.703  67.329  1.00  0.00    -0.342 C  
HETATM    7  C   UNL     1     -11.188  10.609  68.645  1.00  0.00    -0.337 A  
HETATM    8  C   UNL     1     -10.939  11.297  67.446  1.00  0.00    -0.337 A  
HETATM    9 CL   UNL     1     -10.914   8.532  70.341  1.00  0.00    -0.248 Cl 
HETATM   10  C   UNL     1     -10.174  10.688  66.436  1.00  0.00    -0.234 A  
HETATM   11  C   UNL     1      -9.589   9.437  66.681  1.00  0.00    -0.250 A  
HETATM   12  O   UNL     1     -10.442  12.530  63.383  1.00  0.00    -0.397 OA 
HETATM   13  N   UNL     1      -9.946  11.251  65.168  1.00  0.00    -0.249 N  
HETATM   14  C   UNL     1      -9.823   8.768  67.885  1.00  0.00    -0.207 A  
HETATM   15  C   UNL     1     -10.629   9.353  68.857  1.00  0.00    -0.208 A  
HETATM   16  C   UNL     1     -10.795  12.093  64.481  1.00  0.00    -0.312 C  
HETATM   17  H   UNL     1      -9.066  11.013  64.710  1.00  0.00     0.000 HD 
ENDROOT
BRANCH   6  18
HETATM   18  C   UNL     1     -11.255  13.633  68.497  1.00  0.00    -0.310 A  
HETATM   19  C   UNL     1     -12.016  14.595  70.589  1.00  0.00    -0.380 A  
HETATM   20  C   UNL     1      -9.913  15.302  69.636  1.00  0.00    -0.236 A  
HETATM   21  C   UNL     1     -10.100  14.423  68.568  1.00  0.00    -0.244 A  
HETATM   22  C   UNL     1     -10.875  15.393  70.641  1.00  0.00    -0.318 A  
HETATM   23  C   UNL     1     -12.203  13.707  69.527  1.00  0.00    -0.316 A  
ENDBRANCH   6  18
TORSDOF 1
ENDMDL
MODEL       42
REMARK 921   NORMALIZED FREE ENERGY PREDICTED BY IDOCK:   -5.80 KCAL/MOL
REMARK 922        TOTAL FREE ENERGY PREDICTED BY IDOCK:   -6.55 KCAL/MOL
REMARK 923 INTER-LIGAND FREE ENERGY PREDICTED BY IDOCK:   -6.18 KCAL/MOL
REMARK 924 INTRA-LIGAND FREE ENERGY PREDICTED BY IDOCK:   -0.37 KCAL/MOL
REMARK 927      BINDING AFFINITY PREDICTED BY RF-SCORE:    0.00 PKD
ROOT
HETATM    1  O   UNL     1      -9.412  20.056  65.525  1.00  0.00    -0.405 OA 
HETATM    2  H   UNL     1      -8.842  20.777  65.765  1.00  0.00     0.000 HD 
HETATM    3  C   UNL     1      -9.175  18.938  66.352  1.00  0.00    -0.313 C  
HETATM    4  N   UNL     1     -10.049  17.833  65.983  1.00  0.00    -0.528 NA 
HETATM    5  H   UNL     1     -10.859  17.993  65.384  1.00  0.00     0.000 HD 
HETATM    6  C   UNL     1      -9.786  16.649  66.425  1.00  0.00    -0.292 C  
HETATM    7  C   UNL     1      -7.895  15.142  67.001  1.00  0.00    -0.197 A  
HETATM    8  C   UNL     1      -8.618  16.311  67.295  1.00  0.00    -0.199 A  
HETATM    9 CL   UNL     1      -6.033  13.262  67.509  1.00  0.00    -0.120 Cl 
HETATM   10  C   UNL     1      -8.283  17.076  68.426  1.00  0.00    -0.250 A  
HETATM   11  C   UNL     1      -7.292  16.606  69.300  1.00  0.00    -0.184 A  
HETATM   12  O   UNL     1      -9.914  20.255  68.314  1.00  0.00    -0.354 OA 
HETATM   13  N   UNL     1      -8.879  18.306  68.755  1.00  0.00    -0.265 N  
HETATM   14  C   UNL     1      -6.592  15.431  69.013  1.00  0.00    -0.123 A  
HETATM   15  C   UNL     1      -6.891  14.710  67.860  1.00  0.00    -0.163 A  
HETATM   16  C   UNL     1      -9.395  19.228  67.870  1.00  0.00    -0.316 C  
HETATM   17  H   UNL     1      -8.937  18.539  69.746  1.00  0.00     0.000 HD 
ENDROOT
BRANCH   6  18
HETATM   18  C   UNL     1     -10.732  15.552  66.024  1.00  0.00    -0.331 A  
HETATM   19  C   UNL     1     -12.112  13.630  66.556  1.00  0.00    -0.469 A  
HETATM   20  C   UNL     1     -11.994  14.433  64.281  1.00  0.00    -0.433 A  
HETATM   21  C   UNL     1     -11.125  15.447  64.683  1.00  0.00    -0.361 A  
HETATM   22  C   UNL     1     -12.480  13.520  65.216  1.00  0.00    -0.525 A  
HETATM   23  C   UNL     1     -11.250  14.650  66.964  1.00  0.00    -0.348 A  
ENDBRANCH   6  18
TORSDOF 1
ENDMDL
MODEL       43
REMARK 921   NORMALIZED FREE ENERGY PREDICTED BY IDOCK:   -5.75 KCAL/MOL
REMARK 922        TOTAL FREE ENERGY PREDICTED BY IDOCK:   -6.49 KCAL/MOL
REMARK 923 INTER-LIGAND FREE ENERGY PREDICTED BY IDOCK:   -6.03 KCAL/MOL
REMARK 924 INTRA-LIGAND FREE ENERGY PREDICTED BY IDOCK:   -0.46 KCAL/MOL
REMARK 927      BINDING AFFINITY PREDICTED BY RF-SCORE:    0.00 PKD
ROOT
HETATM    1  O   UNL     1     -12.796  14.369  69.592  1.00  0.00    -0.505 OA 
HETATM    2  H   UNL     1     -12.916  13.465  69.858  1.00  0.00     0.000 HD 
HETATM    3  C   UNL     1     -11.573  14.528  68.908  1.00  0.00    -0.309 C  
HETATM    4  N   UNL     1     -11.390  15.914  68.501  1.00  0.00    -0.362 NA 
HETATM    5  H   UNL     1     -12.176  16.564  68.513  1.00  0.00     0.000 HD 
HETATM    6  C   UNL     1     -10.219  16.310  68.126  1.00  0.00    -0.258 C  
HETATM    7  C   UNL     1      -7.797  15.975  68.568  1.00  0.00    -0.160 A  
HETATM    8  C   UNL     1      -9.004  15.440  68.088  1.00  0.00    -0.176 A  
HETATM    9 CL   UNL     1      -5.135  15.934  68.987  1.00  0.00    -0.100 Cl 
HETATM   10  C   UNL     1      -9.024  14.153  67.520  1.00  0.00    -0.198 A  
HETATM   11  C   UNL     1      -7.815  13.462  67.352  1.00  0.00    -0.154 A  
HETATM   12  O   UNL     1     -12.389  13.009  67.132  1.00  0.00    -0.303 OA 
HETATM   13  N   UNL     1     -10.191  13.493  67.098  1.00  0.00    -0.245 N  
HETATM   14  C   UNL     1      -6.615  14.010  67.811  1.00  0.00    -0.188 A  
HETATM   15  C   UNL     1      -6.613  15.259  68.425  1.00  0.00    -0.110 A  
HETATM   16  C   UNL     1     -11.454  13.641  67.630  1.00  0.00    -0.325 C  
HETATM   17  H   UNL     1     -10.093  12.839  66.322  1.00  0.00     0.000 HD 
ENDROOT
BRANCH   6  18
HETATM   18  C   UNL     1     -10.094  17.746  67.703  1.00  0.00    -0.342 A  
HETATM   19  C   UNL     1      -9.848  19.450  65.994  1.00  0.00    -0.383 A  
HETATM   20  C   UNL     1      -9.995  20.091  68.318  1.00  0.00    -0.508 A  
HETATM   21  C   UNL     1     -10.119  18.749  68.681  1.00  0.00    -0.432 A  
HETATM   22  C   UNL     1      -9.852  20.439  66.975  1.00  0.00    -0.594 A  
HETATM   23  C   UNL     1      -9.981  18.107  66.352  1.00  0.00    -0.376 A  
ENDBRANCH   6  18
TORSDOF 1
ENDMDL
MODEL       44
REMARK 921   NORMALIZED FREE ENERGY PREDICTED BY IDOCK:   -5.72 KCAL/MOL
REMARK 922        TOTAL FREE ENERGY PREDICTED BY IDOCK:   -6.46 KCAL/MOL
REMARK 923 INTER-LIGAND FREE ENERGY PREDICTED BY IDOCK:   -6.10 KCAL/MOL
REMARK 924 INTRA-LIGAND FREE ENERGY PREDICTED BY IDOCK:   -0.36 KCAL/MOL
REMARK 927      BINDING AFFINITY PREDICTED BY RF-SCORE:    0.00 PKD
ROOT
HETATM    1  O   UNL     1      -5.281  14.770  67.507  1.00  0.00    -0.333 OA 
HETATM    2  H   UNL     1      -4.901  13.902  67.571  1.00  0.00     0.000 HD 
HETATM    3  C   UNL     1      -6.690  14.695  67.483  1.00  0.00    -0.122 C  
HETATM    4  N   UNL     1      -7.271  16.026  67.384  1.00  0.00    -0.168 NA 
HETATM    5  H   UNL     1      -6.703  16.853  67.567  1.00  0.00     0.000 HD 
HETATM    6  C   UNL     1      -8.516  16.146  67.062  1.00  0.00    -0.208 C  
HETATM    7  C   UNL     1     -10.290  15.116  65.660  1.00  0.00    -0.379 A  
HETATM    8  C   UNL     1      -9.426  14.998  66.761  1.00  0.00    -0.263 A  
HETATM    9 CL   UNL     1     -12.325  14.305  64.089  1.00  0.00    -0.444 Cl 
HETATM   10  C   UNL     1      -9.494  13.862  67.587  1.00  0.00    -0.212 A  
HETATM   11  C   UNL     1     -10.492  12.906  67.353  1.00  0.00    -0.235 A  
HETATM   12  O   UNL     1      -6.659  13.728  69.762  1.00  0.00    -0.111 OA 
HETATM   13  N   UNL     1      -8.614  13.606  68.654  1.00  0.00    -0.338 N  
HETATM   14  C   UNL     1     -11.362  13.040  66.268  1.00  0.00    -0.354 A  
HETATM   15  C   UNL     1     -11.251  14.138  65.422  1.00  0.00    -0.325 A  
HETATM   16  C   UNL     1      -7.298  14.007  68.745  1.00  0.00    -0.127 C  
HETATM   17  H   UNL     1      -8.987  13.072  69.438  1.00  0.00     0.000 HD 
ENDROOT
BRANCH   6  18
HETATM   18  C   UNL     1      -9.065  17.543  66.991  1.00  0.00    -0.255 A  
HETATM   19  C   UNL     1     -10.780  19.186  67.484  1.00  0.00    -0.555 A  
HETATM   20  C   UNL     1      -8.811  19.839  66.247  1.00  0.00    -0.417 A  
HETATM   21  C   UNL     1      -8.321  18.535  66.337  1.00  0.00    -0.278 A  
HETATM   22  C   UNL     1     -10.043  20.161  66.813  1.00  0.00    -0.591 A  
HETATM   23  C   UNL     1     -10.289  17.883  67.585  1.00  0.00    -0.387 A  
ENDBRANCH   6  18
TORSDOF 1
ENDMDL
MODEL       45
REMARK 921   NORMALIZED FREE ENERGY PREDICTED BY IDOCK:   -5.70 KCAL/MOL
REMARK 922        TOTAL FREE ENERGY PREDICTED BY IDOCK:   -6.44 KCAL/MOL
REMARK 923 INTER-LIGAND FREE ENERGY PREDICTED BY IDOCK:   -6.27 KCAL/MOL
REMARK 924 INTRA-LIGAND FREE ENERGY PREDICTED BY IDOCK:   -0.17 KCAL/MOL
REMARK 927      BINDING AFFINITY PREDICTED BY RF-SCORE:    0.00 PKD
ROOT
HETATM    1  O   UNL     1      -8.080  10.137  66.845  1.00  0.00    -0.119 OA 
HETATM    2  H   UNL     1      -7.654  10.516  66.085  1.00  0.00     0.000 HD 
HETATM    3  C   UNL     1      -9.219  10.889  67.202  1.00  0.00    -0.148 C  
HETATM    4  N   UNL     1      -9.872  10.308  68.367  1.00  0.00    -0.152 NA 
HETATM    5  H   UNL     1      -9.640   9.363  68.671  1.00  0.00     0.000 HD 
HETATM    6  C   UNL     1     -10.748  11.005  69.009  1.00  0.00    -0.219 C  
HETATM    7  C   UNL     1     -11.288  13.332  69.694  1.00  0.00    -0.191 A  
HETATM    8  C   UNL     1     -11.145  12.402  68.652  1.00  0.00    -0.297 A  
HETATM    9 CL   UNL     1     -11.991  15.725  70.717  1.00  0.00    -0.412 Cl 
HETATM   10  C   UNL     1     -11.452  12.776  67.331  1.00  0.00    -0.340 A  
HETATM   11  C   UNL     1     -11.990  14.048  67.089  1.00  0.00    -0.465 A  
HETATM   12  O   UNL     1     -10.253  10.322  65.025  1.00  0.00    -0.320 OA 
HETATM   13  N   UNL     1     -11.254  11.953  66.209  1.00  0.00    -0.330 N  
HETATM   14  C   UNL     1     -12.151  14.961  68.135  1.00  0.00    -0.120 A  
HETATM   15  C   UNL     1     -11.790  14.603  69.430  1.00  0.00    -0.329 A  
HETATM   16  C   UNL     1     -10.283  10.986  66.064  1.00  0.00    -0.252 C  
HETATM   17  H   UNL     1     -11.893  12.083  65.425  1.00  0.00     0.000 HD 
ENDROOT
BRANCH   6  18
HETATM   18  C   UNL     1     -11.399  10.348  70.193  1.00  0.00    -0.397 A  
HETATM   19  C   UNL     1     -13.277  10.054  71.700  1.00  0.00    -0.518 A  
HETATM   20  C   UNL     1     -11.267   8.753  72.016  1.00  0.00    -0.443 A  
HETATM   21  C   UNL     1     -10.690   9.372  70.906  1.00  0.00    -0.393 A  
HETATM   22  C   UNL     1     -12.556   9.100  72.417  1.00  0.00    -0.381 A  
HETATM   23  C   UNL     1     -12.707  10.669  70.584  1.00  0.00    -0.445 A  
ENDBRANCH   6  18
TORSDOF 1
ENDMDL
MODEL       46
REMARK 921   NORMALIZED FREE ENERGY PREDICTED BY IDOCK:   -5.65 KCAL/MOL
REMARK 922        TOTAL FREE ENERGY PREDICTED BY IDOCK:   -6.39 KCAL/MOL
REMARK 923 INTER-LIGAND FREE ENERGY PREDICTED BY IDOCK:   -6.02 KCAL/MOL
REMARK 924 INTRA-LIGAND FREE ENERGY PREDICTED BY IDOCK:   -0.37 KCAL/MOL
REMARK 927      BINDING AFFINITY PREDICTED BY RF-SCORE:    0.00 PKD
ROOT
HETATM    1  O   UNL     1      -7.653  10.957  68.611  1.00  0.00    -0.098 OA 
HETATM    2  H   UNL     1      -7.181  10.381  68.022  1.00  0.00     0.000 HD 
HETATM    3  C   UNL     1      -8.809  11.468  67.985  1.00  0.00    -0.158 C  
HETATM    4  N   UNL     1      -9.533  12.352  68.888  1.00  0.00    -0.391 NA 
HETATM    5  H   UNL     1      -9.322  12.356  69.886  1.00  0.00     0.000 HD 
HETATM    6  C   UNL     1     -10.444  13.131  68.409  1.00  0.00    -0.253 C  
HETATM    7  C   UNL     1     -11.017  14.483  66.403  1.00  0.00    -0.324 A  
HETATM    8  C   UNL     1     -10.814  13.210  66.962  1.00  0.00    -0.278 A  
HETATM    9 CL   UNL     1     -11.773  16.167  64.439  1.00  0.00    -0.248 Cl 
HETATM   10  C   UNL     1     -11.040  12.060  66.185  1.00  0.00    -0.322 A  
HETATM   11  C   UNL     1     -11.559  12.201  64.890  1.00  0.00    -0.371 A  
HETATM   12  O   UNL     1      -9.712   9.169  67.816  1.00  0.00    -0.146 OA 
HETATM   13  N   UNL     1     -10.778  10.749  66.618  1.00  0.00    -0.236 N  
HETATM   14  C   UNL     1     -11.779  13.471  64.348  1.00  0.00    -0.443 A  
HETATM   15  C   UNL     1     -11.498  14.605  65.104  1.00  0.00    -0.375 A  
HETATM   16  C   UNL     1      -9.802  10.361  67.512  1.00  0.00    -0.172 C  
HETATM   17  H   UNL     1     -11.368  10.011  66.234  1.00  0.00     0.000 HD 
ENDROOT
BRANCH   6  18
HETATM   18  C   UNL     1     -11.167  14.010  69.390  1.00  0.00    -0.283 A  
HETATM   19  C   UNL     1     -11.367  16.062  70.667  1.00  0.00    -0.424 A  
HETATM   20  C   UNL     1     -13.059  14.350  70.871  1.00  0.00    -0.390 A  
HETATM   21  C   UNL     1     -12.370  13.559  69.950  1.00  0.00    -0.287 A  
HETATM   22  C   UNL     1     -12.552  15.597  71.235  1.00  0.00    -0.523 A  
HETATM   23  C   UNL     1     -10.681  15.278  69.737  1.00  0.00    -0.295 A  
ENDBRANCH   6  18
TORSDOF 1
ENDMDL
MODEL       47
REMARK 921   NORMALIZED FREE ENERGY PREDICTED BY IDOCK:   -5.58 KCAL/MOL
REMARK 922        TOTAL FREE ENERGY PREDICTED BY IDOCK:   -6.32 KCAL/MOL
REMARK 923 INTER-LIGAND FREE ENERGY PREDICTED BY IDOCK:   -6.00 KCAL/MOL
REMARK 924 INTRA-LIGAND FREE ENERGY PREDICTED BY IDOCK:   -0.32 KCAL/MOL
REMARK 927      BINDING AFFINITY PREDICTED BY RF-SCORE:    0.00 PKD
ROOT
HETATM    1  O   UNL     1     -12.015  12.192  70.799  1.00  0.00    -0.463 OA 
HETATM    2  H   UNL     1     -12.947  12.255  70.971  1.00  0.00     0.000 HD 
HETATM    3  C   UNL     1     -11.718  12.654  69.499  1.00  0.00    -0.308 C  
HETATM    4  N   UNL     1     -10.290  12.557  69.235  1.00  0.00    -0.393 NA 
HETATM    5  H   UNL     1      -9.632  12.413  70.000  1.00  0.00     0.000 HD 
HETATM    6  C   UNL     1      -9.867  12.657  68.019  1.00  0.00    -0.218 C  
HETATM    7  C   UNL     1     -10.479  12.101  65.675  1.00  0.00    -0.290 A  
HETATM    8  C   UNL     1     -10.752  12.854  66.829  1.00  0.00    -0.276 A  
HETATM    9 CL   UNL     1     -10.820  11.444  63.083  1.00  0.00    -0.283 Cl 
HETATM   10  C   UNL     1     -11.779  13.814  66.813  1.00  0.00    -0.391 A  
HETATM   11  C   UNL     1     -12.452  14.075  65.611  1.00  0.00    -0.531 A  
HETATM   12  O   UNL     1     -12.521  14.908  70.135  1.00  0.00    -0.327 OA 
HETATM   13  N   UNL     1     -12.192  14.550  67.937  1.00  0.00    -0.622 N  
HETATM   14  C   UNL     1     -12.160  13.338  64.460  1.00  0.00    -0.461 A  
HETATM   15  C   UNL     1     -11.182  12.348  64.500  1.00  0.00    -0.323 A  
HETATM   16  C   UNL     1     -12.146  14.134  69.251  1.00  0.00    -0.324 C  
HETATM   17  H   UNL     1     -12.561  15.485  67.765  1.00  0.00     0.000 HD 
ENDROOT
BRANCH   6  18
HETATM   18  C   UNL     1      -8.382  12.565  67.809  1.00  0.00    -0.170 A  
HETATM   19  C   UNL     1      -6.188  13.585  67.638  1.00  0.00    -0.139 A  
HETATM   20  C   UNL     1      -6.426  11.195  67.381  1.00  0.00    -0.071 A  
HETATM   21  C   UNL     1      -7.802  11.309  67.588  1.00  0.00    -0.116 A  
HETATM   22  C   UNL     1      -5.622  12.335  67.398  1.00  0.00    -0.134 A  
HETATM   23  C   UNL     1      -7.562  13.702  67.856  1.00  0.00    -0.156 A  
ENDBRANCH   6  18
TORSDOF 1
ENDMDL
MODEL       48
REMARK 921   NORMALIZED FREE ENERGY PREDICTED BY IDOCK:   -5.58 KCAL/MOL
REMARK 922        TOTAL FREE ENERGY PREDICTED BY IDOCK:   -6.32 KCAL/MOL
REMARK 923 INTER-LIGAND FREE ENERGY PREDICTED BY IDOCK:   -5.84 KCAL/MOL
REMARK 924 INTRA-LIGAND FREE ENERGY PREDICTED BY IDOCK:   -0.48 KCAL/MOL
REMARK 927      BINDING AFFINITY PREDICTED BY RF-SCORE:    0.00 PKD
ROOT
HETATM    1  O   UNL     1      -9.608   8.134  65.484  1.00  0.00    -0.394 OA 
HETATM    2  H   UNL     1      -9.388   7.213  65.560  1.00  0.00     0.000 HD 
HETATM    3  C   UNL     1      -9.684   8.734  66.758  1.00  0.00    -0.221 C  
HETATM    4  N   UNL     1     -10.021  10.146  66.640  1.00  0.00    -0.206 NA 
HETATM    5  H   UNL     1      -9.947  10.621  65.741  1.00  0.00     0.000 HD 
HETATM    6  C   UNL     1     -10.414  10.788  67.689  1.00  0.00    -0.214 C  
HETATM    7  C   UNL     1     -11.713  10.511  69.790  1.00  0.00    -0.354 A  
HETATM    8  C   UNL     1     -10.569  10.178  69.045  1.00  0.00    -0.245 A  
HETATM    9 CL   UNL     1     -13.224  10.521  72.022  1.00  0.00    -0.554 Cl 
HETATM   10  C   UNL     1      -9.576   9.361  69.615  1.00  0.00    -0.188 A  
HETATM   11  C   UNL     1      -9.698   8.970  70.956  1.00  0.00    -0.348 A  
HETATM   12  O   UNL     1      -7.280   8.252  67.108  1.00  0.00    -0.081 OA 
HETATM   13  N   UNL     1      -8.443   8.896  68.925  1.00  0.00    -0.129 N  
HETATM   14  C   UNL     1     -10.829   9.323  71.697  1.00  0.00    -0.418 A  
HETATM   15  C   UNL     1     -11.835  10.083  71.108  1.00  0.00    -0.393 A  
HETATM   16  C   UNL     1      -8.357   8.632  67.574  1.00  0.00    -0.120 C  
HETATM   17  H   UNL     1      -7.601   8.738  69.478  1.00  0.00     0.000 HD 
ENDROOT
BRANCH   6  18
HETATM   18  C   UNL     1     -10.733  12.245  67.510  1.00  0.00    -0.255 A  
HETATM   19  C   UNL     1     -12.121  14.029  66.630  1.00  0.00    -0.487 A  
HETATM   20  C   UNL     1     -10.162  14.564  67.937  1.00  0.00    -0.231 A  
HETATM   21  C   UNL     1      -9.894  13.204  68.095  1.00  0.00    -0.228 A  
HETATM   22  C   UNL     1     -11.270  14.976  67.198  1.00  0.00    -0.336 A  
HETATM   23  C   UNL     1     -11.863  12.667  66.795  1.00  0.00    -0.440 A  
ENDBRANCH   6  18
TORSDOF 1
ENDMDL
MODEL       49
REMARK 921   NORMALIZED FREE ENERGY PREDICTED BY IDOCK:   -5.54 KCAL/MOL
REMARK 922        TOTAL FREE ENERGY PREDICTED BY IDOCK:   -6.28 KCAL/MOL
REMARK 923 INTER-LIGAND FREE ENERGY PREDICTED BY IDOCK:   -6.01 KCAL/MOL
REMARK 924 INTRA-LIGAND FREE ENERGY PREDICTED BY IDOCK:   -0.26 KCAL/MOL
REMARK 927      BINDING AFFINITY PREDICTED BY RF-SCORE:    0.00 PKD
ROOT
HETATM    1  O   UNL     1     -12.093  12.974  70.765  1.00  0.00    -0.469 OA 
HETATM    2  H   UNL     1     -11.908  12.668  71.645  1.00  0.00     0.000 HD 
HETATM    3  C   UNL     1     -11.625  12.049  69.808  1.00  0.00    -0.276 C  
HETATM    4  N   UNL     1     -11.908  12.519  68.460  1.00  0.00    -0.315 NA 
HETATM    5  H   UNL     1     -12.571  13.279  68.306  1.00  0.00     0.000 HD 
HETATM    6  C   UNL     1     -11.310  11.961  67.461  1.00  0.00    -0.314 C  
HETATM    7  C   UNL     1      -9.152  10.923  66.795  1.00  0.00    -0.164 A  
HETATM    8  C   UNL     1     -10.313  10.854  67.584  1.00  0.00    -0.232 A  
HETATM    9 CL   UNL     1      -6.862   9.933  65.775  1.00  0.00    -0.098 Cl 
HETATM   10  C   UNL     1     -10.544   9.727  68.392  1.00  0.00    -0.226 A  
HETATM   11  C   UNL     1      -9.656   8.643  68.325  1.00  0.00    -0.160 A  
HETATM   12  O   UNL     1     -13.209  10.363  70.690  1.00  0.00    -0.350 OA 
HETATM   13  N   UNL     1     -11.622   9.602  69.286  1.00  0.00    -0.437 N  
HETATM   14  C   UNL     1      -8.516   8.710  67.521  1.00  0.00    -0.124 A  
HETATM   15  C   UNL     1      -8.264   9.853  66.767  1.00  0.00    -0.124 A  
HETATM   16  C   UNL     1     -12.254  10.628  69.955  1.00  0.00    -0.298 C  
HETATM   17  H   UNL     1     -11.972   8.660  69.455  1.00  0.00     0.000 HD 
ENDROOT
BRANCH   6  18
HETATM   18  C   UNL     1     -11.654  12.477  66.092  1.00  0.00    -0.448 A  
HETATM   19  C   UNL     1     -12.064  12.133  63.727  1.00  0.00    -0.620 A  
HETATM   20  C   UNL     1     -12.210  14.355  64.660  1.00  0.00    -0.479 A  
HETATM   21  C   UNL     1     -11.898  13.847  65.922  1.00  0.00    -0.399 A  
HETATM   22  C   UNL     1     -12.285  13.499  63.563  1.00  0.00    -0.410 A  
HETATM   23  C   UNL     1     -11.761  11.619  64.989  1.00  0.00    -0.072 A  
ENDBRANCH   6  18
TORSDOF 1
ENDMDL
MODEL       50
REMARK 921   NORMALIZED FREE ENERGY PREDICTED BY IDOCK:   -5.54 KCAL/MOL
REMARK 922        TOTAL FREE ENERGY PREDICTED BY IDOCK:   -6.27 KCAL/MOL
REMARK 923 INTER-LIGAND FREE ENERGY PREDICTED BY IDOCK:   -5.84 KCAL/MOL
REMARK 924 INTRA-LIGAND FREE ENERGY PREDICTED BY IDOCK:   -0.43 KCAL/MOL
REMARK 927      BINDING AFFINITY PREDICTED BY RF-SCORE:    0.00 PKD
ROOT
HETATM    1  O   UNL     1     -11.078  17.646  64.745  1.00  0.00    -0.915 OA 
HETATM    2  H   UNL     1     -10.723  18.463  64.416  1.00  0.00     0.000 HD 
HETATM    3  C   UNL     1     -10.310  17.171  65.829  1.00  0.00    -0.240 C  
HETATM    4  N   UNL     1     -10.854  15.917  66.332  1.00  0.00    -0.249 NA 
HETATM    5  H   UNL     1     -11.791  15.617  66.065  1.00  0.00     0.000 HD 
HETATM    6  C   UNL     1     -10.133  15.191  67.119  1.00  0.00    -0.239 C  
HETATM    7  C   UNL     1      -7.784  14.511  67.565  1.00  0.00    -0.208 A  
HETATM    8  C   UNL     1      -8.745  15.536  67.555  1.00  0.00    -0.183 A  
HETATM    9 CL   UNL     1      -5.360  13.479  68.130  1.00  0.00    -0.099 Cl 
HETATM   10  C   UNL     1      -8.407  16.818  68.024  1.00  0.00    -0.200 A  
HETATM   11  C   UNL     1      -7.140  17.028  68.586  1.00  0.00    -0.210 A  
HETATM   12  O   UNL     1     -10.933  19.184  67.128  1.00  0.00    -0.453 OA 
HETATM   13  N   UNL     1      -9.263  17.932  67.970  1.00  0.00    -0.261 N  
HETATM   14  C   UNL     1      -6.196  15.997  68.613  1.00  0.00    -0.115 A  
HETATM   15  C   UNL     1      -6.520  14.748  68.093  1.00  0.00    -0.136 A  
HETATM   16  C   UNL     1     -10.240  18.169  67.027  1.00  0.00    -0.365 C  
HETATM   17  H   UNL     1      -9.152  18.633  68.702  1.00  0.00     0.000 HD 
ENDROOT
BRANCH   6  18
HETATM   18  C   UNL     1     -10.752  13.916  67.618  1.00  0.00    -0.255 A  
HETATM   19  C   UNL     1     -11.867  12.621  69.340  1.00  0.00    -0.356 A  
HETATM   20  C   UNL     1     -11.351  11.600  67.212  1.00  0.00    -0.372 A  
HETATM   21  C   UNL     1     -10.790  12.800  66.772  1.00  0.00    -0.289 A  
HETATM   22  C   UNL     1     -11.881  11.509  68.499  1.00  0.00    -0.365 A  
HETATM   23  C   UNL     1     -11.316  13.825  68.899  1.00  0.00    -0.328 A  
ENDBRANCH   6  18
TORSDOF 1
ENDMDL
MODEL       51
REMARK 921   NORMALIZED FREE ENERGY PREDICTED BY IDOCK:   -5.52 KCAL/MOL
REMARK 922        TOTAL FREE ENERGY PREDICTED BY IDOCK:   -6.25 KCAL/MOL
REMARK 923 INTER-LIGAND FREE ENERGY PREDICTED BY IDOCK:   -5.77 KCAL/MOL
REMARK 924 INTRA-LIGAND FREE ENERGY PREDICTED BY IDOCK:   -0.47 KCAL/MOL
REMARK 927      BINDING AFFINITY PREDICTED BY RF-SCORE:    0.00 PKD
ROOT
HETATM    1  O   UNL     1     -13.265  13.891  65.136  1.00  0.00    -0.768 OA 
HETATM    2  H   UNL     1     -13.911  13.372  64.670  1.00  0.00     0.000 HD 
HETATM    3  C   UNL     1     -12.231  13.070  65.631  1.00  0.00    -0.466 C  
HETATM    4  N   UNL     1     -11.243  13.865  66.345  1.00  0.00    -0.310 NA 
HETATM    5  H   UNL     1     -11.226  14.880  66.245  1.00  0.00     0.000 HD 
HETATM    6  C   UNL     1     -10.387  13.269  67.107  1.00  0.00    -0.248 C  
HETATM    7  C   UNL     1     -10.140  11.331  68.643  1.00  0.00    -0.216 A  
HETATM    8  C   UNL     1     -10.340  11.792  67.331  1.00  0.00    -0.228 A  
HETATM    9 CL   UNL     1      -9.674   9.423  70.489  1.00  0.00    -0.309 Cl 
HETATM   10  C   UNL     1     -10.405  10.873  66.269  1.00  0.00    -0.250 A  
HETATM   11  C   UNL     1     -10.174   9.514  66.525  1.00  0.00    -0.307 A  
HETATM   12  O   UNL     1     -11.619  12.469  63.309  1.00  0.00    -0.468 OA 
HETATM   13  N   UNL     1     -10.694  11.222  64.938  1.00  0.00    -0.294 N  
HETATM   14  C   UNL     1      -9.954   9.065  67.830  1.00  0.00    -0.220 A  
HETATM   15  C   UNL     1      -9.948   9.975  68.884  1.00  0.00    -0.192 A  
HETATM   16  C   UNL     1     -11.481  12.272  64.519  1.00  0.00    -0.341 C  
HETATM   17  H   UNL     1     -10.279  10.640  64.210  1.00  0.00     0.000 HD 
ENDROOT
BRANCH   6  18
HETATM   18  C   UNL     1      -9.382  14.140  67.806  1.00  0.00    -0.200 A  
HETATM   19  C   UNL     1      -7.100  14.850  68.219  1.00  0.00    -0.112 A  
HETATM   20  C   UNL     1      -8.920  15.911  69.399  1.00  0.00    -0.209 A  
HETATM   21  C   UNL     1      -9.832  15.095  68.728  1.00  0.00    -0.223 A  
HETATM   22  C   UNL     1      -7.554  15.781  69.150  1.00  0.00    -0.212 A  
HETATM   23  C   UNL     1      -8.009  14.038  67.538  1.00  0.00    -0.199 A  
ENDBRANCH   6  18
TORSDOF 1
ENDMDL
MODEL       52
REMARK 921   NORMALIZED FREE ENERGY PREDICTED BY IDOCK:   -5.50 KCAL/MOL
REMARK 922        TOTAL FREE ENERGY PREDICTED BY IDOCK:   -6.23 KCAL/MOL
REMARK 923 INTER-LIGAND FREE ENERGY PREDICTED BY IDOCK:   -5.75 KCAL/MOL
REMARK 924 INTRA-LIGAND FREE ENERGY PREDICTED BY IDOCK:   -0.48 KCAL/MOL
REMARK 927      BINDING AFFINITY PREDICTED BY RF-SCORE:    0.00 PKD
ROOT
HETATM    1  O   UNL     1     -12.251  13.438  69.283  1.00  0.00    -0.284 OA 
HETATM    2  H   UNL     1     -12.408  14.031  68.558  1.00  0.00     0.000 HD 
HETATM    3  C   UNL     1     -11.430  12.365  68.879  1.00  0.00    -0.307 C  
HETATM    4  N   UNL     1     -11.190  11.456  69.991  1.00  0.00    -0.482 NA 
HETATM    5  H   UNL     1     -11.399  11.744  70.947  1.00  0.00     0.000 HD 
HETATM    6  C   UNL     1     -10.710  10.282  69.751  1.00  0.00    -0.285 C  
HETATM    7  C   UNL     1     -10.757   8.444  68.079  1.00  0.00    -0.118 A  
HETATM    8  C   UNL     1     -10.386   9.764  68.387  1.00  0.00    -0.230 A  
HETATM    9 CL   UNL     1     -10.788   6.244  66.522  1.00  0.00    -0.245 Cl 
HETATM   10  C   UNL     1      -9.659  10.523  67.453  1.00  0.00    -0.158 A  
HETATM   11  C   UNL     1      -9.231   9.916  66.263  1.00  0.00    -0.208 A  
HETATM   12  O   UNL     1      -9.598  13.966  68.415  1.00  0.00    -0.214 OA 
HETATM   13  N   UNL     1      -9.321  11.877  67.625  1.00  0.00    -0.178 N  
HETATM   14  C   UNL     1      -9.586   8.596  65.973  1.00  0.00    -0.265 A  
HETATM   15  C   UNL     1     -10.355   7.870  66.878  1.00  0.00    -0.330 A  
HETATM   16  C   UNL     1     -10.040  12.817  68.331  1.00  0.00    -0.226 C  
HETATM   17  H   UNL     1      -8.458  12.195  67.184  1.00  0.00     0.000 HD 
ENDROOT
BRANCH   6  18
HETATM   18  C   UNL     1     -10.469   9.394  70.939  1.00  0.00    -0.381 A  
HETATM   19  C   UNL     1      -8.983   8.235  72.466  1.00  0.00    -0.305 A  
HETATM   20  C   UNL     1     -11.375   8.057  72.750  1.00  0.00    -0.439 A  
HETATM   21  C   UNL     1     -11.569   8.892  71.649  1.00  0.00    -0.408 A  
HETATM   22  C   UNL     1     -10.083   7.723  73.153  1.00  0.00    -0.390 A  
HETATM   23  C   UNL     1      -9.173   9.078  71.370  1.00  0.00    -0.293 A  
ENDBRANCH   6  18
TORSDOF 1
ENDMDL
MODEL       53
REMARK 921   NORMALIZED FREE ENERGY PREDICTED BY IDOCK:   -5.49 KCAL/MOL
REMARK 922        TOTAL FREE ENERGY PREDICTED BY IDOCK:   -6.22 KCAL/MOL
REMARK 923 INTER-LIGAND FREE ENERGY PREDICTED BY IDOCK:   -5.75 KCAL/MOL
REMARK 924 INTRA-LIGAND FREE ENERGY PREDICTED BY IDOCK:   -0.47 KCAL/MOL
REMARK 927      BINDING AFFINITY PREDICTED BY RF-SCORE:    0.00 PKD
ROOT
HETATM    1  O   UNL     1      -9.618   8.110  65.526  1.00  0.00    -0.394 OA 
HETATM    2  H   UNL     1      -9.443   7.179  65.602  1.00  0.00     0.000 HD 
HETATM    3  C   UNL     1      -9.693   8.707  66.802  1.00  0.00    -0.233 C  
HETATM    4  N   UNL     1      -9.962  10.133  66.686  1.00  0.00    -0.206 NA 
HETATM    5  H   UNL     1      -9.848  10.608  65.791  1.00  0.00     0.000 HD 
HETATM    6  C   UNL     1     -10.347  10.787  67.730  1.00  0.00    -0.193 C  
HETATM    7  C   UNL     1     -11.700  10.560  69.802  1.00  0.00    -0.354 A  
HETATM    8  C   UNL     1     -10.558  10.178  69.079  1.00  0.00    -0.245 A  
HETATM    9 CL   UNL     1     -13.256  10.629  72.002  1.00  0.00    -0.555 Cl 
HETATM   10  C   UNL     1      -9.615   9.314  69.664  1.00  0.00    -0.183 A  
HETATM   11  C   UNL     1      -9.783   8.922  71.000  1.00  0.00    -0.320 A  
HETATM   12  O   UNL     1      -7.322   8.112  67.198  1.00  0.00    -0.085 OA 
HETATM   13  N   UNL     1      -8.491   8.800  68.995  1.00  0.00    -0.129 N  
HETATM   14  C   UNL     1     -10.912   9.323  71.720  1.00  0.00    -0.383 A  
HETATM   15  C   UNL     1     -11.869  10.132  71.115  1.00  0.00    -0.381 A  
HETATM   16  C   UNL     1      -8.390   8.539  67.645  1.00  0.00    -0.129 C  
HETATM   17  H   UNL     1      -7.669   8.600  69.564  1.00  0.00     0.000 HD 
ENDROOT
BRANCH   6  18
HETATM   18  C   UNL     1     -10.595  12.259  67.553  1.00  0.00    -0.242 A  
HETATM   19  C   UNL     1      -9.988  14.579  67.912  1.00  0.00    -0.226 A  
HETATM   20  C   UNL     1     -11.975  14.038  66.649  1.00  0.00    -0.473 A  
HETATM   21  C   UNL     1     -11.715  12.677  66.822  1.00  0.00    -0.460 A  
HETATM   22  C   UNL     1     -11.116  14.987  67.202  1.00  0.00    -0.332 A  
HETATM   23  C   UNL     1      -9.719  13.219  68.078  1.00  0.00    -0.223 A  
ENDBRANCH   6  18
TORSDOF 1
ENDMDL
MODEL       54
REMARK 921   NORMALIZED FREE ENERGY PREDICTED BY IDOCK:   -5.41 KCAL/MOL
REMARK 922        TOTAL FREE ENERGY PREDICTED BY IDOCK:   -6.13 KCAL/MOL
REMARK 923 INTER-LIGAND FREE ENERGY PREDICTED BY IDOCK:   -5.75 KCAL/MOL
REMARK 924 INTRA-LIGAND FREE ENERGY PREDICTED BY IDOCK:   -0.38 KCAL/MOL
REMARK 927      BINDING AFFINITY PREDICTED BY RF-SCORE:    0.00 PKD
ROOT
HETATM    1  O   UNL     1     -14.317   7.506  70.977  1.00  0.00    -0.655 OA 
HETATM    2  H   UNL     1     -15.218   7.697  71.208  1.00  0.00     0.000 HD 
HETATM    3  C   UNL     1     -13.548   8.689  70.955  1.00  0.00     0.114 C  
HETATM    4  N   UNL     1     -12.167   8.397  70.600  1.00  0.00    -0.490 NA 
HETATM    5  H   UNL     1     -11.819   7.438  70.626  1.00  0.00     0.000 HD 
HETATM    6  C   UNL     1     -11.389   9.366  70.250  1.00  0.00    -0.220 C  
HETATM    7  C   UNL     1     -11.381  11.544  69.053  1.00  0.00    -0.339 A  
HETATM    8  C   UNL     1     -11.809  10.798  70.164  1.00  0.00    -0.427 A  
HETATM    9 CL   UNL     1     -11.071  13.823  67.648  1.00  0.00    -0.282 Cl 
HETATM   10  C   UNL     1     -12.537  11.426  71.191  1.00  0.00    -0.386 A  
HETATM   11  C   UNL     1     -12.742  12.812  71.135  1.00  0.00    -0.355 A  
HETATM   12  O   UNL     1     -13.971   8.987  73.377  1.00  0.00    -0.137 OA 
HETATM   13  N   UNL     1     -13.089  10.752  72.294  1.00  0.00    -0.504 N  
HETATM   14  C   UNL     1     -12.295  13.551  70.037  1.00  0.00    -0.315 A  
HETATM   15  C   UNL     1     -11.625  12.912  68.997  1.00  0.00    -0.322 A  
HETATM   16  C   UNL     1     -13.534   9.448  72.319  1.00  0.00    -0.465 C  
HETATM   17  H   UNL     1     -13.168  11.281  73.163  1.00  0.00     0.000 HD 
ENDROOT
BRANCH   6  18
HETATM   18  C   UNL     1      -9.971   9.005  69.909  1.00  0.00    -0.203 A  
HETATM   19  C   UNL     1      -7.635   8.750  70.509  1.00  0.00    -0.085 A  
HETATM   20  C   UNL     1      -8.363   8.231  68.265  1.00  0.00    -0.132 A  
HETATM   21  C   UNL     1      -9.673   8.564  68.612  1.00  0.00    -0.171 A  
HETATM   22  C   UNL     1      -7.344   8.333  69.211  1.00  0.00    -0.076 A  
HETATM   23  C   UNL     1      -8.946   9.074  70.863  1.00  0.00    -0.300 A  
ENDBRANCH   6  18
TORSDOF 1
ENDMDL
MODEL       55
REMARK 921   NORMALIZED FREE ENERGY PREDICTED BY IDOCK:   -5.37 KCAL/MOL
REMARK 922        TOTAL FREE ENERGY PREDICTED BY IDOCK:   -6.10 KCAL/MOL
REMARK 923 INTER-LIGAND FREE ENERGY PREDICTED BY IDOCK:   -5.62 KCAL/MOL
REMARK 924 INTRA-LIGAND FREE ENERGY PREDICTED BY IDOCK:   -0.48 KCAL/MOL
REMARK 927      BINDING AFFINITY PREDICTED BY RF-SCORE:    0.00 PKD
ROOT
HETATM    1  O   UNL     1     -11.126   6.194  66.332  1.00  0.00    -0.697 OA 
HETATM    2  H   UNL     1     -11.356   5.311  66.598  1.00  0.00     0.000 HD 
HETATM    3  C   UNL     1     -10.910   7.013  67.460  1.00  0.00    -0.267 C  
HETATM    4  N   UNL     1     -10.558   8.365  67.051  1.00  0.00    -0.354 NA 
HETATM    5  H   UNL     1     -10.278   8.558  66.090  1.00  0.00     0.000 HD 
HETATM    6  C   UNL     1     -10.606   9.317  67.922  1.00  0.00    -0.231 C  
HETATM    7  C   UNL     1     -11.875  10.100  69.910  1.00  0.00    -0.206 A  
HETATM    8  C   UNL     1     -11.017   9.139  69.348  1.00  0.00    -0.108 A  
HETATM    9 CL   UNL     1     -13.200  11.254  71.954  1.00  0.00    -0.566 Cl 
HETATM   10  C   UNL     1     -10.510   8.100  70.148  1.00  0.00    -0.225 A  
HETATM   11  C   UNL     1     -10.793   8.093  71.521  1.00  0.00    -0.290 A  
HETATM   12  O   UNL     1      -8.998   5.580  68.111  1.00  0.00    -0.109 OA 
HETATM   13  N   UNL     1      -9.723   7.041  69.663  1.00  0.00    -0.157 N  
HETATM   14  C   UNL     1     -11.629   9.065  72.078  1.00  0.00    -0.413 A  
HETATM   15  C   UNL     1     -12.174  10.057  71.268  1.00  0.00    -0.402 A  
HETATM   16  C   UNL     1      -9.776   6.493  68.398  1.00  0.00    -0.132 C  
HETATM   17  H   UNL     1      -9.046   6.637  70.310  1.00  0.00     0.000 HD 
ENDROOT
BRANCH   6  18
HETATM   18  C   UNL     1     -10.218  10.689  67.446  1.00  0.00    -0.243 A  
HETATM   19  C   UNL     1      -8.720  12.597  67.441  1.00  0.00    -0.191 A  
HETATM   20  C   UNL     1     -10.707  12.624  66.067  1.00  0.00    -0.295 A  
HETATM   21  C   UNL     1     -11.038  11.346  66.519  1.00  0.00    -0.312 A  
HETATM   22  C   UNL     1      -9.553  13.252  66.535  1.00  0.00    -0.267 A  
HETATM   23  C   UNL     1      -9.043  11.314  67.888  1.00  0.00    -0.150 A  
ENDBRANCH   6  18
TORSDOF 1
ENDMDL
MODEL       56
REMARK 921   NORMALIZED FREE ENERGY PREDICTED BY IDOCK:   -5.35 KCAL/MOL
REMARK 922        TOTAL FREE ENERGY PREDICTED BY IDOCK:   -6.07 KCAL/MOL
REMARK 923 INTER-LIGAND FREE ENERGY PREDICTED BY IDOCK:   -6.05 KCAL/MOL
REMARK 924 INTRA-LIGAND FREE ENERGY PREDICTED BY IDOCK:   -0.02 KCAL/MOL
REMARK 927      BINDING AFFINITY PREDICTED BY RF-SCORE:    0.00 PKD
ROOT
HETATM    1  O   UNL     1      -6.928  10.208  67.033  1.00  0.00    -0.085 OA 
HETATM    2  H   UNL     1      -6.374   9.919  66.317  1.00  0.00     0.000 HD 
HETATM    3  C   UNL     1      -8.192  10.609  66.554  1.00  0.00    -0.138 C  
HETATM    4  N   UNL     1      -9.040  11.051  67.651  1.00  0.00    -0.144 NA 
HETATM    5  H   UNL     1      -8.789  10.837  68.616  1.00  0.00     0.000 HD 
HETATM    6  C   UNL     1     -10.114  11.718  67.387  1.00  0.00    -0.195 C  
HETATM    7  C   UNL     1     -11.046  13.396  65.809  1.00  0.00    -0.295 A  
HETATM    8  C   UNL     1     -10.559  12.094  66.010  1.00  0.00    -0.292 A  
HETATM    9 CL   UNL     1     -12.223  15.337  64.355  1.00  0.00    -0.340 Cl 
HETATM   10  C   UNL     1     -10.578  11.167  64.952  1.00  0.00    -0.289 A  
HETATM   11  C   UNL     1     -11.174  11.530  63.736  1.00  0.00    -0.456 A  
HETATM   12  O   UNL     1      -8.607   8.297  65.768  1.00  0.00    -0.145 OA 
HETATM   13  N   UNL     1     -10.031   9.874  65.023  1.00  0.00    -0.385 N  
HETATM   14  C   UNL     1     -11.676  12.821  63.550  1.00  0.00    -0.597 A  
HETATM   15  C   UNL     1     -11.601  13.750  64.583  1.00  0.00    -0.378 A  
HETATM   16  C   UNL     1      -8.956   9.480  65.792  1.00  0.00    -0.179 C  
HETATM   17  H   UNL     1     -10.473   9.156  64.450  1.00  0.00     0.000 HD 
ENDROOT
BRANCH   6  18
HETATM   18  C   UNL     1     -10.957  12.134  68.559  1.00  0.00    -0.276 A  
HETATM   19  C   UNL     1     -11.931  13.838  69.984  1.00  0.00    -0.407 A  
HETATM   20  C   UNL     1     -12.360  11.504  70.436  1.00  0.00    -0.390 A  
HETATM   21  C   UNL     1     -11.579  11.147  69.336  1.00  0.00    -0.388 A  
HETATM   22  C   UNL     1     -12.528  12.849  70.764  1.00  0.00    -0.370 A  
HETATM   23  C   UNL     1     -11.157  13.485  68.877  1.00  0.00    -0.305 A  
ENDBRANCH   6  18
TORSDOF 1
ENDMDL
MODEL       57
REMARK 921   NORMALIZED FREE ENERGY PREDICTED BY IDOCK:   -5.35 KCAL/MOL
REMARK 922        TOTAL FREE ENERGY PREDICTED BY IDOCK:   -6.07 KCAL/MOL
REMARK 923 INTER-LIGAND FREE ENERGY PREDICTED BY IDOCK:   -5.66 KCAL/MOL
REMARK 924 INTRA-LIGAND FREE ENERGY PREDICTED BY IDOCK:   -0.41 KCAL/MOL
REMARK 927      BINDING AFFINITY PREDICTED BY RF-SCORE:    0.00 PKD
ROOT
HETATM    1  O   UNL     1     -11.847  16.697  73.181  1.00  0.00    -0.473 OA 
HETATM    2  H   UNL     1     -12.157  16.186  73.919  1.00  0.00     0.000 HD 
HETATM    3  C   UNL     1     -11.770  15.899  72.020  1.00  0.00    -0.492 C  
HETATM    4  N   UNL     1     -11.294  16.683  70.890  1.00  0.00    -0.445 NA 
HETATM    5  H   UNL     1     -11.282  17.702  70.936  1.00  0.00     0.000 HD 
HETATM    6  C   UNL     1     -10.887  16.072  69.828  1.00  0.00    -0.337 C  
HETATM    7  C   UNL     1      -9.714  14.015  69.073  1.00  0.00     0.046 A  
HETATM    8  C   UNL     1     -10.851  14.586  69.669  1.00  0.00    -0.180 A  
HETATM    9 CL   UNL     1      -8.307  11.972  68.017  1.00  0.00    -0.153 Cl 
HETATM   10  C   UNL     1     -11.941  13.770  70.019  1.00  0.00    -0.338 A  
HETATM   11  C   UNL     1     -11.916  12.410  69.679  1.00  0.00    -0.341 A  
HETATM   12  O   UNL     1     -14.221  15.563  72.110  1.00  0.00    -0.530 OA 
HETATM   13  N   UNL     1     -13.083  14.226  70.702  1.00  0.00    -0.378 N  
HETATM   14  C   UNL     1     -10.790  11.854  69.066  1.00  0.00    -0.235 A  
HETATM   15  C   UNL     1      -9.691  12.657  68.775  1.00  0.00     0.063 A  
HETATM   16  C   UNL     1     -13.134  15.261  71.612  1.00  0.00    -0.425 C  
HETATM   17  H   UNL     1     -13.959  13.744  70.505  1.00  0.00     0.000 HD 
ENDROOT
BRANCH   6  18
HETATM   18  C   UNL     1     -10.422  16.933  68.688  1.00  0.00    -0.352 A  
HETATM   19  C   UNL     1      -9.010  18.683  67.779  1.00  0.00    -0.301 A  
HETATM   20  C   UNL     1     -10.594  17.554  66.348  1.00  0.00    -0.195 A  
HETATM   21  C   UNL     1     -11.000  16.761  67.423  1.00  0.00    -0.092 A  
HETATM   22  C   UNL     1      -9.605  18.520  66.530  1.00  0.00    -0.335 A  
HETATM   23  C   UNL     1      -9.406  17.886  68.854  1.00  0.00    -0.163 A  
ENDBRANCH   6  18
TORSDOF 1
ENDMDL
MODEL       58
REMARK 921   NORMALIZED FREE ENERGY PREDICTED BY IDOCK:   -5.30 KCAL/MOL
REMARK 922        TOTAL FREE ENERGY PREDICTED BY IDOCK:   -6.02 KCAL/MOL
REMARK 923 INTER-LIGAND FREE ENERGY PREDICTED BY IDOCK:   -5.54 KCAL/MOL
REMARK 924 INTRA-LIGAND FREE ENERGY PREDICTED BY IDOCK:   -0.48 KCAL/MOL
REMARK 927      BINDING AFFINITY PREDICTED BY RF-SCORE:    0.00 PKD
ROOT
HETATM    1  O   UNL     1     -14.216   6.698  72.125  1.00  0.00    -0.544 OA 
HETATM    2  H   UNL     1     -15.001   6.962  71.661  1.00  0.00     0.000 HD 
HETATM    3  C   UNL     1     -13.141   7.555  71.810  1.00  0.00    -0.322 C  
HETATM    4  N   UNL     1     -11.937   7.150  72.522  1.00  0.00    -0.500 NA 
HETATM    5  H   UNL     1     -11.994   6.500  73.305  1.00  0.00     0.000 HD 
HETATM    6  C   UNL     1     -10.796   7.626  72.148  1.00  0.00    -0.247 C  
HETATM    7  C   UNL     1      -9.531   8.340  70.132  1.00  0.00    -0.167 A  
HETATM    8  C   UNL     1     -10.607   8.571  71.005  1.00  0.00    -0.267 A  
HETATM    9 CL   UNL     1      -7.890   8.992  68.095  1.00  0.00    -0.100 Cl 
HETATM   10  C   UNL     1     -11.415   9.709  70.835  1.00  0.00    -0.353 A  
HETATM   11  C   UNL     1     -11.074  10.650  69.853  1.00  0.00    -0.364 A  
HETATM   12  O   UNL     1     -14.375   9.447  72.823  1.00  0.00    -0.407 OA 
HETATM   13  N   UNL     1     -12.567   9.981  71.594  1.00  0.00    -0.399 N  
HETATM   14  C   UNL     1      -9.988  10.424  69.002  1.00  0.00    -0.224 A  
HETATM   15  C   UNL     1      -9.228   9.267  69.139  1.00  0.00    -0.149 A  
HETATM   16  C   UNL     1     -13.414   9.052  72.158  1.00  0.00    -0.459 C  
HETATM   17  H   UNL     1     -12.799  10.963  71.741  1.00  0.00     0.000 HD 
ENDROOT
BRANCH   6  18
HETATM   18  C   UNL     1      -9.591   7.184  72.929  1.00  0.00    -0.188 A  
HETATM   19  C   UNL     1      -7.782   7.623  74.484  1.00  0.00    -0.213 A  
HETATM   20  C   UNL     1      -8.032   5.422  73.523  1.00  0.00    -0.110 A  
HETATM   21  C   UNL     1      -9.154   5.857  72.817  1.00  0.00    -0.129 A  
HETATM   22  C   UNL     1      -7.342   6.308  74.350  1.00  0.00    -0.089 A  
HETATM   23  C   UNL     1      -8.910   8.060  73.787  1.00  0.00    -0.313 A  
ENDBRANCH   6  18
TORSDOF 1
ENDMDL
MODEL       59
REMARK 921   NORMALIZED FREE ENERGY PREDICTED BY IDOCK:   -5.29 KCAL/MOL
REMARK 922        TOTAL FREE ENERGY PREDICTED BY IDOCK:   -6.01 KCAL/MOL
REMARK 923 INTER-LIGAND FREE ENERGY PREDICTED BY IDOCK:   -5.54 KCAL/MOL
REMARK 924 INTRA-LIGAND FREE ENERGY PREDICTED BY IDOCK:   -0.47 KCAL/MOL
REMARK 927      BINDING AFFINITY PREDICTED BY RF-SCORE:    0.00 PKD
ROOT
HETATM    1  O   UNL     1     -11.262  13.199  63.516  1.00  0.00    -0.588 OA 
HETATM    2  H   UNL     1     -11.776  13.866  63.076  1.00  0.00     0.000 HD 
HETATM    3  C   UNL     1     -11.025  13.561  64.859  1.00  0.00    -0.352 C  
HETATM    4  N   UNL     1     -10.238  12.540  65.534  1.00  0.00    -0.273 NA 
HETATM    5  H   UNL     1     -10.127  11.615  65.118  1.00  0.00     0.000 HD 
HETATM    6  C   UNL     1      -9.681  12.820  66.665  1.00  0.00    -0.252 C  
HETATM    7  C   UNL     1      -8.601  14.675  67.917  1.00  0.00    -0.165 A  
HETATM    8  C   UNL     1      -9.772  14.148  67.346  1.00  0.00    -0.232 A  
HETATM    9 CL   UNL     1      -7.230  16.458  69.402  1.00  0.00    -0.219 Cl 
HETATM   10  C   UNL     1     -10.993  14.828  67.498  1.00  0.00    -0.304 A  
HETATM   11  C   UNL     1     -11.041  15.976  68.301  1.00  0.00    -0.351 A  
HETATM   12  O   UNL     1     -13.461  13.471  65.295  1.00  0.00    -0.485 OA 
HETATM   13  N   UNL     1     -12.198  14.434  66.889  1.00  0.00    -0.545 N  
HETATM   14  C   UNL     1      -9.877  16.483  68.884  1.00  0.00    -0.260 A  
HETATM   15  C   UNL     1      -8.662  15.836  68.681  1.00  0.00    -0.195 A  
HETATM   16  C   UNL     1     -12.331  13.774  65.687  1.00  0.00    -0.482 C  
HETATM   17  H   UNL     1     -13.059  14.659  67.387  1.00  0.00     0.000 HD 
ENDROOT
BRANCH   6  18
HETATM   18  C   UNL     1      -8.894  11.721  67.322  1.00  0.00    -0.167 A  
HETATM   19  C   UNL     1      -7.010  10.195  67.383  1.00  0.00    -0.082 A  
HETATM   20  C   UNL     1      -8.637  10.169  69.168  1.00  0.00    -0.167 A  
HETATM   21  C   UNL     1      -9.343  11.196  68.541  1.00  0.00    -0.190 A  
HETATM   22  C   UNL     1      -7.475   9.664  68.584  1.00  0.00    -0.075 A  
HETATM   23  C   UNL     1      -7.708  11.229  66.757  1.00  0.00    -0.155 A  
ENDBRANCH   6  18
TORSDOF 1
ENDMDL
MODEL       60
REMARK 921   NORMALIZED FREE ENERGY PREDICTED BY IDOCK:   -5.28 KCAL/MOL
REMARK 922        TOTAL FREE ENERGY PREDICTED BY IDOCK:   -5.99 KCAL/MOL
REMARK 923 INTER-LIGAND FREE ENERGY PREDICTED BY IDOCK:   -5.59 KCAL/MOL
REMARK 924 INTRA-LIGAND FREE ENERGY PREDICTED BY IDOCK:   -0.41 KCAL/MOL
REMARK 927      BINDING AFFINITY PREDICTED BY RF-SCORE:    0.00 PKD
ROOT
HETATM    1  O   UNL     1      -9.383  12.645  65.722  1.00  0.00    -0.446 OA 
HETATM    2  H   UNL     1      -9.471  13.562  65.955  1.00  0.00     0.000 HD 
HETATM    3  C   UNL     1     -10.009  11.825  66.684  1.00  0.00    -0.200 C  
HETATM    4  N   UNL     1      -9.873  10.421  66.327  1.00  0.00    -0.208 NA 
HETATM    5  H   UNL     1      -9.585  10.153  65.386  1.00  0.00     0.000 HD 
HETATM    6  C   UNL     1     -10.123   9.519  67.216  1.00  0.00    -0.215 C  
HETATM    7  C   UNL     1      -9.944   9.059  69.652  1.00  0.00    -0.196 A  
HETATM    8  C   UNL     1     -10.536   9.810  68.623  1.00  0.00    -0.249 A  
HETATM    9 CL   UNL     1      -9.685   8.247  72.209  1.00  0.00    -0.330 Cl 
HETATM   10  C   UNL     1     -11.545  10.742  68.928  1.00  0.00    -0.291 A  
HETATM   11  C   UNL     1     -12.012  10.838  70.246  1.00  0.00    -0.438 A  
HETATM   12  O   UNL     1     -12.189  12.851  66.113  1.00  0.00    -0.456 OA 
HETATM   13  N   UNL     1     -12.133  11.606  67.988  1.00  0.00    -0.092 N  
HETATM   14  C   UNL     1     -11.432  10.071  71.261  1.00  0.00    -0.390 A  
HETATM   15  C   UNL     1     -10.395   9.193  70.961  1.00  0.00    -0.293 A  
HETATM   16  C   UNL     1     -11.531  12.123  66.861  1.00  0.00    -0.351 C  
HETATM   17  H   UNL     1     -13.102  11.877  68.156  1.00  0.00     0.000 HD 
ENDROOT
BRANCH   6  18
HETATM   18  C   UNL     1      -9.981   8.086  66.785  1.00  0.00    -0.344 A  
HETATM   19  C   UNL     1     -10.839   5.827  66.586  1.00  0.00    -0.290 A  
HETATM   20  C   UNL     1      -8.637   6.354  65.746  1.00  0.00    -0.152 A  
HETATM   21  C   UNL     1      -8.800   7.680  66.148  1.00  0.00    -0.192 A  
HETATM   22  C   UNL     1      -9.654   5.427  65.973  1.00  0.00    -0.149 A  
HETATM   23  C   UNL     1     -11.010   7.155  66.981  1.00  0.00    -0.304 A  
ENDBRANCH   6  18
TORSDOF 1
ENDMDL
MODEL       61
REMARK 921   NORMALIZED FREE ENERGY PREDICTED BY IDOCK:   -5.26 KCAL/MOL
REMARK 922        TOTAL FREE ENERGY PREDICTED BY IDOCK:   -5.98 KCAL/MOL
REMARK 923 INTER-LIGAND FREE ENERGY PREDICTED BY IDOCK:   -5.50 KCAL/MOL
REMARK 924 INTRA-LIGAND FREE ENERGY PREDICTED BY IDOCK:   -0.48 KCAL/MOL
REMARK 927      BINDING AFFINITY PREDICTED BY RF-SCORE:    0.00 PKD
ROOT
HETATM    1  O   UNL     1      -5.331  12.709  67.164  1.00  0.00    -0.312 OA 
HETATM    2  H   UNL     1      -5.197  11.771  67.098  1.00  0.00     0.000 HD 
HETATM    3  C   UNL     1      -6.708  13.011  67.227  1.00  0.00    -0.008 C  
HETATM    4  N   UNL     1      -6.912  14.449  67.329  1.00  0.00    -0.372 NA 
HETATM    5  H   UNL     1      -6.136  15.065  67.571  1.00  0.00     0.000 HD 
HETATM    6  C   UNL     1      -8.088  14.934  67.108  1.00  0.00    -0.209 C  
HETATM    7  C   UNL     1     -10.119  14.605  65.713  1.00  0.00    -0.364 A  
HETATM    8  C   UNL     1      -9.283  14.117  66.732  1.00  0.00    -0.282 A  
HETATM    9 CL   UNL     1     -12.347  14.577  64.196  1.00  0.00    -0.441 Cl 
HETATM   10  C   UNL     1      -9.627  12.939  67.417  1.00  0.00    -0.203 A  
HETATM   11  C   UNL     1     -10.854  12.319  67.137  1.00  0.00    -0.282 A  
HETATM   12  O   UNL     1      -6.865  11.772  69.364  1.00  0.00    -0.112 OA 
HETATM   13  N   UNL     1      -8.816  12.320  68.383  1.00  0.00    -0.289 N  
HETATM   14  C   UNL     1     -11.691  12.821  66.137  1.00  0.00    -0.458 A  
HETATM   15  C   UNL     1     -11.315  13.956  65.424  1.00  0.00    -0.309 A  
HETATM   16  C   UNL     1      -7.438  12.344  68.433  1.00  0.00    -0.123 C  
HETATM   17  H   UNL     1      -9.293  11.801  69.120  1.00  0.00     0.000 HD 
ENDROOT
BRANCH   6  18
HETATM   18  C   UNL     1      -8.242  16.423  67.242  1.00  0.00    -0.193 A  
HETATM   19  C   UNL     1      -9.114  18.380  68.380  1.00  0.00    -0.340 A  
HETATM   20  C   UNL     1      -7.751  18.646  66.404  1.00  0.00    -0.292 A  
HETATM   21  C   UNL     1      -7.617  17.260  66.309  1.00  0.00    -0.360 A  
HETATM   22  C   UNL     1      -8.506  19.204  67.435  1.00  0.00    -0.308 A  
HETATM   23  C   UNL     1      -8.974  16.993  68.294  1.00  0.00    -0.242 A  
ENDBRANCH   6  18
TORSDOF 1
ENDMDL
MODEL       62
REMARK 921   NORMALIZED FREE ENERGY PREDICTED BY IDOCK:   -5.24 KCAL/MOL
REMARK 922        TOTAL FREE ENERGY PREDICTED BY IDOCK:   -5.95 KCAL/MOL
REMARK 923 INTER-LIGAND FREE ENERGY PREDICTED BY IDOCK:   -5.50 KCAL/MOL
REMARK 924 INTRA-LIGAND FREE ENERGY PREDICTED BY IDOCK:   -0.45 KCAL/MOL
REMARK 927      BINDING AFFINITY PREDICTED BY RF-SCORE:    0.00 PKD
ROOT
HETATM    1  O   UNL     1      -6.481  15.653  67.098  1.00  0.00    -0.293 OA 
HETATM    2  H   UNL     1      -6.396  16.541  67.424  1.00  0.00     0.000 HD 
HETATM    3  C   UNL     1      -7.803  15.188  67.262  1.00  0.00    -0.211 C  
HETATM    4  N   UNL     1      -7.932  13.826  66.763  1.00  0.00    -0.305 NA 
HETATM    5  H   UNL     1      -7.209  13.424  66.167  1.00  0.00     0.000 HD 
HETATM    6  C   UNL     1      -8.975  13.135  67.084  1.00  0.00    -0.228 C  
HETATM    7  C   UNL     1     -10.584  12.756  68.939  1.00  0.00    -0.154 A  
HETATM    8  C   UNL     1     -10.079  13.630  67.962  1.00  0.00    -0.250 A  
HETATM    9 CL   UNL     1     -12.333  12.027  70.856  1.00  0.00    -0.446 Cl 
HETATM   10  C   UNL     1     -10.668  14.894  67.781  1.00  0.00    -0.271 A  
HETATM   11  C   UNL     1     -11.815  15.225  68.516  1.00  0.00    -0.305 A  
HETATM   12  O   UNL     1      -8.597  16.954  65.720  1.00  0.00    -0.505 OA 
HETATM   13  N   UNL     1     -10.181  15.875  66.900  1.00  0.00    -0.270 N  
HETATM   14  C   UNL     1     -12.326  14.341  69.471  1.00  0.00    -0.272 A  
HETATM   15  C   UNL     1     -11.702  13.116  69.684  1.00  0.00    -0.303 A  
HETATM   16  C   UNL     1      -8.867  16.063  66.529  1.00  0.00    -0.305 C  
HETATM   17  H   UNL     1     -10.868  16.510  66.493  1.00  0.00     0.000 HD 
ENDROOT
BRANCH   6  18
HETATM   18  C   UNL     1      -9.061  11.743  66.526  1.00  0.00    -0.203 A  
HETATM   19  C   UNL     1      -9.967  10.128  64.960  1.00  0.00    -0.375 A  
HETATM   20  C   UNL     1      -8.334   9.429  66.596  1.00  0.00    -0.119 A  
HETATM   21  C   UNL     1      -8.267  10.734  67.088  1.00  0.00    -0.123 A  
HETATM   22  C   UNL     1      -9.190   9.126  65.538  1.00  0.00    -0.287 A  
HETATM   23  C   UNL     1      -9.896  11.436  65.443  1.00  0.00    -0.277 A  
ENDBRANCH   6  18
TORSDOF 1
ENDMDL
MODEL       63
REMARK 921   NORMALIZED FREE ENERGY PREDICTED BY IDOCK:   -5.24 KCAL/MOL
REMARK 922        TOTAL FREE ENERGY PREDICTED BY IDOCK:   -5.95 KCAL/MOL
REMARK 923 INTER-LIGAND FREE ENERGY PREDICTED BY IDOCK:   -5.48 KCAL/MOL
REMARK 924 INTRA-LIGAND FREE ENERGY PREDICTED BY IDOCK:   -0.47 KCAL/MOL
REMARK 927      BINDING AFFINITY PREDICTED BY RF-SCORE:    0.00 PKD
ROOT
HETATM    1  O   UNL     1      -9.233  12.109  67.743  1.00  0.00    -0.176 OA 
HETATM    2  H   UNL     1      -9.392  12.994  68.048  1.00  0.00     0.000 HD 
HETATM    3  C   UNL     1     -10.019  11.186  68.465  1.00  0.00    -0.199 C  
HETATM    4  N   UNL     1      -9.775   9.829  67.998  1.00  0.00    -0.143 NA 
HETATM    5  H   UNL     1      -9.293   9.666  67.114  1.00  0.00     0.000 HD 
HETATM    6  C   UNL     1     -10.176   8.835  68.717  1.00  0.00    -0.206 C  
HETATM    7  C   UNL     1     -10.484   8.115  71.076  1.00  0.00    -0.233 A  
HETATM    8  C   UNL     1     -10.875   8.970  70.032  1.00  0.00    -0.247 A  
HETATM    9 CL   UNL     1     -10.730   7.032  73.532  1.00  0.00    -0.390 Cl 
HETATM   10  C   UNL     1     -11.950   9.857  70.218  1.00  0.00    -0.138 A  
HETATM   11  C   UNL     1     -12.678   9.807  71.415  1.00  0.00    -0.483 A  
HETATM   12  O   UNL     1     -12.065  12.255  67.569  1.00  0.00    -0.514 OA 
HETATM   13  N   UNL     1     -12.358  10.815  69.273  1.00  0.00    -0.491 N  
HETATM   14  C   UNL     1     -12.297   8.938  72.442  1.00  0.00    -0.385 A  
HETATM   15  C   UNL     1     -11.196   8.104  72.270  1.00  0.00    -0.359 A  
HETATM   16  C   UNL     1     -11.553  11.454  68.355  1.00  0.00    -0.315 C  
HETATM   17  H   UNL     1     -13.348  11.061  69.266  1.00  0.00     0.000 HD 
ENDROOT
BRANCH   6  18
HETATM   18  C   UNL     1      -9.909   7.458  68.177  1.00  0.00    -0.174 A  
HETATM   19  C   UNL     1     -10.656   5.391  67.152  1.00  0.00    -0.274 A  
HETATM   20  C   UNL     1      -8.324   5.681  67.711  1.00  0.00    -0.100 A  
HETATM   21  C   UNL     1      -8.599   6.960  68.198  1.00  0.00    -0.123 A  
HETATM   22  C   UNL     1      -9.354   4.895  67.197  1.00  0.00    -0.139 A  
HETATM   23  C   UNL     1     -10.933   6.673  67.629  1.00  0.00    -0.392 A  
ENDBRANCH   6  18
TORSDOF 1
ENDMDL
MODEL       64
REMARK 921   NORMALIZED FREE ENERGY PREDICTED BY IDOCK:   -5.20 KCAL/MOL
REMARK 922        TOTAL FREE ENERGY PREDICTED BY IDOCK:   -5.91 KCAL/MOL
REMARK 923 INTER-LIGAND FREE ENERGY PREDICTED BY IDOCK:   -5.44 KCAL/MOL
REMARK 924 INTRA-LIGAND FREE ENERGY PREDICTED BY IDOCK:   -0.47 KCAL/MOL
REMARK 927      BINDING AFFINITY PREDICTED BY RF-SCORE:    0.00 PKD
ROOT
HETATM    1  O   UNL     1     -10.487  18.851  68.431  1.00  0.00    -0.362 OA 
HETATM    2  H   UNL     1     -11.295  19.286  68.183  1.00  0.00     0.000 HD 
HETATM    3  C   UNL     1     -10.418  17.565  67.856  1.00  0.00    -0.384 C  
HETATM    4  N   UNL     1      -9.180  16.900  68.236  1.00  0.00    -0.234 NA 
HETATM    5  H   UNL     1      -8.412  17.432  68.644  1.00  0.00     0.000 HD 
HETATM    6  C   UNL     1      -9.068  15.627  68.051  1.00  0.00    -0.183 C  
HETATM    7  C   UNL     1     -10.376  13.514  68.084  1.00  0.00    -0.247 A  
HETATM    8  C   UNL     1     -10.140  14.758  67.476  1.00  0.00    -0.224 A  
HETATM    9 CL   UNL     1     -11.521  11.079  68.239  1.00  0.00    -0.366 Cl 
HETATM   10  C   UNL     1     -10.847  15.115  66.314  1.00  0.00    -0.333 A  
HETATM   11  C   UNL     1     -11.709  14.179  65.724  1.00  0.00    -0.360 A  
HETATM   12  O   UNL     1     -10.411  18.592  65.603  1.00  0.00    -0.615 OA 
HETATM   13  N   UNL     1     -10.754  16.368  65.684  1.00  0.00    -0.312 N  
HETATM   14  C   UNL     1     -11.922  12.935  66.322  1.00  0.00    -0.472 A  
HETATM   15  C   UNL     1     -11.262  12.612  67.504  1.00  0.00    -0.288 A  
HETATM   16  C   UNL     1     -10.489  17.575  66.297  1.00  0.00    -0.283 C  
HETATM   17  H   UNL     1     -10.895  16.388  64.675  1.00  0.00     0.000 HD 
ENDROOT
BRANCH   6  18
HETATM   18  C   UNL     1      -7.762  14.998  68.448  1.00  0.00    -0.113 A  
HETATM   19  C   UNL     1      -5.734  13.781  67.912  1.00  0.00    -0.116 A  
HETATM   20  C   UNL     1      -6.151  14.480  70.187  1.00  0.00    -0.160 A  
HETATM   21  C   UNL     1      -7.354  15.063  69.788  1.00  0.00    -0.132 A  
HETATM   22  C   UNL     1      -5.346  13.832  69.250  1.00  0.00    -0.078 A  
HETATM   23  C   UNL     1      -6.932  14.372  67.507  1.00  0.00    -0.182 A  
ENDBRANCH   6  18
TORSDOF 1
ENDMDL
MODEL       65
REMARK 921   NORMALIZED FREE ENERGY PREDICTED BY IDOCK:   -5.19 KCAL/MOL
REMARK 922        TOTAL FREE ENERGY PREDICTED BY IDOCK:   -5.91 KCAL/MOL
REMARK 923 INTER-LIGAND FREE ENERGY PREDICTED BY IDOCK:   -5.46 KCAL/MOL
REMARK 924 INTRA-LIGAND FREE ENERGY PREDICTED BY IDOCK:   -0.45 KCAL/MOL
REMARK 927      BINDING AFFINITY PREDICTED BY RF-SCORE:    0.00 PKD
ROOT
HETATM    1  O   UNL     1     -11.174   6.130  67.096  1.00  0.00    -0.555 OA 
HETATM    2  H   UNL     1     -11.818   5.433  67.134  1.00  0.00     0.000 HD 
HETATM    3  C   UNL     1     -11.139   6.842  68.313  1.00  0.00    -0.141 C  
HETATM    4  N   UNL     1     -10.150   7.909  68.255  1.00  0.00    -0.188 NA 
HETATM    5  H   UNL     1      -9.449   7.923  67.515  1.00  0.00     0.000 HD 
HETATM    6  C   UNL     1     -10.174   8.838  69.152  1.00  0.00    -0.207 C  
HETATM    7  C   UNL     1     -11.730  10.167  70.562  1.00  0.00    -0.407 A  
HETATM    8  C   UNL     1     -11.170   8.913  70.264  1.00  0.00    -0.219 A  
HETATM    9 CL   UNL     1     -13.208  11.861  72.049  1.00  0.00    -0.561 Cl 
HETATM   10  C   UNL     1     -11.490   7.797  71.057  1.00  0.00    -0.281 A  
HETATM   11  C   UNL     1     -12.291   7.974  72.195  1.00  0.00    -0.358 A  
HETATM   12  O   UNL     1     -10.397   4.784  69.474  1.00  0.00    -0.196 OA 
HETATM   13  N   UNL     1     -11.059   6.486  70.789  1.00  0.00    -0.280 N  
HETATM   14  C   UNL     1     -12.827   9.228  72.497  1.00  0.00    -0.351 A  
HETATM   15  C   UNL     1     -12.552  10.316  71.674  1.00  0.00    -0.432 A  
HETATM   16  C   UNL     1     -10.797   5.949  69.547  1.00  0.00    -0.372 C  
HETATM   17  H   UNL     1     -10.927   5.872  71.592  1.00  0.00     0.000 HD 
ENDROOT
BRANCH   6  18
HETATM   18  C   UNL     1      -9.121   9.904  69.049  1.00  0.00    -0.164 A  
HETATM   19  C   UNL     1      -8.224  11.922  68.046  1.00  0.00    -0.157 A  
HETATM   20  C   UNL     1      -7.020  10.830  69.833  1.00  0.00    -0.127 A  
HETATM   21  C   UNL     1      -8.018   9.858  69.912  1.00  0.00    -0.193 A  
HETATM   22  C   UNL     1      -7.119  11.856  68.894  1.00  0.00    -0.110 A  
HETATM   23  C   UNL     1      -9.229  10.957  68.129  1.00  0.00    -0.158 A  
ENDBRANCH   6  18
TORSDOF 1
ENDMDL
MODEL       66
REMARK 921   NORMALIZED FREE ENERGY PREDICTED BY IDOCK:   -5.19 KCAL/MOL
REMARK 922        TOTAL FREE ENERGY PREDICTED BY IDOCK:   -5.90 KCAL/MOL
REMARK 923 INTER-LIGAND FREE ENERGY PREDICTED BY IDOCK:   -5.47 KCAL/MOL
REMARK 924 INTRA-LIGAND FREE ENERGY PREDICTED BY IDOCK:   -0.43 KCAL/MOL
REMARK 927      BINDING AFFINITY PREDICTED BY RF-SCORE:    0.00 PKD
ROOT
HETATM    1  O   UNL     1      -8.729   8.242  63.616  1.00  0.00    -0.402 OA 
HETATM    2  H   UNL     1      -8.297   7.423  63.827  1.00  0.00     0.000 HD 
HETATM    3  C   UNL     1      -8.888   9.032  64.773  1.00  0.00    -0.122 C  
HETATM    4  N   UNL     1      -9.551  10.288  64.450  1.00  0.00    -0.298 NA 
HETATM    5  H   UNL     1      -9.630  10.595  63.480  1.00  0.00     0.000 HD 
HETATM    6  C   UNL     1     -10.037  11.006  65.406  1.00  0.00    -0.269 C  
HETATM    7  C   UNL     1     -11.142  10.835  67.625  1.00  0.00    -0.384 A  
HETATM    8  C   UNL     1      -9.986  10.635  66.853  1.00  0.00    -0.245 A  
HETATM    9 CL   UNL     1     -12.515  10.916  69.944  1.00  0.00    -0.349 Cl 
HETATM   10  C   UNL     1      -8.805  10.178  67.465  1.00  0.00    -0.125 A  
HETATM   11  C   UNL     1      -8.774  10.021  68.858  1.00  0.00    -0.146 A  
HETATM   12  O   UNL     1      -6.426   9.170  64.995  1.00  0.00    -0.065 OA 
HETATM   13  N   UNL     1      -7.626   9.859  66.770  1.00  0.00    -0.095 N  
HETATM   14  C   UNL     1      -9.922  10.242  69.623  1.00  0.00    -0.240 A  
HETATM   15  C   UNL     1     -11.103  10.639  69.002  1.00  0.00    -0.254 A  
HETATM   16  C   UNL     1      -7.540   9.379  65.480  1.00  0.00    -0.099 C  
HETATM   17  H   UNL     1      -6.747   9.996  67.268  1.00  0.00     0.000 HD 
ENDROOT
BRANCH   6  18
HETATM   18  C   UNL     1     -10.696  12.298  65.012  1.00  0.00    -0.336 A  
HETATM   19  C   UNL     1     -10.938  14.705  65.186  1.00  0.00    -0.395 A  
HETATM   20  C   UNL     1     -12.358  13.460  63.680  1.00  0.00    -0.422 A  
HETATM   21  C   UNL     1     -11.722  12.277  64.057  1.00  0.00    -0.506 A  
HETATM   22  C   UNL     1     -11.971  14.672  64.251  1.00  0.00    -0.406 A  
HETATM   23  C   UNL     1     -10.292  13.525  65.558  1.00  0.00    -0.309 A  
ENDBRANCH   6  18
TORSDOF 1
ENDMDL
MODEL       67
REMARK 921   NORMALIZED FREE ENERGY PREDICTED BY IDOCK:   -5.15 KCAL/MOL
REMARK 922        TOTAL FREE ENERGY PREDICTED BY IDOCK:   -5.86 KCAL/MOL
REMARK 923 INTER-LIGAND FREE ENERGY PREDICTED BY IDOCK:   -5.45 KCAL/MOL
REMARK 924 INTRA-LIGAND FREE ENERGY PREDICTED BY IDOCK:   -0.41 KCAL/MOL
REMARK 927      BINDING AFFINITY PREDICTED BY RF-SCORE:    0.00 PKD
ROOT
HETATM    1  O   UNL     1     -13.136  12.046  71.666  1.00  0.00    -0.427 OA 
HETATM    2  H   UNL     1     -13.367  12.134  72.583  1.00  0.00     0.000 HD 
HETATM    3  C   UNL     1     -12.238  10.975  71.480  1.00  0.00    -0.086 C  
HETATM    4  N   UNL     1     -11.885  10.841  70.074  1.00  0.00    -0.313 NA 
HETATM    5  H   UNL     1     -12.434  11.313  69.356  1.00  0.00     0.000 HD 
HETATM    6  C   UNL     1     -10.867  10.116  69.748  1.00  0.00    -0.279 C  
HETATM    7  C   UNL     1      -8.603   9.446  70.523  1.00  0.00    -0.265 A  
HETATM    8  C   UNL     1      -9.992   9.397  70.725  1.00  0.00    -0.358 A  
HETATM    9 CL   UNL     1      -6.060   8.722  71.045  1.00  0.00    -0.039 Cl 
HETATM   10  C   UNL     1     -10.522   8.622  71.771  1.00  0.00    -0.324 A  
HETATM   11  C   UNL     1      -9.657   7.830  72.540  1.00  0.00    -0.250 A  
HETATM   12  O   UNL     1     -13.973   9.403  72.284  1.00  0.00    -0.412 OA 
HETATM   13  N   UNL     1     -11.885   8.581  72.114  1.00  0.00    -0.358 N  
HETATM   14  C   UNL     1      -8.278   7.866  72.320  1.00  0.00    -0.167 A  
HETATM   15  C   UNL     1      -7.757   8.681  71.319  1.00  0.00    -0.118 A  
HETATM   16  C   UNL     1     -12.800   9.600  71.959  1.00  0.00    -0.410 C  
HETATM   17  H   UNL     1     -12.231   7.710  72.517  1.00  0.00     0.000 HD 
ENDROOT
BRANCH   6  18
HETATM   18  C   UNL     1     -10.560  10.002  68.281  1.00  0.00    -0.264 A  
HETATM   19  C   UNL     1     -10.079  10.997  66.122  1.00  0.00    -0.286 A  
HETATM   20  C   UNL     1     -10.188   8.594  66.340  1.00  0.00    -0.224 A  
HETATM   21  C   UNL     1     -10.463   8.729  67.702  1.00  0.00    -0.310 A  
HETATM   22  C   UNL     1     -10.005   9.728  65.550  1.00  0.00    -0.329 A  
HETATM   23  C   UNL     1     -10.343  11.136  67.486  1.00  0.00    -0.228 A  
ENDBRANCH   6  18
TORSDOF 1
ENDMDL
MODEL       68
REMARK 921   NORMALIZED FREE ENERGY PREDICTED BY IDOCK:   -5.14 KCAL/MOL
REMARK 922        TOTAL FREE ENERGY PREDICTED BY IDOCK:   -5.85 KCAL/MOL
REMARK 923 INTER-LIGAND FREE ENERGY PREDICTED BY IDOCK:   -5.37 KCAL/MOL
REMARK 924 INTRA-LIGAND FREE ENERGY PREDICTED BY IDOCK:   -0.48 KCAL/MOL
REMARK 927      BINDING AFFINITY PREDICTED BY RF-SCORE:    0.00 PKD
ROOT
HETATM    1  O   UNL     1     -11.248   5.861  66.756  1.00  0.00    -0.572 OA 
HETATM    2  H   UNL     1     -11.985   5.533  67.257  1.00  0.00     0.000 HD 
HETATM    3  C   UNL     1     -10.980   7.206  67.088  1.00  0.00    -0.272 C  
HETATM    4  N   UNL     1      -9.851   7.709  66.320  1.00  0.00    -0.450 NA 
HETATM    5  H   UNL     1      -9.234   7.064  65.826  1.00  0.00     0.000 HD 
HETATM    6  C   UNL     1      -9.640   8.982  66.271  1.00  0.00    -0.260 C  
HETATM    7  C   UNL     1     -10.822  11.168  66.226  1.00  0.00    -0.266 A  
HETATM    8  C   UNL     1     -10.495  10.007  66.946  1.00  0.00    -0.284 A  
HETATM    9 CL   UNL     1     -11.863  13.641  65.975  1.00  0.00    -0.388 Cl 
HETATM   10  C   UNL     1     -10.900   9.875  68.286  1.00  0.00    -0.230 A  
HETATM   11  C   UNL     1     -11.545  10.951  68.914  1.00  0.00    -0.378 A  
HETATM   12  O   UNL     1     -10.450   6.510  69.404  1.00  0.00    -0.190 OA 
HETATM   13  N   UNL     1     -10.706   8.719  69.062  1.00  0.00    -0.386 N  
HETATM   14  C   UNL     1     -11.848  12.112  68.197  1.00  0.00    -0.362 A  
HETATM   15  C   UNL     1     -11.494  12.211  66.855  1.00  0.00    -0.351 A  
HETATM   16  C   UNL     1     -10.656   7.421  68.600  1.00  0.00    -0.154 C  
HETATM   17  H   UNL     1     -10.589   8.854  70.066  1.00  0.00     0.000 HD 
ENDROOT
BRANCH   6  18
HETATM   18  C   UNL     1      -8.451   9.441  65.475  1.00  0.00    -0.153 A  
HETATM   19  C   UNL     1      -7.302   9.779  63.366  1.00  0.00    -0.125 A  
HETATM   20  C   UNL     1      -6.228  10.411  65.435  1.00  0.00    -0.127 A  
HETATM   21  C   UNL     1      -7.350   9.985  66.149  1.00  0.00    -0.109 A  
HETATM   22  C   UNL     1      -6.202  10.300  64.046  1.00  0.00    -0.110 A  
HETATM   23  C   UNL     1      -8.430   9.361  64.075  1.00  0.00    -0.203 A  
ENDBRANCH   6  18
TORSDOF 1
ENDMDL
MODEL       69
REMARK 921   NORMALIZED FREE ENERGY PREDICTED BY IDOCK:   -5.12 KCAL/MOL
REMARK 922        TOTAL FREE ENERGY PREDICTED BY IDOCK:   -5.83 KCAL/MOL
REMARK 923 INTER-LIGAND FREE ENERGY PREDICTED BY IDOCK:   -5.36 KCAL/MOL
REMARK 924 INTRA-LIGAND FREE ENERGY PREDICTED BY IDOCK:   -0.47 KCAL/MOL
REMARK 927      BINDING AFFINITY PREDICTED BY RF-SCORE:    0.00 PKD
ROOT
HETATM    1  O   UNL     1     -14.223   6.648  72.167  1.00  0.00    -0.544 OA 
HETATM    2  H   UNL     1     -15.105   6.872  71.895  1.00  0.00     0.000 HD 
HETATM    3  C   UNL     1     -13.294   7.582  71.663  1.00  0.00    -0.358 C  
HETATM    4  N   UNL     1     -11.942   7.236  72.080  1.00  0.00    -0.369 NA 
HETATM    5  H   UNL     1     -11.790   6.562  72.830  1.00  0.00     0.000 HD 
HETATM    6  C   UNL     1     -10.940   7.795  71.489  1.00  0.00    -0.233 C  
HETATM    7  C   UNL     1     -10.188   8.647  69.279  1.00  0.00    -0.215 A  
HETATM    8  C   UNL     1     -11.059   8.783  70.373  1.00  0.00    -0.261 A  
HETATM    9 CL   UNL     1      -9.072   9.462  66.965  1.00  0.00    -0.149 Cl 
HETATM   10  C   UNL     1     -11.949   9.870  70.429  1.00  0.00    -0.195 A  
HETATM   11  C   UNL     1     -11.885  10.858  69.436  1.00  0.00    -0.400 A  
HETATM   12  O   UNL     1     -14.385   9.360  72.997  1.00  0.00    -0.299 OA 
HETATM   13  N   UNL     1     -12.922  10.045  71.429  1.00  0.00    -0.387 N  
HETATM   14  C   UNL     1     -11.001  10.728  68.362  1.00  0.00    -0.299 A  
HETATM   15  C   UNL     1     -10.163   9.619  68.284  1.00  0.00    -0.186 A  
HETATM   16  C   UNL     1     -13.571   9.047  72.124  1.00  0.00    -0.469 C  
HETATM   17  H   UNL     1     -13.172  11.005  71.663  1.00  0.00     0.000 HD 
ENDROOT
BRANCH   6  18
HETATM   18  C   UNL     1      -9.570   7.412  71.973  1.00  0.00    -0.177 A  
HETATM   19  C   UNL     1      -7.744   5.826  72.161  1.00  0.00    -0.102 A  
HETATM   20  C   UNL     1      -7.551   8.007  73.181  1.00  0.00    -0.188 A  
HETATM   21  C   UNL     1      -8.823   8.340  72.711  1.00  0.00    -0.310 A  
HETATM   22  C   UNL     1      -7.017   6.747  72.912  1.00  0.00    -0.075 A  
HETATM   23  C   UNL     1      -9.012   6.159  71.681  1.00  0.00    -0.142 A  
ENDBRANCH   6  18
TORSDOF 1
ENDMDL
MODEL       70
REMARK 921   NORMALIZED FREE ENERGY PREDICTED BY IDOCK:   -5.10 KCAL/MOL
REMARK 922        TOTAL FREE ENERGY PREDICTED BY IDOCK:   -5.81 KCAL/MOL
REMARK 923 INTER-LIGAND FREE ENERGY PREDICTED BY IDOCK:   -5.68 KCAL/MOL
REMARK 924 INTRA-LIGAND FREE ENERGY PREDICTED BY IDOCK:   -0.13 KCAL/MOL
REMARK 927      BINDING AFFINITY PREDICTED BY RF-SCORE:    0.00 PKD
ROOT
HETATM    1  O   UNL     1      -6.491  11.093  69.099  1.00  0.00    -0.059 OA 
HETATM    2  H   UNL     1      -5.763  11.173  68.495  1.00  0.00     0.000 HD 
HETATM    3  C   UNL     1      -7.709  10.977  68.396  1.00  0.00    -0.119 C  
HETATM    4  N   UNL     1      -8.826  10.856  69.323  1.00  0.00    -0.378 NA 
HETATM    5  H   UNL     1      -8.660  10.637  70.305  1.00  0.00     0.000 HD 
HETATM    6  C   UNL     1     -10.028  11.029  68.884  1.00  0.00    -0.188 C  
HETATM    7  C   UNL     1     -11.350  12.350  67.247  1.00  0.00    -0.384 A  
HETATM    8  C   UNL     1     -10.372  11.367  67.469  1.00  0.00    -0.224 A  
HETATM    9 CL   UNL     1     -13.026  13.783  65.696  1.00  0.00    -0.460 Cl 
HETATM   10  C   UNL     1      -9.809  10.680  66.379  1.00  0.00    -0.211 A  
HETATM   11  C   UNL     1     -10.305  10.919  65.090  1.00  0.00    -0.344 A  
HETATM   12  O   UNL     1      -6.920   8.846  67.415  1.00  0.00    -0.073 OA 
HETATM   13  N   UNL     1      -8.761   9.749  66.487  1.00  0.00    -0.127 N  
HETATM   14  C   UNL     1     -11.295  11.883  64.878  1.00  0.00    -0.337 A  
HETATM   15  C   UNL     1     -11.806  12.600  65.956  1.00  0.00    -0.436 A  
HETATM   16  C   UNL     1      -7.759   9.750  67.434  1.00  0.00    -0.095 C  
HETATM   17  H   UNL     1      -8.740   8.999  65.797  1.00  0.00     0.000 HD 
ENDROOT
BRANCH   6  18
HETATM   18  C   UNL     1     -11.140  10.877  69.883  1.00  0.00    -0.311 A  
HETATM   19  C   UNL     1     -12.873  11.810  71.300  1.00  0.00    -0.409 A  
HETATM   20  C   UNL     1     -12.507   9.423  71.263  1.00  0.00    -0.416 A  
HETATM   21  C   UNL     1     -11.485   9.593  70.329  1.00  0.00    -0.288 A  
HETATM   22  C   UNL     1     -13.195  10.532  71.754  1.00  0.00    -0.522 A  
HETATM   23  C   UNL     1     -11.858  11.984  70.358  1.00  0.00    -0.302 A  
ENDBRANCH   6  18
TORSDOF 1
ENDMDL
MODEL       71
REMARK 921   NORMALIZED FREE ENERGY PREDICTED BY IDOCK:   -5.10 KCAL/MOL
REMARK 922        TOTAL FREE ENERGY PREDICTED BY IDOCK:   -5.81 KCAL/MOL
REMARK 923 INTER-LIGAND FREE ENERGY PREDICTED BY IDOCK:   -6.02 KCAL/MOL
REMARK 924 INTRA-LIGAND FREE ENERGY PREDICTED BY IDOCK:    0.21 KCAL/MOL
REMARK 927      BINDING AFFINITY PREDICTED BY RF-SCORE:    0.00 PKD
ROOT
HETATM    1  O   UNL     1     -10.311   8.203  72.775  1.00  0.00    -0.313 OA 
HETATM    2  H   UNL     1     -10.102   7.376  73.194  1.00  0.00     0.000 HD 
HETATM    3  C   UNL     1     -10.541   8.016  71.395  1.00  0.00    -0.216 C  
HETATM    4  N   UNL     1     -10.860   9.283  70.753  1.00  0.00    -0.258 NA 
HETATM    5  H   UNL     1     -11.114  10.097  71.313  1.00  0.00     0.000 HD 
HETATM    6  C   UNL     1     -10.818   9.363  69.465  1.00  0.00    -0.213 C  
HETATM    7  C   UNL     1      -9.583   8.512  67.483  1.00  0.00    -0.194 A  
HETATM    8  C   UNL     1     -10.443   8.234  68.559  1.00  0.00    -0.199 A  
HETATM    9 CL   UNL     1      -8.289   7.889  65.203  1.00  0.00    -0.145 Cl 
HETATM   10  C   UNL     1     -10.986   6.946  68.708  1.00  0.00    -0.157 A  
HETATM   11  C   UNL     1     -10.736   5.981  67.722  1.00  0.00    -0.369 A  
HETATM   12  O   UNL     1     -12.490   6.587  71.931  1.00  0.00    -0.347 OA 
HETATM   13  N   UNL     1     -11.778   6.542  69.797  1.00  0.00    -0.632 N  
HETATM   14  C   UNL     1      -9.897   6.270  66.642  1.00  0.00    -0.201 A  
HETATM   15  C   UNL     1      -9.318   7.531  66.533  1.00  0.00    -0.181 A  
HETATM   16  C   UNL     1     -11.705   7.023  71.086  1.00  0.00    -0.325 C  
HETATM   17  H   UNL     1     -12.477   5.822  69.615  1.00  0.00     0.000 HD 
ENDROOT
BRANCH   6  18
HETATM   18  C   UNL     1     -11.172  10.692  68.858  1.00  0.00    -0.333 A  
HETATM   19  C   UNL     1     -11.463  12.147  66.940  1.00  0.00    -0.414 A  
HETATM   20  C   UNL     1     -11.889  12.989  69.164  1.00  0.00    -0.360 A  
HETATM   21  C   UNL     1     -11.564  11.742  69.699  1.00  0.00    -0.393 A  
HETATM   22  C   UNL     1     -11.830  13.193  67.785  1.00  0.00    -0.392 A  
HETATM   23  C   UNL     1     -11.146  10.896  67.471  1.00  0.00    -0.375 A  
ENDBRANCH   6  18
TORSDOF 1
ENDMDL
MODEL       72
REMARK 921   NORMALIZED FREE ENERGY PREDICTED BY IDOCK:   -5.10 KCAL/MOL
REMARK 922        TOTAL FREE ENERGY PREDICTED BY IDOCK:   -5.80 KCAL/MOL
REMARK 923 INTER-LIGAND FREE ENERGY PREDICTED BY IDOCK:   -6.01 KCAL/MOL
REMARK 924 INTRA-LIGAND FREE ENERGY PREDICTED BY IDOCK:    0.21 KCAL/MOL
REMARK 927      BINDING AFFINITY PREDICTED BY RF-SCORE:    0.00 PKD
ROOT
HETATM    1  O   UNL     1      -8.564   9.944  65.187  1.00  0.00    -0.136 OA 
HETATM    2  H   UNL     1      -8.083  10.032  64.373  1.00  0.00     0.000 HD 
HETATM    3  C   UNL     1      -9.184  11.164  65.532  1.00  0.00    -0.216 C  
HETATM    4  N   UNL     1      -9.921  11.029  66.780  1.00  0.00    -0.197 NA 
HETATM    5  H   UNL     1     -10.128  10.105  67.160  1.00  0.00     0.000 HD 
HETATM    6  C   UNL     1     -10.308  12.093  67.400  1.00  0.00    -0.205 C  
HETATM    7  C   UNL     1      -9.636  14.435  67.889  1.00  0.00    -0.219 A  
HETATM    8  C   UNL     1     -10.040  13.488  66.934  1.00  0.00    -0.256 A  
HETATM    9 CL   UNL     1      -9.046  16.932  68.716  1.00  0.00    -0.263 Cl 
HETATM   10  C   UNL     1     -10.258  13.885  65.602  1.00  0.00    -0.328 A  
HETATM   11  C   UNL     1     -10.162  15.244  65.270  1.00  0.00    -0.397 A  
HETATM   12  O   UNL     1     -10.559  11.025  63.478  1.00  0.00    -0.350 OA 
HETATM   13  N   UNL     1     -10.572  13.002  64.555  1.00  0.00    -0.371 N  
HETATM   14  C   UNL     1      -9.781  16.184  66.231  1.00  0.00    -0.332 A  
HETATM   15  C   UNL     1      -9.511  15.774  67.533  1.00  0.00    -0.218 A  
HETATM   16  C   UNL     1     -10.180  11.684  64.449  1.00  0.00    -0.300 C  
HETATM   17  H   UNL     1     -11.145  13.372  63.797  1.00  0.00     0.000 HD 
ENDROOT
BRANCH   6  18
HETATM   18  C   UNL     1     -11.077  11.892  68.675  1.00  0.00    -0.295 A  
HETATM   19  C   UNL     1     -11.968  10.465  70.422  1.00  0.00    -0.409 A  
HETATM   20  C   UNL     1     -12.359  12.847  70.500  1.00  0.00    -0.362 A  
HETATM   21  C   UNL     1     -11.631  13.006  69.320  1.00  0.00    -0.367 A  
HETATM   22  C   UNL     1     -12.533  11.575  71.046  1.00  0.00    -0.458 A  
HETATM   23  C   UNL     1     -11.231  10.620  69.247  1.00  0.00    -0.332 A  
ENDBRANCH   6  18
TORSDOF 1
ENDMDL
MODEL       73
REMARK 921   NORMALIZED FREE ENERGY PREDICTED BY IDOCK:   -5.09 KCAL/MOL
REMARK 922        TOTAL FREE ENERGY PREDICTED BY IDOCK:   -5.79 KCAL/MOL
REMARK 923 INTER-LIGAND FREE ENERGY PREDICTED BY IDOCK:   -5.46 KCAL/MOL
REMARK 924 INTRA-LIGAND FREE ENERGY PREDICTED BY IDOCK:   -0.33 KCAL/MOL
REMARK 927      BINDING AFFINITY PREDICTED BY RF-SCORE:    0.00 PKD
ROOT
HETATM    1  O   UNL     1     -12.509  13.836  67.467  1.00  0.00    -0.404 OA 
HETATM    2  H   UNL     1     -12.413  14.321  66.657  1.00  0.00     0.000 HD 
HETATM    3  C   UNL     1     -11.624  12.737  67.496  1.00  0.00    -0.356 C  
HETATM    4  N   UNL     1     -11.772  11.992  68.738  1.00  0.00    -0.304 NA 
HETATM    5  H   UNL     1     -12.269  12.401  69.529  1.00  0.00     0.000 HD 
HETATM    6  C   UNL     1     -11.266  10.808  68.825  1.00  0.00    -0.272 C  
HETATM    7  C   UNL     1     -10.817   8.760  67.490  1.00  0.00    -0.092 A  
HETATM    8  C   UNL     1     -10.534  10.117  67.719  1.00  0.00    -0.277 A  
HETATM    9 CL   UNL     1     -10.397   6.370  66.318  1.00  0.00    -0.016 Cl 
HETATM   10  C   UNL     1      -9.531  10.760  66.972  1.00  0.00    -0.164 A  
HETATM   11  C   UNL     1      -8.759  10.008  66.075  1.00  0.00    -0.152 A  
HETATM   12  O   UNL     1      -9.707  14.301  67.429  1.00  0.00    -0.227 OA 
HETATM   13  N   UNL     1      -9.236  12.132  67.058  1.00  0.00    -0.195 N  
HETATM   14  C   UNL     1      -9.032   8.653  65.868  1.00  0.00    -0.245 A  
HETATM   15  C   UNL     1     -10.065   8.038  66.569  1.00  0.00    -0.200 A  
HETATM   16  C   UNL     1     -10.123  13.142  67.364  1.00  0.00    -0.229 C  
HETATM   17  H   UNL     1      -8.271  12.407  66.877  1.00  0.00     0.000 HD 
ENDROOT
BRANCH   6  18
HETATM   18  C   UNL     1     -11.436  10.094  70.137  1.00  0.00    -0.368 A  
HETATM   19  C   UNL     1     -10.574   8.730  71.947  1.00  0.00    -0.425 A  
HETATM   20  C   UNL     1     -12.867   9.487  72.000  1.00  0.00    -0.499 A  
HETATM   21  C   UNL     1     -12.677  10.149  70.786  1.00  0.00    -0.397 A  
HETATM   22  C   UNL     1     -11.817   8.772  72.575  1.00  0.00    -0.272 A  
HETATM   23  C   UNL     1     -10.378   9.398  70.737  1.00  0.00    -0.366 A  
ENDBRANCH   6  18
TORSDOF 1
ENDMDL
MODEL       74
REMARK 921   NORMALIZED FREE ENERGY PREDICTED BY IDOCK:   -5.03 KCAL/MOL
REMARK 922        TOTAL FREE ENERGY PREDICTED BY IDOCK:   -5.73 KCAL/MOL
REMARK 923 INTER-LIGAND FREE ENERGY PREDICTED BY IDOCK:   -5.27 KCAL/MOL
REMARK 924 INTRA-LIGAND FREE ENERGY PREDICTED BY IDOCK:   -0.46 KCAL/MOL
REMARK 927      BINDING AFFINITY PREDICTED BY RF-SCORE:    0.00 PKD
ROOT
HETATM    1  O   UNL     1     -11.161   5.994  66.980  1.00  0.00    -0.559 OA 
HETATM    2  H   UNL     1     -11.929   5.792  67.501  1.00  0.00     0.000 HD 
HETATM    3  C   UNL     1     -10.896   7.380  67.002  1.00  0.00    -0.237 C  
HETATM    4  N   UNL     1      -9.719   7.689  66.203  1.00  0.00    -0.446 NA 
HETATM    5  H   UNL     1      -9.083   6.947  65.911  1.00  0.00     0.000 HD 
HETATM    6  C   UNL     1      -9.490   8.915  65.868  1.00  0.00    -0.234 C  
HETATM    7  C   UNL     1     -10.640  11.027  65.242  1.00  0.00    -0.283 A  
HETATM    8  C   UNL     1     -10.369  10.069  66.233  1.00  0.00    -0.235 A  
HETATM    9 CL   UNL     1     -11.635  13.371  64.357  1.00  0.00    -0.398 Cl 
HETATM   10  C   UNL     1     -10.851  10.256  67.540  1.00  0.00    -0.298 A  
HETATM   11  C   UNL     1     -11.516  11.449  67.859  1.00  0.00    -0.361 A  
HETATM   12  O   UNL     1     -10.506   7.249  69.443  1.00  0.00    -0.206 OA 
HETATM   13  N   UNL     1     -10.715   9.316  68.576  1.00  0.00    -0.379 N  
HETATM   14  C   UNL     1     -11.764  12.408  66.874  1.00  0.00    -0.432 A  
HETATM   15  C   UNL     1     -11.334  12.188  65.569  1.00  0.00    -0.344 A  
HETATM   16  C   UNL     1     -10.655   7.946  68.436  1.00  0.00    -0.107 C  
HETATM   17  H   UNL     1     -10.653   9.683  69.526  1.00  0.00     0.000 HD 
ENDROOT
BRANCH   6  18
HETATM   18  C   UNL     1      -8.253   9.175  65.057  1.00  0.00    -0.150 A  
HETATM   19  C   UNL     1      -6.920   8.883  63.051  1.00  0.00    -0.089 A  
HETATM   20  C   UNL     1      -6.085  10.247  64.862  1.00  0.00    -0.128 A  
HETATM   21  C   UNL     1      -7.249   9.996  65.589  1.00  0.00    -0.120 A  
HETATM   22  C   UNL     1      -5.918   9.684  63.597  1.00  0.00    -0.103 A  
HETATM   23  C   UNL     1      -8.091   8.638  63.772  1.00  0.00    -0.163 A  
ENDBRANCH   6  18
TORSDOF 1
ENDMDL
MODEL       75
REMARK 921   NORMALIZED FREE ENERGY PREDICTED BY IDOCK:   -5.02 KCAL/MOL
REMARK 922        TOTAL FREE ENERGY PREDICTED BY IDOCK:   -5.73 KCAL/MOL
REMARK 923 INTER-LIGAND FREE ENERGY PREDICTED BY IDOCK:   -5.25 KCAL/MOL
REMARK 924 INTRA-LIGAND FREE ENERGY PREDICTED BY IDOCK:   -0.48 KCAL/MOL
REMARK 927      BINDING AFFINITY PREDICTED BY RF-SCORE:    0.00 PKD
ROOT
HETATM    1  O   UNL     1      -6.702  18.994  64.633  1.00  0.00    -0.401 OA 
HETATM    2  H   UNL     1      -5.914  19.517  64.554  1.00  0.00     0.000 HD 
HETATM    3  C   UNL     1      -6.825  18.473  65.938  1.00  0.00    -0.283 C  
HETATM    4  N   UNL     1      -8.033  17.670  66.058  1.00  0.00    -0.522 NA 
HETATM    5  H   UNL     1      -8.764  17.726  65.349  1.00  0.00     0.000 HD 
HETATM    6  C   UNL     1      -8.168  16.885  67.075  1.00  0.00    -0.199 C  
HETATM    7  C   UNL     1      -6.874  15.419  68.609  1.00  0.00    -0.106 A  
HETATM    8  C   UNL     1      -7.149  16.720  68.157  1.00  0.00    -0.161 A  
HETATM    9 CL   UNL     1      -5.736  13.630  70.273  1.00  0.00    -0.133 Cl 
HETATM   10  C   UNL     1      -6.533  17.822  68.777  1.00  0.00    -0.225 A  
HETATM   11  C   UNL     1      -5.726  17.610  69.904  1.00  0.00    -0.247 A  
HETATM   12  O   UNL     1      -7.002  20.779  66.822  1.00  0.00    -0.277 OA 
HETATM   13  N   UNL     1      -6.668  19.152  68.341  1.00  0.00    -0.252 N  
HETATM   14  C   UNL     1      -5.475  16.314  70.362  1.00  0.00    -0.171 A  
HETATM   15  C   UNL     1      -6.042  15.225  69.707  1.00  0.00    -0.144 A  
HETATM   16  C   UNL     1      -6.876  19.572  67.045  1.00  0.00    -0.192 C  
HETATM   17  H   UNL     1      -6.606  19.878  69.055  1.00  0.00     0.000 HD 
ENDROOT
BRANCH   6  18
HETATM   18  C   UNL     1      -9.442  16.092  67.153  1.00  0.00    -0.231 A  
HETATM   19  C   UNL     1     -11.535  15.528  68.240  1.00  0.00    -0.359 A  
HETATM   20  C   UNL     1     -10.891  14.391  66.208  1.00  0.00    -0.313 A  
HETATM   21  C   UNL     1      -9.720  15.148  66.155  1.00  0.00    -0.338 A  
HETATM   22  C   UNL     1     -11.794  14.576  67.255  1.00  0.00    -0.419 A  
HETATM   23  C   UNL     1     -10.370  16.294  68.185  1.00  0.00    -0.277 A  
ENDBRANCH   6  18
TORSDOF 1
ENDMDL
MODEL       76
REMARK 921   NORMALIZED FREE ENERGY PREDICTED BY IDOCK:   -5.01 KCAL/MOL
REMARK 922        TOTAL FREE ENERGY PREDICTED BY IDOCK:   -5.72 KCAL/MOL
REMARK 923 INTER-LIGAND FREE ENERGY PREDICTED BY IDOCK:   -5.24 KCAL/MOL
REMARK 924 INTRA-LIGAND FREE ENERGY PREDICTED BY IDOCK:   -0.48 KCAL/MOL
REMARK 927      BINDING AFFINITY PREDICTED BY RF-SCORE:    0.00 PKD
ROOT
HETATM    1  O   UNL     1     -11.414   4.826  65.362  1.00  0.00    -0.990 OA 
HETATM    2  H   UNL     1     -11.669   3.911  65.390  1.00  0.00     0.000 HD 
HETATM    3  C   UNL     1     -10.910   5.239  66.614  1.00  0.00    -0.087 C  
HETATM    4  N   UNL     1     -10.520   6.641  66.571  1.00  0.00    -0.482 NA 
HETATM    5  H   UNL     1     -10.414   7.121  65.677  1.00  0.00     0.000 HD 
HETATM    6  C   UNL     1     -10.311   7.270  67.679  1.00  0.00    -0.227 C  
HETATM    7  C   UNL     1     -11.096   7.417  70.032  1.00  0.00    -0.238 A  
HETATM    8  C   UNL     1     -10.455   6.661  69.037  1.00  0.00    -0.243 A  
HETATM    9 CL   UNL     1     -11.890   7.901  72.562  1.00  0.00    -0.402 Cl 
HETATM   10  C   UNL     1      -9.902   5.408  69.356  1.00  0.00    -0.184 A  
HETATM   11  C   UNL     1      -9.914   4.975  70.690  1.00  0.00    -0.300 A  
HETATM   12  O   UNL     1      -9.050   3.622  66.378  1.00  0.00    -0.137 OA 
HETATM   13  N   UNL     1      -9.324   4.536  68.417  1.00  0.00    -0.134 N  
HETATM   14  C   UNL     1     -10.535   5.743  71.679  1.00  0.00    -0.286 A  
HETATM   15  C   UNL     1     -11.131   6.955  71.344  1.00  0.00    -0.250 A  
HETATM   16  C   UNL     1      -9.670   4.419  67.087  1.00  0.00    -0.197 C  
HETATM   17  H   UNL     1      -8.576   3.930  68.752  1.00  0.00     0.000 HD 
ENDROOT
BRANCH   6  18
HETATM   18  C   UNL     1      -9.896   8.710  67.572  1.00  0.00    -0.234 A  
HETATM   19  C   UNL     1     -10.375  11.032  67.061  1.00  0.00    -0.269 A  
HETATM   20  C   UNL     1      -8.169  10.397  67.810  1.00  0.00    -0.110 A  
HETATM   21  C   UNL     1      -8.584   9.068  67.909  1.00  0.00    -0.125 A  
HETATM   22  C   UNL     1      -9.063  11.376  67.378  1.00  0.00    -0.160 A  
HETATM   23  C   UNL     1     -10.797   9.706  67.168  1.00  0.00    -0.184 A  
ENDBRANCH   6  18
TORSDOF 1
ENDMDL
MODEL       77
REMARK 921   NORMALIZED FREE ENERGY PREDICTED BY IDOCK:   -4.97 KCAL/MOL
REMARK 922        TOTAL FREE ENERGY PREDICTED BY IDOCK:   -5.67 KCAL/MOL
REMARK 923 INTER-LIGAND FREE ENERGY PREDICTED BY IDOCK:   -5.50 KCAL/MOL
REMARK 924 INTRA-LIGAND FREE ENERGY PREDICTED BY IDOCK:   -0.17 KCAL/MOL
REMARK 927      BINDING AFFINITY PREDICTED BY RF-SCORE:    0.00 PKD
ROOT
HETATM    1  O   UNL     1     -12.998  12.569  71.090  1.00  0.00    -0.271 OA 
HETATM    2  H   UNL     1     -12.915  12.420  72.025  1.00  0.00     0.000 HD 
HETATM    3  C   UNL     1     -11.993  11.875  70.385  1.00  0.00    -0.311 C  
HETATM    4  N   UNL     1     -12.120  12.104  68.953  1.00  0.00    -0.219 NA 
HETATM    5  H   UNL     1     -12.976  12.504  68.568  1.00  0.00     0.000 HD 
HETATM    6  C   UNL     1     -11.136  11.795  68.177  1.00  0.00    -0.243 C  
HETATM    7  C   UNL     1      -8.653  11.726  68.085  1.00  0.00    -0.160 A  
HETATM    8  C   UNL     1      -9.838  11.220  68.645  1.00  0.00    -0.208 A  
HETATM    9 CL   UNL     1      -5.990  11.737  67.667  1.00  0.00    -0.061 Cl 
HETATM   10  C   UNL     1      -9.780  10.148  69.554  1.00  0.00    -0.229 A  
HETATM   11  C   UNL     1      -8.545   9.537  69.814  1.00  0.00    -0.201 A  
HETATM   12  O   UNL     1     -12.929   9.731  71.195  1.00  0.00    -0.350 OA 
HETATM   13  N   UNL     1     -10.894   9.632  70.239  1.00  0.00    -0.263 N  
HETATM   14  C   UNL     1      -7.373  10.033  69.236  1.00  0.00    -0.091 A  
HETATM   15  C   UNL     1      -7.432  11.130  68.382  1.00  0.00    -0.102 A  
HETATM   16  C   UNL     1     -12.018  10.333  70.621  1.00  0.00    -0.342 C  
HETATM   17  H   UNL     1     -10.868   8.641  70.478  1.00  0.00     0.000 HD 
ENDROOT
BRANCH   6  18
HETATM   18  C   UNL     1     -11.331  12.040  66.707  1.00  0.00    -0.398 A  
HETATM   19  C   UNL     1     -10.884  11.513  64.382  1.00  0.00    -0.405 A  
HETATM   20  C   UNL     1     -12.381  13.325  64.937  1.00  0.00    -0.476 A  
HETATM   21  C   UNL     1     -12.188  13.069  66.296  1.00  0.00    -0.390 A  
HETATM   22  C   UNL     1     -11.722  12.552  63.982  1.00  0.00    -0.499 A  
HETATM   23  C   UNL     1     -10.696  11.247  65.740  1.00  0.00    -0.284 A  
ENDBRANCH   6  18
TORSDOF 1
ENDMDL
MODEL       78
REMARK 921   NORMALIZED FREE ENERGY PREDICTED BY IDOCK:   -4.96 KCAL/MOL
REMARK 922        TOTAL FREE ENERGY PREDICTED BY IDOCK:   -5.66 KCAL/MOL
REMARK 923 INTER-LIGAND FREE ENERGY PREDICTED BY IDOCK:   -5.98 KCAL/MOL
REMARK 924 INTRA-LIGAND FREE ENERGY PREDICTED BY IDOCK:    0.32 KCAL/MOL
REMARK 927      BINDING AFFINITY PREDICTED BY RF-SCORE:    0.00 PKD
ROOT
HETATM    1  O   UNL     1     -11.094   7.719  69.564  1.00  0.00    -0.427 OA 
HETATM    2  H   UNL     1     -11.459   7.799  70.437  1.00  0.00     0.000 HD 
HETATM    3  C   UNL     1     -10.846   8.992  69.010  1.00  0.00    -0.067 C  
HETATM    4  N   UNL     1     -10.288   8.869  67.671  1.00  0.00    -0.237 NA 
HETATM    5  H   UNL     1      -9.920   7.975  67.345  1.00  0.00     0.000 HD 
HETATM    6  C   UNL     1     -10.264   9.906  66.902  1.00  0.00    -0.240 C  
HETATM    7  C   UNL     1     -11.547  11.955  66.328  1.00  0.00    -0.317 A  
HETATM    8  C   UNL     1     -10.792  11.252  67.281  1.00  0.00    -0.317 A  
HETATM    9 CL   UNL     1     -12.838  14.130  65.395  1.00  0.00    -0.480 Cl 
HETATM   10  C   UNL     1     -10.485  11.854  68.515  1.00  0.00    -0.224 A  
HETATM   11  C   UNL     1     -10.857  13.188  68.736  1.00  0.00    -0.278 A  
HETATM   12  O   UNL     1      -9.194   9.429  70.802  1.00  0.00    -0.247 OA 
HETATM   13  N   UNL     1      -9.817  11.204  69.568  1.00  0.00    -0.402 N  
HETATM   14  C   UNL     1     -11.591  13.888  67.775  1.00  0.00    -0.381 A  
HETATM   15  C   UNL     1     -11.940  13.266  66.580  1.00  0.00    -0.388 A  
HETATM   16  C   UNL     1      -9.858   9.857  69.855  1.00  0.00    -0.245 C  
HETATM   17  H   UNL     1      -9.247  11.787  70.179  1.00  0.00     0.000 HD 
ENDROOT
BRANCH   6  18
HETATM   18  C   UNL     1      -9.663   9.722  65.537  1.00  0.00    -0.382 A  
HETATM   19  C   UNL     1      -9.435  10.356  63.207  1.00  0.00    -0.361 A  
HETATM   20  C   UNL     1      -8.158   8.499  64.078  1.00  0.00    -0.156 A  
HETATM   21  C   UNL     1      -8.726   8.699  65.338  1.00  0.00    -0.208 A  
HETATM   22  C   UNL     1      -8.520   9.323  63.012  1.00  0.00    -0.212 A  
HETATM   23  C   UNL     1      -9.997  10.565  64.468  1.00  0.00    -0.413 A  
ENDBRANCH   6  18
TORSDOF 1
ENDMDL
MODEL       79
REMARK 921   NORMALIZED FREE ENERGY PREDICTED BY IDOCK:   -4.95 KCAL/MOL
REMARK 922        TOTAL FREE ENERGY PREDICTED BY IDOCK:   -5.64 KCAL/MOL
REMARK 923 INTER-LIGAND FREE ENERGY PREDICTED BY IDOCK:   -5.53 KCAL/MOL
REMARK 924 INTRA-LIGAND FREE ENERGY PREDICTED BY IDOCK:   -0.11 KCAL/MOL
REMARK 927      BINDING AFFINITY PREDICTED BY RF-SCORE:    0.00 PKD
ROOT
HETATM    1  O   UNL     1     -10.952   5.913  66.430  1.00  0.00    -0.662 OA 
HETATM    2  H   UNL     1     -10.489   5.259  65.920  1.00  0.00     0.000 HD 
HETATM    3  C   UNL     1     -10.460   5.952  67.752  1.00  0.00    -0.238 C  
HETATM    4  N   UNL     1     -11.169   6.955  68.533  1.00  0.00    -0.518 NA 
HETATM    5  H   UNL     1     -11.742   7.661  68.070  1.00  0.00     0.000 HD 
HETATM    6  C   UNL     1     -11.064   6.939  69.820  1.00  0.00    -0.271 C  
HETATM    7  C   UNL     1     -10.834   5.395  71.754  1.00  0.00    -0.242 A  
HETATM    8  C   UNL     1     -10.264   5.939  70.591  1.00  0.00    -0.268 A  
HETATM    9 CL   UNL     1     -10.776   3.933  74.017  1.00  0.00    -0.284 Cl 
HETATM   10  C   UNL     1      -8.947   5.600  70.232  1.00  0.00    -0.139 A  
HETATM   11  C   UNL     1      -8.188   4.796  71.096  1.00  0.00    -0.104 A  
HETATM   12  O   UNL     1      -8.250   6.660  66.890  1.00  0.00    -0.111 OA 
HETATM   13  N   UNL     1      -8.319   6.014  69.045  1.00  0.00    -0.110 N  
HETATM   14  C   UNL     1      -8.756   4.276  72.262  1.00  0.00    -0.118 A  
HETATM   15  C   UNL     1     -10.079   4.570  72.580  1.00  0.00    -0.176 A  
HETATM   16  C   UNL     1      -8.936   6.276  67.840  1.00  0.00    -0.113 C  
HETATM   17  H   UNL     1      -7.307   6.134  69.078  1.00  0.00     0.000 HD 
ENDROOT
BRANCH   6  18
HETATM   18  C   UNL     1     -11.806   8.008  70.573  1.00  0.00    -0.017 A  
HETATM   19  C   UNL     1     -13.616   8.729  72.017  1.00  0.00    -0.469 A  
HETATM   20  C   UNL     1     -12.012  10.341  71.202  1.00  0.00    -0.472 A  
HETATM   21  C   UNL     1     -11.337   9.327  70.521  1.00  0.00    -0.306 A  
HETATM   22  C   UNL     1     -13.156  10.043  71.943  1.00  0.00    -0.563 A  
HETATM   23  C   UNL     1     -12.938   7.711  71.345  1.00  0.00    -0.350 A  
ENDBRANCH   6  18
TORSDOF 1
ENDMDL
MODEL       80
REMARK 921   NORMALIZED FREE ENERGY PREDICTED BY IDOCK:   -4.92 KCAL/MOL
REMARK 922        TOTAL FREE ENERGY PREDICTED BY IDOCK:   -5.62 KCAL/MOL
REMARK 923 INTER-LIGAND FREE ENERGY PREDICTED BY IDOCK:   -5.15 KCAL/MOL
REMARK 924 INTRA-LIGAND FREE ENERGY PREDICTED BY IDOCK:   -0.47 KCAL/MOL
REMARK 927      BINDING AFFINITY PREDICTED BY RF-SCORE:    0.00 PKD
ROOT
HETATM    1  O   UNL     1      -9.483   9.543  71.619  1.00  0.00    -0.244 OA 
HETATM    2  H   UNL     1      -9.208   8.697  71.952  1.00  0.00     0.000 HD 
HETATM    3  C   UNL     1      -9.656   9.494  70.219  1.00  0.00    -0.265 C  
HETATM    4  N   UNL     1     -10.076  10.791  69.709  1.00  0.00    -0.438 NA 
HETATM    5  H   UNL     1     -10.422  11.509  70.345  1.00  0.00     0.000 HD 
HETATM    6  C   UNL     1     -10.006  11.020  68.440  1.00  0.00    -0.186 C  
HETATM    7  C   UNL     1      -8.641  10.515  66.425  1.00  0.00    -0.147 A  
HETATM    8  C   UNL     1      -9.500  10.040  67.430  1.00  0.00    -0.176 A  
HETATM    9 CL   UNL     1      -7.230  10.274  64.141  1.00  0.00    -0.102 Cl 
HETATM   10  C   UNL     1      -9.922   8.699  67.415  1.00  0.00    -0.210 A  
HETATM   11  C   UNL     1      -9.555   7.878  66.339  1.00  0.00    -0.251 A  
HETATM   12  O   UNL     1     -11.475   7.842  70.520  1.00  0.00    -0.271 OA 
HETATM   13  N   UNL     1     -10.703   8.104  68.422  1.00  0.00    -0.415 N  
HETATM   14  C   UNL     1      -8.717   8.364  65.331  1.00  0.00    -0.175 A  
HETATM   15  C   UNL     1      -8.257   9.676  65.384  1.00  0.00    -0.128 A  
HETATM   16  C   UNL     1     -10.711   8.441  69.759  1.00  0.00    -0.211 C  
HETATM   17  H   UNL     1     -11.324   7.348  68.135  1.00  0.00     0.000 HD 
ENDROOT
BRANCH   6  18
HETATM   18  C   UNL     1     -10.468  12.371  67.970  1.00  0.00    -0.227 A  
HETATM   19  C   UNL     1     -11.968  13.782  66.689  1.00  0.00    -0.469 A  
HETATM   20  C   UNL     1     -10.191  14.781  67.984  1.00  0.00    -0.226 A  
HETATM   21  C   UNL     1      -9.789  13.515  68.412  1.00  0.00    -0.225 A  
HETATM   22  C   UNL     1     -11.274  14.912  67.116  1.00  0.00    -0.345 A  
HETATM   23  C   UNL     1     -11.576  12.514  67.123  1.00  0.00    -0.437 A  
ENDBRANCH   6  18
TORSDOF 1
ENDMDL
MODEL       81
REMARK 921   NORMALIZED FREE ENERGY PREDICTED BY IDOCK:   -4.83 KCAL/MOL
REMARK 922        TOTAL FREE ENERGY PREDICTED BY IDOCK:   -5.52 KCAL/MOL
REMARK 923 INTER-LIGAND FREE ENERGY PREDICTED BY IDOCK:   -5.82 KCAL/MOL
REMARK 924 INTRA-LIGAND FREE ENERGY PREDICTED BY IDOCK:    0.30 KCAL/MOL
REMARK 927      BINDING AFFINITY PREDICTED BY RF-SCORE:    0.00 PKD
ROOT
HETATM    1  O   UNL     1      -8.245   8.673  68.555  1.00  0.00    -0.119 OA 
HETATM    2  H   UNL     1      -7.653   8.347  67.887  1.00  0.00     0.000 HD 
HETATM    3  C   UNL     1      -9.135   9.622  68.009  1.00  0.00    -0.125 C  
HETATM    4  N   UNL     1     -10.041  10.122  69.033  1.00  0.00    -0.193 NA 
HETATM    5  H   UNL     1     -10.134   9.635  69.924  1.00  0.00     0.000 HD 
HETATM    6  C   UNL     1     -10.726  11.192  68.799  1.00  0.00    -0.199 C  
HETATM    7  C   UNL     1     -10.607  13.385  67.636  1.00  0.00    -0.249 A  
HETATM    8  C   UNL     1     -10.649  11.984  67.533  1.00  0.00    -0.250 A  
HETATM    9 CL   UNL     1     -10.656  15.883  66.626  1.00  0.00    -0.316 Cl 
HETATM   10  C   UNL     1     -10.701  11.376  66.266  1.00  0.00    -0.270 A  
HETATM   11  C   UNL     1     -10.807  12.183  65.124  1.00  0.00    -0.343 A  
HETATM   12  O   UNL     1     -10.076   7.866  66.539  1.00  0.00    -0.246 OA 
HETATM   13  N   UNL     1     -10.652   9.987  66.053  1.00  0.00    -0.056 N  
HETATM   14  C   UNL     1     -10.787  13.575  65.235  1.00  0.00    -0.316 A  
HETATM   15  C   UNL     1     -10.677  14.169  66.489  1.00  0.00    -0.289 A  
HETATM   16  C   UNL     1     -10.006   9.060  66.842  1.00  0.00    -0.246 C  
HETATM   17  H   UNL     1     -11.143   9.630  65.234  1.00  0.00     0.000 HD 
ENDROOT
BRANCH   6  18
HETATM   18  C   UNL     1     -11.656  11.652  69.886  1.00  0.00    -0.366 A  
HETATM   19  C   UNL     1     -12.770  13.408  71.134  1.00  0.00    -0.411 A  
HETATM   20  C   UNL     1     -13.158  11.094  71.707  1.00  0.00    -0.536 A  
HETATM   21  C   UNL     1     -12.297  10.695  70.684  1.00  0.00    -0.462 A  
HETATM   22  C   UNL     1     -13.387  12.450  71.936  1.00  0.00    -0.450 A  
HETATM   23  C   UNL     1     -11.916  13.012  70.103  1.00  0.00    -0.374 A  
ENDBRANCH   6  18
TORSDOF 1
ENDMDL
MODEL       82
REMARK 921   NORMALIZED FREE ENERGY PREDICTED BY IDOCK:   -4.80 KCAL/MOL
REMARK 922        TOTAL FREE ENERGY PREDICTED BY IDOCK:   -5.49 KCAL/MOL
REMARK 923 INTER-LIGAND FREE ENERGY PREDICTED BY IDOCK:   -5.31 KCAL/MOL
REMARK 924 INTRA-LIGAND FREE ENERGY PREDICTED BY IDOCK:   -0.18 KCAL/MOL
REMARK 927      BINDING AFFINITY PREDICTED BY RF-SCORE:    0.00 PKD
ROOT
HETATM    1  O   UNL     1     -10.423  14.968  71.359  1.00  0.00    -0.325 OA 
HETATM    2  H   UNL     1     -10.970  14.349  71.828  1.00  0.00     0.000 HD 
HETATM    3  C   UNL     1     -10.704  14.931  69.977  1.00  0.00    -0.138 C  
HETATM    4  N   UNL     1      -9.867  15.880  69.258  1.00  0.00    -0.244 NA 
HETATM    5  H   UNL     1      -9.361  16.608  69.762  1.00  0.00     0.000 HD 
HETATM    6  C   UNL     1      -9.772  15.788  67.973  1.00  0.00    -0.212 C  
HETATM    7  C   UNL     1      -9.725  14.132  66.121  1.00  0.00    -0.310 A  
HETATM    8  C   UNL     1     -10.460  14.749  67.147  1.00  0.00    -0.265 A  
HETATM    9 CL   UNL     1      -9.458  12.537  63.964  1.00  0.00     0.226 Cl 
HETATM   10  C   UNL     1     -11.822  14.441  67.316  1.00  0.00    -0.405 A  
HETATM   11  C   UNL     1     -12.451  13.593  66.394  1.00  0.00    -0.377 A  
HETATM   12  O   UNL     1     -13.010  15.705  70.443  1.00  0.00    -0.372 OA 
HETATM   13  N   UNL     1     -12.619  14.931  68.366  1.00  0.00    -0.242 N  
HETATM   14  C   UNL     1     -11.718  12.999  65.362  1.00  0.00    -0.401 A  
HETATM   15  C   UNL     1     -10.358  13.264  65.237  1.00  0.00    -0.312 A  
HETATM   16  C   UNL     1     -12.191  15.260  69.634  1.00  0.00    -0.271 C  
HETATM   17  H   UNL     1     -13.612  15.055  68.169  1.00  0.00     0.000 HD 
ENDROOT
BRANCH   6  18
HETATM   18  C   UNL     1      -8.905  16.804  67.284  1.00  0.00    -0.216 A  
HETATM   19  C   UNL     1      -8.530  19.026  66.387  1.00  0.00    -0.312 A  
HETATM   20  C   UNL     1      -6.785  17.362  66.245  1.00  0.00    -0.295 A  
HETATM   21  C   UNL     1      -7.608  16.442  66.896  1.00  0.00    -0.275 A  
HETATM   22  C   UNL     1      -7.250  18.651  65.984  1.00  0.00    -0.293 A  
HETATM   23  C   UNL     1      -9.353  18.111  67.046  1.00  0.00    -0.270 A  
ENDBRANCH   6  18
TORSDOF 1
ENDMDL
MODEL       83
REMARK 921   NORMALIZED FREE ENERGY PREDICTED BY IDOCK:   -4.79 KCAL/MOL
REMARK 922        TOTAL FREE ENERGY PREDICTED BY IDOCK:   -5.48 KCAL/MOL
REMARK 923 INTER-LIGAND FREE ENERGY PREDICTED BY IDOCK:   -5.09 KCAL/MOL
REMARK 924 INTRA-LIGAND FREE ENERGY PREDICTED BY IDOCK:   -0.39 KCAL/MOL
REMARK 927      BINDING AFFINITY PREDICTED BY RF-SCORE:    0.00 PKD
ROOT
HETATM    1  O   UNL     1     -10.762   6.859  66.486  1.00  0.00    -0.516 OA 
HETATM    2  H   UNL     1     -10.181   6.360  65.925  1.00  0.00     0.000 HD 
HETATM    3  C   UNL     1     -10.025   7.593  67.439  1.00  0.00    -0.192 C  
HETATM    4  N   UNL     1     -10.917   8.358  68.299  1.00  0.00    -0.439 NA 
HETATM    5  H   UNL     1     -11.893   8.498  68.037  1.00  0.00     0.000 HD 
HETATM    6  C   UNL     1     -10.457   8.856  69.398  1.00  0.00    -0.222 C  
HETATM    7  C   UNL     1      -8.846   8.405  71.236  1.00  0.00    -0.210 A  
HETATM    8  C   UNL     1      -9.050   8.693  69.876  1.00  0.00    -0.151 A  
HETATM    9 CL   UNL     1      -7.320   8.060  73.430  1.00  0.00    -0.159 Cl 
HETATM   10  C   UNL     1      -7.945   8.898  69.031  1.00  0.00    -0.106 A  
HETATM   11  C   UNL     1      -6.655   8.908  69.582  1.00  0.00    -0.043 A  
HETATM   12  O   UNL     1      -8.971   8.880  65.606  1.00  0.00    -0.182 OA 
HETATM   13  N   UNL     1      -8.037   9.099  67.643  1.00  0.00    -0.104 N  
HETATM   14  C   UNL     1      -6.462   8.643  70.940  1.00  0.00    -0.047 A  
HETATM   15  C   UNL     1      -7.557   8.383  71.758  1.00  0.00    -0.112 A  
HETATM   16  C   UNL     1      -9.008   8.592  66.805  1.00  0.00    -0.141 C  
HETATM   17  H   UNL     1      -7.315   9.676  67.212  1.00  0.00     0.000 HD 
ENDROOT
BRANCH   6  18
HETATM   18  C   UNL     1     -11.420   9.648  70.236  1.00  0.00    -0.288 A  
HETATM   19  C   UNL     1     -12.389  11.753  70.951  1.00  0.00    -0.420 A  
HETATM   20  C   UNL     1     -13.176   9.681  71.910  1.00  0.00    -0.538 A  
HETATM   21  C   UNL     1     -12.278   8.970  71.112  1.00  0.00    -0.331 A  
HETATM   22  C   UNL     1     -13.224  11.073  71.834  1.00  0.00    -0.503 A  
HETATM   23  C   UNL     1     -11.497  11.045  70.144  1.00  0.00    -0.383 A  
ENDBRANCH   6  18
TORSDOF 1
ENDMDL
MODEL       84
REMARK 921   NORMALIZED FREE ENERGY PREDICTED BY IDOCK:   -4.76 KCAL/MOL
REMARK 922        TOTAL FREE ENERGY PREDICTED BY IDOCK:   -5.44 KCAL/MOL
REMARK 923 INTER-LIGAND FREE ENERGY PREDICTED BY IDOCK:   -5.53 KCAL/MOL
REMARK 924 INTRA-LIGAND FREE ENERGY PREDICTED BY IDOCK:    0.09 KCAL/MOL
REMARK 927      BINDING AFFINITY PREDICTED BY RF-SCORE:    0.00 PKD
ROOT
HETATM    1  O   UNL     1     -10.901   5.226  69.968  1.00  0.00    -0.245 OA 
HETATM    2  H   UNL     1     -11.729   4.760  69.987  1.00  0.00     0.000 HD 
HETATM    3  C   UNL     1     -11.041   6.509  70.536  1.00  0.00    -0.319 C  
HETATM    4  N   UNL     1      -9.773   7.224  70.507  1.00  0.00    -0.176 NA 
HETATM    5  H   UNL     1      -8.902   6.723  70.326  1.00  0.00     0.000 HD 
HETATM    6  C   UNL     1      -9.764   8.498  70.713  1.00  0.00    -0.183 C  
HETATM    7  C   UNL     1     -11.093  10.561  70.317  1.00  0.00    -0.359 A  
HETATM    8  C   UNL     1     -10.985   9.322  70.970  1.00  0.00    -0.390 A  
HETATM    9 CL   UNL     1     -12.245  12.952  69.848  1.00  0.00    -0.303 Cl 
HETATM   10  C   UNL     1     -11.969   8.930  71.896  1.00  0.00    -0.371 A  
HETATM   11  C   UNL     1     -12.994   9.827  72.225  1.00  0.00    -0.420 A  
HETATM   12  O   UNL     1     -11.611   5.466  72.708  1.00  0.00    -0.307 OA 
HETATM   13  N   UNL     1     -12.003   7.676  72.530  1.00  0.00    -0.530 N  
HETATM   14  C   UNL     1     -13.083  11.068  71.587  1.00  0.00    -0.543 A  
HETATM   15  C   UNL     1     -12.138  11.424  70.630  1.00  0.00    -0.372 A  
HETATM   16  C   UNL     1     -11.535   6.485  72.016  1.00  0.00    -0.300 C  
HETATM   17  H   UNL     1     -12.414   7.643  73.462  1.00  0.00     0.000 HD 
ENDROOT
BRANCH   6  18
HETATM   18  C   UNL     1      -8.424   9.179  70.685  1.00  0.00    -0.246 A  
HETATM   19  C   UNL     1      -6.169   9.475  71.526  1.00  0.00     0.035 A  
HETATM   20  C   UNL     1      -6.960  10.842  69.698  1.00  0.00    -0.128 A  
HETATM   21  C   UNL     1      -8.191  10.187  69.740  1.00  0.00    -0.161 A  
HETATM   22  C   UNL     1      -5.953  10.492  70.597  1.00  0.00    -0.104 A  
HETATM   23  C   UNL     1      -7.396   8.811  71.564  1.00  0.00    -0.109 A  
ENDBRANCH   6  18
TORSDOF 1
ENDMDL
MODEL       85
REMARK 921   NORMALIZED FREE ENERGY PREDICTED BY IDOCK:   -4.76 KCAL/MOL
REMARK 922        TOTAL FREE ENERGY PREDICTED BY IDOCK:   -5.44 KCAL/MOL
REMARK 923 INTER-LIGAND FREE ENERGY PREDICTED BY IDOCK:   -4.97 KCAL/MOL
REMARK 924 INTRA-LIGAND FREE ENERGY PREDICTED BY IDOCK:   -0.48 KCAL/MOL
REMARK 927      BINDING AFFINITY PREDICTED BY RF-SCORE:    0.00 PKD
ROOT
HETATM    1  O   UNL     1      -8.832  10.834  69.572  1.00  0.00    -0.388 OA 
HETATM    2  H   UNL     1      -8.954  11.487  70.250  1.00  0.00     0.000 HD 
HETATM    3  C   UNL     1      -9.624   9.695  69.831  1.00  0.00    -0.230 C  
HETATM    4  N   UNL     1      -9.437   8.693  68.790  1.00  0.00    -0.142 NA 
HETATM    5  H   UNL     1      -8.988   8.942  67.909  1.00  0.00     0.000 HD 
HETATM    6  C   UNL     1      -9.846   7.487  68.999  1.00  0.00    -0.170 C  
HETATM    7  C   UNL     1     -10.102   5.781  70.788  1.00  0.00    -0.260 A  
HETATM    8  C   UNL     1     -10.499   7.021  70.261  1.00  0.00    -0.227 A  
HETATM    9 CL   UNL     1     -10.305   3.707  72.498  1.00  0.00    -0.226 Cl 
HETATM   10  C   UNL     1     -11.539   7.743  70.874  1.00  0.00    -0.274 A  
HETATM   11  C   UNL     1     -12.230   7.166  71.948  1.00  0.00    -0.358 A  
HETATM   12  O   UNL     1     -11.662  11.082  69.601  1.00  0.00    -0.269 OA 
HETATM   13  N   UNL     1     -11.946   9.030  70.482  1.00  0.00    -0.475 N  
HETATM   14  C   UNL     1     -11.844   5.921  72.454  1.00  0.00    -0.263 A  
HETATM   15  C   UNL     1     -10.777   5.240  71.878  1.00  0.00    -0.185 A  
HETATM   16  C   UNL     1     -11.151  10.005  69.919  1.00  0.00    -0.288 C  
HETATM   17  H   UNL     1     -12.927   9.266  70.628  1.00  0.00     0.000 HD 
ENDROOT
BRANCH   6  18
HETATM   18  C   UNL     1      -9.640   6.501  67.884  1.00  0.00    -0.119 A  
HETATM   19  C   UNL     1      -8.199   5.166  66.460  1.00  0.00    -0.108 A  
HETATM   20  C   UNL     1     -10.596   5.071  66.173  1.00  0.00    -0.321 A  
HETATM   21  C   UNL     1     -10.758   5.981  67.219  1.00  0.00    -0.400 A  
HETATM   22  C   UNL     1      -9.316   4.671  65.789  1.00  0.00    -0.158 A  
HETATM   23  C   UNL     1      -8.358   6.069  67.513  1.00  0.00    -0.108 A  
ENDBRANCH   6  18
TORSDOF 1
ENDMDL
MODEL       86
REMARK 921   NORMALIZED FREE ENERGY PREDICTED BY IDOCK:   -4.74 KCAL/MOL
REMARK 922        TOTAL FREE ENERGY PREDICTED BY IDOCK:   -5.42 KCAL/MOL
REMARK 923 INTER-LIGAND FREE ENERGY PREDICTED BY IDOCK:   -4.96 KCAL/MOL
REMARK 924 INTRA-LIGAND FREE ENERGY PREDICTED BY IDOCK:   -0.46 KCAL/MOL
REMARK 927      BINDING AFFINITY PREDICTED BY RF-SCORE:    0.00 PKD
ROOT
HETATM    1  O   UNL     1     -12.641   7.032  70.603  1.00  0.00    -0.598 OA 
HETATM    2  H   UNL     1     -13.397   7.148  71.167  1.00  0.00     0.000 HD 
HETATM    3  C   UNL     1     -12.120   8.283  70.209  1.00  0.00     0.422 C  
HETATM    4  N   UNL     1     -10.962   8.106  69.345  1.00  0.00    -0.431 NA 
HETATM    5  H   UNL     1     -10.498   7.200  69.282  1.00  0.00     0.000 HD 
HETATM    6  C   UNL     1     -10.530   9.111  68.658  1.00  0.00    -0.207 C  
HETATM    7  C   UNL     1     -11.303  11.135  67.442  1.00  0.00    -0.329 A  
HETATM    8  C   UNL     1     -11.150  10.471  68.670  1.00  0.00    -0.319 A  
HETATM    9 CL   UNL     1     -11.896  13.270  65.907  1.00  0.00    -0.408 Cl 
HETATM   10  C   UNL     1     -11.499  11.122  69.867  1.00  0.00    -0.306 A  
HETATM   11  C   UNL     1     -11.906  12.464  69.822  1.00  0.00    -0.387 A  
HETATM   12  O   UNL     1     -11.598   8.791  72.576  1.00  0.00    -0.317 OA 
HETATM   13  N   UNL     1     -11.473  10.515  71.135  1.00  0.00    -0.244 N  
HETATM   14  C   UNL     1     -12.035  13.125  68.597  1.00  0.00    -0.319 A  
HETATM   15  C   UNL     1     -11.742  12.455  67.413  1.00  0.00    -0.347 A  
HETATM   16  C   UNL     1     -11.681   9.180  71.408  1.00  0.00    -0.343 C  
HETATM   17  H   UNL     1     -11.280  11.122  71.931  1.00  0.00     0.000 HD 
ENDROOT
BRANCH   6  18
HETATM   18  C   UNL     1      -9.323   8.872  67.796  1.00  0.00    -0.157 A  
HETATM   19  C   UNL     1      -6.954   9.109  67.336  1.00  0.00    -0.078 A  
HETATM   20  C   UNL     1      -8.367   7.922  65.778  1.00  0.00    -0.139 A  
HETATM   21  C   UNL     1      -9.470   8.150  66.603  1.00  0.00    -0.274 A  
HETATM   22  C   UNL     1      -7.112   8.409  66.141  1.00  0.00    -0.076 A  
HETATM   23  C   UNL     1      -8.052   9.331  68.169  1.00  0.00    -0.107 A  
ENDBRANCH   6  18
TORSDOF 1
ENDMDL
MODEL       87
REMARK 921   NORMALIZED FREE ENERGY PREDICTED BY IDOCK:   -4.72 KCAL/MOL
REMARK 922        TOTAL FREE ENERGY PREDICTED BY IDOCK:   -5.40 KCAL/MOL
REMARK 923 INTER-LIGAND FREE ENERGY PREDICTED BY IDOCK:   -5.70 KCAL/MOL
REMARK 924 INTRA-LIGAND FREE ENERGY PREDICTED BY IDOCK:    0.30 KCAL/MOL
REMARK 927      BINDING AFFINITY PREDICTED BY RF-SCORE:    0.00 PKD
ROOT
HETATM    1  O   UNL     1      -8.960   5.738  69.337  1.00  0.00    -0.115 OA 
HETATM    2  H   UNL     1      -8.408   5.238  68.747  1.00  0.00     0.000 HD 
HETATM    3  C   UNL     1      -9.473   6.881  68.688  1.00  0.00    -0.134 C  
HETATM    4  N   UNL     1     -10.318   7.648  69.593  1.00  0.00    -0.209 NA 
HETATM    5  H   UNL     1     -10.652   7.234  70.463  1.00  0.00     0.000 HD 
HETATM    6  C   UNL     1     -10.638   8.859  69.279  1.00  0.00    -0.207 C  
HETATM    7  C   UNL     1      -9.764  10.893  68.150  1.00  0.00    -0.174 A  
HETATM    8  C   UNL     1     -10.188   9.558  68.037  1.00  0.00    -0.244 A  
HETATM    9 CL   UNL     1      -8.982  13.271  67.153  1.00  0.00    -0.221 Cl 
HETATM   10  C   UNL     1     -10.255   8.949  66.771  1.00  0.00    -0.278 A  
HETATM   11  C   UNL     1      -9.989   9.717  65.628  1.00  0.00    -0.352 A  
HETATM   12  O   UNL     1     -10.686   5.416  67.104  1.00  0.00    -0.235 OA 
HETATM   13  N   UNL     1     -10.575   7.597  66.559  1.00  0.00    -0.417 N  
HETATM   14  C   UNL     1      -9.589  11.051  65.747  1.00  0.00    -0.260 A  
HETATM   15  C   UNL     1      -9.470  11.629  67.007  1.00  0.00    -0.182 A  
HETATM   16  C   UNL     1     -10.318   6.550  67.419  1.00  0.00    -0.208 C  
HETATM   17  H   UNL     1     -11.044   7.367  65.683  1.00  0.00     0.000 HD 
ENDROOT
BRANCH   6  18
HETATM   18  C   UNL     1     -11.525   9.595  70.243  1.00  0.00    -0.288 A  
HETATM   19  C   UNL     1     -12.540  11.637  71.069  1.00  0.00    -0.431 A  
HETATM   20  C   UNL     1     -13.009   9.534  72.162  1.00  0.00    -0.497 A  
HETATM   21  C   UNL     1     -12.187   8.875  71.246  1.00  0.00    -0.351 A  
HETATM   22  C   UNL     1     -13.178  10.916  72.077  1.00  0.00    -0.456 A  
HETATM   23  C   UNL     1     -11.725  10.979  70.146  1.00  0.00    -0.442 A  
ENDBRANCH   6  18
TORSDOF 1
ENDMDL
MODEL       88
REMARK 921   NORMALIZED FREE ENERGY PREDICTED BY IDOCK:   -4.71 KCAL/MOL
REMARK 922        TOTAL FREE ENERGY PREDICTED BY IDOCK:   -5.39 KCAL/MOL
REMARK 923 INTER-LIGAND FREE ENERGY PREDICTED BY IDOCK:   -4.94 KCAL/MOL
REMARK 924 INTRA-LIGAND FREE ENERGY PREDICTED BY IDOCK:   -0.45 KCAL/MOL
REMARK 927      BINDING AFFINITY PREDICTED BY RF-SCORE:    0.00 PKD
ROOT
HETATM    1  O   UNL     1     -11.242   8.065  69.276  1.00  0.00    -0.439 OA 
HETATM    2  H   UNL     1     -12.110   7.929  69.638  1.00  0.00     0.000 HD 
HETATM    3  C   UNL     1     -11.026   9.433  69.005  1.00  0.00    -0.067 C  
HETATM    4  N   UNL     1      -9.696   9.641  68.450  1.00  0.00    -0.148 NA 
HETATM    5  H   UNL     1      -8.990   8.909  68.513  1.00  0.00     0.000 HD 
HETATM    6  C   UNL     1      -9.424  10.765  67.876  1.00  0.00    -0.157 C  
HETATM    7  C   UNL     1     -10.437  12.556  66.483  1.00  0.00    -0.258 A  
HETATM    8  C   UNL     1     -10.394  11.892  67.720  1.00  0.00    -0.214 A  
HETATM    9 CL   UNL     1     -11.242  14.522  64.823  1.00  0.00    -0.390 Cl 
HETATM   10  C   UNL     1     -11.189  12.347  68.787  1.00  0.00    -0.273 A  
HETATM   11  C   UNL     1     -11.942  13.519  68.628  1.00  0.00    -0.378 A  
HETATM   12  O   UNL     1     -11.247   9.929  71.420  1.00  0.00    -0.348 OA 
HETATM   13  N   UNL     1     -11.288  11.699  70.031  1.00  0.00    -0.499 N  
HETATM   14  C   UNL     1     -11.964  14.187  67.401  1.00  0.00    -0.439 A  
HETATM   15  C   UNL     1     -11.219  13.697  66.332  1.00  0.00    -0.308 A  
HETATM   16  C   UNL     1     -11.161  10.346  70.263  1.00  0.00    -0.320 C  
HETATM   17  H   UNL     1     -11.472  12.289  70.843  1.00  0.00     0.000 HD 
ENDROOT
BRANCH   6  18
HETATM   18  C   UNL     1      -8.031  10.929  67.336  1.00  0.00    -0.113 A  
HETATM   19  C   UNL     1      -5.909  12.099  67.236  1.00  0.00    -0.146 A  
HETATM   20  C   UNL     1      -6.268  10.141  65.868  1.00  0.00    -0.096 A  
HETATM   21  C   UNL     1      -7.554  10.008  66.394  1.00  0.00    -0.104 A  
HETATM   22  C   UNL     1      -5.450  11.191  66.283  1.00  0.00    -0.142 A  
HETATM   23  C   UNL     1      -7.191  11.963  67.771  1.00  0.00    -0.104 A  
ENDBRANCH   6  18
TORSDOF 1
ENDMDL
MODEL       89
REMARK 921   NORMALIZED FREE ENERGY PREDICTED BY IDOCK:   -4.70 KCAL/MOL
REMARK 922        TOTAL FREE ENERGY PREDICTED BY IDOCK:   -5.38 KCAL/MOL
REMARK 923 INTER-LIGAND FREE ENERGY PREDICTED BY IDOCK:   -4.95 KCAL/MOL
REMARK 924 INTRA-LIGAND FREE ENERGY PREDICTED BY IDOCK:   -0.44 KCAL/MOL
REMARK 927      BINDING AFFINITY PREDICTED BY RF-SCORE:    0.00 PKD
ROOT
HETATM    1  O   UNL     1      -6.854  11.692  68.673  1.00  0.00    -0.067 OA 
HETATM    2  H   UNL     1      -6.670  12.594  68.909  1.00  0.00     0.000 HD 
HETATM    3  C   UNL     1      -8.226  11.405  68.836  1.00  0.00    -0.052 C  
HETATM    4  N   UNL     1      -8.507  10.023  68.475  1.00  0.00    -0.111 NA 
HETATM    5  H   UNL     1      -7.823   9.478  67.949  1.00  0.00     0.000 HD 
HETATM    6  C   UNL     1      -9.632   9.498  68.827  1.00  0.00    -0.157 C  
HETATM    7  C   UNL     1     -11.319   9.508  70.652  1.00  0.00    -0.364 A  
HETATM    8  C   UNL     1     -10.689  10.209  69.610  1.00  0.00    -0.295 A  
HETATM    9 CL   UNL     1     -13.187   9.197  72.570  1.00  0.00    -0.501 Cl 
HETATM   10  C   UNL     1     -11.117  11.507  69.280  1.00  0.00    -0.246 A  
HETATM   11  C   UNL     1     -12.233  12.047  69.935  1.00  0.00    -0.249 A  
HETATM   12  O   UNL     1      -8.765  13.079  67.094  1.00  0.00    -0.196 OA 
HETATM   13  N   UNL     1     -10.495  12.324  68.320  1.00  0.00    -0.220 N  
HETATM   14  C   UNL     1     -12.868  11.335  70.956  1.00  0.00    -0.395 A  
HETATM   15  C   UNL     1     -12.402  10.074  71.316  1.00  0.00    -0.398 A  
HETATM   16  C   UNL     1      -9.159  12.317  67.979  1.00  0.00    -0.191 C  
HETATM   17  H   UNL     1     -11.090  12.989  67.826  1.00  0.00     0.000 HD 
ENDROOT
BRANCH   6  18
HETATM   18  C   UNL     1      -9.873   8.073  68.413  1.00  0.00    -0.184 A  
HETATM   19  C   UNL     1     -10.901   6.421  66.966  1.00  0.00    -0.464 A  
HETATM   20  C   UNL     1      -9.463   5.709  68.771  1.00  0.00    -0.155 A  
HETATM   21  C   UNL     1      -9.249   7.041  69.128  1.00  0.00    -0.138 A  
HETATM   22  C   UNL     1     -10.295   5.400  67.695  1.00  0.00    -0.235 A  
HETATM   23  C   UNL     1     -10.683   7.755  67.314  1.00  0.00    -0.326 A  
ENDBRANCH   6  18
TORSDOF 1
ENDMDL
MODEL       90
REMARK 921   NORMALIZED FREE ENERGY PREDICTED BY IDOCK:   -4.60 KCAL/MOL
REMARK 922        TOTAL FREE ENERGY PREDICTED BY IDOCK:   -5.28 KCAL/MOL
REMARK 923 INTER-LIGAND FREE ENERGY PREDICTED BY IDOCK:   -4.81 KCAL/MOL
REMARK 924 INTRA-LIGAND FREE ENERGY PREDICTED BY IDOCK:   -0.47 KCAL/MOL
REMARK 927      BINDING AFFINITY PREDICTED BY RF-SCORE:    0.00 PKD
ROOT
HETATM    1  O   UNL     1      -9.461   9.861  62.380  1.00  0.00    -0.424 OA 
HETATM    2  H   UNL     1      -9.083   9.086  61.981  1.00  0.00     0.000 HD 
HETATM    3  C   UNL     1      -9.210   9.876  63.769  1.00  0.00    -0.243 C  
HETATM    4  N   UNL     1      -9.790  11.063  64.381  1.00  0.00    -0.272 NA 
HETATM    5  H   UNL     1     -10.093  11.847  63.803  1.00  0.00     0.000 HD 
HETATM    6  C   UNL     1      -9.915  11.110  65.665  1.00  0.00    -0.249 C  
HETATM    7  C   UNL     1     -10.390   9.687  67.646  1.00  0.00    -0.290 A  
HETATM    8  C   UNL     1      -9.516  10.010  66.595  1.00  0.00    -0.215 A  
HETATM    9 CL   UNL     1     -11.066   8.405  69.919  1.00  0.00    -0.170 Cl 
HETATM   10  C   UNL     1      -8.273   9.360  66.493  1.00  0.00    -0.115 A  
HETATM   11  C   UNL     1      -7.884   8.466  67.501  1.00  0.00    -0.099 A  
HETATM   12  O   UNL     1      -6.781  10.009  63.309  1.00  0.00    -0.124 OA 
HETATM   13  N   UNL     1      -7.370   9.542  65.431  1.00  0.00    -0.096 N  
HETATM   14  C   UNL     1      -8.750   8.166  68.556  1.00  0.00    -0.134 A  
HETATM   15  C   UNL     1     -10.002   8.771  68.618  1.00  0.00    -0.182 A  
HETATM   16  C   UNL     1      -7.691   9.854  64.127  1.00  0.00    -0.138 C  
HETATM   17  H   UNL     1      -6.379   9.432  65.646  1.00  0.00     0.000 HD 
ENDROOT
BRANCH   6  18
HETATM   18  C   UNL     1     -10.506  12.366  66.241  1.00  0.00    -0.271 A  
HETATM   19  C   UNL     1     -12.342  13.927  66.511  1.00  0.00    -0.447 A  
HETATM   20  C   UNL     1     -10.240  14.340  67.626  1.00  0.00    -0.237 A  
HETATM   21  C   UNL     1      -9.720  13.164  67.085  1.00  0.00    -0.235 A  
HETATM   22  C   UNL     1     -11.548  14.725  67.332  1.00  0.00    -0.377 A  
HETATM   23  C   UNL     1     -11.830  12.744  65.976  1.00  0.00    -0.495 A  
ENDBRANCH   6  18
TORSDOF 1
ENDMDL
MODEL       91
REMARK 921   NORMALIZED FREE ENERGY PREDICTED BY IDOCK:   -4.58 KCAL/MOL
REMARK 922        TOTAL FREE ENERGY PREDICTED BY IDOCK:   -5.26 KCAL/MOL
REMARK 923 INTER-LIGAND FREE ENERGY PREDICTED BY IDOCK:   -5.35 KCAL/MOL
REMARK 924 INTRA-LIGAND FREE ENERGY PREDICTED BY IDOCK:    0.09 KCAL/MOL
REMARK 927      BINDING AFFINITY PREDICTED BY RF-SCORE:    0.00 PKD
ROOT
HETATM    1  O   UNL     1     -10.468  11.338  64.864  1.00  0.00    -0.288 OA 
HETATM    2  H   UNL     1     -10.246  10.547  64.387  1.00  0.00     0.000 HD 
HETATM    3  C   UNL     1     -10.254  11.162  66.247  1.00  0.00    -0.239 C  
HETATM    4  N   UNL     1     -10.595  12.375  66.976  1.00  0.00    -0.223 NA 
HETATM    5  H   UNL     1     -10.718  13.258  66.481  1.00  0.00     0.000 HD 
HETATM    6  C   UNL     1     -10.741  12.318  68.258  1.00  0.00    -0.221 C  
HETATM    7  C   UNL     1     -11.545  10.830  70.079  1.00  0.00    -0.417 A  
HETATM    8  C   UNL     1     -10.597  11.071  69.071  1.00  0.00    -0.258 A  
HETATM    9 CL   UNL     1     -12.524   9.491  72.204  1.00  0.00    -0.407 Cl 
HETATM   10  C   UNL     1      -9.510  10.193  68.907  1.00  0.00    -0.182 A  
HETATM   11  C   UNL     1      -9.336   9.142  69.818  1.00  0.00    -0.190 A  
HETATM   12  O   UNL     1      -7.838  10.840  65.814  1.00  0.00    -0.156 OA 
HETATM   13  N   UNL     1      -8.563  10.293  67.873  1.00  0.00    -0.118 N  
HETATM   14  C   UNL     1     -10.272   8.921  70.833  1.00  0.00    -0.304 A  
HETATM   15  C   UNL     1     -11.376   9.760  70.953  1.00  0.00    -0.365 A  
HETATM   16  C   UNL     1      -8.781  10.793  66.607  1.00  0.00    -0.147 C  
HETATM   17  H   UNL     1      -7.621   9.962  68.080  1.00  0.00     0.000 HD 
ENDROOT
BRANCH   6  18
HETATM   18  C   UNL     1     -11.078  13.603  68.959  1.00  0.00    -0.295 A  
HETATM   19  C   UNL     1     -10.573  15.899  69.557  1.00  0.00    -0.282 A  
HETATM   20  C   UNL     1     -12.606  14.868  70.356  1.00  0.00    -0.394 A  
HETATM   21  C   UNL     1     -12.272  13.689  69.687  1.00  0.00    -0.326 A  
HETATM   22  C   UNL     1     -11.752  15.969  70.296  1.00  0.00    -0.304 A  
HETATM   23  C   UNL     1     -10.240  14.725  68.879  1.00  0.00    -0.237 A  
ENDBRANCH   6  18
TORSDOF 1
ENDMDL
MODEL       92
REMARK 921   NORMALIZED FREE ENERGY PREDICTED BY IDOCK:   -4.57 KCAL/MOL
REMARK 922        TOTAL FREE ENERGY PREDICTED BY IDOCK:   -5.25 KCAL/MOL
REMARK 923 INTER-LIGAND FREE ENERGY PREDICTED BY IDOCK:   -5.26 KCAL/MOL
REMARK 924 INTRA-LIGAND FREE ENERGY PREDICTED BY IDOCK:    0.01 KCAL/MOL
REMARK 927      BINDING AFFINITY PREDICTED BY RF-SCORE:    0.00 PKD
ROOT
HETATM    1  O   UNL     1      -6.868   9.224  66.726  1.00  0.00    -0.078 OA 
HETATM    2  H   UNL     1      -6.478   9.656  65.976  1.00  0.00     0.000 HD 
HETATM    3  C   UNL     1      -8.172   9.710  66.957  1.00  0.00    -0.117 C  
HETATM    4  N   UNL     1      -8.770   9.048  68.107  1.00  0.00    -0.130 NA 
HETATM    5  H   UNL     1      -8.357   8.196  68.485  1.00  0.00     0.000 HD 
HETATM    6  C   UNL     1      -9.830   9.555  68.644  1.00  0.00    -0.162 C  
HETATM    7  C   UNL     1     -10.933  11.725  69.144  1.00  0.00    -0.261 A  
HETATM    8  C   UNL     1     -10.500  10.806  68.174  1.00  0.00    -0.214 A  
HETATM    9 CL   UNL     1     -12.236  13.937  69.966  1.00  0.00    -0.400 Cl 
HETATM   10  C   UNL     1     -10.775  11.041  66.815  1.00  0.00    -0.266 A  
HETATM   11  C   UNL     1     -11.564  12.144  66.458  1.00  0.00    -0.425 A  
HETATM   12  O   UNL     1      -8.872   8.825  64.753  1.00  0.00    -0.154 OA 
HETATM   13  N   UNL     1     -10.307  10.235  65.762  1.00  0.00    -0.210 N  
HETATM   14  C   UNL     1     -12.010  13.042  67.431  1.00  0.00    -0.372 A  
HETATM   15  C   UNL     1     -11.684  12.834  68.768  1.00  0.00    -0.323 A  
HETATM   16  C   UNL     1      -9.135   9.510  65.744  1.00  0.00    -0.196 C  
HETATM   17  H   UNL     1     -10.893  10.181  64.929  1.00  0.00     0.000 HD 
ENDROOT
BRANCH   6  18
HETATM   18  C   UNL     1     -10.411   8.820  69.818  1.00  0.00    -0.214 A  
HETATM   19  C   UNL     1     -11.026   8.697  72.161  1.00  0.00    -0.434 A  
HETATM   20  C   UNL     1     -11.437   6.810  70.710  1.00  0.00    -0.392 A  
HETATM   21  C   UNL     1     -10.901   7.520  69.634  1.00  0.00    -0.210 A  
HETATM   22  C   UNL     1     -11.491   7.396  71.974  1.00  0.00    -0.310 A  
HETATM   23  C   UNL     1     -10.498   9.413  71.086  1.00  0.00    -0.392 A  
ENDBRANCH   6  18
TORSDOF 1
ENDMDL
MODEL       93
REMARK 921   NORMALIZED FREE ENERGY PREDICTED BY IDOCK:   -4.55 KCAL/MOL
REMARK 922        TOTAL FREE ENERGY PREDICTED BY IDOCK:   -5.22 KCAL/MOL
REMARK 923 INTER-LIGAND FREE ENERGY PREDICTED BY IDOCK:   -4.79 KCAL/MOL
REMARK 924 INTRA-LIGAND FREE ENERGY PREDICTED BY IDOCK:   -0.44 KCAL/MOL
REMARK 927      BINDING AFFINITY PREDICTED BY RF-SCORE:    0.00 PKD
ROOT
HETATM    1  O   UNL     1      -9.935  14.994  69.980  1.00  0.00    -0.477 OA 
HETATM    2  H   UNL     1     -10.301  15.862  70.103  1.00  0.00     0.000 HD 
HETATM    3  C   UNL     1      -9.987  14.620  68.621  1.00  0.00    -0.234 C  
HETATM    4  N   UNL     1      -9.426  13.290  68.434  1.00  0.00    -0.304 NA 
HETATM    5  H   UNL     1      -8.867  12.857  69.169  1.00  0.00     0.000 HD 
HETATM    6  C   UNL     1      -9.645  12.666  67.325  1.00  0.00    -0.203 C  
HETATM    7  C   UNL     1     -11.365  12.340  65.561  1.00  0.00    -0.394 A  
HETATM    8  C   UNL     1     -10.461  13.208  66.196  1.00  0.00    -0.287 A  
HETATM    9 CL   UNL     1     -13.124  11.674  63.630  1.00  0.00    -0.193 Cl 
HETATM   10  C   UNL     1     -10.290  14.517  65.712  1.00  0.00    -0.331 A  
HETATM   11  C   UNL     1     -10.954  14.905  64.539  1.00  0.00    -0.216 A  
HETATM   12  O   UNL     1      -8.463  16.492  68.067  1.00  0.00    -0.179 OA 
HETATM   13  N   UNL     1      -9.484  15.490  66.329  1.00  0.00    -0.296 N  
HETATM   14  C   UNL     1     -11.835  14.028  63.900  1.00  0.00    -0.263 A  
HETATM   15  C   UNL     1     -12.043  12.754  64.419  1.00  0.00    -0.416 A  
HETATM   16  C   UNL     1      -9.215  15.595  67.677  1.00  0.00    -0.193 C  
HETATM   17  H   UNL     1      -9.056  16.186  65.720  1.00  0.00     0.000 HD 
ENDROOT
BRANCH   6  18
HETATM   18  C   UNL     1      -9.028  11.303  67.183  1.00  0.00    -0.155 A  
HETATM   19  C   UNL     1      -7.316   9.819  66.317  1.00  0.00    -0.099 A  
HETATM   20  C   UNL     1      -9.084   8.934  67.704  1.00  0.00    -0.144 A  
HETATM   21  C   UNL     1      -9.630  10.212  67.826  1.00  0.00    -0.168 A  
HETATM   22  C   UNL     1      -7.932   8.737  66.942  1.00  0.00    -0.098 A  
HETATM   23  C   UNL     1      -7.853  11.102  66.445  1.00  0.00    -0.136 A  
ENDBRANCH   6  18
TORSDOF 1
ENDMDL
MODEL       94
REMARK 921   NORMALIZED FREE ENERGY PREDICTED BY IDOCK:   -4.54 KCAL/MOL
REMARK 922        TOTAL FREE ENERGY PREDICTED BY IDOCK:   -5.21 KCAL/MOL
REMARK 923 INTER-LIGAND FREE ENERGY PREDICTED BY IDOCK:   -4.93 KCAL/MOL
REMARK 924 INTRA-LIGAND FREE ENERGY PREDICTED BY IDOCK:   -0.28 KCAL/MOL
REMARK 927      BINDING AFFINITY PREDICTED BY RF-SCORE:    0.00 PKD
ROOT
HETATM    1  O   UNL     1      -8.139  10.554  70.189  1.00  0.00    -0.367 OA 
HETATM    2  H   UNL     1      -8.088  10.199  71.069  1.00  0.00     0.000 HD 
HETATM    3  C   UNL     1      -8.883   9.699  69.350  1.00  0.00    -0.180 C  
HETATM    4  N   UNL     1      -8.960  10.242  68.002  1.00  0.00    -0.131 NA 
HETATM    5  H   UNL     1      -8.712  11.216  67.823  1.00  0.00     0.000 HD 
HETATM    6  C   UNL     1      -9.345   9.477  67.036  1.00  0.00    -0.148 C  
HETATM    7  C   UNL     1      -9.243   7.128  66.232  1.00  0.00    -0.169 A  
HETATM    8  C   UNL     1      -9.713   8.036  67.194  1.00  0.00    -0.255 A  
HETATM    9 CL   UNL     1      -9.115   4.706  65.055  1.00  0.00    -0.154 Cl 
HETATM   10  C   UNL     1     -10.570   7.593  68.217  1.00  0.00    -0.124 A  
HETATM   11  C   UNL     1     -11.021   6.265  68.203  1.00  0.00    -0.412 A  
HETATM   12  O   UNL     1     -10.883  10.089  70.757  1.00  0.00    -0.312 OA 
HETATM   13  N   UNL     1     -11.020   8.398  69.278  1.00  0.00    -0.428 N  
HETATM   14  C   UNL     1     -10.566   5.372  67.230  1.00  0.00    -0.250 A  
HETATM   15  C   UNL     1      -9.672   5.805  66.255  1.00  0.00    -0.117 A  
HETATM   16  C   UNL     1     -10.344   9.457  69.846  1.00  0.00    -0.227 C  
HETATM   17  H   UNL     1     -11.937   8.178  69.665  1.00  0.00     0.000 HD 
ENDROOT
BRANCH   6  18
HETATM   18  C   UNL     1      -9.418  10.097  65.670  1.00  0.00    -0.275 A  
HETATM   19  C   UNL     1      -8.455  10.590  63.499  1.00  0.00    -0.140 A  
HETATM   20  C   UNL     1     -10.675  11.375  64.034  1.00  0.00    -0.450 A  
HETATM   21  C   UNL     1     -10.583  10.781  65.294  1.00  0.00    -0.230 A  
HETATM   22  C   UNL     1      -9.608  11.286  63.141  1.00  0.00    -0.391 A  
HETATM   23  C   UNL     1      -8.362   9.985  64.754  1.00  0.00    -0.166 A  
ENDBRANCH   6  18
TORSDOF 1
ENDMDL
MODEL       95
REMARK 921   NORMALIZED FREE ENERGY PREDICTED BY IDOCK:   -4.53 KCAL/MOL
REMARK 922        TOTAL FREE ENERGY PREDICTED BY IDOCK:   -5.21 KCAL/MOL
REMARK 923 INTER-LIGAND FREE ENERGY PREDICTED BY IDOCK:   -5.16 KCAL/MOL
REMARK 924 INTRA-LIGAND FREE ENERGY PREDICTED BY IDOCK:   -0.04 KCAL/MOL
REMARK 927      BINDING AFFINITY PREDICTED BY RF-SCORE:    0.00 PKD
ROOT
HETATM    1  O   UNL     1     -11.639  10.137  71.031  1.00  0.00    -0.349 OA 
HETATM    2  H   UNL     1     -11.917  10.562  71.834  1.00  0.00     0.000 HD 
HETATM    3  C   UNL     1     -11.533   8.742  71.218  1.00  0.00    -0.292 C  
HETATM    4  N   UNL     1     -11.106   8.092  69.988  1.00  0.00    -0.393 NA 
HETATM    5  H   UNL     1     -11.144   8.591  69.099  1.00  0.00     0.000 HD 
HETATM    6  C   UNL     1     -10.679   6.874  70.036  1.00  0.00    -0.243 C  
HETATM    7  C   UNL     1      -9.412   5.293  71.475  1.00  0.00    -0.191 A  
HETATM    8  C   UNL     1     -10.571   6.065  71.289  1.00  0.00    -0.302 A  
HETATM    9 CL   UNL     1      -7.916   3.452  72.756  1.00  0.00    -0.067 Cl 
HETATM   10  C   UNL     1     -11.617   5.996  72.226  1.00  0.00    -0.307 A  
HETATM   11  C   UNL     1     -11.527   5.081  73.285  1.00  0.00    -0.339 A  
HETATM   12  O   UNL     1     -13.964   8.637  71.676  1.00  0.00    -0.393 OA 
HETATM   13  N   UNL     1     -12.773   6.794  72.180  1.00  0.00    -0.555 N  
HETATM   14  C   UNL     1     -10.381   4.300  73.452  1.00  0.00    -0.236 A  
HETATM   15  C   UNL     1      -9.325   4.416  72.552  1.00  0.00    -0.131 A  
HETATM   16  C   UNL     1     -12.868   8.071  71.669  1.00  0.00    -0.329 C  
HETATM   17  H   UNL     1     -13.627   6.389  72.564  1.00  0.00     0.000 HD 
ENDROOT
BRANCH   6  18
HETATM   18  C   UNL     1     -10.266   6.250  68.733  1.00  0.00    -0.213 A  
HETATM   19  C   UNL     1      -9.784   4.311  67.359  1.00  0.00    -0.210 A  
HETATM   20  C   UNL     1      -9.584   6.528  66.421  1.00  0.00    -0.151 A  
HETATM   21  C   UNL     1      -9.979   7.080  67.641  1.00  0.00    -0.194 A  
HETATM   22  C   UNL     1      -9.479   5.144  66.284  1.00  0.00    -0.164 A  
HETATM   23  C   UNL     1     -10.189   4.859  68.577  1.00  0.00    -0.105 A  
ENDBRANCH   6  18
TORSDOF 1
ENDMDL
MODEL       96
REMARK 921   NORMALIZED FREE ENERGY PREDICTED BY IDOCK:   -4.52 KCAL/MOL
REMARK 922        TOTAL FREE ENERGY PREDICTED BY IDOCK:   -5.20 KCAL/MOL
REMARK 923 INTER-LIGAND FREE ENERGY PREDICTED BY IDOCK:   -4.94 KCAL/MOL
REMARK 924 INTRA-LIGAND FREE ENERGY PREDICTED BY IDOCK:   -0.26 KCAL/MOL
REMARK 927      BINDING AFFINITY PREDICTED BY RF-SCORE:    0.00 PKD
ROOT
HETATM    1  O   UNL     1     -11.447   5.042  65.601  1.00  0.00    -0.821 OA 
HETATM    2  H   UNL     1     -11.185   4.365  64.989  1.00  0.00     0.000 HD 
HETATM    3  C   UNL     1     -10.619   5.025  66.744  1.00  0.00    -0.157 C  
HETATM    4  N   UNL     1     -11.020   6.064  67.682  1.00  0.00    -0.377 NA 
HETATM    5  H   UNL     1     -11.643   6.816  67.386  1.00  0.00     0.000 HD 
HETATM    6  C   UNL     1     -10.578   6.021  68.894  1.00  0.00    -0.290 C  
HETATM    7  C   UNL     1      -9.955   4.434  70.703  1.00  0.00    -0.254 A  
HETATM    8  C   UNL     1      -9.676   4.954  69.428  1.00  0.00    -0.261 A  
HETATM    9 CL   UNL     1      -9.403   2.937  72.875  1.00  0.00    -0.120 Cl 
HETATM   10  C   UNL     1      -8.531   4.528  68.733  1.00  0.00    -0.084 A  
HETATM   11  C   UNL     1      -7.630   3.659  69.366  1.00  0.00    -0.052 A  
HETATM   12  O   UNL     1      -8.673   5.587  65.321  1.00  0.00    -0.153 OA 
HETATM   13  N   UNL     1      -8.213   4.915  67.419  1.00  0.00    -0.106 N  
HETATM   14  C   UNL     1      -7.904   3.162  70.644  1.00  0.00    -0.044 A  
HETATM   15  C   UNL     1      -9.069   3.545  71.301  1.00  0.00    -0.112 A  
HETATM   16  C   UNL     1      -9.107   5.238  66.421  1.00  0.00    -0.137 C  
HETATM   17  H   UNL     1      -7.222   4.962  67.181  1.00  0.00     0.000 HD 
ENDROOT
BRANCH   6  18
HETATM   18  C   UNL     1     -11.013   7.128  69.813  1.00  0.00    -0.256 A  
HETATM   19  C   UNL     1     -10.769   9.365  70.717  1.00  0.00    -0.373 A  
HETATM   20  C   UNL     1     -12.544   7.933  71.514  1.00  0.00    -0.343 A  
HETATM   21  C   UNL     1     -12.124   6.926  70.644  1.00  0.00    -0.363 A  
HETATM   22  C   UNL     1     -11.861   9.149  71.556  1.00  0.00    -0.428 A  
HETATM   23  C   UNL     1     -10.352   8.364  69.839  1.00  0.00    -0.210 A  
ENDBRANCH   6  18
TORSDOF 1
ENDMDL
MODEL       97
REMARK 921   NORMALIZED FREE ENERGY PREDICTED BY IDOCK:   -4.52 KCAL/MOL
REMARK 922        TOTAL FREE ENERGY PREDICTED BY IDOCK:   -5.19 KCAL/MOL
REMARK 923 INTER-LIGAND FREE ENERGY PREDICTED BY IDOCK:   -4.72 KCAL/MOL
REMARK 924 INTRA-LIGAND FREE ENERGY PREDICTED BY IDOCK:   -0.47 KCAL/MOL
REMARK 927      BINDING AFFINITY PREDICTED BY RF-SCORE:    0.00 PKD
ROOT
HETATM    1  O   UNL     1      -5.618  12.165  69.591  1.00  0.00    -0.075 OA 
HETATM    2  H   UNL     1      -4.970  11.471  69.557  1.00  0.00     0.000 HD 
HETATM    3  C   UNL     1      -6.813  11.761  68.959  1.00  0.00    -0.106 C  
HETATM    4  N   UNL     1      -7.805  12.825  69.011  1.00  0.00    -0.324 NA 
HETATM    5  H   UNL     1      -7.682  13.616  69.642  1.00  0.00     0.000 HD 
HETATM    6  C   UNL     1      -8.843  12.754  68.246  1.00  0.00    -0.168 C  
HETATM    7  C   UNL     1      -9.580  11.987  66.000  1.00  0.00    -0.247 A  
HETATM    8  C   UNL     1      -9.106  11.646  67.278  1.00  0.00    -0.167 A  
HETATM    9 CL   UNL     1     -10.580  11.417  63.563  1.00  0.00    -0.455 Cl 
HETATM   10  C   UNL     1      -8.972  10.293  67.637  1.00  0.00    -0.134 A  
HETATM   11  C   UNL     1      -9.406   9.302  66.745  1.00  0.00    -0.202 A  
HETATM   12  O   UNL     1      -7.088   9.983  70.660  1.00  0.00    -0.281 OA 
HETATM   13  N   UNL     1      -8.422   9.847  68.852  1.00  0.00    -0.119 N  
HETATM   14  C   UNL     1      -9.897   9.650  65.483  1.00  0.00    -0.352 A  
HETATM   15  C   UNL     1      -9.973  10.989  65.114  1.00  0.00    -0.278 A  
HETATM   16  C   UNL     1      -7.453  10.487  69.595  1.00  0.00    -0.141 C  
HETATM   17  H   UNL     1      -8.773   8.964  69.219  1.00  0.00     0.000 HD 
ENDROOT
BRANCH   6  18
HETATM   18  C   UNL     1      -9.840  13.873  68.354  1.00  0.00    -0.229 A  
HETATM   19  C   UNL     1     -10.520  16.167  67.953  1.00  0.00    -0.290 A  
HETATM   20  C   UNL     1     -12.011  14.655  69.104  1.00  0.00    -0.329 A  
HETATM   21  C   UNL     1     -11.070  13.632  68.981  1.00  0.00    -0.295 A  
HETATM   22  C   UNL     1     -11.732  15.924  68.597  1.00  0.00    -0.328 A  
HETATM   23  C   UNL     1      -9.580  15.143  67.819  1.00  0.00    -0.203 A  
ENDBRANCH   6  18
TORSDOF 1
ENDMDL
MODEL       98
REMARK 921   NORMALIZED FREE ENERGY PREDICTED BY IDOCK:   -4.51 KCAL/MOL
REMARK 922        TOTAL FREE ENERGY PREDICTED BY IDOCK:   -5.19 KCAL/MOL
REMARK 923 INTER-LIGAND FREE ENERGY PREDICTED BY IDOCK:   -4.71 KCAL/MOL
REMARK 924 INTRA-LIGAND FREE ENERGY PREDICTED BY IDOCK:   -0.48 KCAL/MOL
REMARK 927      BINDING AFFINITY PREDICTED BY RF-SCORE:    0.00 PKD
ROOT
HETATM    1  O   UNL     1     -13.528   7.271  71.997  1.00  0.00    -0.518 OA 
HETATM    2  H   UNL     1     -14.434   7.544  71.918  1.00  0.00     0.000 HD 
HETATM    3  C   UNL     1     -12.687   8.113  71.239  1.00  0.00    -0.206 C  
HETATM    4  N   UNL     1     -11.298   7.694  71.361  1.00  0.00    -0.253 NA 
HETATM    5  H   UNL     1     -11.017   7.047  72.097  1.00  0.00     0.000 HD 
HETATM    6  C   UNL     1     -10.427   8.153  70.526  1.00  0.00    -0.214 C  
HETATM    7  C   UNL     1     -10.155   8.845  68.154  1.00  0.00    -0.227 A  
HETATM    8  C   UNL     1     -10.743   9.093  69.406  1.00  0.00    -0.210 A  
HETATM    9 CL   UNL     1      -9.555   9.469  65.602  1.00  0.00    -0.330 Cl 
HETATM   10  C   UNL     1     -11.532  10.241  69.594  1.00  0.00    -0.235 A  
HETATM   11  C   UNL     1     -11.642  11.174  68.553  1.00  0.00    -0.385 A  
HETATM   12  O   UNL     1     -13.339  10.024  72.672  1.00  0.00    -0.144 OA 
HETATM   13  N   UNL     1     -12.238  10.531  70.775  1.00  0.00    -0.336 N  
HETATM   14  C   UNL     1     -11.036  10.932  67.318  1.00  0.00    -0.355 A  
HETATM   15  C   UNL     1     -10.304   9.765  67.121  1.00  0.00    -0.248 A  
HETATM   16  C   UNL     1     -12.766   9.614  71.660  1.00  0.00    -0.407 C  
HETATM   17  H   UNL     1     -12.373  11.516  71.000  1.00  0.00     0.000 HD 
ENDROOT
BRANCH   6  18
HETATM   18  C   UNL     1      -9.007   7.698  70.710  1.00  0.00    -0.149 A  
HETATM   19  C   UNL     1      -7.297   5.980  70.648  1.00  0.00    -0.085 A  
HETATM   20  C   UNL     1      -6.719   8.228  71.316  1.00  0.00    -0.050 A  
HETATM   21  C   UNL     1      -8.043   8.625  71.128  1.00  0.00    -0.176 A  
HETATM   22  C   UNL     1      -6.349   6.904  71.084  1.00  0.00    -0.041 A  
HETATM   23  C   UNL     1      -8.620   6.376  70.449  1.00  0.00    -0.142 A  
ENDBRANCH   6  18
TORSDOF 1
ENDMDL
MODEL       99
REMARK 921   NORMALIZED FREE ENERGY PREDICTED BY IDOCK:   -4.49 KCAL/MOL
REMARK 922        TOTAL FREE ENERGY PREDICTED BY IDOCK:   -5.17 KCAL/MOL
REMARK 923 INTER-LIGAND FREE ENERGY PREDICTED BY IDOCK:   -5.11 KCAL/MOL
REMARK 924 INTRA-LIGAND FREE ENERGY PREDICTED BY IDOCK:   -0.06 KCAL/MOL
REMARK 927      BINDING AFFINITY PREDICTED BY RF-SCORE:    0.00 PKD
ROOT
HETATM    1  O   UNL     1     -11.383  10.960  70.690  1.00  0.00    -0.428 OA 
HETATM    2  H   UNL     1     -11.100  10.554  71.501  1.00  0.00     0.000 HD 
HETATM    3  C   UNL     1     -10.618  10.486  69.604  1.00  0.00    -0.242 C  
HETATM    4  N   UNL     1     -11.052  11.109  68.361  1.00  0.00    -0.225 NA 
HETATM    5  H   UNL     1     -11.942  11.605  68.316  1.00  0.00     0.000 HD 
HETATM    6  C   UNL     1     -10.296  11.025  67.318  1.00  0.00    -0.211 C  
HETATM    7  C   UNL     1      -7.911  10.971  66.620  1.00  0.00    -0.156 A  
HETATM    8  C   UNL     1      -8.970  10.334  67.289  1.00  0.00    -0.140 A  
HETATM    9 CL   UNL     1      -5.421  11.085  65.597  1.00  0.00    -0.128 Cl 
HETATM   10  C   UNL     1      -8.784   9.051  67.832  1.00  0.00    -0.129 A  
HETATM   11  C   UNL     1      -7.570   8.385  67.612  1.00  0.00    -0.098 A  
HETATM   12  O   UNL     1     -11.497   8.206  70.001  1.00  0.00    -0.098 OA 
HETATM   13  N   UNL     1      -9.746   8.368  68.597  1.00  0.00    -0.160 N  
HETATM   14  C   UNL     1      -6.528   9.016  66.927  1.00  0.00    -0.064 A  
HETATM   15  C   UNL     1      -6.701  10.310  66.443  1.00  0.00    -0.100 A  
HETATM   16  C   UNL     1     -10.701   8.940  69.411  1.00  0.00    -0.181 C  
HETATM   17  H   UNL     1      -9.738   7.350  68.544  1.00  0.00     0.000 HD 
ENDROOT
BRANCH   6  18
HETATM   18  C   UNL     1     -10.803  11.673  66.061  1.00  0.00    -0.339 A  
HETATM   19  C   UNL     1     -12.165  13.320  64.914  1.00  0.00    -0.466 A  
HETATM   20  C   UNL     1     -10.810  11.781  63.637  1.00  0.00    -0.508 A  
HETATM   21  C   UNL     1     -10.348  11.204  64.821  1.00  0.00    -0.387 A  
HETATM   22  C   UNL     1     -11.724  12.833  63.685  1.00  0.00    -0.587 A  
HETATM   23  C   UNL     1     -11.698  12.752  66.101  1.00  0.00    -0.458 A  
ENDBRANCH   6  18
TORSDOF 1
ENDMDL
MODEL      100
REMARK 921   NORMALIZED FREE ENERGY PREDICTED BY IDOCK:   -4.49 KCAL/MOL
REMARK 922        TOTAL FREE ENERGY PREDICTED BY IDOCK:   -5.16 KCAL/MOL
REMARK 923 INTER-LIGAND FREE ENERGY PREDICTED BY IDOCK:   -4.87 KCAL/MOL
REMARK 924 INTRA-LIGAND FREE ENERGY PREDICTED BY IDOCK:   -0.29 KCAL/MOL
REMARK 927      BINDING AFFINITY PREDICTED BY RF-SCORE:    0.00 PKD
ROOT
HETATM    1  O   UNL     1     -12.657  14.187  66.844  1.00  0.00    -0.553 OA 
HETATM    2  H   UNL     1     -13.083  13.338  66.845  1.00  0.00     0.000 HD 
HETATM    3  C   UNL     1     -11.262  14.043  66.999  1.00  0.00    -0.313 C  
HETATM    4  N   UNL     1     -10.609  15.345  66.997  1.00  0.00    -0.303 NA 
HETATM    5  H   UNL     1     -11.109  16.173  66.673  1.00  0.00     0.000 HD 
HETATM    6  C   UNL     1      -9.390  15.437  67.411  1.00  0.00    -0.201 C  
HETATM    7  C   UNL     1      -7.802  14.489  69.071  1.00  0.00    -0.106 A  
HETATM    8  C   UNL     1      -8.580  14.287  67.919  1.00  0.00    -0.171 A  
HETATM    9 CL   UNL     1      -5.954  13.765  70.895  1.00  0.00    -0.175 Cl 
HETATM   10  C   UNL     1      -8.516  13.060  67.236  1.00  0.00    -0.199 A  
HETATM   11  C   UNL     1      -7.600  12.087  67.663  1.00  0.00    -0.136 A  
HETATM   12  O   UNL     1     -11.168  12.816  64.851  1.00  0.00    -0.284 OA 
HETATM   13  N   UNL     1      -9.320  12.725  66.132  1.00  0.00    -0.428 N  
HETATM   14  C   UNL     1      -6.814  12.302  68.797  1.00  0.00    -0.092 A  
HETATM   15  C   UNL     1      -6.925  13.498  69.501  1.00  0.00     0.116 A  
HETATM   16  C   UNL     1     -10.597  13.180  65.882  1.00  0.00    -0.280 C  
HETATM   17  H   UNL     1      -8.919  12.083  65.449  1.00  0.00     0.000 HD 
ENDROOT
BRANCH   6  18
HETATM   18  C   UNL     1      -8.763  16.802  67.372  1.00  0.00    -0.202 A  
HETATM   19  C   UNL     1      -7.549  18.556  66.217  1.00  0.00    -0.286 A  
HETATM   20  C   UNL     1      -8.250  18.885  68.506  1.00  0.00    -0.388 A  
HETATM   21  C   UNL     1      -8.831  17.616  68.511  1.00  0.00    -0.285 A  
HETATM   22  C   UNL     1      -7.602  19.350  67.362  1.00  0.00    -0.269 A  
HETATM   23  C   UNL     1      -8.138  17.290  66.215  1.00  0.00    -0.315 A  
ENDBRANCH   6  18
TORSDOF 1
ENDMDL
MODEL      101
REMARK 921   NORMALIZED FREE ENERGY PREDICTED BY IDOCK:   -4.47 KCAL/MOL
REMARK 922        TOTAL FREE ENERGY PREDICTED BY IDOCK:   -5.15 KCAL/MOL
REMARK 923 INTER-LIGAND FREE ENERGY PREDICTED BY IDOCK:   -4.68 KCAL/MOL
REMARK 924 INTRA-LIGAND FREE ENERGY PREDICTED BY IDOCK:   -0.46 KCAL/MOL
REMARK 927      BINDING AFFINITY PREDICTED BY RF-SCORE:    0.00 PKD
ROOT
HETATM    1  O   UNL     1     -13.931   6.535  71.960  1.00  0.00    -0.401 OA 
HETATM    2  H   UNL     1     -14.727   7.047  72.039  1.00  0.00     0.000 HD 
HETATM    3  C   UNL     1     -12.913   7.293  71.344  1.00  0.00    -0.373 C  
HETATM    4  N   UNL     1     -11.692   6.509  71.222  1.00  0.00    -0.324 NA 
HETATM    5  H   UNL     1     -11.579   5.644  71.751  1.00  0.00     0.000 HD 
HETATM    6  C   UNL     1     -10.755   6.922  70.436  1.00  0.00    -0.246 C  
HETATM    7  C   UNL     1     -10.375   8.102  68.282  1.00  0.00    -0.241 A  
HETATM    8  C   UNL     1     -10.831   8.165  69.610  1.00  0.00    -0.162 A  
HETATM    9 CL   UNL     1      -9.705   9.179  65.904  1.00  0.00    -0.350 Cl 
HETATM   10  C   UNL     1     -11.263   9.392  70.144  1.00  0.00    -0.219 A  
HETATM   11  C   UNL     1     -11.141  10.556  69.371  1.00  0.00    -0.310 A  
HETATM   12  O   UNL     1     -12.962   8.875  73.248  1.00  0.00     0.019 OA 
HETATM   13  N   UNL     1     -11.823   9.544  71.425  1.00  0.00    -0.361 N  
HETATM   14  C   UNL     1     -10.665  10.489  68.059  1.00  0.00    -0.287 A  
HETATM   15  C   UNL     1     -10.294   9.261  67.518  1.00  0.00    -0.262 A  
HETATM   16  C   UNL     1     -12.558   8.603  72.114  1.00  0.00    -0.391 C  
HETATM   17  H   UNL     1     -11.671  10.438  71.890  1.00  0.00     0.000 HD 
ENDROOT
BRANCH   6  18
HETATM   18  C   UNL     1      -9.513   6.079  70.364  1.00  0.00    -0.187 A  
HETATM   19  C   UNL     1      -7.122   5.781  70.643  1.00  0.00    -0.073 A  
HETATM   20  C   UNL     1      -8.477   3.947  69.847  1.00  0.00    -0.091 A  
HETATM   21  C   UNL     1      -9.616   4.749  69.933  1.00  0.00    -0.251 A  
HETATM   22  C   UNL     1      -7.231   4.466  70.194  1.00  0.00    -0.046 A  
HETATM   23  C   UNL     1      -8.260   6.584  70.741  1.00  0.00    -0.125 A  
ENDBRANCH   6  18
TORSDOF 1
ENDMDL
MODEL      102
REMARK 921   NORMALIZED FREE ENERGY PREDICTED BY IDOCK:   -4.43 KCAL/MOL
REMARK 922        TOTAL FREE ENERGY PREDICTED BY IDOCK:   -5.10 KCAL/MOL
REMARK 923 INTER-LIGAND FREE ENERGY PREDICTED BY IDOCK:   -5.36 KCAL/MOL
REMARK 924 INTRA-LIGAND FREE ENERGY PREDICTED BY IDOCK:    0.27 KCAL/MOL
REMARK 927      BINDING AFFINITY PREDICTED BY RF-SCORE:    0.00 PKD
ROOT
HETATM    1  O   UNL     1     -11.368   5.919  66.234  1.00  0.00    -0.717 OA 
HETATM    2  H   UNL     1     -11.100   5.016  66.113  1.00  0.00     0.000 HD 
HETATM    3  C   UNL     1     -10.539   6.561  67.178  1.00  0.00    -0.328 C  
HETATM    4  N   UNL     1     -10.950   7.945  67.363  1.00  0.00    -0.517 NA 
HETATM    5  H   UNL     1     -11.580   8.391  66.696  1.00  0.00     0.000 HD 
HETATM    6  C   UNL     1     -10.506   8.602  68.383  1.00  0.00    -0.176 C  
HETATM    7  C   UNL     1      -9.866   8.328  70.768  1.00  0.00    -0.205 A  
HETATM    8  C   UNL     1      -9.593   8.034  69.422  1.00  0.00    -0.160 A  
HETATM    9 CL   UNL     1      -9.296   8.333  73.403  1.00  0.00    -0.266 Cl 
HETATM   10  C   UNL     1      -8.444   7.297  69.084  1.00  0.00    -0.133 A  
HETATM   11  C   UNL     1      -7.535   6.949  70.093  1.00  0.00    -0.090 A  
HETATM   12  O   UNL     1      -8.600   6.231  65.675  1.00  0.00    -0.149 OA 
HETATM   13  N   UNL     1      -8.131   6.872  67.781  1.00  0.00    -0.113 N  
HETATM   14  C   UNL     1      -7.801   7.263  71.428  1.00  0.00    -0.096 A  
HETATM   15  C   UNL     1      -8.970   7.942  71.760  1.00  0.00    -0.132 A  
HETATM   16  C   UNL     1      -9.030   6.565  66.782  1.00  0.00    -0.131 C  
HETATM   17  H   UNL     1      -7.142   6.783  67.552  1.00  0.00     0.000 HD 
ENDROOT
BRANCH   6  18
HETATM   18  C   UNL     1     -10.952  10.031  68.513  1.00  0.00    -0.255 A  
HETATM   19  C   UNL     1     -11.349  12.232  67.575  1.00  0.00    -0.388 A  
HETATM   20  C   UNL     1     -11.819  11.817  69.908  1.00  0.00    -0.423 A  
HETATM   21  C   UNL     1     -11.408  10.492  69.756  1.00  0.00    -0.367 A  
HETATM   22  C   UNL     1     -11.781  12.688  68.820  1.00  0.00    -0.364 A  
HETATM   23  C   UNL     1     -10.946  10.905  67.417  1.00  0.00    -0.353 A  
ENDBRANCH   6  18
TORSDOF 1
ENDMDL
MODEL      103
REMARK 921   NORMALIZED FREE ENERGY PREDICTED BY IDOCK:   -4.41 KCAL/MOL
REMARK 922        TOTAL FREE ENERGY PREDICTED BY IDOCK:   -5.08 KCAL/MOL
REMARK 923 INTER-LIGAND FREE ENERGY PREDICTED BY IDOCK:   -4.66 KCAL/MOL
REMARK 924 INTRA-LIGAND FREE ENERGY PREDICTED BY IDOCK:   -0.41 KCAL/MOL
REMARK 927      BINDING AFFINITY PREDICTED BY RF-SCORE:    0.00 PKD
ROOT
HETATM    1  O   UNL     1     -12.131  10.965  67.857  1.00  0.00    -0.736 OA 
HETATM    2  H   UNL     1     -12.040  11.429  67.033  1.00  0.00     0.000 HD 
HETATM    3  C   UNL     1     -10.988  10.180  68.115  1.00  0.00    -0.259 C  
HETATM    4  N   UNL     1     -11.129   9.469  69.378  1.00  0.00    -0.402 NA 
HETATM    5  H   UNL     1     -11.852   9.739  70.045  1.00  0.00     0.000 HD 
HETATM    6  C   UNL     1     -10.327   8.492  69.642  1.00  0.00    -0.218 C  
HETATM    7  C   UNL     1      -9.085   6.625  68.570  1.00  0.00    -0.128 A  
HETATM    8  C   UNL     1      -9.248   8.012  68.725  1.00  0.00    -0.143 A  
HETATM    9 CL   UNL     1      -7.800   4.428  67.683  1.00  0.00    -0.084 Cl 
HETATM   10  C   UNL     1      -8.357   8.897  68.091  1.00  0.00    -0.125 A  
HETATM   11  C   UNL     1      -7.259   8.377  67.391  1.00  0.00    -0.088 A  
HETATM   12  O   UNL     1      -9.618  12.240  68.215  1.00  0.00    -0.211 OA 
HETATM   13  N   UNL     1      -8.488  10.296  68.107  1.00  0.00    -0.121 N  
HETATM   14  C   UNL     1      -7.091   6.996  67.260  1.00  0.00    -0.084 A  
HETATM   15  C   UNL     1      -8.010   6.127  67.841  1.00  0.00    -0.110 A  
HETATM   16  C   UNL     1      -9.667  11.008  68.184  1.00  0.00    -0.174 C  
HETATM   17  H   UNL     1      -7.627  10.839  68.055  1.00  0.00     0.000 HD 
ENDROOT
BRANCH   6  18
HETATM   18  C   UNL     1     -10.510   7.806  70.966  1.00  0.00    -0.216 A  
HETATM   19  C   UNL     1      -9.896   7.454  73.286  1.00  0.00    -0.322 A  
HETATM   20  C   UNL     1     -11.707   6.184  72.316  1.00  0.00    -0.352 A  
HETATM   21  C   UNL     1     -11.520   6.844  71.101  1.00  0.00    -0.347 A  
HETATM   22  C   UNL     1     -10.889   6.484  73.405  1.00  0.00    -0.249 A  
HETATM   23  C   UNL     1      -9.713   8.124  72.075  1.00  0.00    -0.292 A  
ENDBRANCH   6  18
TORSDOF 1
ENDMDL
MODEL      104
REMARK 921   NORMALIZED FREE ENERGY PREDICTED BY IDOCK:   -4.40 KCAL/MOL
REMARK 922        TOTAL FREE ENERGY PREDICTED BY IDOCK:   -5.06 KCAL/MOL
REMARK 923 INTER-LIGAND FREE ENERGY PREDICTED BY IDOCK:   -4.60 KCAL/MOL
REMARK 924 INTRA-LIGAND FREE ENERGY PREDICTED BY IDOCK:   -0.47 KCAL/MOL
REMARK 927      BINDING AFFINITY PREDICTED BY RF-SCORE:    0.00 PKD
ROOT
HETATM    1  O   UNL     1      -6.733  14.473  67.278  1.00  0.00    -0.325 OA 
HETATM    2  H   UNL     1      -6.865  15.340  67.643  1.00  0.00     0.000 HD 
HETATM    3  C   UNL     1      -7.884  13.677  67.457  1.00  0.00    -0.177 C  
HETATM    4  N   UNL     1      -7.680  12.349  66.898  1.00  0.00    -0.373 NA 
HETATM    5  H   UNL     1      -6.902  12.169  66.263  1.00  0.00     0.000 HD 
HETATM    6  C   UNL     1      -8.498  11.401  67.216  1.00  0.00    -0.148 C  
HETATM    7  C   UNL     1      -9.882  10.549  69.096  1.00  0.00    -0.233 A  
HETATM    8  C   UNL     1      -9.656  11.560  68.147  1.00  0.00    -0.187 A  
HETATM    9 CL   UNL     1     -11.308   9.322  71.026  1.00  0.00    -0.359 Cl 
HETATM   10  C   UNL     1     -10.556  12.636  68.043  1.00  0.00    -0.221 A  
HETATM   11  C   UNL     1     -11.720  12.633  68.826  1.00  0.00    -0.364 A  
HETATM   12  O   UNL     1      -9.164  15.238  66.023  1.00  0.00    -0.313 OA 
HETATM   13  N   UNL     1     -10.371  13.742  67.195  1.00  0.00    -0.260 N  
HETATM   14  C   UNL     1     -11.948  11.612  69.752  1.00  0.00    -0.402 A  
HETATM   15  C   UNL     1     -11.024  10.580  69.889  1.00  0.00    -0.298 A  
HETATM   16  C   UNL     1      -9.165  14.277  66.797  1.00  0.00    -0.264 C  
HETATM   17  H   UNL     1     -11.213  14.194  66.839  1.00  0.00     0.000 HD 
ENDROOT
BRANCH   6  18
HETATM   18  C   UNL     1      -8.247  10.055  66.596  1.00  0.00    -0.122 A  
HETATM   19  C   UNL     1      -6.991   7.987  66.432  1.00  0.00    -0.070 A  
HETATM   20  C   UNL     1      -8.872   8.371  64.966  1.00  0.00    -0.028 A  
HETATM   21  C   UNL     1      -9.087   9.612  65.566  1.00  0.00    -0.252 A  
HETATM   22  C   UNL     1      -7.819   7.563  65.394  1.00  0.00    -0.117 A  
HETATM   23  C   UNL     1      -7.210   9.223  67.042  1.00  0.00    -0.087 A  
ENDBRANCH   6  18
TORSDOF 1
ENDMDL
MODEL      105
REMARK 921   NORMALIZED FREE ENERGY PREDICTED BY IDOCK:   -4.39 KCAL/MOL
REMARK 922        TOTAL FREE ENERGY PREDICTED BY IDOCK:   -5.06 KCAL/MOL
REMARK 923 INTER-LIGAND FREE ENERGY PREDICTED BY IDOCK:   -4.62 KCAL/MOL
REMARK 924 INTRA-LIGAND FREE ENERGY PREDICTED BY IDOCK:   -0.44 KCAL/MOL
REMARK 927      BINDING AFFINITY PREDICTED BY RF-SCORE:    0.00 PKD
ROOT
HETATM    1  O   UNL     1      -6.594   7.016  72.007  1.00  0.00    -0.055 OA 
HETATM    2  H   UNL     1      -6.352   7.450  72.816  1.00  0.00     0.000 HD 
HETATM    3  C   UNL     1      -7.849   7.473  71.553  1.00  0.00    -0.086 C  
HETATM    4  N   UNL     1      -8.219   6.807  70.312  1.00  0.00    -0.124 NA 
HETATM    5  H   UNL     1      -7.521   6.293  69.774  1.00  0.00     0.000 HD 
HETATM    6  C   UNL     1      -9.441   6.875  69.902  1.00  0.00    -0.156 C  
HETATM    7  C   UNL     1     -11.786   6.953  70.721  1.00  0.00    -0.427 A  
HETATM    8  C   UNL     1     -10.537   7.589  70.626  1.00  0.00    -0.231 A  
HETATM    9 CL   UNL     1     -14.407   6.858  71.343  1.00  0.00    -0.350 Cl 
HETATM   10  C   UNL     1     -10.374   8.892  71.131  1.00  0.00    -0.268 A  
HETATM   11  C   UNL     1     -11.490   9.574  71.637  1.00  0.00    -0.433 A  
HETATM   12  O   UNL     1      -6.906   9.746  71.286  1.00  0.00    -0.326 OA 
HETATM   13  N   UNL     1      -9.147   9.577  71.170  1.00  0.00    -0.126 N  
HETATM   14  C   UNL     1     -12.735   8.942  71.708  1.00  0.00    -0.421 A  
HETATM   15  C   UNL     1     -12.875   7.633  71.259  1.00  0.00    -0.260 A  
HETATM   16  C   UNL     1      -7.896   9.011  71.295  1.00  0.00    -0.085 C  
HETATM   17  H   UNL     1      -9.186  10.593  71.097  1.00  0.00     0.000 HD 
ENDROOT
BRANCH   6  18
HETATM   18  C   UNL     1      -9.760   6.182  68.608  1.00  0.00    -0.145 A  
HETATM   19  C   UNL     1     -10.636   6.190  66.346  1.00  0.00    -0.107 A  
HETATM   20  C   UNL     1      -9.744   4.150  67.282  1.00  0.00    -0.214 A  
HETATM   21  C   UNL     1      -9.451   4.822  68.469  1.00  0.00    -0.200 A  
HETATM   22  C   UNL     1     -10.344   4.833  66.224  1.00  0.00    -0.329 A  
HETATM   23  C   UNL     1     -10.334   6.868  67.529  1.00  0.00    -0.277 A  
ENDBRANCH   6  18
TORSDOF 1
ENDMDL
MODEL      106
REMARK 921   NORMALIZED FREE ENERGY PREDICTED BY IDOCK:   -4.35 KCAL/MOL
REMARK 922        TOTAL FREE ENERGY PREDICTED BY IDOCK:   -5.01 KCAL/MOL
REMARK 923 INTER-LIGAND FREE ENERGY PREDICTED BY IDOCK:   -4.75 KCAL/MOL
REMARK 924 INTRA-LIGAND FREE ENERGY PREDICTED BY IDOCK:   -0.27 KCAL/MOL
REMARK 927      BINDING AFFINITY PREDICTED BY RF-SCORE:    0.00 PKD
ROOT
HETATM    1  O   UNL     1     -13.489  10.383  70.454  1.00  0.00    -0.363 OA 
HETATM    2  H   UNL     1     -13.914  10.813  69.722  1.00  0.00     0.000 HD 
HETATM    3  C   UNL     1     -12.125  10.155  70.174  1.00  0.00    -0.149 C  
HETATM    4  N   UNL     1     -11.474   9.496  71.297  1.00  0.00    -0.348 NA 
HETATM    5  H   UNL     1     -11.927   9.463  72.210  1.00  0.00     0.000 HD 
HETATM    6  C   UNL     1     -10.316   8.952  71.122  1.00  0.00    -0.268 C  
HETATM    7  C   UNL     1      -8.952   7.736  69.438  1.00  0.00    -0.142 A  
HETATM    8  C   UNL     1      -9.579   8.933  69.821  1.00  0.00    -0.175 A  
HETATM    9 CL   UNL     1      -7.350   6.244  67.865  1.00  0.00    -0.086 Cl 
HETATM   10  C   UNL     1      -9.432  10.085  69.029  1.00  0.00    -0.187 A  
HETATM   11  C   UNL     1      -8.580  10.046  67.916  1.00  0.00    -0.121 A  
HETATM   12  O   UNL     1     -11.764  12.601  70.038  1.00  0.00    -0.293 OA 
HETATM   13  N   UNL     1     -10.092  11.303  69.273  1.00  0.00    -0.426 N  
HETATM   14  C   UNL     1      -7.942   8.857  67.553  1.00  0.00    -0.101 A  
HETATM   15  C   UNL     1      -8.139   7.706  68.310  1.00  0.00    -0.124 A  
HETATM   16  C   UNL     1     -11.326  11.461  69.866  1.00  0.00    -0.219 C  
HETATM   17  H   UNL     1      -9.609  12.153  68.984  1.00  0.00     0.000 HD 
ENDROOT
BRANCH   6  18
HETATM   18  C   UNL     1      -9.687   8.299  72.320  1.00  0.00    -0.362 A  
HETATM   19  C   UNL     1      -9.828   6.944  74.327  1.00  0.00    -0.312 A  
HETATM   20  C   UNL     1      -7.701   7.864  73.644  1.00  0.00    -0.207 A  
HETATM   21  C   UNL     1      -8.310   8.451  72.534  1.00  0.00    -0.213 A  
HETATM   22  C   UNL     1      -8.462   7.118  74.544  1.00  0.00    -0.224 A  
HETATM   23  C   UNL     1     -10.439   7.522  73.212  1.00  0.00    -0.426 A  
ENDBRANCH   6  18
TORSDOF 1
ENDMDL
MODEL      107
REMARK 921   NORMALIZED FREE ENERGY PREDICTED BY IDOCK:   -4.32 KCAL/MOL
REMARK 922        TOTAL FREE ENERGY PREDICTED BY IDOCK:   -4.98 KCAL/MOL
REMARK 923 INTER-LIGAND FREE ENERGY PREDICTED BY IDOCK:   -4.69 KCAL/MOL
REMARK 924 INTRA-LIGAND FREE ENERGY PREDICTED BY IDOCK:   -0.28 KCAL/MOL
REMARK 927      BINDING AFFINITY PREDICTED BY RF-SCORE:    0.00 PKD
ROOT
HETATM    1  O   UNL     1      -5.503  10.051  64.922  1.00  0.00    -0.065 OA 
HETATM    2  H   UNL     1      -5.101  10.338  64.111  1.00  0.00     0.000 HD 
HETATM    3  C   UNL     1      -6.906  10.176  64.853  1.00  0.00    -0.129 C  
HETATM    4  N   UNL     1      -7.522   9.736  66.096  1.00  0.00    -0.099 NA 
HETATM    5  H   UNL     1      -6.987   9.193  66.774  1.00  0.00     0.000 HD 
HETATM    6  C   UNL     1      -8.754  10.041  66.330  1.00  0.00    -0.129 C  
HETATM    7  C   UNL     1     -10.435  11.837  65.972  1.00  0.00    -0.286 A  
HETATM    8  C   UNL     1      -9.616  10.844  65.409  1.00  0.00    -0.271 A  
HETATM    9 CL   UNL     1     -12.376  13.705  65.882  1.00  0.00    -0.500 Cl 
HETATM   10  C   UNL     1      -9.686  10.577  64.030  1.00  0.00    -0.323 A  
HETATM   11  C   UNL     1     -10.645  11.242  63.252  1.00  0.00    -0.326 A  
HETATM   12  O   UNL     1      -6.946   8.518  63.015  1.00  0.00    -0.090 OA 
HETATM   13  N   UNL     1      -8.847   9.673  63.355  1.00  0.00    -0.230 N  
HETATM   14  C   UNL     1     -11.471  12.214  63.824  1.00  0.00    -0.548 A  
HETATM   15  C   UNL     1     -11.356  12.512  65.178  1.00  0.00    -0.313 A  
HETATM   16  C   UNL     1      -7.548   9.354  63.691  1.00  0.00    -0.116 C  
HETATM   17  H   UNL     1      -9.237   9.207  62.537  1.00  0.00     0.000 HD 
ENDROOT
BRANCH   6  18
HETATM   18  C   UNL     1      -9.340   9.547  67.623  1.00  0.00    -0.141 A  
HETATM   19  C   UNL     1      -9.912   9.858  69.959  1.00  0.00    -0.302 A  
HETATM   20  C   UNL     1     -10.428   7.768  68.864  1.00  0.00    -0.208 A  
HETATM   21  C   UNL     1      -9.885   8.257  67.674  1.00  0.00    -0.218 A  
HETATM   22  C   UNL     1     -10.433   8.566  70.007  1.00  0.00    -0.226 A  
HETATM   23  C   UNL     1      -9.378  10.354  68.768  1.00  0.00    -0.175 A  
ENDBRANCH   6  18
TORSDOF 1
ENDMDL
MODEL      108
REMARK 921   NORMALIZED FREE ENERGY PREDICTED BY IDOCK:   -4.25 KCAL/MOL
REMARK 922        TOTAL FREE ENERGY PREDICTED BY IDOCK:   -4.91 KCAL/MOL
REMARK 923 INTER-LIGAND FREE ENERGY PREDICTED BY IDOCK:   -4.43 KCAL/MOL
REMARK 924 INTRA-LIGAND FREE ENERGY PREDICTED BY IDOCK:   -0.48 KCAL/MOL
REMARK 927      BINDING AFFINITY PREDICTED BY RF-SCORE:    0.00 PKD
ROOT
HETATM    1  O   UNL     1      -5.934  10.405  70.045  1.00  0.00    -0.054 OA 
HETATM    2  H   UNL     1      -5.677  11.269  69.743  1.00  0.00     0.000 HD 
HETATM    3  C   UNL     1      -7.316  10.201  69.852  1.00  0.00    -0.165 C  
HETATM    4  N   UNL     1      -7.709   8.879  70.316  1.00  0.00    -0.079 NA 
HETATM    5  H   UNL     1      -7.003   8.166  70.503  1.00  0.00     0.000 HD 
HETATM    6  C   UNL     1      -8.962   8.619  70.488  1.00  0.00    -0.164 C  
HETATM    7  C   UNL     1     -11.103   9.658  71.204  1.00  0.00    -0.444 A  
HETATM    8  C   UNL     1     -10.068   9.598  70.256  1.00  0.00    -0.331 A  
HETATM    9 CL   UNL     1     -13.498  10.492  72.117  1.00  0.00    -0.401 Cl 
HETATM   10  C   UNL     1     -10.137  10.386  69.093  1.00  0.00    -0.222 A  
HETATM   11  C   UNL     1     -11.288  11.149  68.852  1.00  0.00    -0.344 A  
HETATM   12  O   UNL     1      -6.985  10.403  67.406  1.00  0.00    -0.082 OA 
HETATM   13  N   UNL     1      -9.114  10.469  68.132  1.00  0.00    -0.138 N  
HETATM   14  C   UNL     1     -12.324  11.187  69.789  1.00  0.00    -0.315 A  
HETATM   15  C   UNL     1     -12.222  10.449  70.965  1.00  0.00    -0.393 A  
HETATM   16  C   UNL     1      -7.762  10.331  68.361  1.00  0.00    -0.093 C  
HETATM   17  H   UNL     1      -9.401  10.650  67.171  1.00  0.00     0.000 HD 
ENDROOT
BRANCH   6  18
HETATM   18  C   UNL     1      -9.308   7.233  70.953  1.00  0.00    -0.159 A  
HETATM   19  C   UNL     1     -10.286   5.044  70.584  1.00  0.00    -0.306 A  
HETATM   20  C   UNL     1      -9.261   5.560  72.710  1.00  0.00    -0.137 A  
HETATM   21  C   UNL     1      -8.944   6.838  72.248  1.00  0.00    -0.136 A  
HETATM   22  C   UNL     1      -9.939   4.667  71.880  1.00  0.00    -0.254 A  
HETATM   23  C   UNL     1      -9.962   6.318  70.115  1.00  0.00    -0.209 A  
ENDBRANCH   6  18
TORSDOF 1
ENDMDL
MODEL      109
REMARK 921   NORMALIZED FREE ENERGY PREDICTED BY IDOCK:   -4.23 KCAL/MOL
REMARK 922        TOTAL FREE ENERGY PREDICTED BY IDOCK:   -4.89 KCAL/MOL
REMARK 923 INTER-LIGAND FREE ENERGY PREDICTED BY IDOCK:   -4.47 KCAL/MOL
REMARK 924 INTRA-LIGAND FREE ENERGY PREDICTED BY IDOCK:   -0.42 KCAL/MOL
REMARK 927      BINDING AFFINITY PREDICTED BY RF-SCORE:    0.00 PKD
ROOT
HETATM    1  O   UNL     1      -7.062  10.932  67.290  1.00  0.00    -0.088 OA 
HETATM    2  H   UNL     1      -7.307  10.031  67.117  1.00  0.00     0.000 HD 
HETATM    3  C   UNL     1      -8.194  11.772  67.244  1.00  0.00    -0.163 C  
HETATM    4  N   UNL     1      -7.818  13.154  67.507  1.00  0.00    -0.163 NA 
HETATM    5  H   UNL     1      -6.906  13.373  67.908  1.00  0.00     0.000 HD 
HETATM    6  C   UNL     1      -8.653  14.097  67.227  1.00  0.00    -0.218 C  
HETATM    7  C   UNL     1     -10.412  14.743  65.594  1.00  0.00    -0.365 A  
HETATM    8  C   UNL     1     -10.004  13.879  66.624  1.00  0.00    -0.279 A  
HETATM    9 CL   UNL     1     -12.210  15.752  63.859  1.00  0.00     0.100 Cl 
HETATM   10  C   UNL     1     -10.890  12.902  67.112  1.00  0.00    -0.256 A  
HETATM   11  C   UNL     1     -12.205  12.869  66.626  1.00  0.00    -0.229 A  
HETATM   12  O   UNL     1      -9.153  10.556  69.175  1.00  0.00    -0.178 OA 
HETATM   13  N   UNL     1     -10.549  11.933  68.072  1.00  0.00    -0.200 N  
HETATM   14  C   UNL     1     -12.611  13.745  65.616  1.00  0.00    -0.551 A  
HETATM   15  C   UNL     1     -11.710  14.671  65.099  1.00  0.00    -0.364 A  
HETATM   16  C   UNL     1      -9.302  11.381  68.270  1.00  0.00    -0.187 C  
HETATM   17  H   UNL     1     -11.299  11.607  68.681  1.00  0.00     0.000 HD 
ENDROOT
BRANCH   6  18
HETATM   18  C   UNL     1      -8.216  15.502  67.535  1.00  0.00    -0.182 A  
HETATM   19  C   UNL     1      -6.652  17.342  67.314  1.00  0.00    -0.181 A  
HETATM   20  C   UNL     1      -8.632  17.604  68.673  1.00  0.00    -0.264 A  
HETATM   21  C   UNL     1      -9.018  16.299  68.362  1.00  0.00    -0.203 A  
HETATM   22  C   UNL     1      -7.445  18.121  68.155  1.00  0.00    -0.262 A  
HETATM   23  C   UNL     1      -7.040  16.040  66.994  1.00  0.00    -0.233 A  
ENDBRANCH   6  18
TORSDOF 1
ENDMDL
MODEL      110
REMARK 921   NORMALIZED FREE ENERGY PREDICTED BY IDOCK:   -4.15 KCAL/MOL
REMARK 922        TOTAL FREE ENERGY PREDICTED BY IDOCK:   -4.80 KCAL/MOL
REMARK 923 INTER-LIGAND FREE ENERGY PREDICTED BY IDOCK:   -4.86 KCAL/MOL
REMARK 924 INTRA-LIGAND FREE ENERGY PREDICTED BY IDOCK:    0.06 KCAL/MOL
REMARK 927      BINDING AFFINITY PREDICTED BY RF-SCORE:    0.00 PKD
ROOT
HETATM    1  O   UNL     1      -7.435   3.790  72.952  1.00  0.00    -0.061 OA 
HETATM    2  H   UNL     1      -7.217   3.906  73.869  1.00  0.00     0.000 HD 
HETATM    3  C   UNL     1      -8.254   4.846  72.499  1.00  0.00    -0.115 C  
HETATM    4  N   UNL     1      -8.588   4.668  71.093  1.00  0.00    -0.110 NA 
HETATM    5  H   UNL     1      -8.070   4.003  70.519  1.00  0.00     0.000 HD 
HETATM    6  C   UNL     1      -9.549   5.363  70.583  1.00  0.00    -0.172 C  
HETATM    7  C   UNL     1     -11.763   6.351  71.127  1.00  0.00    -0.359 A  
HETATM    8  C   UNL     1     -10.375   6.350  71.343  1.00  0.00    -0.240 A  
HETATM    9 CL   UNL     1     -14.251   7.350  71.407  1.00  0.00    -0.543 Cl 
HETATM   10  C   UNL     1      -9.797   7.313  72.190  1.00  0.00    -0.160 A  
HETATM   11  C   UNL     1     -10.607   8.322  72.731  1.00  0.00    -0.321 A  
HETATM   12  O   UNL     1      -6.414   6.441  72.949  1.00  0.00    -0.061 OA 
HETATM   13  N   UNL     1      -8.437   7.341  72.544  1.00  0.00    -0.107 N  
HETATM   14  C   UNL     1     -11.984   8.329  72.494  1.00  0.00    -0.420 A  
HETATM   15  C   UNL     1     -12.557   7.339  71.701  1.00  0.00    -0.368 A  
HETATM   16  C   UNL     1      -7.597   6.254  72.654  1.00  0.00    -0.100 C  
HETATM   17  H   UNL     1      -8.032   8.256  72.739  1.00  0.00     0.000 HD 
ENDROOT
BRANCH   6  18
HETATM   18  C   UNL     1      -9.838   5.148  69.124  1.00  0.00    -0.257 A  
HETATM   19  C   UNL     1      -9.653   3.847  67.085  1.00  0.00    -0.226 A  
HETATM   20  C   UNL     1     -10.880   5.928  67.076  1.00  0.00    -0.379 A  
HETATM   21  C   UNL     1     -10.604   6.098  68.434  1.00  0.00    -0.324 A  
HETATM   22  C   UNL     1     -10.398   4.807  66.402  1.00  0.00    -0.312 A  
HETATM   23  C   UNL     1      -9.383   4.008  68.445  1.00  0.00    -0.218 A  
ENDBRANCH   6  18
TORSDOF 1
ENDMDL
MODEL      111
REMARK 921   NORMALIZED FREE ENERGY PREDICTED BY IDOCK:   -4.13 KCAL/MOL
REMARK 922        TOTAL FREE ENERGY PREDICTED BY IDOCK:   -4.78 KCAL/MOL
REMARK 923 INTER-LIGAND FREE ENERGY PREDICTED BY IDOCK:   -4.32 KCAL/MOL
REMARK 924 INTRA-LIGAND FREE ENERGY PREDICTED BY IDOCK:   -0.47 KCAL/MOL
REMARK 927      BINDING AFFINITY PREDICTED BY RF-SCORE:    0.00 PKD
ROOT
HETATM    1  O   UNL     1     -14.003   7.239  71.225  1.00  0.00    -0.517 OA 
HETATM    2  H   UNL     1     -14.414   7.959  70.762  1.00  0.00     0.000 HD 
HETATM    3  C   UNL     1     -12.607   7.424  71.295  1.00  0.00    -0.340 C  
HETATM    4  N   UNL     1     -11.978   6.320  72.005  1.00  0.00    -0.330 NA 
HETATM    5  H   UNL     1     -12.540   5.677  72.562  1.00  0.00     0.000 HD 
HETATM    6  C   UNL     1     -10.699   6.165  71.920  1.00  0.00    -0.232 C  
HETATM    7  C   UNL     1      -8.788   6.426  70.352  1.00  0.00    -0.151 A  
HETATM    8  C   UNL     1      -9.792   7.042  71.118  1.00  0.00    -0.180 A  
HETATM    9 CL   UNL     1      -6.590   6.438  68.793  1.00  0.00    -0.049 Cl 
HETATM   10  C   UNL     1      -9.866   8.445  71.177  1.00  0.00    -0.192 A  
HETATM   11  C   UNL     1      -8.875   9.210  70.546  1.00  0.00    -0.263 A  
HETATM   12  O   UNL     1     -12.963   9.472  72.639  1.00  0.00    -0.294 OA 
HETATM   13  N   UNL     1     -10.884   9.156  71.836  1.00  0.00    -0.347 N  
HETATM   14  C   UNL     1      -7.866   8.589  69.803  1.00  0.00    -0.094 A  
HETATM   15  C   UNL     1      -7.833   7.202  69.702  1.00  0.00    -0.118 A  
HETATM   16  C   UNL     1     -12.189   8.746  72.012  1.00  0.00    -0.377 C  
HETATM   17  H   UNL     1     -10.633  10.066  72.223  1.00  0.00     0.000 HD 
ENDROOT
BRANCH   6  18
HETATM   18  C   UNL     1     -10.104   5.017  72.686  1.00  0.00    -0.227 A  
HETATM   19  C   UNL     1      -8.630   4.135  74.398  1.00  0.00    -0.095 A  
HETATM   20  C   UNL     1      -9.965   2.625  73.068  1.00  0.00    -0.190 A  
HETATM   21  C   UNL     1     -10.508   3.710  72.379  1.00  0.00    -0.114 A  
HETATM   22  C   UNL     1      -9.020   2.838  74.071  1.00  0.00    -0.079 A  
HETATM   23  C   UNL     1      -9.178   5.224  73.718  1.00  0.00    -0.125 A  
ENDBRANCH   6  18
TORSDOF 1
ENDMDL
MODEL      112
REMARK 921   NORMALIZED FREE ENERGY PREDICTED BY IDOCK:   -4.07 KCAL/MOL
REMARK 922        TOTAL FREE ENERGY PREDICTED BY IDOCK:   -4.72 KCAL/MOL
REMARK 923 INTER-LIGAND FREE ENERGY PREDICTED BY IDOCK:   -4.24 KCAL/MOL
REMARK 924 INTRA-LIGAND FREE ENERGY PREDICTED BY IDOCK:   -0.48 KCAL/MOL
REMARK 927      BINDING AFFINITY PREDICTED BY RF-SCORE:    0.00 PKD
ROOT
HETATM    1  O   UNL     1     -11.928   5.268  73.198  1.00  0.00    -0.550 OA 
HETATM    2  H   UNL     1     -12.785   4.883  73.063  1.00  0.00     0.000 HD 
HETATM    3  C   UNL     1     -11.386   5.717  71.975  1.00  0.00    -0.228 C  
HETATM    4  N   UNL     1     -10.072   6.307  72.183  1.00  0.00    -0.181 NA 
HETATM    5  H   UNL     1      -9.760   6.558  73.122  1.00  0.00     0.000 HD 
HETATM    6  C   UNL     1      -9.305   6.509  71.164  1.00  0.00    -0.163 C  
HETATM    7  C   UNL     1      -8.680   5.553  68.956  1.00  0.00    -0.102 A  
HETATM    8  C   UNL     1      -9.663   6.162  69.754  1.00  0.00    -0.187 A  
HETATM    9 CL   UNL     1      -7.695   4.623  66.626  1.00  0.00    -0.090 Cl 
HETATM   10  C   UNL     1     -10.908   6.499  69.196  1.00  0.00    -0.302 A  
HETATM   11  C   UNL     1     -11.115   6.310  67.822  1.00  0.00    -0.361 A  
HETATM   12  O   UNL     1     -13.246   7.338  71.768  1.00  0.00    -0.350 OA 
HETATM   13  N   UNL     1     -11.988   7.024  69.928  1.00  0.00    -0.596 N  
HETATM   14  C   UNL     1     -10.125   5.724  67.029  1.00  0.00    -0.224 A  
HETATM   15  C   UNL     1      -8.916   5.340  67.602  1.00  0.00    -0.109 A  
HETATM   16  C   UNL     1     -12.273   6.781  71.255  1.00  0.00    -0.364 C  
HETATM   17  H   UNL     1     -12.623   7.646  69.429  1.00  0.00     0.000 HD 
ENDROOT
BRANCH   6  18
HETATM   18  C   UNL     1      -7.966   7.134  71.438  1.00  0.00    -0.102 A  
HETATM   19  C   UNL     1      -6.427   9.005  71.328  1.00  0.00    -0.085 A  
HETATM   20  C   UNL     1      -5.729   6.933  72.354  1.00  0.00    -0.038 A  
HETATM   21  C   UNL     1      -6.984   6.381  72.096  1.00  0.00    -0.073 A  
HETATM   22  C   UNL     1      -5.449   8.242  71.963  1.00  0.00    -0.037 A  
HETATM   23  C   UNL     1      -7.687   8.460  71.076  1.00  0.00    -0.099 A  
ENDBRANCH   6  18
TORSDOF 1
ENDMDL
MODEL      113
REMARK 921   NORMALIZED FREE ENERGY PREDICTED BY IDOCK:   -4.00 KCAL/MOL
REMARK 922        TOTAL FREE ENERGY PREDICTED BY IDOCK:   -4.65 KCAL/MOL
REMARK 923 INTER-LIGAND FREE ENERGY PREDICTED BY IDOCK:   -4.17 KCAL/MOL
REMARK 924 INTRA-LIGAND FREE ENERGY PREDICTED BY IDOCK:   -0.47 KCAL/MOL
REMARK 927      BINDING AFFINITY PREDICTED BY RF-SCORE:    0.00 PKD
ROOT
HETATM    1  O   UNL     1      -9.040  11.181  69.317  1.00  0.00    -0.391 OA 
HETATM    2  H   UNL     1      -9.511  11.042  70.130  1.00  0.00     0.000 HD 
HETATM    3  C   UNL     1      -9.334  10.156  68.392  1.00  0.00    -0.136 C  
HETATM    4  N   UNL     1      -8.612  10.369  67.146  1.00  0.00    -0.129 NA 
HETATM    5  H   UNL     1      -8.181  11.271  66.946  1.00  0.00     0.000 HD 
HETATM    6  C   UNL     1      -8.525   9.400  66.297  1.00  0.00    -0.126 C  
HETATM    7  C   UNL     1      -8.325   6.927  66.153  1.00  0.00    -0.130 A  
HETATM    8  C   UNL     1      -9.108   8.039  66.504  1.00  0.00    -0.213 A  
HETATM    9 CL   UNL     1      -7.916   4.296  65.732  1.00  0.00    -0.094 Cl 
HETATM   10  C   UNL     1     -10.426   7.852  66.956  1.00  0.00    -0.349 A  
HETATM   11  C   UNL     1     -10.973   6.561  66.957  1.00  0.00    -0.466 A  
HETATM   12  O   UNL     1     -11.702  10.877  68.373  1.00  0.00    -0.436 OA 
HETATM   13  N   UNL     1     -11.258   8.887  67.420  1.00  0.00    -0.188 N  
HETATM   14  C   UNL     1     -10.195   5.461  66.585  1.00  0.00    -0.285 A  
HETATM   15  C   UNL     1      -8.872   5.649  66.194  1.00  0.00    -0.142 A  
HETATM   16  C   UNL     1     -10.851  10.046  68.046  1.00  0.00    -0.260 C  
HETATM   17  H   UNL     1     -12.261   8.769  67.278  1.00  0.00     0.000 HD 
ENDROOT
BRANCH   6  18
HETATM   18  C   UNL     1      -7.781   9.682  65.022  1.00  0.00    -0.119 A  
HETATM   19  C   UNL     1      -7.694   9.881  62.607  1.00  0.00    -0.131 A  
HETATM   20  C   UNL     1      -5.707  10.288  63.918  1.00  0.00    -0.145 A  
HETATM   21  C   UNL     1      -6.425  10.030  65.087  1.00  0.00    -0.115 A  
HETATM   22  C   UNL     1      -6.341  10.206  62.679  1.00  0.00    -0.128 A  
HETATM   23  C   UNL     1      -8.418   9.632  63.774  1.00  0.00    -0.190 A  
ENDBRANCH   6  18
TORSDOF 1
ENDMDL
MODEL      114
REMARK 921   NORMALIZED FREE ENERGY PREDICTED BY IDOCK:   -3.98 KCAL/MOL
REMARK 922        TOTAL FREE ENERGY PREDICTED BY IDOCK:   -4.63 KCAL/MOL
REMARK 923 INTER-LIGAND FREE ENERGY PREDICTED BY IDOCK:   -4.91 KCAL/MOL
REMARK 924 INTRA-LIGAND FREE ENERGY PREDICTED BY IDOCK:    0.28 KCAL/MOL
REMARK 927      BINDING AFFINITY PREDICTED BY RF-SCORE:    0.00 PKD
ROOT
HETATM    1  O   UNL     1      -6.804   7.564  67.336  1.00  0.00    -0.067 OA 
HETATM    2  H   UNL     1      -6.265   7.379  66.576  1.00  0.00     0.000 HD 
HETATM    3  C   UNL     1      -7.860   8.436  66.995  1.00  0.00    -0.096 C  
HETATM    4  N   UNL     1      -8.686   8.720  68.160  1.00  0.00    -0.134 NA 
HETATM    5  H   UNL     1      -8.611   8.146  68.999  1.00  0.00     0.000 HD 
HETATM    6  C   UNL     1      -9.515   9.710  68.117  1.00  0.00    -0.132 C  
HETATM    7  C   UNL     1      -9.796  11.997  67.186  1.00  0.00    -0.205 A  
HETATM    8  C   UNL     1      -9.687  10.618  66.942  1.00  0.00    -0.213 A  
HETATM    9 CL   UNL     1     -10.260  14.550  66.458  1.00  0.00    -0.273 Cl 
HETATM   10  C   UNL     1      -9.822  10.126  65.631  1.00  0.00    -0.280 A  
HETATM   11  C   UNL     1     -10.160  11.014  64.599  1.00  0.00    -0.370 A  
HETATM   12  O   UNL     1      -8.762   6.716  65.460  1.00  0.00    -0.130 OA 
HETATM   13  N   UNL     1      -9.637   8.781  65.268  1.00  0.00    -0.383 N  
HETATM   14  C   UNL     1     -10.289  12.382  64.854  1.00  0.00    -0.319 A  
HETATM   15  C   UNL     1     -10.097  12.868  66.144  1.00  0.00    -0.276 A  
HETATM   16  C   UNL     1      -8.795   7.876  65.878  1.00  0.00    -0.148 C  
HETATM   17  H   UNL     1     -10.179   8.440  64.475  1.00  0.00     0.000 HD 
ENDROOT
BRANCH   6  18
HETATM   18  C   UNL     1     -10.352   9.945  69.342  1.00  0.00    -0.238 A  
HETATM   19  C   UNL     1     -11.025   9.379  71.602  1.00  0.00    -0.382 A  
HETATM   20  C   UNL     1     -12.063  11.243  70.470  1.00  0.00    -0.481 A  
HETATM   21  C   UNL     1     -11.267  11.007  69.349  1.00  0.00    -0.332 A  
HETATM   22  C   UNL     1     -11.948  10.423  71.593  1.00  0.00    -0.163 A  
HETATM   23  C   UNL     1     -10.219   9.146  70.487  1.00  0.00    -0.288 A  
ENDBRANCH   6  18
TORSDOF 1
ENDMDL
MODEL      115
REMARK 921   NORMALIZED FREE ENERGY PREDICTED BY IDOCK:   -3.83 KCAL/MOL
REMARK 922        TOTAL FREE ENERGY PREDICTED BY IDOCK:   -4.46 KCAL/MOL
REMARK 923 INTER-LIGAND FREE ENERGY PREDICTED BY IDOCK:   -3.99 KCAL/MOL
REMARK 924 INTRA-LIGAND FREE ENERGY PREDICTED BY IDOCK:   -0.47 KCAL/MOL
REMARK 927      BINDING AFFINITY PREDICTED BY RF-SCORE:    0.00 PKD
ROOT
HETATM    1  O   UNL     1      -7.271   9.263  72.130  1.00  0.00    -0.305 OA 
HETATM    2  H   UNL     1      -7.225   8.430  72.586  1.00  0.00     0.000 HD 
HETATM    3  C   UNL     1      -8.037   9.142  70.951  1.00  0.00    -0.162 C  
HETATM    4  N   UNL     1      -8.107  10.418  70.253  1.00  0.00    -0.377 NA 
HETATM    5  H   UNL     1      -7.840  11.281  70.727  1.00  0.00     0.000 HD 
HETATM    6  C   UNL     1      -8.511  10.443  69.028  1.00  0.00    -0.155 C  
HETATM    7  C   UNL     1      -8.462   9.133  66.916  1.00  0.00    -0.124 A  
HETATM    8  C   UNL     1      -8.909   9.233  68.244  1.00  0.00    -0.129 A  
HETATM    9 CL   UNL     1      -8.390   8.003  64.470  1.00  0.00    -0.099 Cl 
HETATM   10  C   UNL     1      -9.772   8.254  68.768  1.00  0.00    -0.157 A  
HETATM   11  C   UNL     1     -10.250   7.241  67.925  1.00  0.00    -0.237 A  
HETATM   12  O   UNL     1     -10.022   8.581  72.320  1.00  0.00    -0.290 OA 
HETATM   13  N   UNL     1     -10.200   8.212  70.107  1.00  0.00    -0.196 N  
HETATM   14  C   UNL     1      -9.818   7.160  66.598  1.00  0.00    -0.237 A  
HETATM   15  C   UNL     1      -8.919   8.100  66.104  1.00  0.00    -0.178 A  
HETATM   16  C   UNL     1      -9.500   8.662  71.206  1.00  0.00    -0.224 C  
HETATM   17  H   UNL     1     -11.120   7.809  70.282  1.00  0.00     0.000 HD 
ENDROOT
BRANCH   6  18
HETATM   18  C   UNL     1      -8.578  11.789  68.364  1.00  0.00    -0.156 A  
HETATM   19  C   UNL     1      -9.820  13.584  67.306  1.00  0.00    -0.237 A  
HETATM   20  C   UNL     1      -7.427  13.772  67.571  1.00  0.00    -0.182 A  
HETATM   21  C   UNL     1      -7.396  12.523  68.193  1.00  0.00    -0.110 A  
HETATM   22  C   UNL     1      -8.637  14.298  67.121  1.00  0.00    -0.234 A  
HETATM   23  C   UNL     1      -9.795  12.338  67.937  1.00  0.00    -0.201 A  
ENDBRANCH   6  18
TORSDOF 1
ENDMDL
MODEL      116
REMARK 921   NORMALIZED FREE ENERGY PREDICTED BY IDOCK:   -3.79 KCAL/MOL
REMARK 922        TOTAL FREE ENERGY PREDICTED BY IDOCK:   -4.42 KCAL/MOL
REMARK 923 INTER-LIGAND FREE ENERGY PREDICTED BY IDOCK:   -3.96 KCAL/MOL
REMARK 924 INTRA-LIGAND FREE ENERGY PREDICTED BY IDOCK:   -0.46 KCAL/MOL
REMARK 927      BINDING AFFINITY PREDICTED BY RF-SCORE:    0.00 PKD
ROOT
HETATM    1  O   UNL     1     -10.319   8.133  73.047  1.00  0.00    -0.321 OA 
HETATM    2  H   UNL     1     -10.760   7.409  73.476  1.00  0.00     0.000 HD 
HETATM    3  C   UNL     1     -10.290   7.939  71.650  1.00  0.00    -0.204 C  
HETATM    4  N   UNL     1      -9.613   9.047  70.992  1.00  0.00    -0.255 NA 
HETATM    5  H   UNL     1      -9.439   9.917  71.495  1.00  0.00     0.000 HD 
HETATM    6  C   UNL     1      -9.237   8.915  69.764  1.00  0.00    -0.165 C  
HETATM    7  C   UNL     1      -8.364   7.242  68.147  1.00  0.00    -0.124 A  
HETATM    8  C   UNL     1      -9.432   7.677  68.949  1.00  0.00    -0.149 A  
HETATM    9 CL   UNL     1      -7.238   5.674  66.266  1.00  0.00    -0.075 Cl 
HETATM   10  C   UNL     1     -10.664   7.000  68.903  1.00  0.00    -0.200 A  
HETATM   11  C   UNL     1     -10.836   5.956  67.983  1.00  0.00    -0.321 A  
HETATM   12  O   UNL     1     -12.764   8.040  71.604  1.00  0.00    -0.313 OA 
HETATM   13  N   UNL     1     -11.761   7.297  69.730  1.00  0.00    -0.507 N  
HETATM   14  C   UNL     1      -9.775   5.542  67.173  1.00  0.00    -0.155 A  
HETATM   15  C   UNL     1      -8.542   6.181  67.266  1.00  0.00    -0.103 A  
HETATM   16  C   UNL     1     -11.708   7.805  71.011  1.00  0.00    -0.281 C  
HETATM   17  H   UNL     1     -12.688   7.118  69.346  1.00  0.00     0.000 HD 
ENDROOT
BRANCH   6  18
HETATM   18  C   UNL     1      -8.557  10.098  69.134  1.00  0.00    -0.167 A  
HETATM   19  C   UNL     1      -6.631  11.544  68.846  1.00  0.00    -0.073 A  
HETATM   20  C   UNL     1      -8.659  11.982  67.609  1.00  0.00    -0.163 A  
HETATM   21  C   UNL     1      -9.262  10.872  68.203  1.00  0.00    -0.158 A  
HETATM   22  C   UNL     1      -7.347  12.321  67.938  1.00  0.00    -0.111 A  
HETATM   23  C   UNL     1      -7.228  10.427  69.435  1.00  0.00    -0.109 A  
ENDBRANCH   6  18
TORSDOF 1
ENDMDL
MODEL      117
REMARK 921   NORMALIZED FREE ENERGY PREDICTED BY IDOCK:   -3.78 KCAL/MOL
REMARK 922        TOTAL FREE ENERGY PREDICTED BY IDOCK:   -4.41 KCAL/MOL
REMARK 923 INTER-LIGAND FREE ENERGY PREDICTED BY IDOCK:   -4.05 KCAL/MOL
REMARK 924 INTRA-LIGAND FREE ENERGY PREDICTED BY IDOCK:   -0.36 KCAL/MOL
REMARK 927      BINDING AFFINITY PREDICTED BY RF-SCORE:    0.00 PKD
ROOT
HETATM    1  O   UNL     1     -10.109   8.931  65.856  1.00  0.00    -0.432 OA 
HETATM    2  H   UNL     1      -9.737   8.856  64.985  1.00  0.00     0.000 HD 
HETATM    3  C   UNL     1      -9.499   8.014  66.737  1.00  0.00    -0.202 C  
HETATM    4  N   UNL     1     -10.070   8.128  68.072  1.00  0.00    -0.189 NA 
HETATM    5  H   UNL     1     -10.635   8.939  68.324  1.00  0.00     0.000 HD 
HETATM    6  C   UNL     1      -9.851   7.190  68.932  1.00  0.00    -0.156 C  
HETATM    7  C   UNL     1      -9.547   4.731  69.122  1.00  0.00    -0.237 A  
HETATM    8  C   UNL     1      -9.050   5.959  68.654  1.00  0.00    -0.115 A  
HETATM    9 CL   UNL     1      -9.379   2.087  69.616  1.00  0.00    -0.171 Cl 
HETATM   10  C   UNL     1      -7.795   6.010  68.021  1.00  0.00    -0.106 A  
HETATM   11  C   UNL     1      -7.015   4.847  67.953  1.00  0.00    -0.061 A  
HETATM   12  O   UNL     1      -7.334   9.172  66.416  1.00  0.00    -0.090 OA 
HETATM   13  N   UNL     1      -7.251   7.168  67.437  1.00  0.00    -0.087 N  
HETATM   14  C   UNL     1      -7.508   3.633  68.440  1.00  0.00    -0.054 A  
HETATM   15  C   UNL     1      -8.775   3.579  69.013  1.00  0.00    -0.093 A  
HETATM   16  C   UNL     1      -7.955   8.206  66.865  1.00  0.00    -0.104 C  
HETATM   17  H   UNL     1      -6.234   7.247  67.436  1.00  0.00     0.000 HD 
ENDROOT
BRANCH   6  18
HETATM   18  C   UNL     1     -10.452   7.371  70.297  1.00  0.00    -0.229 A  
HETATM   19  C   UNL     1     -10.318   8.111  72.602  1.00  0.00    -0.398 A  
HETATM   20  C   UNL     1     -12.349   7.093  71.783  1.00  0.00    -0.385 A  
HETATM   21  C   UNL     1     -11.769   6.947  70.522  1.00  0.00    -0.401 A  
HETATM   22  C   UNL     1     -11.621   7.668  72.824  1.00  0.00    -0.334 A  
HETATM   23  C   UNL     1      -9.737   7.976  71.340  1.00  0.00    -0.205 A  
ENDBRANCH   6  18
TORSDOF 1
ENDMDL
MODEL      118
REMARK 921   NORMALIZED FREE ENERGY PREDICTED BY IDOCK:   -3.74 KCAL/MOL
REMARK 922        TOTAL FREE ENERGY PREDICTED BY IDOCK:   -4.37 KCAL/MOL
REMARK 923 INTER-LIGAND FREE ENERGY PREDICTED BY IDOCK:   -3.90 KCAL/MOL
REMARK 924 INTRA-LIGAND FREE ENERGY PREDICTED BY IDOCK:   -0.47 KCAL/MOL
REMARK 927      BINDING AFFINITY PREDICTED BY RF-SCORE:    0.00 PKD
ROOT
HETATM    1  O   UNL     1     -10.608   7.475  70.989  1.00  0.00    -0.219 OA 
HETATM    2  H   UNL     1     -11.012   8.024  71.651  1.00  0.00     0.000 HD 
HETATM    3  C   UNL     1     -10.051   8.265  69.961  1.00  0.00    -0.196 C  
HETATM    4  N   UNL     1      -9.432   7.423  68.947  1.00  0.00    -0.145 NA 
HETATM    5  H   UNL     1      -9.240   6.440  69.139  1.00  0.00     0.000 HD 
HETATM    6  C   UNL     1      -9.129   7.937  67.802  1.00  0.00    -0.134 C  
HETATM    7  C   UNL     1      -9.897   9.616  66.138  1.00  0.00    -0.334 A  
HETATM    8  C   UNL     1      -9.384   9.361  67.420  1.00  0.00    -0.151 A  
HETATM    9 CL   UNL     1     -10.619  11.228  64.102  1.00  0.00    -0.414 Cl 
HETATM   10  C   UNL     1      -9.050  10.432  68.268  1.00  0.00    -0.145 A  
HETATM   11  C   UNL     1      -9.145  11.744  67.781  1.00  0.00    -0.178 A  
HETATM   12  O   UNL     1      -8.486   9.263  71.599  1.00  0.00    -0.304 OA 
HETATM   13  N   UNL     1      -8.620  10.284  69.598  1.00  0.00    -0.328 N  
HETATM   14  C   UNL     1      -9.636  11.990  66.496  1.00  0.00    -0.234 A  
HETATM   15  C   UNL     1     -10.018  10.926  65.685  1.00  0.00    -0.251 A  
HETATM   16  C   UNL     1      -8.969   9.271  70.464  1.00  0.00    -0.250 C  
HETATM   17  H   UNL     1      -7.986  10.997  69.958  1.00  0.00     0.000 HD 
ENDROOT
BRANCH   6  18
HETATM   18  C   UNL     1      -8.479   7.025  66.801  1.00  0.00    -0.118 A  
HETATM   19  C   UNL     1      -8.527   5.096  65.331  1.00  0.00    -0.141 A  
HETATM   20  C   UNL     1      -6.531   6.448  65.475  1.00  0.00    -0.039 A  
HETATM   21  C   UNL     1      -7.163   7.285  66.396  1.00  0.00    -0.079 A  
HETATM   22  C   UNL     1      -7.211   5.350  64.950  1.00  0.00    -0.066 A  
HETATM   23  C   UNL     1      -9.166   5.936  66.245  1.00  0.00    -0.171 A  
ENDBRANCH   6  18
TORSDOF 1
ENDMDL
MODEL      119
REMARK 921   NORMALIZED FREE ENERGY PREDICTED BY IDOCK:   -3.54 KCAL/MOL
REMARK 922        TOTAL FREE ENERGY PREDICTED BY IDOCK:   -4.15 KCAL/MOL
REMARK 923 INTER-LIGAND FREE ENERGY PREDICTED BY IDOCK:   -3.68 KCAL/MOL
REMARK 924 INTRA-LIGAND FREE ENERGY PREDICTED BY IDOCK:   -0.47 KCAL/MOL
REMARK 927      BINDING AFFINITY PREDICTED BY RF-SCORE:    0.00 PKD
ROOT
HETATM    1  O   UNL     1     -12.728  10.134  68.991  1.00  0.00    -0.078 OA 
HETATM    2  H   UNL     1     -13.626  10.152  69.300  1.00  0.00     0.000 HD 
HETATM    3  C   UNL     1     -12.114  11.391  69.174  1.00  0.00    -0.264 C  
HETATM    4  N   UNL     1     -10.738  11.364  68.700  1.00  0.00    -0.196 NA 
HETATM    5  H   UNL     1     -10.274  10.475  68.513  1.00  0.00     0.000 HD 
HETATM    6  C   UNL     1     -10.113  12.479  68.518  1.00  0.00    -0.181 C  
HETATM    7  C   UNL     1     -10.462  14.831  67.795  1.00  0.00    -0.254 A  
HETATM    8  C   UNL     1     -10.711  13.830  68.749  1.00  0.00    -0.267 A  
HETATM    9 CL   UNL     1     -10.540  17.362  66.873  1.00  0.00    -0.267 Cl 
HETATM   10  C   UNL     1     -11.431  14.139  69.916  1.00  0.00    -0.226 A  
HETATM   11  C   UNL     1     -11.809  15.468  70.155  1.00  0.00    -0.378 A  
HETATM   12  O   UNL     1     -12.387  11.146  71.623  1.00  0.00    -0.220 OA 
HETATM   13  N   UNL     1     -11.812  13.193  70.884  1.00  0.00    -0.394 N  
HETATM   14  C   UNL     1     -11.539  16.463  69.212  1.00  0.00    -0.084 A  
HETATM   15  C   UNL     1     -10.876  16.137  68.032  1.00  0.00    -0.333 A  
HETATM   16  C   UNL     1     -12.091  11.861  70.663  1.00  0.00    -0.294 C  
HETATM   17  H   UNL     1     -11.890  13.524  71.845  1.00  0.00     0.000 HD 
ENDROOT
BRANCH   6  18
HETATM   18  C   UNL     1      -8.691  12.388  68.042  1.00  0.00    -0.186 A  
HETATM   19  C   UNL     1      -7.040  11.792  66.369  1.00  0.00     0.218 A  
HETATM   20  C   UNL     1      -6.332  12.764  68.463  1.00  0.00    -0.075 A  
HETATM   21  C   UNL     1      -7.663  12.845  68.876  1.00  0.00     0.096 A  
HETATM   22  C   UNL     1      -6.021  12.230  67.213  1.00  0.00    -0.150 A  
HETATM   23  C   UNL     1      -8.373  11.881  66.774  1.00  0.00    -0.153 A  
ENDBRANCH   6  18
TORSDOF 1
ENDMDL
MODEL      120
REMARK 921   NORMALIZED FREE ENERGY PREDICTED BY IDOCK:   -3.53 KCAL/MOL
REMARK 922        TOTAL FREE ENERGY PREDICTED BY IDOCK:   -4.14 KCAL/MOL
REMARK 923 INTER-LIGAND FREE ENERGY PREDICTED BY IDOCK:   -3.66 KCAL/MOL
REMARK 924 INTRA-LIGAND FREE ENERGY PREDICTED BY IDOCK:   -0.48 KCAL/MOL
REMARK 927      BINDING AFFINITY PREDICTED BY RF-SCORE:    0.00 PKD
ROOT
HETATM    1  O   UNL     1     -11.714  10.947  68.715  1.00  0.00    -0.298 OA 
HETATM    2  H   UNL     1     -11.896  11.667  69.307  1.00  0.00     0.000 HD 
HETATM    3  C   UNL     1     -11.080   9.889  69.399  1.00  0.00    -0.199 C  
HETATM    4  N   UNL     1     -10.801   8.786  68.490  1.00  0.00    -0.442 NA 
HETATM    5  H   UNL     1     -11.250   8.744  67.575  1.00  0.00     0.000 HD 
HETATM    6  C   UNL     1      -9.978   7.861  68.858  1.00  0.00    -0.190 C  
HETATM    7  C   UNL     1      -7.900   7.489  70.168  1.00  0.00    -0.098 A  
HETATM    8  C   UNL     1      -9.260   7.841  70.169  1.00  0.00    -0.153 A  
HETATM    9 CL   UNL     1      -5.568   6.858  71.363  1.00  0.00    -0.028 Cl 
HETATM   10  C   UNL     1      -9.921   8.080  71.387  1.00  0.00    -0.178 A  
HETATM   11  C   UNL     1      -9.234   7.869  72.591  1.00  0.00    -0.269 A  
HETATM   12  O   UNL     1     -13.100   9.610  70.803  1.00  0.00    -0.214 OA 
HETATM   13  N   UNL     1     -11.250   8.527  71.491  1.00  0.00    -0.261 N  
HETATM   14  C   UNL     1      -7.887   7.497  72.583  1.00  0.00    -0.113 A  
HETATM   15  C   UNL     1      -7.224   7.319  71.372  1.00  0.00    -0.076 A  
HETATM   16  C   UNL     1     -11.920   9.322  70.585  1.00  0.00    -0.152 C  
HETATM   17  H   UNL     1     -11.770   8.233  72.317  1.00  0.00     0.000 HD 
ENDROOT
BRANCH   6  18
HETATM   18  C   UNL     1      -9.741   6.741  67.885  1.00  0.00    -0.138 A  
HETATM   19  C   UNL     1      -9.920   4.411  67.235  1.00  0.00    -0.164 A  
HETATM   20  C   UNL     1      -8.856   5.994  65.753  1.00  0.00    -0.143 A  
HETATM   21  C   UNL     1      -9.098   7.017  66.671  1.00  0.00    -0.175 A  
HETATM   22  C   UNL     1      -9.260   4.690  66.040  1.00  0.00    -0.144 A  
HETATM   23  C   UNL     1     -10.172   5.433  68.151  1.00  0.00    -0.226 A  
ENDBRANCH   6  18
TORSDOF 1
ENDMDL
MODEL      121
REMARK 921   NORMALIZED FREE ENERGY PREDICTED BY IDOCK:   -3.51 KCAL/MOL
REMARK 922        TOTAL FREE ENERGY PREDICTED BY IDOCK:   -4.13 KCAL/MOL
REMARK 923 INTER-LIGAND FREE ENERGY PREDICTED BY IDOCK:   -3.65 KCAL/MOL
REMARK 924 INTRA-LIGAND FREE ENERGY PREDICTED BY IDOCK:   -0.48 KCAL/MOL
REMARK 927      BINDING AFFINITY PREDICTED BY RF-SCORE:    0.00 PKD
ROOT
HETATM    1  O   UNL     1     -13.058   6.291  72.517  1.00  0.00    -0.440 OA 
HETATM    2  H   UNL     1     -13.870   6.705  72.248  1.00  0.00     0.000 HD 
HETATM    3  C   UNL     1     -12.004   6.655  71.653  1.00  0.00    -0.347 C  
HETATM    4  N   UNL     1     -10.760   6.021  72.066  1.00  0.00    -0.226 NA 
HETATM    5  H   UNL     1     -10.678   5.599  72.990  1.00  0.00     0.000 HD 
HETATM    6  C   UNL     1      -9.763   6.000  71.246  1.00  0.00    -0.172 C  
HETATM    7  C   UNL     1      -9.211   5.827  68.829  1.00  0.00    -0.128 A  
HETATM    8  C   UNL     1      -9.790   6.576  69.866  1.00  0.00    -0.185 A  
HETATM    9 CL   UNL     1      -8.346   5.466  66.302  1.00  0.00    -0.113 Cl 
HETATM   10  C   UNL     1     -10.297   7.861  69.604  1.00  0.00    -0.216 A  
HETATM   11  C   UNL     1     -10.129   8.415  68.326  1.00  0.00    -0.232 A  
HETATM   12  O   UNL     1     -12.266   9.014  72.357  1.00  0.00    -0.337 OA 
HETATM   13  N   UNL     1     -10.977   8.651  70.547  1.00  0.00    -0.235 N  
HETATM   14  C   UNL     1      -9.532   7.672  67.304  1.00  0.00    -0.185 A  
HETATM   15  C   UNL     1      -9.085   6.378  67.558  1.00  0.00    -0.114 A  
HETATM   16  C   UNL     1     -11.752   8.194  71.592  1.00  0.00    -0.287 C  
HETATM   17  H   UNL     1     -10.889   9.662  70.449  1.00  0.00     0.000 HD 
ENDROOT
BRANCH   6  18
HETATM   18  C   UNL     1      -8.501   5.345  71.732  1.00  0.00    -0.127 A  
HETATM   19  C   UNL     1      -6.173   5.444  72.405  1.00  0.00    -0.035 A  
HETATM   20  C   UNL     1      -7.340   3.329  72.422  1.00  0.00    -0.051 A  
HETATM   21  C   UNL     1      -8.501   3.965  71.979  1.00  0.00    -0.106 A  
HETATM   22  C   UNL     1      -6.175   4.068  72.627  1.00  0.00    -0.016 A  
HETATM   23  C   UNL     1      -7.334   6.085  71.970  1.00  0.00    -0.094 A  
ENDBRANCH   6  18
TORSDOF 1
ENDMDL
MODEL      122
REMARK 921   NORMALIZED FREE ENERGY PREDICTED BY IDOCK:   -3.42 KCAL/MOL
REMARK 922        TOTAL FREE ENERGY PREDICTED BY IDOCK:   -4.03 KCAL/MOL
REMARK 923 INTER-LIGAND FREE ENERGY PREDICTED BY IDOCK:   -3.99 KCAL/MOL
REMARK 924 INTRA-LIGAND FREE ENERGY PREDICTED BY IDOCK:   -0.04 KCAL/MOL
REMARK 927      BINDING AFFINITY PREDICTED BY RF-SCORE:    0.00 PKD
ROOT
HETATM    1  O   UNL     1     -11.102  18.971  66.082  1.00  0.00    -0.066 OA 
HETATM    2  H   UNL     1     -11.911  19.113  65.605  1.00  0.00     0.000 HD 
HETATM    3  C   UNL     1     -11.001  17.626  66.499  1.00  0.00     0.251 C  
HETATM    4  N   UNL     1      -9.762  17.409  67.231  1.00  0.00    -0.261 NA 
HETATM    5  H   UNL     1      -9.010  18.098  67.192  1.00  0.00     0.000 HD 
HETATM    6  C   UNL     1      -9.626  16.332  67.931  1.00  0.00    -0.227 C  
HETATM    7  C   UNL     1     -10.902  14.732  69.340  1.00  0.00    -0.269 A  
HETATM    8  C   UNL     1     -10.672  15.273  68.064  1.00  0.00    -0.268 A  
HETATM    9 CL   UNL     1     -12.013  12.973  71.054  1.00  0.00    -0.074 Cl 
HETATM   10  C   UNL     1     -11.359  14.757  66.951  1.00  0.00    -0.355 A  
HETATM   11  C   UNL     1     -12.194  13.643  67.118  1.00  0.00    -0.340 A  
HETATM   12  O   UNL     1     -10.960  16.914  64.128  1.00  0.00    -0.760 OA 
HETATM   13  N   UNL     1     -11.271  15.287  65.652  1.00  0.00    -0.297 N  
HETATM   14  C   UNL     1     -12.401  13.096  68.387  1.00  0.00     0.143 A  
HETATM   15  C   UNL     1     -11.762  13.649  69.493  1.00  0.00    -0.322 A  
HETATM   16  C   UNL     1     -11.038  16.605  65.319  1.00  0.00    -0.033 C  
HETATM   17  H   UNL     1     -11.391  14.633  64.879  1.00  0.00     0.000 HD 
ENDROOT
BRANCH   6  18
HETATM   18  C   UNL     1      -8.320  16.155  68.653  1.00  0.00    -0.211 A  
HETATM   19  C   UNL     1      -6.306  17.053  69.664  1.00  0.00    -0.215 A  
HETATM   20  C   UNL     1      -6.690  14.668  69.662  1.00  0.00    -0.163 A  
HETATM   21  C   UNL     1      -7.903  14.863  69.000  1.00  0.00    -0.165 A  
HETATM   22  C   UNL     1      -5.889  15.762  69.986  1.00  0.00    -0.159 A  
HETATM   23  C   UNL     1      -7.523  17.252  69.010  1.00  0.00    -0.196 A  
ENDBRANCH   6  18
TORSDOF 1
ENDMDL
MODEL      123
REMARK 921   NORMALIZED FREE ENERGY PREDICTED BY IDOCK:   -3.40 KCAL/MOL
REMARK 922        TOTAL FREE ENERGY PREDICTED BY IDOCK:   -4.00 KCAL/MOL
REMARK 923 INTER-LIGAND FREE ENERGY PREDICTED BY IDOCK:   -3.53 KCAL/MOL
REMARK 924 INTRA-LIGAND FREE ENERGY PREDICTED BY IDOCK:   -0.47 KCAL/MOL
REMARK 927      BINDING AFFINITY PREDICTED BY RF-SCORE:    0.00 PKD
ROOT
HETATM    1  O   UNL     1     -10.030   9.302  65.412  1.00  0.00    -0.438 OA 
HETATM    2  H   UNL     1      -9.585   9.385  64.577  1.00  0.00     0.000 HD 
HETATM    3  C   UNL     1      -9.151   8.799  66.395  1.00  0.00    -0.177 C  
HETATM    4  N   UNL     1      -9.833   8.671  67.675  1.00  0.00    -0.170 NA 
HETATM    5  H   UNL     1     -10.729   9.132  67.831  1.00  0.00     0.000 HD 
HETATM    6  C   UNL     1      -9.288   7.967  68.610  1.00  0.00    -0.145 C  
HETATM    7  C   UNL     1      -7.904   5.938  68.988  1.00  0.00    -0.095 A  
HETATM    8  C   UNL     1      -7.987   7.242  68.474  1.00  0.00    -0.124 A  
HETATM    9 CL   UNL     1      -6.582   3.690  69.671  1.00  0.00    -0.033 Cl 
HETATM   10  C   UNL     1      -6.844   7.855  67.929  1.00  0.00    -0.072 A  
HETATM   11  C   UNL     1      -5.613   7.187  67.995  1.00  0.00    -0.021 A  
HETATM   12  O   UNL     1      -7.745  10.822  66.149  1.00  0.00    -0.147 OA 
HETATM   13  N   UNL     1      -6.843   9.116  67.307  1.00  0.00    -0.076 N  
HETATM   14  C   UNL     1      -5.534   5.897  68.528  1.00  0.00    -0.007 A  
HETATM   15  C   UNL     1      -6.681   5.276  69.012  1.00  0.00    -0.053 A  
HETATM   16  C   UNL     1      -7.890   9.690  66.618  1.00  0.00    -0.105 C  
HETATM   17  H   UNL     1      -5.983   9.659  67.372  1.00  0.00     0.000 HD 
ENDROOT
BRANCH   6  18
HETATM   18  C   UNL     1     -10.030   7.884  69.914  1.00  0.00    -0.192 A  
HETATM   19  C   UNL     1     -11.882   7.090  71.264  1.00  0.00    -0.371 A  
HETATM   20  C   UNL     1     -10.191   8.502  72.255  1.00  0.00    -0.395 A  
HETATM   21  C   UNL     1      -9.517   8.554  71.033  1.00  0.00    -0.234 A  
HETATM   22  C   UNL     1     -11.377   7.777  72.366  1.00  0.00    -0.400 A  
HETATM   23  C   UNL     1     -11.206   7.132  70.043  1.00  0.00    -0.271 A  
ENDBRANCH   6  18
TORSDOF 1
ENDMDL
MODEL      124
REMARK 921   NORMALIZED FREE ENERGY PREDICTED BY IDOCK:   -3.39 KCAL/MOL
REMARK 922        TOTAL FREE ENERGY PREDICTED BY IDOCK:   -4.00 KCAL/MOL
REMARK 923 INTER-LIGAND FREE ENERGY PREDICTED BY IDOCK:   -4.32 KCAL/MOL
REMARK 924 INTRA-LIGAND FREE ENERGY PREDICTED BY IDOCK:    0.32 KCAL/MOL
REMARK 927      BINDING AFFINITY PREDICTED BY RF-SCORE:    0.00 PKD
ROOT
HETATM    1  O   UNL     1     -10.988  13.482  65.502  1.00  0.00    -0.284 OA 
HETATM    2  H   UNL     1     -10.431  13.285  64.758  1.00  0.00     0.000 HD 
HETATM    3  C   UNL     1     -10.594  12.733  66.630  1.00  0.00    -0.256 C  
HETATM    4  N   UNL     1     -11.449  13.034  67.769  1.00  0.00    -0.295 NA 
HETATM    5  H   UNL     1     -12.054  13.855  67.758  1.00  0.00     0.000 HD 
HETATM    6  C   UNL     1     -11.431  12.249  68.794  1.00  0.00    -0.311 C  
HETATM    7  C   UNL     1     -11.186   9.860  69.434  1.00  0.00    -0.196 A  
HETATM    8  C   UNL     1     -10.592  11.015  68.900  1.00  0.00    -0.239 A  
HETATM    9 CL   UNL     1     -11.141   7.331  70.366  1.00  0.00    -0.283 Cl 
HETATM   10  C   UNL     1      -9.227  11.009  68.561  1.00  0.00    -0.177 A  
HETATM   11  C   UNL     1      -8.456   9.875  68.852  1.00  0.00    -0.127 A  
HETATM   12  O   UNL     1      -8.409  13.896  66.617  1.00  0.00     0.004 OA 
HETATM   13  N   UNL     1      -8.563  12.079  67.936  1.00  0.00    -0.157 N  
HETATM   14  C   UNL     1      -9.049   8.736  69.404  1.00  0.00    -0.145 A  
HETATM   15  C   UNL     1     -10.412   8.731  69.683  1.00  0.00    -0.220 A  
HETATM   16  C   UNL     1      -9.118  12.992  67.065  1.00  0.00    -0.230 C  
HETATM   17  H   UNL     1      -7.571  12.190  68.147  1.00  0.00     0.000 HD 
ENDROOT
BRANCH   6  18
HETATM   18  C   UNL     1     -12.322  12.619  69.946  1.00  0.00    -0.126 A  
HETATM   19  C   UNL     1     -13.691  12.022  71.857  1.00  0.00     0.044 A  
HETATM   20  C   UNL     1     -13.443  14.343  71.234  1.00  0.00    -0.401 A  
HETATM   21  C   UNL     1     -12.610  13.971  70.178  1.00  0.00    -0.310 A  
HETATM   22  C   UNL     1     -13.989  13.367  72.068  1.00  0.00    -0.414 A  
HETATM   23  C   UNL     1     -12.850  11.647  70.808  1.00  0.00    -0.197 A  
ENDBRANCH   6  18
TORSDOF 1
ENDMDL
MODEL      125
REMARK 921   NORMALIZED FREE ENERGY PREDICTED BY IDOCK:   -3.36 KCAL/MOL
REMARK 922        TOTAL FREE ENERGY PREDICTED BY IDOCK:   -3.96 KCAL/MOL
REMARK 923 INTER-LIGAND FREE ENERGY PREDICTED BY IDOCK:   -3.49 KCAL/MOL
REMARK 924 INTRA-LIGAND FREE ENERGY PREDICTED BY IDOCK:   -0.47 KCAL/MOL
REMARK 927      BINDING AFFINITY PREDICTED BY RF-SCORE:    0.00 PKD
ROOT
HETATM    1  O   UNL     1      -8.740   6.683  70.059  1.00  0.00    -0.139 OA 
HETATM    2  H   UNL     1      -9.408   6.129  70.445  1.00  0.00     0.000 HD 
HETATM    3  C   UNL     1      -9.193   8.016  69.967  1.00  0.00    -0.156 C  
HETATM    4  N   UNL     1      -8.169   8.865  69.375  1.00  0.00    -0.105 NA 
HETATM    5  H   UNL     1      -7.206   8.537  69.298  1.00  0.00     0.000 HD 
HETATM    6  C   UNL     1      -8.496  10.039  68.948  1.00  0.00    -0.132 C  
HETATM    7  C   UNL     1     -10.353  11.292  67.872  1.00  0.00    -0.205 A  
HETATM    8  C   UNL     1      -9.879  10.604  69.002  1.00  0.00    -0.218 A  
HETATM    9 CL   UNL     1     -12.133  12.820  66.546  1.00  0.00    -0.417 Cl 
HETATM   10  C   UNL     1     -10.669  10.536  70.163  1.00  0.00    -0.171 A  
HETATM   11  C   UNL     1     -11.881  11.240  70.208  1.00  0.00    -0.446 A  
HETATM   12  O   UNL     1      -9.343   8.116  72.437  1.00  0.00    -0.189 OA 
HETATM   13  N   UNL     1     -10.328   9.797  71.310  1.00  0.00    -0.216 N  
HETATM   14  C   UNL     1     -12.336  11.940  69.088  1.00  0.00     0.030 A  
HETATM   15  C   UNL     1     -11.575  11.955  67.923  1.00  0.00    -0.323 A  
HETATM   16  C   UNL     1      -9.583   8.637  71.345  1.00  0.00    -0.243 C  
HETATM   17  H   UNL     1     -10.666  10.153  72.203  1.00  0.00     0.000 HD 
ENDROOT
BRANCH   6  18
HETATM   18  C   UNL     1      -7.394  10.876  68.361  1.00  0.00    -0.094 A  
HETATM   19  C   UNL     1      -5.854  12.747  68.465  1.00  0.00    -0.061 A  
HETATM   20  C   UNL     1      -5.851  11.293  66.536  1.00  0.00    -0.146 A  
HETATM   21  C   UNL     1      -6.868  10.528  67.110  1.00  0.00    -0.084 A  
HETATM   22  C   UNL     1      -5.351  12.406  67.211  1.00  0.00    -0.072 A  
HETATM   23  C   UNL     1      -6.864  11.978  69.047  1.00  0.00    -0.105 A  
ENDBRANCH   6  18
TORSDOF 1
ENDMDL
MODEL      126
REMARK 921   NORMALIZED FREE ENERGY PREDICTED BY IDOCK:   -3.28 KCAL/MOL
REMARK 922        TOTAL FREE ENERGY PREDICTED BY IDOCK:   -3.88 KCAL/MOL
REMARK 923 INTER-LIGAND FREE ENERGY PREDICTED BY IDOCK:   -3.81 KCAL/MOL
REMARK 924 INTRA-LIGAND FREE ENERGY PREDICTED BY IDOCK:   -0.07 KCAL/MOL
REMARK 927      BINDING AFFINITY PREDICTED BY RF-SCORE:    0.00 PKD
ROOT
HETATM    1  O   UNL     1      -9.816  10.613  63.668  1.00  0.00    -0.303 OA 
HETATM    2  H   UNL     1      -9.568  10.479  62.761  1.00  0.00     0.000 HD 
HETATM    3  C   UNL     1      -9.285   9.593  64.485  1.00  0.00    -0.218 C  
HETATM    4  N   UNL     1      -9.666   9.799  65.875  1.00  0.00    -0.246 NA 
HETATM    5  H   UNL     1     -10.042  10.697  66.180  1.00  0.00     0.000 HD 
HETATM    6  C   UNL     1      -9.522   8.830  66.716  1.00  0.00    -0.191 C  
HETATM    7  C   UNL     1      -9.651   6.355  66.903  1.00  0.00    -0.179 A  
HETATM    8  C   UNL     1      -8.996   7.476  66.364  1.00  0.00    -0.196 A  
HETATM    9 CL   UNL     1      -9.909   3.721  67.410  1.00  0.00    -0.132 Cl 
HETATM   10  C   UNL     1      -7.835   7.303  65.590  1.00  0.00    -0.112 A  
HETATM   11  C   UNL     1      -7.293   6.018  65.448  1.00  0.00    -0.076 A  
HETATM   12  O   UNL     1      -6.998  10.341  63.900  1.00  0.00    -0.125 OA 
HETATM   13  N   UNL     1      -7.162   8.347  64.931  1.00  0.00    -0.082 N  
HETATM   14  C   UNL     1      -7.938   4.911  66.005  1.00  0.00    -0.107 A  
HETATM   15  C   UNL     1      -9.118   5.083  66.721  1.00  0.00    -0.118 A  
HETATM   16  C   UNL     1      -7.728   9.500  64.431  1.00  0.00    -0.123 C  
HETATM   17  H   UNL     1      -6.155   8.240  64.812  1.00  0.00     0.000 HD 
ENDROOT
BRANCH   6  18
HETATM   18  C   UNL     1      -9.918   9.106  68.139  1.00  0.00    -0.206 A  
HETATM   19  C   UNL     1      -9.812   8.618  70.513  1.00  0.00    -0.210 A  
HETATM   20  C   UNL     1     -11.190  10.437  69.721  1.00  0.00    -0.353 A  
HETATM   21  C   UNL     1     -10.797  10.164  68.409  1.00  0.00    -0.284 A  
HETATM   22  C   UNL     1     -10.703   9.658  70.770  1.00  0.00    -0.401 A  
HETATM   23  C   UNL     1      -9.409   8.348  69.203  1.00  0.00    -0.151 A  
ENDBRANCH   6  18
TORSDOF 1
ENDMDL
MODEL      127
REMARK 921   NORMALIZED FREE ENERGY PREDICTED BY IDOCK:   -3.26 KCAL/MOL
REMARK 922        TOTAL FREE ENERGY PREDICTED BY IDOCK:   -3.86 KCAL/MOL
REMARK 923 INTER-LIGAND FREE ENERGY PREDICTED BY IDOCK:   -3.87 KCAL/MOL
REMARK 924 INTRA-LIGAND FREE ENERGY PREDICTED BY IDOCK:    0.00 KCAL/MOL
REMARK 927      BINDING AFFINITY PREDICTED BY RF-SCORE:    0.00 PKD
ROOT
HETATM    1  O   UNL     1     -11.794  11.826  70.939  1.00  0.00    -0.388 OA 
HETATM    2  H   UNL     1     -12.177  11.811  71.808  1.00  0.00     0.000 HD 
HETATM    3  C   UNL     1     -11.406  10.528  70.544  1.00  0.00    -0.314 C  
HETATM    4  N   UNL     1     -10.820  10.552  69.212  1.00  0.00    -0.226 NA 
HETATM    5  H   UNL     1     -10.936  11.368  68.611  1.00  0.00     0.000 HD 
HETATM    6  C   UNL     1     -10.151   9.527  68.801  1.00  0.00    -0.188 C  
HETATM    7  C   UNL     1      -8.624   7.732  69.592  1.00  0.00    -0.135 A  
HETATM    8  C   UNL     1      -9.912   8.293  69.611  1.00  0.00    -0.193 A  
HETATM    9 CL   UNL     1      -6.815   5.816  70.158  1.00  0.00    -0.051 Cl 
HETATM   10  C   UNL     1     -10.947   7.647  70.311  1.00  0.00    -0.252 A  
HETATM   11  C   UNL     1     -10.699   6.399  70.900  1.00  0.00    -0.301 A  
HETATM   12  O   UNL     1     -13.774   9.811  70.639  1.00  0.00    -0.102 OA 
HETATM   13  N   UNL     1     -12.242   8.171  70.469  1.00  0.00    -0.469 N  
HETATM   14  C   UNL     1      -9.420   5.837  70.859  1.00  0.00    -0.196 A  
HETATM   15  C   UNL     1      -8.388   6.510  70.213  1.00  0.00    -0.127 A  
HETATM   16  C   UNL     1     -12.585   9.505  70.523  1.00  0.00     0.110 C  
HETATM   17  H   UNL     1     -13.003   7.498  70.552  1.00  0.00     0.000 HD 
ENDROOT
BRANCH   6  18
HETATM   18  C   UNL     1      -9.582   9.603  67.412  1.00  0.00    -0.183 A  
HETATM   19  C   UNL     1      -9.850   9.720  65.005  1.00  0.00    -0.243 A  
HETATM   20  C   UNL     1      -7.635   9.694  65.968  1.00  0.00    -0.102 A  
HETATM   21  C   UNL     1      -8.191   9.634  67.247  1.00  0.00    -0.114 A  
HETATM   22  C   UNL     1      -8.465   9.729  64.848  1.00  0.00    -0.165 A  
HETATM   23  C   UNL     1     -10.410   9.669  66.282  1.00  0.00    -0.230 A  
ENDBRANCH   6  18
TORSDOF 1
ENDMDL
MODEL      128
REMARK 921   NORMALIZED FREE ENERGY PREDICTED BY IDOCK:   -3.20 KCAL/MOL
REMARK 922        TOTAL FREE ENERGY PREDICTED BY IDOCK:   -3.80 KCAL/MOL
REMARK 923 INTER-LIGAND FREE ENERGY PREDICTED BY IDOCK:   -3.33 KCAL/MOL
REMARK 924 INTRA-LIGAND FREE ENERGY PREDICTED BY IDOCK:   -0.47 KCAL/MOL
REMARK 927      BINDING AFFINITY PREDICTED BY RF-SCORE:    0.00 PKD
ROOT
HETATM    1  O   UNL     1     -11.223  10.169  70.255  1.00  0.00    -0.272 OA 
HETATM    2  H   UNL     1     -11.944   9.570  70.103  1.00  0.00     0.000 HD 
HETATM    3  C   UNL     1     -10.478  10.359  69.072  1.00  0.00    -0.219 C  
HETATM    4  N   UNL     1      -9.372  11.277  69.305  1.00  0.00    -0.398 NA 
HETATM    5  H   UNL     1      -9.349  11.855  70.146  1.00  0.00     0.000 HD 
HETATM    6  C   UNL     1      -8.421  11.350  68.435  1.00  0.00    -0.155 C  
HETATM    7  C   UNL     1      -7.119   9.972  66.828  1.00  0.00    -0.091 A  
HETATM    8  C   UNL     1      -8.356  10.536  67.183  1.00  0.00    -0.127 A  
HETATM    9 CL   UNL     1      -5.448   8.666  65.164  1.00  0.00    -0.039 Cl 
HETATM   10  C   UNL     1      -9.463  10.392  66.327  1.00  0.00    -0.171 A  
HETATM   11  C   UNL     1      -9.289   9.770  65.083  1.00  0.00    -0.322 A  
HETATM   12  O   UNL     1     -12.470  11.364  67.999  1.00  0.00    -0.159 OA 
HETATM   13  N   UNL     1     -10.761  10.836  66.632  1.00  0.00    -0.236 N  
HETATM   14  C   UNL     1      -8.049   9.231  64.727  1.00  0.00    -0.133 A  
HETATM   15  C   UNL     1      -6.974   9.326  65.605  1.00  0.00    -0.082 A  
HETATM   16  C   UNL     1     -11.321  10.928  67.889  1.00  0.00    -0.308 C  
HETATM   17  H   UNL     1     -11.347  11.118  65.847  1.00  0.00     0.000 HD 
ENDROOT
BRANCH   6  18
HETATM   18  C   UNL     1      -7.315  12.326  68.722  1.00  0.00    -0.083 A  
HETATM   19  C   UNL     1      -6.144  14.406  68.291  1.00  0.00    -0.119 A  
HETATM   20  C   UNL     1      -5.355  12.919  70.024  1.00  0.00    -0.104 A  
HETATM   21  C   UNL     1      -6.398  12.036  69.742  1.00  0.00    -0.110 A  
HETATM   22  C   UNL     1      -5.224  14.099  69.292  1.00  0.00    -0.081 A  
HETATM   23  C   UNL     1      -7.194  13.529  68.013  1.00  0.00    -0.125 A  
ENDBRANCH   6  18
TORSDOF 1
ENDMDL
MODEL      129
REMARK 921   NORMALIZED FREE ENERGY PREDICTED BY IDOCK:   -3.12 KCAL/MOL
REMARK 922        TOTAL FREE ENERGY PREDICTED BY IDOCK:   -3.71 KCAL/MOL
REMARK 923 INTER-LIGAND FREE ENERGY PREDICTED BY IDOCK:   -3.24 KCAL/MOL
REMARK 924 INTRA-LIGAND FREE ENERGY PREDICTED BY IDOCK:   -0.47 KCAL/MOL
REMARK 927      BINDING AFFINITY PREDICTED BY RF-SCORE:    0.00 PKD
ROOT
HETATM    1  O   UNL     1     -11.564   9.698  68.865  1.00  0.00    -0.454 OA 
HETATM    2  H   UNL     1     -11.784  10.126  68.047  1.00  0.00     0.000 HD 
HETATM    3  C   UNL     1     -10.644   8.651  68.647  1.00  0.00    -0.129 C  
HETATM    4  N   UNL     1     -10.306   7.995  69.902  1.00  0.00    -0.216 NA 
HETATM    5  H   UNL     1     -10.535   8.435  70.793  1.00  0.00     0.000 HD 
HETATM    6  C   UNL     1      -9.715   6.847  69.872  1.00  0.00    -0.162 C  
HETATM    7  C   UNL     1      -9.596   4.732  68.573  1.00  0.00    -0.218 A  
HETATM    8  C   UNL     1      -9.353   6.114  68.620  1.00  0.00    -0.121 A  
HETATM    9 CL   UNL     1      -9.424   2.285  67.455  1.00  0.00    -0.141 Cl 
HETATM   10  C   UNL     1      -8.713   6.750  67.541  1.00  0.00    -0.119 A  
HETATM   11  C   UNL     1      -8.238   5.973  66.474  1.00  0.00    -0.107 A  
HETATM   12  O   UNL     1      -8.983  10.302  67.843  1.00  0.00    -0.130 OA 
HETATM   13  N   UNL     1      -8.508   8.138  67.449  1.00  0.00    -0.125 N  
HETATM   14  C   UNL     1      -8.464   4.595  66.445  1.00  0.00    -0.109 A  
HETATM   15  C   UNL     1      -9.150   3.982  67.490  1.00  0.00    -0.146 A  
HETATM   16  C   UNL     1      -9.310   9.121  67.986  1.00  0.00    -0.137 C  
HETATM   17  H   UNL     1      -7.684   8.447  66.933  1.00  0.00     0.000 HD 
ENDROOT
BRANCH   6  18
HETATM   18  C   UNL     1      -9.378   6.225  71.198  1.00  0.00    -0.169 A  
HETATM   19  C   UNL     1     -10.019   5.079  73.237  1.00  0.00    -0.182 A  
HETATM   20  C   UNL     1      -7.704   5.654  72.858  1.00  0.00    -0.098 A  
HETATM   21  C   UNL     1      -8.044   6.216  71.626  1.00  0.00    -0.110 A  
HETATM   22  C   UNL     1      -8.693   5.093  73.665  1.00  0.00    -0.110 A  
HETATM   23  C   UNL     1     -10.362   5.632  72.002  1.00  0.00    -0.261 A  
ENDBRANCH   6  18
TORSDOF 1
ENDMDL
MODEL      130
REMARK 921   NORMALIZED FREE ENERGY PREDICTED BY IDOCK:   -3.02 KCAL/MOL
REMARK 922        TOTAL FREE ENERGY PREDICTED BY IDOCK:   -3.60 KCAL/MOL
REMARK 923 INTER-LIGAND FREE ENERGY PREDICTED BY IDOCK:   -3.12 KCAL/MOL
REMARK 924 INTRA-LIGAND FREE ENERGY PREDICTED BY IDOCK:   -0.48 KCAL/MOL
REMARK 927      BINDING AFFINITY PREDICTED BY RF-SCORE:    0.00 PKD
ROOT
HETATM    1  O   UNL     1     -11.545   7.979  73.161  1.00  0.00    -0.542 OA 
HETATM    2  H   UNL     1     -11.870   8.823  72.872  1.00  0.00     0.000 HD 
HETATM    3  C   UNL     1     -10.685   7.419  72.192  1.00  0.00    -0.225 C  
HETATM    4  N   UNL     1     -10.187   6.125  72.636  1.00  0.00    -0.179 NA 
HETATM    5  H   UNL     1     -10.279   5.843  73.612  1.00  0.00     0.000 HD 
HETATM    6  C   UNL     1      -9.628   5.338  71.778  1.00  0.00    -0.150 C  
HETATM    7  C   UNL     1      -9.734   4.636  69.397  1.00  0.00    -0.272 A  
HETATM    8  C   UNL     1      -9.461   5.653  70.326  1.00  0.00    -0.202 A  
HETATM    9 CL   UNL     1      -9.768   3.572  66.920  1.00  0.00    -0.141 Cl 
HETATM   10  C   UNL     1      -8.966   6.893  69.883  1.00  0.00    -0.142 A  
HETATM   11  C   UNL     1      -8.662   7.062  68.525  1.00  0.00    -0.122 A  
HETATM   12  O   UNL     1      -9.123   9.313  72.511  1.00  0.00     0.092 OA 
HETATM   13  N   UNL     1      -8.750   8.003  70.719  1.00  0.00    -0.135 N  
HETATM   14  C   UNL     1      -8.916   6.038  67.608  1.00  0.00    -0.111 A  
HETATM   15  C   UNL     1      -9.459   4.834  68.047  1.00  0.00    -0.140 A  
HETATM   16  C   UNL     1      -9.449   8.314  71.865  1.00  0.00    -0.220 C  
HETATM   17  H   UNL     1      -8.001   8.641  70.450  1.00  0.00     0.000 HD 
ENDROOT
BRANCH   6  18
HETATM   18  C   UNL     1      -9.120   4.023  72.297  1.00  0.00    -0.149 A  
HETATM   19  C   UNL     1      -7.310   2.495  72.818  1.00  0.00    -0.040 A  
HETATM   20  C   UNL     1      -9.596   1.841  73.244  1.00  0.00    -0.102 A  
HETATM   21  C   UNL     1     -10.039   3.075  72.766  1.00  0.00    -0.226 A  
HETATM   22  C   UNL     1      -8.233   1.549  73.262  1.00  0.00    -0.045 A  
HETATM   23  C   UNL     1      -7.749   3.734  72.348  1.00  0.00    -0.068 A  
ENDBRANCH   6  18
TORSDOF 1
ENDMDL
MODEL      131
REMARK 921   NORMALIZED FREE ENERGY PREDICTED BY IDOCK:   -3.00 KCAL/MOL
REMARK 922        TOTAL FREE ENERGY PREDICTED BY IDOCK:   -3.59 KCAL/MOL
REMARK 923 INTER-LIGAND FREE ENERGY PREDICTED BY IDOCK:   -3.13 KCAL/MOL
REMARK 924 INTRA-LIGAND FREE ENERGY PREDICTED BY IDOCK:   -0.45 KCAL/MOL
REMARK 927      BINDING AFFINITY PREDICTED BY RF-SCORE:    0.00 PKD
ROOT
HETATM    1  O   UNL     1     -11.173   9.630  71.492  1.00  0.00    -0.372 OA 
HETATM    2  H   UNL     1     -11.671   9.667  72.299  1.00  0.00     0.000 HD 
HETATM    3  C   UNL     1     -10.606   8.350  71.315  1.00  0.00    -0.222 C  
HETATM    4  N   UNL     1      -9.842   8.294  70.078  1.00  0.00    -0.180 NA 
HETATM    5  H   UNL     1      -9.952   9.020  69.369  1.00  0.00     0.000 HD 
HETATM    6  C   UNL     1      -9.023   7.314  69.888  1.00  0.00    -0.142 C  
HETATM    7  C   UNL     1      -7.454   5.806  71.088  1.00  0.00    -0.091 A  
HETATM    8  C   UNL     1      -8.781   6.213  70.870  1.00  0.00    -0.136 A  
HETATM    9 CL   UNL     1      -5.562   4.185  72.118  1.00  0.00    -0.007 Cl 
HETATM   10  C   UNL     1      -9.835   5.533  71.506  1.00  0.00    -0.171 A  
HETATM   11  C   UNL     1      -9.550   4.395  72.274  1.00  0.00    -0.200 A  
HETATM   12  O   UNL     1     -12.881   7.380  71.193  1.00  0.00    -0.326 OA 
HETATM   13  N   UNL     1     -11.185   5.919  71.429  1.00  0.00    -0.255 N  
HETATM   14  C   UNL     1      -8.229   3.983  72.468  1.00  0.00    -0.098 A  
HETATM   15  C   UNL     1      -7.188   4.695  71.882  1.00  0.00    -0.062 A  
HETATM   16  C   UNL     1     -11.662   7.202  71.271  1.00  0.00    -0.306 C  
HETATM   17  H   UNL     1     -11.880   5.175  71.496  1.00  0.00     0.000 HD 
ENDROOT
BRANCH   6  18
HETATM   18  C   UNL     1      -8.273   7.301  68.586  1.00  0.00    -0.125 A  
HETATM   19  C   UNL     1      -6.728   8.303  67.008  1.00  0.00    -0.062 A  
HETATM   20  C   UNL     1      -7.761   6.180  66.496  1.00  0.00    -0.103 A  
HETATM   21  C   UNL     1      -8.437   6.214  67.716  1.00  0.00    -0.115 A  
HETATM   22  C   UNL     1      -6.914   7.229  66.139  1.00  0.00    -0.065 A  
HETATM   23  C   UNL     1      -7.396   8.336  68.233  1.00  0.00    -0.095 A  
ENDBRANCH   6  18
TORSDOF 1
ENDMDL
MODEL      132
REMARK 921   NORMALIZED FREE ENERGY PREDICTED BY IDOCK:   -2.83 KCAL/MOL
REMARK 922        TOTAL FREE ENERGY PREDICTED BY IDOCK:   -3.40 KCAL/MOL
REMARK 923 INTER-LIGAND FREE ENERGY PREDICTED BY IDOCK:   -3.57 KCAL/MOL
REMARK 924 INTRA-LIGAND FREE ENERGY PREDICTED BY IDOCK:    0.17 KCAL/MOL
REMARK 927      BINDING AFFINITY PREDICTED BY RF-SCORE:    0.00 PKD
ROOT
HETATM    1  O   UNL     1      -9.143  12.880  68.440  1.00  0.00    -0.261 OA 
HETATM    2  H   UNL     1      -9.473  13.278  69.237  1.00  0.00     0.000 HD 
HETATM    3  C   UNL     1      -9.451  11.503  68.408  1.00  0.00    -0.195 C  
HETATM    4  N   UNL     1      -8.945  10.893  67.187  1.00  0.00    -0.138 NA 
HETATM    5  H   UNL     1      -8.650  11.475  66.403  1.00  0.00     0.000 HD 
HETATM    6  C   UNL     1      -8.874   9.606  67.109  1.00  0.00    -0.132 C  
HETATM    7  C   UNL     1      -8.424   7.578  68.474  1.00  0.00    -0.129 A  
HETATM    8  C   UNL     1      -9.267   8.670  68.207  1.00  0.00    -0.140 A  
HETATM    9 CL   UNL     1      -7.790   5.255  69.683  1.00  0.00    -0.072 Cl 
HETATM   10  C   UNL     1     -10.477   8.808  68.910  1.00  0.00    -0.197 A  
HETATM   11  C   UNL     1     -10.871   7.798  69.799  1.00  0.00    -0.211 A  
HETATM   12  O   UNL     1     -11.863  12.062  68.383  1.00  0.00    -0.320 OA 
HETATM   13  N   UNL     1     -11.343   9.909  68.785  1.00  0.00    -0.481 N  
HETATM   14  C   UNL     1     -10.037   6.704  70.043  1.00  0.00    -0.199 A  
HETATM   15  C   UNL     1      -8.814   6.604  69.386  1.00  0.00    -0.134 A  
HETATM   16  C   UNL     1     -10.981  11.205  68.485  1.00  0.00    -0.220 C  
HETATM   17  H   UNL     1     -12.336   9.731  68.931  1.00  0.00     0.000 HD 
ENDROOT
BRANCH   6  18
HETATM   18  C   UNL     1      -8.358   9.034  65.819  1.00  0.00    -0.133 A  
HETATM   19  C   UNL     1      -7.320   9.285  63.642  1.00  0.00    -0.101 A  
HETATM   20  C   UNL     1      -7.980   7.093  64.413  1.00  0.00    -0.101 A  
HETATM   21  C   UNL     1      -8.442   7.651  65.606  1.00  0.00    -0.152 A  
HETATM   22  C   UNL     1      -7.427   7.911  63.429  1.00  0.00    -0.122 A  
HETATM   23  C   UNL     1      -7.772   9.845  64.838  1.00  0.00    -0.134 A  
ENDBRANCH   6  18
TORSDOF 1
ENDMDL
MODEL      133
REMARK 921   NORMALIZED FREE ENERGY PREDICTED BY IDOCK:   -2.75 KCAL/MOL
REMARK 922        TOTAL FREE ENERGY PREDICTED BY IDOCK:   -3.32 KCAL/MOL
REMARK 923 INTER-LIGAND FREE ENERGY PREDICTED BY IDOCK:   -3.16 KCAL/MOL
REMARK 924 INTRA-LIGAND FREE ENERGY PREDICTED BY IDOCK:   -0.16 KCAL/MOL
REMARK 927      BINDING AFFINITY PREDICTED BY RF-SCORE:    0.00 PKD
ROOT
HETATM    1  O   UNL     1     -11.685  12.289  70.000  1.00  0.00    -0.440 OA 
HETATM    2  H   UNL     1     -12.509  11.838  69.858  1.00  0.00     0.000 HD 
HETATM    3  C   UNL     1     -10.946  12.363  68.801  1.00  0.00    -0.246 C  
HETATM    4  N   UNL     1      -9.683  13.054  69.019  1.00  0.00    -0.369 NA 
HETATM    5  H   UNL     1      -9.533  13.599  69.868  1.00  0.00     0.000 HD 
HETATM    6  C   UNL     1      -8.756  12.967  68.125  1.00  0.00    -0.190 C  
HETATM    7  C   UNL     1      -7.773  11.405  66.460  1.00  0.00    -0.093 A  
HETATM    8  C   UNL     1      -8.875  12.182  66.858  1.00  0.00    -0.202 A  
HETATM    9 CL   UNL     1      -6.415   9.848  64.730  1.00  0.00    -0.113 Cl 
HETATM   10  C   UNL     1     -10.008  12.265  66.030  1.00  0.00    -0.252 A  
HETATM   11  C   UNL     1      -9.983  11.648  64.771  1.00  0.00    -0.292 A  
HETATM   12  O   UNL     1     -12.741  13.743  67.800  1.00  0.00     0.300 OA 
HETATM   13  N   UNL     1     -11.194  12.936  66.378  1.00  0.00    -0.289 N  
HETATM   14  C   UNL     1      -8.875  10.895  64.373  1.00  0.00    -0.070 A  
HETATM   15  C   UNL     1      -7.780  10.770  65.222  1.00  0.00     0.059 A  
HETATM   16  C   UNL     1     -11.697  13.104  67.651  1.00  0.00    -0.369 C  
HETATM   17  H   UNL     1     -11.735  13.339  65.614  1.00  0.00     0.000 HD 
ENDROOT
BRANCH   6  18
HETATM   18  C   UNL     1      -7.481  13.713  68.398  1.00  0.00    -0.123 A  
HETATM   19  C   UNL     1      -5.148  13.773  69.056  1.00  0.00    -0.070 A  
HETATM   20  C   UNL     1      -6.287  15.824  68.482  1.00  0.00    -0.108 A  
HETATM   21  C   UNL     1      -7.456  15.104  68.227  1.00  0.00    -0.109 A  
HETATM   22  C   UNL     1      -5.137  15.159  68.905  1.00  0.00    -0.096 A  
HETATM   23  C   UNL     1      -6.311  13.049  68.792  1.00  0.00    -0.084 A  
ENDBRANCH   6  18
TORSDOF 1
ENDMDL
MODEL      134
REMARK 921   NORMALIZED FREE ENERGY PREDICTED BY IDOCK:   -2.72 KCAL/MOL
REMARK 922        TOTAL FREE ENERGY PREDICTED BY IDOCK:   -3.29 KCAL/MOL
REMARK 923 INTER-LIGAND FREE ENERGY PREDICTED BY IDOCK:   -2.87 KCAL/MOL
REMARK 924 INTRA-LIGAND FREE ENERGY PREDICTED BY IDOCK:   -0.42 KCAL/MOL
REMARK 927      BINDING AFFINITY PREDICTED BY RF-SCORE:    0.00 PKD
ROOT
HETATM    1  O   UNL     1      -9.690   7.894  67.403  1.00  0.00    -0.144 OA 
HETATM    2  H   UNL     1      -9.986   7.579  66.558  1.00  0.00     0.000 HD 
HETATM    3  C   UNL     1      -9.260   6.821  68.212  1.00  0.00    -0.122 C  
HETATM    4  N   UNL     1      -8.807   7.306  69.508  1.00  0.00    -0.137 NA 
HETATM    5  H   UNL     1      -8.615   8.298  69.651  1.00  0.00     0.000 HD 
HETATM    6  C   UNL     1      -8.651   6.464  70.475  1.00  0.00    -0.143 C  
HETATM    7  C   UNL     1      -9.597   4.375  71.432  1.00  0.00    -0.234 A  
HETATM    8  C   UNL     1      -8.920   4.997  70.370  1.00  0.00    -0.159 A  
HETATM    9 CL   UNL     1     -10.551   2.236  72.766  1.00  0.00    -0.232 Cl 
HETATM   10  C   UNL     1      -8.446   4.226  69.293  1.00  0.00    -0.073 A  
HETATM   11  C   UNL     1      -8.574   2.831  69.343  1.00  0.00    -0.115 A  
HETATM   12  O   UNL     1      -7.460   6.338  66.582  1.00  0.00    -0.086 OA 
HETATM   13  N   UNL     1      -7.841   4.761  68.143  1.00  0.00    -0.082 N  
HETATM   14  C   UNL     1      -9.230   2.216  70.414  1.00  0.00    -0.186 A  
HETATM   15  C   UNL     1      -9.747   2.992  71.447  1.00  0.00    -0.148 A  
HETATM   16  C   UNL     1      -8.094   5.996  67.583  1.00  0.00    -0.106 C  
HETATM   17  H   UNL     1      -7.146   4.179  67.676  1.00  0.00     0.000 HD 
ENDROOT
BRANCH   6  18
HETATM   18  C   UNL     1      -8.167   7.020  71.784  1.00  0.00    -0.103 A  
HETATM   19  C   UNL     1      -6.403   7.460  73.390  1.00  0.00    -0.064 A  
HETATM   20  C   UNL     1      -8.665   8.163  73.866  1.00  0.00    -0.259 A  
HETATM   21  C   UNL     1      -9.084   7.646  72.639  1.00  0.00    -0.209 A  
HETATM   22  C   UNL     1      -7.326   8.062  74.243  1.00  0.00    -0.213 A  
HETATM   23  C   UNL     1      -6.818   6.950  72.158  1.00  0.00    -0.058 A  
ENDBRANCH   6  18
TORSDOF 1
ENDMDL
MODEL      135
REMARK 921   NORMALIZED FREE ENERGY PREDICTED BY IDOCK:   -2.21 KCAL/MOL
REMARK 922        TOTAL FREE ENERGY PREDICTED BY IDOCK:   -2.75 KCAL/MOL
REMARK 923 INTER-LIGAND FREE ENERGY PREDICTED BY IDOCK:   -2.80 KCAL/MOL
REMARK 924 INTRA-LIGAND FREE ENERGY PREDICTED BY IDOCK:    0.05 KCAL/MOL
REMARK 927      BINDING AFFINITY PREDICTED BY RF-SCORE:    0.00 PKD
ROOT
HETATM    1  O   UNL     1     -11.620  14.205  65.644  1.00  0.00    -0.325 OA 
HETATM    2  H   UNL     1     -12.217  13.510  65.391  1.00  0.00     0.000 HD 
HETATM    3  C   UNL     1     -10.364  13.674  66.006  1.00  0.00    -0.304 C  
HETATM    4  N   UNL     1      -9.450  14.738  66.394  1.00  0.00    -0.287 NA 
HETATM    5  H   UNL     1      -9.665  15.710  66.171  1.00  0.00     0.000 HD 
HETATM    6  C   UNL     1      -8.364  14.436  67.024  1.00  0.00    -0.145 C  
HETATM    7  C   UNL     1      -7.441  12.845  68.695  1.00  0.00    -0.092 A  
HETATM    8  C   UNL     1      -7.969  13.046  67.409  1.00  0.00    -0.173 A  
HETATM    9 CL   UNL     1      -6.257  11.372  70.617  1.00  0.00     0.016 Cl 
HETATM   10  C   UNL     1      -8.034  11.973  66.503  1.00  0.00     0.094 A  
HETATM   11  C   UNL     1      -7.481  10.737  66.866  1.00  0.00    -0.120 A  
HETATM   12  O   UNL     1     -10.076  12.830  63.696  1.00  0.00    -0.378 OA 
HETATM   13  N   UNL     1      -8.628  12.047  65.231  1.00  0.00     0.071 N  
HETATM   14  C   UNL     1      -6.938  10.550  68.140  1.00  0.00    -0.073 A  
HETATM   15  C   UNL     1      -6.929  11.602  69.051  1.00  0.00    -0.111 A  
HETATM   16  C   UNL     1      -9.681  12.858  64.864  1.00  0.00     0.096 C  
HETATM   17  H   UNL     1      -8.241  11.442  64.507  1.00  0.00     0.000 HD 
ENDROOT
BRANCH   6  18
HETATM   18  C   UNL     1      -7.453  15.575  67.386  1.00  0.00    -0.235 A  
HETATM   19  C   UNL     1      -7.032  17.937  67.738  1.00  0.00    -0.202 A  
HETATM   20  C   UNL     1      -5.250  16.339  68.056  1.00  0.00    -0.118 A  
HETATM   21  C   UNL     1      -6.121  15.300  67.725  1.00  0.00    -0.169 A  
HETATM   22  C   UNL     1      -5.704  17.657  68.054  1.00  0.00    -0.150 A  
HETATM   23  C   UNL     1      -7.910  16.900  67.417  1.00  0.00    -0.192 A  
ENDBRANCH   6  18
TORSDOF 1
ENDMDL
MODEL      136
REMARK 921   NORMALIZED FREE ENERGY PREDICTED BY IDOCK:    0.09 KCAL/MOL
REMARK 922        TOTAL FREE ENERGY PREDICTED BY IDOCK:   -0.32 KCAL/MOL
REMARK 923 INTER-LIGAND FREE ENERGY PREDICTED BY IDOCK:    0.16 KCAL/MOL
REMARK 924 INTRA-LIGAND FREE ENERGY PREDICTED BY IDOCK:   -0.48 KCAL/MOL
REMARK 927      BINDING AFFINITY PREDICTED BY RF-SCORE:    0.00 PKD
ROOT
HETATM    1  O   UNL     1      -5.128  15.020  66.462  1.00  0.00     1.295 OA 
HETATM    2  H   UNL     1      -4.240  15.117  66.139  1.00  0.00     0.000 HD 
HETATM    3  C   UNL     1      -5.580  16.225  67.041  1.00  0.00     0.060 C  
HETATM    4  N   UNL     1      -6.941  16.076  67.536  1.00  0.00    -0.158 NA 
HETATM    5  H   UNL     1      -7.511  15.281  67.248  1.00  0.00     0.000 HD 
HETATM    6  C   UNL     1      -7.416  16.963  68.344  1.00  0.00    -0.206 C  
HETATM    7  C   UNL     1      -6.761  18.485  70.197  1.00  0.00     0.437 A  
HETATM    8  C   UNL     1      -6.656  18.153  68.836  1.00  0.00    -0.243 A  
HETATM    9 CL   UNL     1      -6.348  20.073  72.335  1.00  0.00     0.360 Cl 
HETATM   10  C   UNL     1      -5.920  18.980  67.968  1.00  0.00    -0.203 A  
HETATM   11  C   UNL     1      -5.380  20.178  68.459  1.00  0.00    -0.239 A  
HETATM   12  O   UNL     1      -5.377  17.338  64.839  1.00  0.00     0.559 OA 
HETATM   13  N   UNL     1      -5.677  18.688  66.615  1.00  0.00    -0.149 N  
HETATM   14  C   UNL     1      -5.507  20.512  69.810  1.00  0.00    -0.372 A  
HETATM   15  C   UNL     1      -6.188  19.659  70.674  1.00  0.00    -0.108 A  
HETATM   16  C   UNL     1      -5.566  17.434  66.054  1.00  0.00    -0.055 C  
HETATM   17  H   UNL     1      -5.572  19.483  65.985  1.00  0.00     0.000 HD 
ENDROOT
BRANCH   6  18
HETATM   18  C   UNL     1      -8.831  16.765  68.810  1.00  0.00    -0.258 A  
HETATM   19  C   UNL     1     -10.503  15.566  70.094  1.00  0.00    -0.317 A  
HETATM   20  C   UNL     1     -11.148  17.484  68.776  1.00  0.00     0.344 A  
HETATM   21  C   UNL     1      -9.824  17.650  68.367  1.00  0.00    -0.334 A  
HETATM   22  C   UNL     1     -11.487  16.437  69.632  1.00  0.00    -0.112 A  
HETATM   23  C   UNL     1      -9.175  15.734  69.695  1.00  0.00    -0.144 A  
ENDBRANCH   6  18
TORSDOF 1
ENDMDL
MODEL      137
REMARK 921   NORMALIZED FREE ENERGY PREDICTED BY IDOCK:    0.89 KCAL/MOL
REMARK 922        TOTAL FREE ENERGY PREDICTED BY IDOCK:    0.53 KCAL/MOL
REMARK 923 INTER-LIGAND FREE ENERGY PREDICTED BY IDOCK:    1.00 KCAL/MOL
REMARK 924 INTRA-LIGAND FREE ENERGY PREDICTED BY IDOCK:   -0.47 KCAL/MOL
REMARK 927      BINDING AFFINITY PREDICTED BY RF-SCORE:    0.00 PKD
ROOT
HETATM    1  O   UNL     1      -5.894  13.729  68.740  1.00  0.00    -0.078 OA 
HETATM    2  H   UNL     1      -5.775  14.077  69.616  1.00  0.00     0.000 HD 
HETATM    3  C   UNL     1      -6.359  12.398  68.792  1.00  0.00    -0.078 C  
HETATM    4  N   UNL     1      -6.540  11.866  67.450  1.00  0.00    -0.110 NA 
HETATM    5  H   UNL     1      -6.557  12.491  66.644  1.00  0.00     0.000 HD 
HETATM    6  C   UNL     1      -6.679  10.592  67.292  1.00  0.00    -0.077 C  
HETATM    7  C   UNL     1      -5.930   8.406  68.208  1.00  0.00    -0.046 A  
HETATM    8  C   UNL     1      -6.653   9.594  68.406  1.00  0.00    -0.053 A  
HETATM    9 CL   UNL     1      -5.128   5.925  68.890  1.00  0.00    -0.003 Cl 
HETATM   10  C   UNL     1      -7.389   9.778  69.590  1.00  0.00    -0.103 A  
HETATM   11  C   UNL     1      -7.467   8.727  70.516  1.00  0.00    -0.075 A  
HETATM   12  O   UNL     1      -8.428  13.184  69.901  1.00  0.00     1.889 OA 
HETATM   13  N   UNL     1      -8.067  10.963  69.925  1.00  0.00    -0.208 N  
HETATM   14  C   UNL     1      -6.763   7.539  70.302  1.00  0.00    -0.047 A  
HETATM   15  C   UNL     1      -5.991   7.388  69.155  1.00  0.00    -0.030 A  
HETATM   16  C   UNL     1      -7.714  12.242  69.550  1.00  0.00     0.774 C  
HETATM   17  H   UNL     1      -8.902  10.867  70.502  1.00  0.00     0.000 HD 
ENDROOT
BRANCH   6  18
HETATM   18  C   UNL     1      -6.878  10.102  65.886  1.00  0.00    -0.115 A  
HETATM   19  C   UNL     1      -6.095   9.774  63.614  1.00  0.00    -0.114 A  
HETATM   20  C   UNL     1      -8.305   9.029  64.243  1.00  0.00    -0.179 A  
HETATM   21  C   UNL     1      -8.090   9.485  65.544  1.00  0.00    -0.116 A  
HETATM   22  C   UNL     1      -7.311   9.181  63.277  1.00  0.00    -0.096 A  
HETATM   23  C   UNL     1      -5.872  10.222  64.917  1.00  0.00    -0.135 A  
ENDBRANCH   6  18
TORSDOF 1
ENDMDL
MODEL      138
REMARK 921   NORMALIZED FREE ENERGY PREDICTED BY IDOCK:    1.40 KCAL/MOL
REMARK 922        TOTAL FREE ENERGY PREDICTED BY IDOCK:    1.07 KCAL/MOL
REMARK 923 INTER-LIGAND FREE ENERGY PREDICTED BY IDOCK:    1.52 KCAL/MOL
REMARK 924 INTRA-LIGAND FREE ENERGY PREDICTED BY IDOCK:   -0.45 KCAL/MOL
REMARK 927      BINDING AFFINITY PREDICTED BY RF-SCORE:    0.00 PKD
ROOT
HETATM    1  O   UNL     1      -5.132  15.056  67.025  1.00  0.00     0.013 OA 
HETATM    2  H   UNL     1      -4.364  15.585  67.201  1.00  0.00     0.000 HD 
HETATM    3  C   UNL     1      -6.287  15.863  66.953  1.00  0.00     0.271 C  
HETATM    4  N   UNL     1      -7.464  15.051  66.684  1.00  0.00    -0.212 NA 
HETATM    5  H   UNL     1      -7.365  14.091  66.355  1.00  0.00     0.000 HD 
HETATM    6  C   UNL     1      -8.636  15.562  66.867  1.00  0.00    -0.256 C  
HETATM    7  C   UNL     1      -9.885  17.138  68.327  1.00  0.00    -0.288 A  
HETATM    8  C   UNL     1      -8.885  16.952  67.359  1.00  0.00    -0.212 A  
HETATM    9 CL   UNL     1     -11.498  18.642  69.877  1.00  0.00     4.116 Cl 
HETATM   10  C   UNL     1      -8.211  18.065  66.826  1.00  0.00    -0.251 A  
HETATM   11  C   UNL     1      -8.617  19.354  67.200  1.00  0.00    -0.325 A  
HETATM   12  O   UNL     1      -5.332  17.018  64.981  1.00  0.00     0.964 OA 
HETATM   13  N   UNL     1      -7.134  17.982  65.925  1.00  0.00    -0.287 N  
HETATM   14  C   UNL     1      -9.628  19.532  68.148  1.00  0.00    -0.457 A  
HETATM   15  C   UNL     1     -10.251  18.423  68.714  1.00  0.00    -0.302 A  
HETATM   16  C   UNL     1      -6.209  16.963  65.848  1.00  0.00     0.850 C  
HETATM   17  H   UNL     1      -7.028  18.750  65.264  1.00  0.00     0.000 HD 
ENDROOT
BRANCH   6  18
HETATM   18  C   UNL     1      -9.814  14.682  66.558  1.00  0.00    -0.288 A  
HETATM   19  C   UNL     1     -11.657  14.013  65.131  1.00  0.00    -0.344 A  
HETATM   20  C   UNL     1     -11.255  12.840  67.203  1.00  0.00    -0.336 A  
HETATM   21  C   UNL     1     -10.160  13.666  67.460  1.00  0.00    -0.237 A  
HETATM   22  C   UNL     1     -12.007  13.020  66.043  1.00  0.00    -0.498 A  
HETATM   23  C   UNL     1     -10.557  14.836  65.379  1.00  0.00    -0.395 A  
ENDBRANCH   6  18
TORSDOF 1
ENDMDL
MODEL      139
REMARK 921   NORMALIZED FREE ENERGY PREDICTED BY IDOCK:    4.47 KCAL/MOL
REMARK 922        TOTAL FREE ENERGY PREDICTED BY IDOCK:    4.33 KCAL/MOL
REMARK 923 INTER-LIGAND FREE ENERGY PREDICTED BY IDOCK:    4.77 KCAL/MOL
REMARK 924 INTRA-LIGAND FREE ENERGY PREDICTED BY IDOCK:   -0.44 KCAL/MOL
REMARK 927      BINDING AFFINITY PREDICTED BY RF-SCORE:    0.00 PKD
ROOT
HETATM    1  O   UNL     1     -13.842  12.533  73.505  1.00  0.00     1.590 OA 
HETATM    2  H   UNL     1     -14.259  13.387  73.522  1.00  0.00     0.000 HD 
HETATM    3  C   UNL     1     -12.968  12.430  72.402  1.00  0.00     0.153 C  
HETATM    4  N   UNL     1     -12.329  11.121  72.375  1.00  0.00     1.014 NA 
HETATM    5  H   UNL     1     -12.357  10.517  73.196  1.00  0.00     0.000 HD 
HETATM    6  C   UNL     1     -11.728  10.737  71.299  1.00  0.00     0.067 C  
HETATM    7  C   UNL     1     -11.853  10.879  68.821  1.00  0.00    -0.305 A  
HETATM    8  C   UNL     1     -11.646  11.542  70.042  1.00  0.00    -0.364 A  
HETATM    9 CL   UNL     1     -11.875  10.723  66.131  1.00  0.00     1.305 Cl 
HETATM   10  C   UNL     1     -11.292  12.903  70.049  1.00  0.00     0.127 A  
HETATM   11  C   UNL     1     -11.057  13.555  68.830  1.00  0.00    -0.298 A  
HETATM   12  O   UNL     1     -11.587  14.255  73.346  1.00  0.00     0.586 OA 
HETATM   13  N   UNL     1     -11.155  13.679  71.214  1.00  0.00     1.366 N  
HETATM   14  C   UNL     1     -11.243  12.883  67.619  1.00  0.00    -0.317 A  
HETATM   15  C   UNL     1     -11.650  11.552  67.621  1.00  0.00    -0.247 A  
HETATM   16  C   UNL     1     -11.838  13.507  72.398  1.00  0.00     1.853 C  
HETATM   17  H   UNL     1     -10.483  14.445  71.179  1.00  0.00     0.000 HD 
ENDROOT
BRANCH   6  18
HETATM   18  C   UNL     1     -11.075   9.384  71.336  1.00  0.00    -0.450 A  
HETATM   19  C   UNL     1      -9.135   7.949  71.093  1.00  0.00    -0.160 A  
HETATM   20  C   UNL     1     -11.268   6.994  71.705  1.00  0.00    -0.276 A  
HETATM   21  C   UNL     1     -11.846   8.264  71.672  1.00  0.00    -0.345 A  
HETATM   22  C   UNL     1      -9.915   6.837  71.407  1.00  0.00    -0.191 A  
HETATM   23  C   UNL     1      -9.708   9.222  71.069  1.00  0.00    -0.341 A  
ENDBRANCH   6  18
TORSDOF 1
ENDMDL
MODEL      140
REMARK 921   NORMALIZED FREE ENERGY PREDICTED BY IDOCK:   13.95 KCAL/MOL
REMARK 922        TOTAL FREE ENERGY PREDICTED BY IDOCK:   14.36 KCAL/MOL
REMARK 923 INTER-LIGAND FREE ENERGY PREDICTED BY IDOCK:   14.11 KCAL/MOL
REMARK 924 INTRA-LIGAND FREE ENERGY PREDICTED BY IDOCK:    0.25 KCAL/MOL
REMARK 927      BINDING AFFINITY PREDICTED BY RF-SCORE:    0.00 PKD
ROOT
HETATM    1  O   UNL     1      -7.811  15.958  64.654  1.00  0.00     5.239 OA 
HETATM    2  H   UNL     1      -7.871  16.587  63.945  1.00  0.00     0.000 HD 
HETATM    3  C   UNL     1      -7.944  16.602  65.902  1.00  0.00     0.237 C  
HETATM    4  N   UNL     1      -7.851  15.638  66.989  1.00  0.00    -0.220 NA 
HETATM    5  H   UNL     1      -7.934  14.639  66.802  1.00  0.00     0.000 HD 
HETATM    6  C   UNL     1      -7.662  16.064  68.193  1.00  0.00    -0.133 C  
HETATM    7  C   UNL     1      -6.508  17.844  69.488  1.00  0.00    -0.190 A  
HETATM    8  C   UNL     1      -7.512  17.504  68.567  1.00  0.00    -0.264 A  
HETATM    9 CL   UNL     1      -5.206  19.544  71.125  1.00  0.00    -0.262 Cl 
HETATM   10  C   UNL     1      -8.390  18.494  68.090  1.00  0.00    -0.296 A  
HETATM   11  C   UNL     1      -8.309  19.791  68.618  1.00  0.00    -0.229 A  
HETATM   12  O   UNL     1     -10.246  17.276  65.288  1.00  0.00    -0.563 OA 
HETATM   13  N   UNL     1      -9.364  18.278  67.100  1.00  0.00    -0.259 N  
HETATM   14  C   UNL     1      -7.320  20.116  69.551  1.00  0.00     0.097 A  
HETATM   15  C   UNL     1      -6.419  19.144  69.974  1.00  0.00    -0.069 A  
HETATM   16  C   UNL     1      -9.293  17.369  66.066  1.00  0.00    -0.072 C  
HETATM   17  H   UNL     1     -10.207  18.849  67.153  1.00  0.00     0.000 HD 
ENDROOT
BRANCH   6  18
HETATM   18  C   UNL     1      -7.589  15.024  69.275  1.00  0.00    -0.187 A  
HETATM   19  C   UNL     1      -8.448  13.051  70.394  1.00  0.00     5.091 A  
HETATM   20  C   UNL     1      -6.450  14.126  71.220  1.00  0.00     0.488 A  
HETATM   21  C   UNL     1      -6.536  15.074  70.199  1.00  0.00    -0.116 A  
HETATM   22  C   UNL     1      -7.410  13.121  71.321  1.00  0.00     5.283 A  
HETATM   23  C   UNL     1      -8.533  13.991  69.365  1.00  0.00     0.537 A  
ENDBRANCH   6  18
TORSDOF 1
ENDMDL
MODEL      141
REMARK 921   NORMALIZED FREE ENERGY PREDICTED BY IDOCK:   21.72 KCAL/MOL
REMARK 922        TOTAL FREE ENERGY PREDICTED BY IDOCK:   22.58 KCAL/MOL
REMARK 923 INTER-LIGAND FREE ENERGY PREDICTED BY IDOCK:   23.06 KCAL/MOL
REMARK 924 INTRA-LIGAND FREE ENERGY PREDICTED BY IDOCK:   -0.48 KCAL/MOL
REMARK 927      BINDING AFFINITY PREDICTED BY RF-SCORE:    0.00 PKD
ROOT
HETATM    1  O   UNL     1      -8.453  14.311  71.820  1.00  0.00     4.109 OA 
HETATM    2  H   UNL     1      -9.011  14.395  72.584  1.00  0.00     0.000 HD 
HETATM    3  C   UNL     1      -9.117  13.603  70.796  1.00  0.00     5.977 C  
HETATM    4  N   UNL     1      -8.261  13.473  69.625  1.00  0.00     0.461 NA 
HETATM    5  H   UNL     1      -7.424  14.047  69.531  1.00  0.00     0.000 HD 
HETATM    6  C   UNL     1      -8.576  12.621  68.708  1.00  0.00     0.178 C  
HETATM    7  C   UNL     1      -9.607  10.384  68.375  1.00  0.00    -0.153 A  
HETATM    8  C   UNL     1      -9.772  11.724  68.761  1.00  0.00    -0.079 A  
HETATM    9 CL   UNL     1     -10.506   7.916  67.769  1.00  0.00    -0.286 Cl 
HETATM   10  C   UNL     1     -11.050  12.203  69.102  1.00  0.00    -0.205 A  
HETATM   11  C   UNL     1     -12.158  11.356  68.958  1.00  0.00    -0.316 A  
HETATM   12  O   UNL     1     -10.807  15.407  70.669  1.00  0.00    -0.319 OA 
HETATM   13  N   UNL     1     -11.306  13.496  69.589  1.00  0.00    -0.449 N  
HETATM   14  C   UNL     1     -11.988  10.029  68.552  1.00  0.00     0.810 A  
HETATM   15  C   UNL     1     -10.713   9.547  68.272  1.00  0.00    -0.194 A  
HETATM   16  C   UNL     1     -10.448  14.275  70.336  1.00  0.00     0.907 C  
HETATM   17  H   UNL     1     -12.216  13.899  69.368  1.00  0.00     0.000 HD 
ENDROOT
BRANCH   6  18
HETATM   18  C   UNL     1      -7.664  12.542  67.516  1.00  0.00    -0.165 A  
HETATM   19  C   UNL     1      -7.222  12.834  65.149  1.00  0.00     6.671 A  
HETATM   20  C   UNL     1      -5.485  11.994  66.602  1.00  0.00     0.116 A  
HETATM   21  C   UNL     1      -6.351  12.086  67.693  1.00  0.00    -0.099 A  
HETATM   22  C   UNL     1      -5.924  12.360  65.330  1.00  0.00     5.189 A  
HETATM   23  C   UNL     1      -8.088  12.938  66.240  1.00  0.00     0.906 A  
ENDBRANCH   6  18
TORSDOF 1
ENDMDL
MODEL      142
REMARK 921   NORMALIZED FREE ENERGY PREDICTED BY IDOCK:   21.92 KCAL/MOL
REMARK 922        TOTAL FREE ENERGY PREDICTED BY IDOCK:   22.79 KCAL/MOL
REMARK 923 INTER-LIGAND FREE ENERGY PREDICTED BY IDOCK:   23.19 KCAL/MOL
REMARK 924 INTRA-LIGAND FREE ENERGY PREDICTED BY IDOCK:   -0.41 KCAL/MOL
REMARK 927      BINDING AFFINITY PREDICTED BY RF-SCORE:    0.00 PKD
ROOT
HETATM    1  O   UNL     1      -9.760  12.684  71.256  1.00  0.00     8.342 OA 
HETATM    2  H   UNL     1     -10.539  12.880  71.762  1.00  0.00     0.000 HD 
HETATM    3  C   UNL     1     -10.094  11.975  70.083  1.00  0.00     2.488 C  
HETATM    4  N   UNL     1      -8.898  11.673  69.309  1.00  0.00    -0.213 NA 
HETATM    5  H   UNL     1      -8.019  12.151  69.508  1.00  0.00     0.000 HD 
HETATM    6  C   UNL     1      -8.965  10.793  68.366  1.00  0.00    -0.153 C  
HETATM    7  C   UNL     1     -10.071   8.655  67.750  1.00  0.00    -0.266 A  
HETATM    8  C   UNL     1     -10.200  10.030  68.008  1.00  0.00    -0.216 A  
HETATM    9 CL   UNL     1     -10.986   6.254  66.935  1.00  0.00    -0.437 Cl 
HETATM   10  C   UNL     1     -11.447  10.659  67.846  1.00  0.00    -0.181 A  
HETATM   11  C   UNL     1     -12.524   9.922  67.334  1.00  0.00     6.204 A  
HETATM   12  O   UNL     1     -11.394  13.928  69.294  1.00  0.00    -0.253 OA 
HETATM   13  N   UNL     1     -11.701  12.005  68.166  1.00  0.00    -0.336 N  
HETATM   14  C   UNL     1     -12.383   8.559  67.059  1.00  0.00     8.472 A  
HETATM   15  C   UNL     1     -11.161   7.930  67.277  1.00  0.00     0.304 A  
HETATM   16  C   UNL     1     -11.080  12.744  69.150  1.00  0.00    -0.189 C  
HETATM   17  H   UNL     1     -12.416  12.480  67.617  1.00  0.00     0.000 HD 
ENDROOT
BRANCH   6  18
HETATM   18  C   UNL     1      -7.704  10.536  67.591  1.00  0.00    -0.097 A  
HETATM   19  C   UNL     1      -6.286  10.882  65.654  1.00  0.00    -0.019 A  
HETATM   20  C   UNL     1      -5.562   9.407  67.425  1.00  0.00    -0.041 A  
HETATM   21  C   UNL     1      -6.739   9.673  68.128  1.00  0.00    -0.062 A  
HETATM   22  C   UNL     1      -5.341  10.006  66.185  1.00  0.00    -0.049 A  
HETATM   23  C   UNL     1      -7.459  11.158  66.358  1.00  0.00    -0.103 A  
ENDBRANCH   6  18
TORSDOF 1
ENDMDL
MODEL      143
REMARK 921   NORMALIZED FREE ENERGY PREDICTED BY IDOCK:   32.12 KCAL/MOL
REMARK 922        TOTAL FREE ENERGY PREDICTED BY IDOCK:   33.59 KCAL/MOL
REMARK 923 INTER-LIGAND FREE ENERGY PREDICTED BY IDOCK:   33.95 KCAL/MOL
REMARK 924 INTRA-LIGAND FREE ENERGY PREDICTED BY IDOCK:   -0.36 KCAL/MOL
REMARK 927      BINDING AFFINITY PREDICTED BY RF-SCORE:    0.00 PKD
ROOT
HETATM    1  O   UNL     1      -7.070  16.668  72.064  1.00  0.00     5.952 OA 
HETATM    2  H   UNL     1      -6.522  16.042  72.522  1.00  0.00     0.000 HD 
HETATM    3  C   UNL     1      -7.341  16.225  70.752  1.00  0.00     2.698 C  
HETATM    4  N   UNL     1      -8.181  17.186  70.051  1.00  0.00     1.570 NA 
HETATM    5  H   UNL     1      -8.671  17.917  70.566  1.00  0.00     0.000 HD 
HETATM    6  C   UNL     1      -8.296  17.101  68.768  1.00  0.00    -0.236 C  
HETATM    7  C   UNL     1      -7.025  16.504  66.717  1.00  0.00    -0.241 A  
HETATM    8  C   UNL     1      -7.606  16.078  67.923  1.00  0.00    -0.144 A  
HETATM    9 CL   UNL     1      -5.815  16.099  64.343  1.00  0.00    10.129 Cl 
HETATM   10  C   UNL     1      -7.599  14.713  68.260  1.00  0.00    -0.118 A  
HETATM   11  C   UNL     1      -7.095  13.784  67.339  1.00  0.00    -0.093 A  
HETATM   12  O   UNL     1      -8.536  14.266  71.681  1.00  0.00     4.452 OA 
HETATM   13  N   UNL     1      -8.068  14.197  69.480  1.00  0.00    -0.248 N  
HETATM   14  C   UNL     1      -6.537  14.213  66.131  1.00  0.00     5.230 A  
HETATM   15  C   UNL     1      -6.497  15.571  65.830  1.00  0.00     4.930 A  
HETATM   16  C   UNL     1      -8.061  14.842  70.699  1.00  0.00     1.748 C  
HETATM   17  H   UNL     1      -8.453  13.253  69.463  1.00  0.00     0.000 HD 
ENDROOT
BRANCH   6  18
HETATM   18  C   UNL     1      -9.187  18.110  68.100  1.00  0.00    -0.298 A  
HETATM   19  C   UNL     1     -10.941  18.694  66.530  1.00  0.00     0.056 A  
HETATM   20  C   UNL     1      -9.887  20.420  67.851  1.00  0.00    -0.433 A  
HETATM   21  C   UNL     1      -9.078  19.460  68.461  1.00  0.00    -0.426 A  
HETATM   22  C   UNL     1     -10.812  20.037  66.880  1.00  0.00    -0.241 A  
HETATM   23  C   UNL     1     -10.141  17.730  67.146  1.00  0.00    -0.338 A  
ENDBRANCH   6  18
TORSDOF 1
ENDMDL
MODEL      144
REMARK 921   NORMALIZED FREE ENERGY PREDICTED BY IDOCK:   34.92 KCAL/MOL
REMARK 922        TOTAL FREE ENERGY PREDICTED BY IDOCK:   36.55 KCAL/MOL
REMARK 923 INTER-LIGAND FREE ENERGY PREDICTED BY IDOCK:   36.93 KCAL/MOL
REMARK 924 INTRA-LIGAND FREE ENERGY PREDICTED BY IDOCK:   -0.39 KCAL/MOL
REMARK 927      BINDING AFFINITY PREDICTED BY RF-SCORE:    0.00 PKD
ROOT
HETATM    1  O   UNL     1     -10.746  14.365  67.427  1.00  0.00    -0.274 OA 
HETATM    2  H   UNL     1     -11.071  13.611  67.905  1.00  0.00     0.000 HD 
HETATM    3  C   UNL     1     -10.120  15.277  68.303  1.00  0.00    -0.225 C  
HETATM    4  N   UNL     1      -9.623  16.432  67.569  1.00  0.00    -0.226 NA 
HETATM    5  H   UNL     1      -9.543  16.404  66.553  1.00  0.00     0.000 HD 
HETATM    6  C   UNL     1      -9.283  17.493  68.223  1.00  0.00    -0.277 C  
HETATM    7  C   UNL     1      -9.880  18.844  70.221  1.00  0.00     1.318 A  
HETATM    8  C   UNL     1      -9.376  17.637  69.708  1.00  0.00     1.018 A  
HETATM    9 CL   UNL     1     -10.445  20.575  72.208  1.00  0.00     4.431 Cl 
HETATM   10  C   UNL     1      -8.904  16.646  70.586  1.00  0.00     3.715 A  
HETATM   11  C   UNL     1      -8.854  16.917  71.961  1.00  0.00    12.185 A  
HETATM   12  O   UNL     1      -8.418  13.562  68.844  1.00  0.00     0.017 OA 
HETATM   13  N   UNL     1      -8.469  15.372  70.180  1.00  0.00     0.001 N  
HETATM   14  C   UNL     1      -9.336  18.129  72.462  1.00  0.00    11.672 A  
HETATM   15  C   UNL     1      -9.855  19.082  71.591  1.00  0.00     4.247 A  
HETATM   16  C   UNL     1      -8.919  14.662  69.087  1.00  0.00    -0.025 C  
HETATM   17  H   UNL     1      -7.749  14.929  70.751  1.00  0.00     0.000 HD 
ENDROOT
BRANCH   6  18
HETATM   18  C   UNL     1      -8.762  18.647  67.414  1.00  0.00    -0.281 A  
HETATM   19  C   UNL     1      -6.937  19.938  66.475  1.00  0.00    -0.250 A  
HETATM   20  C   UNL     1      -9.219  20.618  66.075  1.00  0.00     0.214 A  
HETATM   21  C   UNL     1      -9.675  19.532  66.823  1.00  0.00    -0.464 A  
HETATM   22  C   UNL     1      -7.851  20.825  65.908  1.00  0.00     0.371 A  
HETATM   23  C   UNL     1      -7.388  18.845  67.216  1.00  0.00    -0.234 A  
ENDBRANCH   6  18
TORSDOF 1
ENDMDL
MODEL      145
REMARK 921   NORMALIZED FREE ENERGY PREDICTED BY IDOCK:   57.89 KCAL/MOL
REMARK 922        TOTAL FREE ENERGY PREDICTED BY IDOCK:   60.87 KCAL/MOL
REMARK 923 INTER-LIGAND FREE ENERGY PREDICTED BY IDOCK:   60.59 KCAL/MOL
REMARK 924 INTRA-LIGAND FREE ENERGY PREDICTED BY IDOCK:    0.27 KCAL/MOL
REMARK 927      BINDING AFFINITY PREDICTED BY RF-SCORE:    0.00 PKD
ROOT
HETATM    1  O   UNL     1      -7.122  16.046  69.449  1.00  0.00    -0.209 OA 
HETATM    2  H   UNL     1      -6.499  16.687  69.128  1.00  0.00     0.000 HD 
HETATM    3  C   UNL     1      -8.441  16.532  69.328  1.00  0.00    -0.056 C  
HETATM    4  N   UNL     1      -9.396  15.549  69.820  1.00  0.00    -0.348 NA 
HETATM    5  H   UNL     1      -9.109  14.583  69.975  1.00  0.00     0.000 HD 
HETATM    6  C   UNL     1     -10.610  15.917  70.059  1.00  0.00    -0.316 C  
HETATM    7  C   UNL     1     -11.955  17.839  70.879  1.00  0.00     5.894 A  
HETATM    8  C   UNL     1     -11.123  17.310  69.879  1.00  0.00     0.757 A  
HETATM    9 CL   UNL     1     -13.612  19.699  71.909  1.00  0.00    25.936 Cl 
HETATM   10  C   UNL     1     -10.863  18.057  68.716  1.00  0.00     0.359 A  
HETATM   11  C   UNL     1     -11.519  19.283  68.530  1.00  0.00     1.945 A  
HETATM   12  O   UNL     1      -8.173  16.598  66.868  1.00  0.00    -0.174 OA 
HETATM   13  N   UNL     1      -9.973  17.660  67.703  1.00  0.00    -0.310 N  
HETATM   14  C   UNL     1     -12.363  19.793  69.520  1.00  0.00     9.832 A  
HETATM   15  C   UNL     1     -12.570  19.073  70.693  1.00  0.00    19.473 A  
HETATM   16  C   UNL     1      -8.842  16.887  67.863  1.00  0.00    -0.218 C  
HETATM   17  H   UNL     1     -10.185  17.974  66.756  1.00  0.00     0.000 HD 
ENDROOT
BRANCH   6  18
HETATM   18  C   UNL     1     -11.554  14.856  70.550  1.00  0.00    -0.336 A  
HETATM   19  C   UNL     1     -12.504  12.628  70.428  1.00  0.00    -0.219 A  
HETATM   20  C   UNL     1     -13.280  14.175  72.113  1.00  0.00    -0.510 A  
HETATM   21  C   UNL     1     -12.387  15.138  71.642  1.00  0.00    -0.415 A  
HETATM   22  C   UNL     1     -13.344  12.924  71.501  1.00  0.00    -0.260 A  
HETATM   23  C   UNL     1     -11.602  13.585  69.960  1.00  0.00    -0.234 A  
ENDBRANCH   6  18
TORSDOF 1
ENDMDL
