MODEL        1
REMARK 921   NORMALIZED FREE ENERGY PREDICTED BY IDOCK:   -6.84 KCAL/MOL
REMARK 922        TOTAL FREE ENERGY PREDICTED BY IDOCK:   -7.30 KCAL/MOL
REMARK 923 INTER-LIGAND FREE ENERGY PREDICTED BY IDOCK:   -7.24 KCAL/MOL
REMARK 924 INTRA-LIGAND FREE ENERGY PREDICTED BY IDOCK:   -0.06 KCAL/MOL
REMARK 927      BINDING AFFINITY PREDICTED BY RF-SCORE:    0.00 PKD
ROOT
HETATM    1  N   UNL     1      -8.893  15.340  69.828  1.00  0.00    -0.407 N  
HETATM    2  C   UNL     1     -10.162  15.794  69.580  1.00  0.00    -0.271 C  
HETATM    3  H1  UNL     1      -8.761  14.329  69.876  1.00  0.00     0.000 HD 
HETATM    4  H2  UNL     1      -8.114  15.985  69.960  1.00  0.00     0.000 HD 
HETATM    5  O   UNL     1     -10.321  17.009  69.523  1.00  0.00    -0.262 OA 
ENDROOT
BRANCH   2   6
HETATM    6  N   UNL     1     -11.107  14.790  69.308  1.00  0.00    -0.255 N  
HETATM    7  C   UNL     1     -12.105  14.454  70.274  1.00  0.00    -0.331 A  
HETATM    8  C   UNL     1     -12.883  15.465  70.861  1.00  0.00    -0.536 A  
HETATM    9  C   UNL     1     -13.847  15.154  71.820  1.00  0.00    -0.605 A  
HETATM   10  C   UNL     1     -14.030  13.831  72.214  1.00  0.00    -0.672 A  
HETATM   11  C   UNL     1     -13.252  12.822  71.647  1.00  0.00    -0.410 A  
HETATM   12  C   UNL     1     -12.284  13.130  70.683  1.00  0.00    -0.402 A  
HETATM   13  C   UNL     1     -11.433  12.062  70.071  1.00  0.00    -0.183 C  
HETATM   14  C   UNL     1     -11.824  11.838  68.638  1.00  0.00    -0.310 C  
HETATM   15  O   UNL     1     -12.186  10.722  68.264  1.00  0.00    -0.449 OA 
HETATM   16  C   UNL     1     -11.726  12.966  67.659  1.00  0.00    -0.422 A  
HETATM   17  C   UNL     1     -11.341  14.294  67.969  1.00  0.00    -0.294 A  
HETATM   18  C   UNL     1     -11.195  15.187  66.883  1.00  0.00    -0.292 A  
HETATM   19  C   UNL     1     -11.415  14.800  65.557  1.00  0.00    -0.329 A  
HETATM   20  C   UNL     1     -11.797  13.502  65.271  1.00  0.00    -0.373 A  
HETATM   21  C   UNL     1     -11.954  12.594  66.314  1.00  0.00    -0.439 A  
ENDBRANCH   2   6
TORSDOF 1
ENDMDL
MODEL        2
REMARK 921   NORMALIZED FREE ENERGY PREDICTED BY IDOCK:   -6.64 KCAL/MOL
REMARK 922        TOTAL FREE ENERGY PREDICTED BY IDOCK:   -7.09 KCAL/MOL
REMARK 923 INTER-LIGAND FREE ENERGY PREDICTED BY IDOCK:   -7.05 KCAL/MOL
REMARK 924 INTRA-LIGAND FREE ENERGY PREDICTED BY IDOCK:   -0.05 KCAL/MOL
REMARK 927      BINDING AFFINITY PREDICTED BY RF-SCORE:    0.00 PKD
ROOT
HETATM    1  N   UNL     1     -14.108   7.953  70.842  1.00  0.00    -0.543 N  
HETATM    2  C   UNL     1     -13.708   8.864  71.785  1.00  0.00    -0.422 C  
HETATM    3  H1  UNL     1     -13.570   7.910  69.977  1.00  0.00     0.000 HD 
HETATM    4  H2  UNL     1     -14.912   7.345  71.000  1.00  0.00     0.000 HD 
HETATM    5  O   UNL     1     -14.355   8.916  72.825  1.00  0.00    -0.600 OA 
ENDROOT
BRANCH   2   6
HETATM    6  N   UNL     1     -12.521   9.551  71.477  1.00  0.00    -0.351 N  
HETATM    7  C   UNL     1     -12.541  10.959  71.234  1.00  0.00    -0.421 A  
HETATM    8  C   UNL     1     -13.172  11.820  72.149  1.00  0.00    -0.342 A  
HETATM    9  C   UNL     1     -13.218  13.194  71.915  1.00  0.00    -0.526 A  
HETATM   10  C   UNL     1     -12.647  13.720  70.759  1.00  0.00    -0.410 A  
HETATM   11  C   UNL     1     -12.031  12.872  69.839  1.00  0.00    -0.377 A  
HETATM   12  C   UNL     1     -11.983  11.491  70.069  1.00  0.00    -0.435 A  
HETATM   13  C   UNL     1     -11.335  10.564  69.090  1.00  0.00    -0.319 C  
HETATM   14  C   UNL     1     -10.049  10.026  69.648  1.00  0.00    -0.236 C  
HETATM   15  O   UNL     1      -8.990  10.204  69.044  1.00  0.00    -0.146 OA 
HETATM   16  C   UNL     1     -10.068   9.233  70.918  1.00  0.00    -0.373 A  
HETATM   17  C   UNL     1     -11.214   8.976  71.711  1.00  0.00    -0.378 A  
HETATM   18  C   UNL     1     -11.047   8.106  72.811  1.00  0.00    -0.407 A  
HETATM   19  C   UNL     1      -9.818   7.515  73.123  1.00  0.00    -0.316 A  
HETATM   20  C   UNL     1      -8.706   7.782  72.344  1.00  0.00    -0.184 A  
HETATM   21  C   UNL     1      -8.831   8.636  71.253  1.00  0.00    -0.263 A  
ENDBRANCH   2   6
TORSDOF 1
ENDMDL
MODEL        3
REMARK 921   NORMALIZED FREE ENERGY PREDICTED BY IDOCK:   -6.49 KCAL/MOL
REMARK 922        TOTAL FREE ENERGY PREDICTED BY IDOCK:   -6.93 KCAL/MOL
REMARK 923 INTER-LIGAND FREE ENERGY PREDICTED BY IDOCK:   -6.87 KCAL/MOL
REMARK 924 INTRA-LIGAND FREE ENERGY PREDICTED BY IDOCK:   -0.06 KCAL/MOL
REMARK 927      BINDING AFFINITY PREDICTED BY RF-SCORE:    0.00 PKD
ROOT
HETATM    1  N   UNL     1      -9.909  11.427  68.971  1.00  0.00    -0.402 N  
HETATM    2  C   UNL     1     -11.143  11.861  68.562  1.00  0.00    -0.243 C  
HETATM    3  H1  UNL     1      -9.176  12.130  69.066  1.00  0.00     0.000 HD 
HETATM    4  H2  UNL     1      -9.732  10.443  69.171  1.00  0.00     0.000 HD 
HETATM    5  O   UNL     1     -12.025  11.017  68.448  1.00  0.00    -0.565 OA 
ENDROOT
BRANCH   2   6
HETATM    6  N   UNL     1     -11.267  13.255  68.434  1.00  0.00    -0.263 N  
HETATM    7  C   UNL     1     -11.424  13.853  67.146  1.00  0.00    -0.347 A  
HETATM    8  C   UNL     1     -12.405  13.370  66.263  1.00  0.00    -0.410 A  
HETATM    9  C   UNL     1     -12.556  13.929  64.994  1.00  0.00    -0.422 A  
HETATM   10  C   UNL     1     -11.720  14.967  64.590  1.00  0.00    -0.406 A  
HETATM   11  C   UNL     1     -10.735  15.444  65.454  1.00  0.00    -0.416 A  
HETATM   12  C   UNL     1     -10.579  14.885  66.729  1.00  0.00    -0.305 A  
HETATM   13  C   UNL     1      -9.522  15.376  67.667  1.00  0.00    -0.205 C  
HETATM   14  C   UNL     1     -10.143  16.132  68.807  1.00  0.00    -0.237 C  
HETATM   15  O   UNL     1      -9.822  17.303  69.019  1.00  0.00    -0.280 OA 
HETATM   16  C   UNL     1     -11.116  15.441  69.710  1.00  0.00    -0.295 A  
HETATM   17  C   UNL     1     -11.575  14.109  69.561  1.00  0.00    -0.295 A  
HETATM   18  C   UNL     1     -12.403  13.600  70.586  1.00  0.00    -0.440 A  
HETATM   19  C   UNL     1     -12.766  14.357  71.705  1.00  0.00    -0.419 A  
HETATM   20  C   UNL     1     -12.316  15.659  71.833  1.00  0.00    -0.502 A  
HETATM   21  C   UNL     1     -11.500  16.196  70.842  1.00  0.00    -0.421 A  
ENDBRANCH   2   6
TORSDOF 1
ENDMDL
MODEL        4
REMARK 921   NORMALIZED FREE ENERGY PREDICTED BY IDOCK:   -6.46 KCAL/MOL
REMARK 922        TOTAL FREE ENERGY PREDICTED BY IDOCK:   -6.90 KCAL/MOL
REMARK 923 INTER-LIGAND FREE ENERGY PREDICTED BY IDOCK:   -6.83 KCAL/MOL
REMARK 924 INTRA-LIGAND FREE ENERGY PREDICTED BY IDOCK:   -0.06 KCAL/MOL
REMARK 927      BINDING AFFINITY PREDICTED BY RF-SCORE:    0.00 PKD
ROOT
HETATM    1  N   UNL     1      -8.268  11.419  69.137  1.00  0.00    -0.376 N  
HETATM    2  C   UNL     1      -9.370  10.822  68.583  1.00  0.00    -0.184 C  
HETATM    3  H1  UNL     1      -8.410  12.309  69.614  1.00  0.00     0.000 HD 
HETATM    4  H2  UNL     1      -7.344  10.990  69.075  1.00  0.00     0.000 HD 
HETATM    5  O   UNL     1      -9.200   9.752  68.009  1.00  0.00    -0.125 OA 
ENDROOT
BRANCH   2   6
HETATM    6  N   UNL     1     -10.589  11.472  68.845  1.00  0.00    -0.213 N  
HETATM    7  C   UNL     1     -11.194  12.305  67.854  1.00  0.00    -0.274 A  
HETATM    8  C   UNL     1     -11.372  11.823  66.546  1.00  0.00    -0.370 A  
HETATM    9  C   UNL     1     -11.942  12.632  65.563  1.00  0.00    -0.509 A  
HETATM   10  C   UNL     1     -12.326  13.934  65.874  1.00  0.00    -0.517 A  
HETATM   11  C   UNL     1     -12.141  14.425  67.166  1.00  0.00    -0.367 A  
HETATM   12  C   UNL     1     -11.568  13.616  68.157  1.00  0.00    -0.367 A  
HETATM   13  C   UNL     1     -11.352  14.128  69.545  1.00  0.00    -0.308 C  
HETATM   14  C   UNL     1     -12.305  13.469  70.501  1.00  0.00    -0.342 C  
HETATM   15  O   UNL     1     -13.081  14.153  71.171  1.00  0.00    -0.337 OA 
HETATM   16  C   UNL     1     -12.275  11.981  70.669  1.00  0.00    -0.409 A  
HETATM   17  C   UNL     1     -11.444  11.089  69.947  1.00  0.00    -0.320 A  
HETATM   18  C   UNL     1     -11.478   9.730  70.335  1.00  0.00    -0.347 A  
HETATM   19  C   UNL     1     -12.285   9.266  71.378  1.00  0.00    -0.426 A  
HETATM   20  C   UNL     1     -13.097  10.149  72.069  1.00  0.00    -0.538 A  
HETATM   21  C   UNL     1     -13.093  11.494  71.715  1.00  0.00    -0.503 A  
ENDBRANCH   2   6
TORSDOF 1
ENDMDL
MODEL        5
REMARK 921   NORMALIZED FREE ENERGY PREDICTED BY IDOCK:   -6.43 KCAL/MOL
REMARK 922        TOTAL FREE ENERGY PREDICTED BY IDOCK:   -6.87 KCAL/MOL
REMARK 923 INTER-LIGAND FREE ENERGY PREDICTED BY IDOCK:   -6.82 KCAL/MOL
REMARK 924 INTRA-LIGAND FREE ENERGY PREDICTED BY IDOCK:   -0.06 KCAL/MOL
REMARK 927      BINDING AFFINITY PREDICTED BY RF-SCORE:    0.00 PKD
ROOT
HETATM    1  N   UNL     1      -9.085  10.974  69.285  1.00  0.00    -0.399 N  
HETATM    2  C   UNL     1     -10.331  10.915  68.717  1.00  0.00    -0.198 C  
HETATM    3  H1  UNL     1      -8.773  11.882  69.631  1.00  0.00     0.000 HD 
HETATM    4  H2  UNL     1      -8.495  10.145  69.358  1.00  0.00     0.000 HD 
HETATM    5  O   UNL     1     -10.707   9.825  68.300  1.00  0.00    -0.229 OA 
ENDROOT
BRANCH   2   6
HETATM    6  N   UNL     1     -11.071  12.108  68.789  1.00  0.00    -0.236 N  
HETATM    7  C   UNL     1     -11.352  12.859  67.606  1.00  0.00    -0.303 A  
HETATM    8  C   UNL     1     -11.901  12.218  66.482  1.00  0.00    -0.378 A  
HETATM    9  C   UNL     1     -12.162  12.934  65.314  1.00  0.00    -0.524 A  
HETATM   10  C   UNL     1     -11.863  14.292  65.252  1.00  0.00    -0.374 A  
HETATM   11  C   UNL     1     -11.305  14.933  66.357  1.00  0.00    -0.308 A  
HETATM   12  C   UNL     1     -11.041  14.219  67.533  1.00  0.00    -0.309 A  
HETATM   13  C   UNL     1     -10.434  14.887  68.726  1.00  0.00    -0.242 C  
HETATM   14  C   UNL     1     -11.448  15.016  69.827  1.00  0.00    -0.295 C  
HETATM   15  O   UNL     1     -11.729  16.127  70.281  1.00  0.00    -0.316 OA 
HETATM   16  C   UNL     1     -12.080  13.786  70.400  1.00  0.00    -0.421 A  
HETATM   17  C   UNL     1     -11.853  12.461  69.954  1.00  0.00    -0.305 A  
HETATM   18  C   UNL     1     -12.453  11.424  70.703  1.00  0.00    -0.419 A  
HETATM   19  C   UNL     1     -13.238  11.670  71.834  1.00  0.00    -0.475 A  
HETATM   20  C   UNL     1     -13.457  12.971  72.252  1.00  0.00    -0.645 A  
HETATM   21  C   UNL     1     -12.884  14.019  71.539  1.00  0.00    -0.440 A  
ENDBRANCH   2   6
TORSDOF 1
ENDMDL
MODEL        6
REMARK 921   NORMALIZED FREE ENERGY PREDICTED BY IDOCK:   -6.34 KCAL/MOL
REMARK 922        TOTAL FREE ENERGY PREDICTED BY IDOCK:   -6.78 KCAL/MOL
REMARK 923 INTER-LIGAND FREE ENERGY PREDICTED BY IDOCK:   -6.73 KCAL/MOL
REMARK 924 INTRA-LIGAND FREE ENERGY PREDICTED BY IDOCK:   -0.05 KCAL/MOL
REMARK 927      BINDING AFFINITY PREDICTED BY RF-SCORE:    0.00 PKD
ROOT
HETATM    1  N   UNL     1      -6.760  15.183  67.456  1.00  0.00    -0.177 N  
HETATM    2  C   UNL     1      -7.753  15.627  68.291  1.00  0.00    -0.130 C  
HETATM    3  H1  UNL     1      -7.017  14.990  66.488  1.00  0.00     0.000 HD 
HETATM    4  H2  UNL     1      -5.805  15.051  67.790  1.00  0.00     0.000 HD 
HETATM    5  O   UNL     1      -7.444  15.859  69.455  1.00  0.00    -0.221 OA 
ENDROOT
BRANCH   2   6
HETATM    6  N   UNL     1      -8.988  15.868  67.665  1.00  0.00    -0.189 N  
HETATM    7  C   UNL     1      -9.999  14.858  67.645  1.00  0.00    -0.226 A  
HETATM    8  C   UNL     1     -10.372  14.215  68.837  1.00  0.00    -0.204 A  
HETATM    9  C   UNL     1     -11.343  13.212  68.829  1.00  0.00    -0.333 A  
HETATM   10  C   UNL     1     -11.938  12.834  67.629  1.00  0.00    -0.331 A  
HETATM   11  C   UNL     1     -11.563  13.457  66.439  1.00  0.00    -0.381 A  
HETATM   12  C   UNL     1     -10.589  14.464  66.441  1.00  0.00    -0.297 A  
HETATM   13  C   UNL     1     -10.167  15.137  65.174  1.00  0.00    -0.386 C  
HETATM   14  C   UNL     1     -10.670  16.552  65.140  1.00  0.00    -0.244 C  
HETATM   15  O   UNL     1     -11.398  16.927  64.219  1.00  0.00    -1.202 OA 
HETATM   16  C   UNL     1     -10.246  17.515  66.205  1.00  0.00    -0.339 A  
HETATM   17  C   UNL     1      -9.429  17.201  67.320  1.00  0.00    -0.245 A  
HETATM   18  C   UNL     1      -9.042  18.277  68.150  1.00  0.00    -0.310 A  
HETATM   19  C   UNL     1      -9.433  19.597  67.902  1.00  0.00    -0.444 A  
HETATM   20  C   UNL     1     -10.237  19.886  66.813  1.00  0.00    -0.603 A  
HETATM   21  C   UNL     1     -10.641  18.853  65.974  1.00  0.00    -0.470 A  
ENDBRANCH   2   6
TORSDOF 1
ENDMDL
MODEL        7
REMARK 921   NORMALIZED FREE ENERGY PREDICTED BY IDOCK:   -6.30 KCAL/MOL
REMARK 922        TOTAL FREE ENERGY PREDICTED BY IDOCK:   -6.73 KCAL/MOL
REMARK 923 INTER-LIGAND FREE ENERGY PREDICTED BY IDOCK:   -6.67 KCAL/MOL
REMARK 924 INTRA-LIGAND FREE ENERGY PREDICTED BY IDOCK:   -0.06 KCAL/MOL
REMARK 927      BINDING AFFINITY PREDICTED BY RF-SCORE:    0.00 PKD
ROOT
HETATM    1  N   UNL     1      -9.687  14.811  69.578  1.00  0.00    -0.426 N  
HETATM    2  C   UNL     1     -11.027  14.534  69.496  1.00  0.00    -0.224 C  
HETATM    3  H1  UNL     1      -9.041  14.067  69.317  1.00  0.00     0.000 HD 
HETATM    4  H2  UNL     1      -9.351  15.723  69.889  1.00  0.00     0.000 HD 
HETATM    5  O   UNL     1     -11.805  15.429  69.811  1.00  0.00    -0.304 OA 
ENDROOT
BRANCH   2   6
HETATM    6  N   UNL     1     -11.339  13.279  68.946  1.00  0.00    -0.271 N  
HETATM    7  C   UNL     1     -11.728  12.194  69.791  1.00  0.00    -0.310 A  
HETATM    8  C   UNL     1     -12.741  12.378  70.747  1.00  0.00    -0.208 A  
HETATM    9  C   UNL     1     -13.117  11.334  71.593  1.00  0.00    -0.513 A  
HETATM   10  C   UNL     1     -12.473  10.103  71.502  1.00  0.00    -0.526 A  
HETATM   11  C   UNL     1     -11.456   9.916  70.567  1.00  0.00    -0.391 A  
HETATM   12  C   UNL     1     -11.076  10.961  69.715  1.00  0.00    -0.328 A  
HETATM   13  C   UNL     1      -9.981  10.783  68.712  1.00  0.00    -0.201 C  
HETATM   14  C   UNL     1     -10.545  10.749  67.320  1.00  0.00    -0.257 C  
HETATM   15  O   UNL     1     -10.350   9.769  66.598  1.00  0.00    -0.235 OA 
HETATM   16  C   UNL     1     -11.306  11.928  66.801  1.00  0.00    -0.393 A  
HETATM   17  C   UNL     1     -11.610  13.101  67.536  1.00  0.00    -0.352 A  
HETATM   18  C   UNL     1     -12.235  14.154  66.831  1.00  0.00    -0.400 A  
HETATM   19  C   UNL     1     -12.548  14.065  65.471  1.00  0.00    -0.543 A  
HETATM   20  C   UNL     1     -12.252  12.911  64.767  1.00  0.00    -0.499 A  
HETATM   21  C   UNL     1     -11.639  11.851  65.428  1.00  0.00    -0.284 A  
ENDBRANCH   2   6
TORSDOF 1
ENDMDL
MODEL        8
REMARK 921   NORMALIZED FREE ENERGY PREDICTED BY IDOCK:   -6.19 KCAL/MOL
REMARK 922        TOTAL FREE ENERGY PREDICTED BY IDOCK:   -6.62 KCAL/MOL
REMARK 923 INTER-LIGAND FREE ENERGY PREDICTED BY IDOCK:   -6.58 KCAL/MOL
REMARK 924 INTRA-LIGAND FREE ENERGY PREDICTED BY IDOCK:   -0.04 KCAL/MOL
REMARK 927      BINDING AFFINITY PREDICTED BY RF-SCORE:    0.00 PKD
ROOT
HETATM    1  N   UNL     1      -8.220  15.522  69.370  1.00  0.00    -0.252 N  
HETATM    2  C   UNL     1      -9.382  16.136  68.979  1.00  0.00    -0.248 C  
HETATM    3  H1  UNL     1      -8.247  14.511  69.497  1.00  0.00     0.000 HD 
HETATM    4  H2  UNL     1      -7.365  16.056  69.528  1.00  0.00     0.000 HD 
HETATM    5  O   UNL     1      -9.350  17.352  68.827  1.00  0.00    -0.277 OA 
ENDROOT
BRANCH   2   6
HETATM    6  N   UNL     1     -10.444  15.261  68.692  1.00  0.00    -0.230 N  
HETATM    7  C   UNL     1     -11.407  14.937  69.697  1.00  0.00    -0.282 A  
HETATM    8  C   UNL     1     -12.033  15.961  70.426  1.00  0.00    -0.336 A  
HETATM    9  C   UNL     1     -12.960  15.659  71.424  1.00  0.00    -0.555 A  
HETATM   10  C   UNL     1     -13.257  14.330  71.713  1.00  0.00    -0.444 A  
HETATM   11  C   UNL     1     -12.630  13.306  71.005  1.00  0.00    -0.408 A  
HETATM   12  C   UNL     1     -11.699  13.604  70.001  1.00  0.00    -0.319 A  
HETATM   13  C   UNL     1     -11.008  12.520  69.237  1.00  0.00    -0.138 C  
HETATM   14  C   UNL     1     -11.513  12.473  67.823  1.00  0.00    -0.321 C  
HETATM   15  O   UNL     1     -12.016  11.438  67.381  1.00  0.00    -0.606 OA 
HETATM   16  C   UNL     1     -11.360  13.673  66.941  1.00  0.00    -0.345 A  
HETATM   17  C   UNL     1     -10.816  14.920  67.337  1.00  0.00    -0.304 A  
HETATM   18  C   UNL     1     -10.647  15.892  66.325  1.00  0.00    -0.301 A  
HETATM   19  C   UNL     1     -10.992  15.656  64.990  1.00  0.00    -0.445 A  
HETATM   20  C   UNL     1     -11.529  14.435  64.621  1.00  0.00    -0.390 A  
HETATM   21  C   UNL     1     -11.713  13.454  65.590  1.00  0.00    -0.374 A  
ENDBRANCH   2   6
TORSDOF 1
ENDMDL
MODEL        9
REMARK 921   NORMALIZED FREE ENERGY PREDICTED BY IDOCK:   -6.11 KCAL/MOL
REMARK 922        TOTAL FREE ENERGY PREDICTED BY IDOCK:   -6.53 KCAL/MOL
REMARK 923 INTER-LIGAND FREE ENERGY PREDICTED BY IDOCK:   -6.92 KCAL/MOL
REMARK 924 INTRA-LIGAND FREE ENERGY PREDICTED BY IDOCK:    0.38 KCAL/MOL
REMARK 927      BINDING AFFINITY PREDICTED BY RF-SCORE:    0.00 PKD
ROOT
HETATM    1  N   UNL     1     -12.379  13.847  63.234  1.00  0.00    -1.148 N  
HETATM    2  C   UNL     1     -12.361  12.962  64.280  1.00  0.00    -0.385 C  
HETATM    3  H1  UNL     1     -11.507  14.333  63.020  1.00  0.00     0.000 HD 
HETATM    4  H2  UNL     1     -13.227  14.013  62.692  1.00  0.00     0.000 HD 
HETATM    5  O   UNL     1     -13.408  12.378  64.538  1.00  0.00    -0.800 OA 
ENDROOT
BRANCH   2   6
HETATM    6  N   UNL     1     -11.097  12.754  64.858  1.00  0.00    -0.283 N  
HETATM    7  C   UNL     1     -10.308  11.622  64.486  1.00  0.00    -0.300 A  
HETATM    8  C   UNL     1     -10.082  11.338  63.129  1.00  0.00    -0.385 A  
HETATM    9  C   UNL     1      -9.332  10.225  62.751  1.00  0.00    -0.340 A  
HETATM   10  C   UNL     1      -8.813   9.376  63.725  1.00  0.00    -0.201 A  
HETATM   11  C   UNL     1      -9.045   9.641  65.075  1.00  0.00    -0.284 A  
HETATM   12  C   UNL     1      -9.797  10.758  65.459  1.00  0.00    -0.309 A  
HETATM   13  C   UNL     1     -10.064  11.054  66.901  1.00  0.00    -0.248 C  
HETATM   14  C   UNL     1      -9.288  12.263  67.340  1.00  0.00    -0.183 C  
HETATM   15  O   UNL     1      -8.491  12.179  68.277  1.00  0.00    -0.170 OA 
HETATM   16  C   UNL     1      -9.521  13.578  66.665  1.00  0.00    -0.271 A  
HETATM   17  C   UNL     1     -10.394  13.798  65.571  1.00  0.00    -0.321 A  
HETATM   18  C   UNL     1     -10.567  15.136  65.150  1.00  0.00    -0.447 A  
HETATM   19  C   UNL     1      -9.917  16.209  65.770  1.00  0.00    -0.370 A  
HETATM   20  C   UNL     1      -9.062  15.977  66.833  1.00  0.00    -0.251 A  
HETATM   21  C   UNL     1      -8.864  14.673  67.274  1.00  0.00    -0.220 A  
ENDBRANCH   2   6
TORSDOF 1
ENDMDL
MODEL       10
REMARK 921   NORMALIZED FREE ENERGY PREDICTED BY IDOCK:   -6.10 KCAL/MOL
REMARK 922        TOTAL FREE ENERGY PREDICTED BY IDOCK:   -6.52 KCAL/MOL
REMARK 923 INTER-LIGAND FREE ENERGY PREDICTED BY IDOCK:   -7.12 KCAL/MOL
REMARK 924 INTRA-LIGAND FREE ENERGY PREDICTED BY IDOCK:    0.61 KCAL/MOL
REMARK 927      BINDING AFFINITY PREDICTED BY RF-SCORE:    0.00 PKD
ROOT
HETATM    1  N   UNL     1     -12.601  14.796  63.937  1.00  0.00    -0.973 N  
HETATM    2  C   UNL     1     -11.668  15.624  64.504  1.00  0.00    -0.220 C  
HETATM    3  H1  UNL     1     -12.753  13.891  64.381  1.00  0.00     0.000 HD 
HETATM    4  H2  UNL     1     -13.122  15.074  63.105  1.00  0.00     0.000 HD 
HETATM    5  O   UNL     1     -11.486  16.713  63.970  1.00  0.00    -1.192 OA 
ENDROOT
BRANCH   2   6
HETATM    6  N   UNL     1     -11.115  15.154  65.708  1.00  0.00    -0.344 N  
HETATM    7  C   UNL     1     -10.927  13.754  65.921  1.00  0.00    -0.283 A  
HETATM    8  C   UNL     1     -10.268  12.979  64.951  1.00  0.00    -0.304 A  
HETATM    9  C   UNL     1     -10.095  11.607  65.135  1.00  0.00    -0.304 A  
HETATM   10  C   UNL     1     -10.591  10.995  66.283  1.00  0.00    -0.295 A  
HETATM   11  C   UNL     1     -11.258  11.753  67.245  1.00  0.00    -0.364 A  
HETATM   12  C   UNL     1     -11.435  13.131  67.064  1.00  0.00    -0.379 A  
HETATM   13  C   UNL     1     -12.156  13.960  68.079  1.00  0.00    -0.318 C  
HETATM   14  C   UNL     1     -11.192  14.857  68.803  1.00  0.00    -0.275 C  
HETATM   15  O   UNL     1     -11.088  14.789  70.029  1.00  0.00    -0.249 OA 
HETATM   16  C   UNL     1     -10.396  15.863  68.034  1.00  0.00    -0.262 A  
HETATM   17  C   UNL     1     -10.415  16.026  66.626  1.00  0.00    -0.304 A  
HETATM   18  C   UNL     1      -9.681  17.113  66.099  1.00  0.00    -0.263 A  
HETATM   19  C   UNL     1      -8.962  17.998  66.908  1.00  0.00    -0.268 A  
HETATM   20  C   UNL     1      -8.947  17.821  68.281  1.00  0.00    -0.277 A  
HETATM   21  C   UNL     1      -9.656  16.761  68.837  1.00  0.00    -0.249 A  
ENDBRANCH   2   6
TORSDOF 1
ENDMDL
MODEL       11
REMARK 921   NORMALIZED FREE ENERGY PREDICTED BY IDOCK:   -6.04 KCAL/MOL
REMARK 922        TOTAL FREE ENERGY PREDICTED BY IDOCK:   -6.46 KCAL/MOL
REMARK 923 INTER-LIGAND FREE ENERGY PREDICTED BY IDOCK:   -6.40 KCAL/MOL
REMARK 924 INTRA-LIGAND FREE ENERGY PREDICTED BY IDOCK:   -0.06 KCAL/MOL
REMARK 927      BINDING AFFINITY PREDICTED BY RF-SCORE:    0.00 PKD
ROOT
HETATM    1  N   UNL     1     -13.373  14.177  65.562  1.00  0.00    -0.592 N  
HETATM    2  C   UNL     1     -12.221  13.452  65.721  1.00  0.00    -0.458 C  
HETATM    3  H1  UNL     1     -13.695  14.722  66.362  1.00  0.00     0.000 HD 
HETATM    4  H2  UNL     1     -13.887  14.172  64.681  1.00  0.00     0.000 HD 
HETATM    5  O   UNL     1     -11.834  12.797  64.759  1.00  0.00    -0.336 OA 
ENDROOT
BRANCH   2   6
HETATM    6  N   UNL     1     -11.564  13.647  66.948  1.00  0.00    -0.348 N  
HETATM    7  C   UNL     1     -11.583  12.627  67.949  1.00  0.00    -0.349 A  
HETATM    8  C   UNL     1     -11.235  11.308  67.614  1.00  0.00    -0.357 A  
HETATM    9  C   UNL     1     -11.268  10.298  68.576  1.00  0.00    -0.271 A  
HETATM   10  C   UNL     1     -11.665  10.594  69.877  1.00  0.00    -0.395 A  
HETATM   11  C   UNL     1     -12.026  11.898  70.216  1.00  0.00    -0.416 A  
HETATM   12  C   UNL     1     -11.994  12.915  69.254  1.00  0.00    -0.313 A  
HETATM   13  C   UNL     1     -12.386  14.317  69.595  1.00  0.00    -0.312 C  
HETATM   14  C   UNL     1     -11.179  15.211  69.609  1.00  0.00    -0.272 C  
HETATM   15  O   UNL     1     -10.887  15.838  70.629  1.00  0.00    -0.322 OA 
HETATM   16  C   UNL     1     -10.361  15.371  68.365  1.00  0.00    -0.229 A  
HETATM   17  C   UNL     1     -10.585  14.694  67.141  1.00  0.00    -0.282 A  
HETATM   18  C   UNL     1      -9.775  15.070  66.046  1.00  0.00    -0.359 A  
HETATM   19  C   UNL     1      -8.793  16.061  66.143  1.00  0.00    -0.366 A  
HETATM   20  C   UNL     1      -8.582  16.709  67.348  1.00  0.00    -0.203 A  
HETATM   21  C   UNL     1      -9.358  16.364  68.449  1.00  0.00    -0.217 A  
ENDBRANCH   2   6
TORSDOF 1
ENDMDL
MODEL       12
REMARK 921   NORMALIZED FREE ENERGY PREDICTED BY IDOCK:   -6.00 KCAL/MOL
REMARK 922        TOTAL FREE ENERGY PREDICTED BY IDOCK:   -6.41 KCAL/MOL
REMARK 923 INTER-LIGAND FREE ENERGY PREDICTED BY IDOCK:   -6.35 KCAL/MOL
REMARK 924 INTRA-LIGAND FREE ENERGY PREDICTED BY IDOCK:   -0.06 KCAL/MOL
REMARK 927      BINDING AFFINITY PREDICTED BY RF-SCORE:    0.00 PKD
ROOT
HETATM    1  N   UNL     1     -12.589  14.072  66.511  1.00  0.00    -0.503 N  
HETATM    2  C   UNL     1     -11.634  14.522  67.385  1.00  0.00    -0.385 C  
HETATM    3  H1  UNL     1     -13.011  13.164  66.710  1.00  0.00     0.000 HD 
HETATM    4  H2  UNL     1     -12.865  14.620  65.697  1.00  0.00     0.000 HD 
HETATM    5  O   UNL     1     -11.126  15.613  67.146  1.00  0.00    -0.304 OA 
ENDROOT
BRANCH   2   6
HETATM    6  N   UNL     1     -11.440  13.714  68.518  1.00  0.00    -0.288 N  
HETATM    7  C   UNL     1     -10.338  12.807  68.580  1.00  0.00    -0.221 A  
HETATM    8  C   UNL     1      -9.039  13.259  68.293  1.00  0.00    -0.184 A  
HETATM    9  C   UNL     1      -7.956  12.381  68.329  1.00  0.00    -0.160 A  
HETATM   10  C   UNL     1      -8.163  11.039  68.638  1.00  0.00    -0.151 A  
HETATM   11  C   UNL     1      -9.450  10.578  68.910  1.00  0.00    -0.199 A  
HETATM   12  C   UNL     1     -10.541  11.456  68.875  1.00  0.00    -0.234 A  
HETATM   13  C   UNL     1     -11.930  10.978  69.155  1.00  0.00    -0.394 C  
HETATM   14  C   UNL     1     -12.408  11.502  70.479  1.00  0.00    -0.342 C  
HETATM   15  O   UNL     1     -12.762  10.719  71.362  1.00  0.00    -0.382 OA 
HETATM   16  C   UNL     1     -12.496  12.980  70.703  1.00  0.00    -0.347 A  
HETATM   17  C   UNL     1     -12.105  13.977  69.775  1.00  0.00    -0.348 A  
HETATM   18  C   UNL     1     -12.377  15.318  70.127  1.00  0.00    -0.392 A  
HETATM   19  C   UNL     1     -13.002  15.668  71.328  1.00  0.00    -0.556 A  
HETATM   20  C   UNL     1     -13.372  14.683  72.227  1.00  0.00    -0.485 A  
HETATM   21  C   UNL     1     -13.118  13.351  71.917  1.00  0.00    -0.476 A  
ENDBRANCH   2   6
TORSDOF 1
ENDMDL
MODEL       13
REMARK 921   NORMALIZED FREE ENERGY PREDICTED BY IDOCK:   -5.97 KCAL/MOL
REMARK 922        TOTAL FREE ENERGY PREDICTED BY IDOCK:   -6.38 KCAL/MOL
REMARK 923 INTER-LIGAND FREE ENERGY PREDICTED BY IDOCK:   -6.69 KCAL/MOL
REMARK 924 INTRA-LIGAND FREE ENERGY PREDICTED BY IDOCK:    0.31 KCAL/MOL
REMARK 927      BINDING AFFINITY PREDICTED BY RF-SCORE:    0.00 PKD
ROOT
HETATM    1  N   UNL     1     -11.520  12.623  62.992  1.00  0.00    -0.738 N  
HETATM    2  C   UNL     1     -12.230  12.474  64.155  1.00  0.00    -0.467 C  
HETATM    3  H1  UNL     1     -10.542  12.903  63.076  1.00  0.00     0.000 HD 
HETATM    4  H2  UNL     1     -11.950  12.461  62.082  1.00  0.00     0.000 HD 
HETATM    5  O   UNL     1     -13.405  12.137  64.054  1.00  0.00    -0.706 OA 
ENDROOT
BRANCH   2   6
HETATM    6  N   UNL     1     -11.476  12.621  65.331  1.00  0.00    -0.323 N  
HETATM    7  C   UNL     1     -10.755  11.513  65.872  1.00  0.00    -0.272 A  
HETATM    8  C   UNL     1      -9.903  10.759  65.047  1.00  0.00    -0.346 A  
HETATM    9  C   UNL     1      -9.209   9.661  65.556  1.00  0.00    -0.291 A  
HETATM   10  C   UNL     1      -9.370   9.298  66.891  1.00  0.00    -0.193 A  
HETATM   11  C   UNL     1     -10.224  10.031  67.714  1.00  0.00    -0.235 A  
HETATM   12  C   UNL     1     -10.924  11.134  67.207  1.00  0.00    -0.354 A  
HETATM   13  C   UNL     1     -11.851  11.927  68.071  1.00  0.00    -0.323 C  
HETATM   14  C   UNL     1     -11.267  13.280  68.364  1.00  0.00    -0.280 C  
HETATM   15  O   UNL     1     -11.079  13.633  69.530  1.00  0.00    -0.186 OA 
HETATM   16  C   UNL     1     -10.959  14.213  67.235  1.00  0.00    -0.304 A  
HETATM   17  C   UNL     1     -11.114  13.919  65.858  1.00  0.00    -0.291 A  
HETATM   18  C   UNL     1     -10.882  14.975  64.949  1.00  0.00    -0.430 A  
HETATM   19  C   UNL     1     -10.514  16.259  65.366  1.00  0.00    -0.365 A  
HETATM   20  C   UNL     1     -10.358  16.529  66.714  1.00  0.00    -0.296 A  
HETATM   21  C   UNL     1     -10.577  15.514  67.640  1.00  0.00    -0.291 A  
ENDBRANCH   2   6
TORSDOF 1
ENDMDL
MODEL       14
REMARK 921   NORMALIZED FREE ENERGY PREDICTED BY IDOCK:   -5.85 KCAL/MOL
REMARK 922        TOTAL FREE ENERGY PREDICTED BY IDOCK:   -6.26 KCAL/MOL
REMARK 923 INTER-LIGAND FREE ENERGY PREDICTED BY IDOCK:   -6.19 KCAL/MOL
REMARK 924 INTRA-LIGAND FREE ENERGY PREDICTED BY IDOCK:   -0.06 KCAL/MOL
REMARK 927      BINDING AFFINITY PREDICTED BY RF-SCORE:    0.00 PKD
ROOT
HETATM    1  N   UNL     1     -11.815  10.468  68.605  1.00  0.00    -0.501 N  
HETATM    2  C   UNL     1     -10.584  10.987  68.300  1.00  0.00    -0.187 C  
HETATM    3  H1  UNL     1     -12.624  10.885  68.143  1.00  0.00     0.000 HD 
HETATM    4  H2  UNL     1     -11.919   9.699  69.267  1.00  0.00     0.000 HD 
HETATM    5  O   UNL     1      -9.612  10.487  68.856  1.00  0.00    -0.176 OA 
ENDROOT
BRANCH   2   6
HETATM    6  N   UNL     1     -10.588  11.965  67.291  1.00  0.00    -0.221 N  
HETATM    7  C   UNL     1     -10.436  13.347  67.621  1.00  0.00    -0.241 A  
HETATM    8  C   UNL     1      -9.380  13.758  68.451  1.00  0.00    -0.190 A  
HETATM    9  C   UNL     1      -9.231  15.101  68.798  1.00  0.00    -0.200 A  
HETATM   10  C   UNL     1     -10.144  16.043  68.332  1.00  0.00    -0.229 A  
HETATM   11  C   UNL     1     -11.204  15.641  67.519  1.00  0.00    -0.245 A  
HETATM   12  C   UNL     1     -11.358  14.294  67.168  1.00  0.00    -0.352 A  
HETATM   13  C   UNL     1     -12.493  13.843  66.305  1.00  0.00    -0.454 C  
HETATM   14  C   UNL     1     -11.993  13.447  64.945  1.00  0.00    -0.378 C  
HETATM   15  O   UNL     1     -12.431  14.007  63.938  1.00  0.00    -0.696 OA 
HETATM   16  C   UNL     1     -10.995  12.339  64.817  1.00  0.00    -0.346 A  
HETATM   17  C   UNL     1     -10.407  11.632  65.895  1.00  0.00    -0.248 A  
HETATM   18  C   UNL     1      -9.576  10.538  65.564  1.00  0.00    -0.282 A  
HETATM   19  C   UNL     1      -9.332  10.153  64.242  1.00  0.00    -0.349 A  
HETATM   20  C   UNL     1      -9.908  10.857  63.199  1.00  0.00    -0.392 A  
HETATM   21  C   UNL     1     -10.730  11.942  63.485  1.00  0.00    -0.504 A  
ENDBRANCH   2   6
TORSDOF 1
ENDMDL
MODEL       15
REMARK 921   NORMALIZED FREE ENERGY PREDICTED BY IDOCK:   -5.81 KCAL/MOL
REMARK 922        TOTAL FREE ENERGY PREDICTED BY IDOCK:   -6.22 KCAL/MOL
REMARK 923 INTER-LIGAND FREE ENERGY PREDICTED BY IDOCK:   -6.17 KCAL/MOL
REMARK 924 INTRA-LIGAND FREE ENERGY PREDICTED BY IDOCK:   -0.05 KCAL/MOL
REMARK 927      BINDING AFFINITY PREDICTED BY RF-SCORE:    0.00 PKD
ROOT
HETATM    1  N   UNL     1     -12.620  15.092  69.873  1.00  0.00    -0.576 N  
HETATM    2  C   UNL     1     -11.669  14.256  69.349  1.00  0.00    -0.316 C  
HETATM    3  H1  UNL     1     -12.720  16.011  69.443  1.00  0.00     0.000 HD 
HETATM    4  H2  UNL     1     -13.203  14.806  70.660  1.00  0.00     0.000 HD 
HETATM    5  O   UNL     1     -11.548  13.150  69.867  1.00  0.00    -0.264 OA 
ENDROOT
BRANCH   2   6
HETATM    6  N   UNL     1     -11.024  14.741  68.199  1.00  0.00    -0.260 N  
HETATM    7  C   UNL     1      -9.784  15.443  68.306  1.00  0.00    -0.209 A  
HETATM    8  C   UNL     1      -8.726  14.891  69.048  1.00  0.00    -0.177 A  
HETATM    9  C   UNL     1      -7.517  15.574  69.178  1.00  0.00    -0.191 A  
HETATM   10  C   UNL     1      -7.358  16.822  68.581  1.00  0.00    -0.218 A  
HETATM   11  C   UNL     1      -8.407  17.384  67.854  1.00  0.00    -0.230 A  
HETATM   12  C   UNL     1      -9.624  16.702  67.720  1.00  0.00    -0.236 A  
HETATM   13  C   UNL     1     -10.763  17.293  66.953  1.00  0.00    -0.126 C  
HETATM   14  C   UNL     1     -10.972  16.546  65.667  1.00  0.00    -0.051 C  
HETATM   15  O   UNL     1     -10.914  17.143  64.590  1.00  0.00    -1.005 OA 
HETATM   16  C   UNL     1     -11.295  15.085  65.702  1.00  0.00    -0.297 A  
HETATM   17  C   UNL     1     -11.373  14.288  66.870  1.00  0.00    -0.343 A  
HETATM   18  C   UNL     1     -11.810  12.954  66.705  1.00  0.00    -0.452 A  
HETATM   19  C   UNL     1     -12.154  12.425  65.457  1.00  0.00    -0.417 A  
HETATM   20  C   UNL     1     -12.066  13.214  64.324  1.00  0.00    -0.477 A  
HETATM   21  C   UNL     1     -11.638  14.532  64.446  1.00  0.00    -0.325 A  
ENDBRANCH   2   6
TORSDOF 1
ENDMDL
MODEL       16
REMARK 921   NORMALIZED FREE ENERGY PREDICTED BY IDOCK:   -5.80 KCAL/MOL
REMARK 922        TOTAL FREE ENERGY PREDICTED BY IDOCK:   -6.20 KCAL/MOL
REMARK 923 INTER-LIGAND FREE ENERGY PREDICTED BY IDOCK:   -6.16 KCAL/MOL
REMARK 924 INTRA-LIGAND FREE ENERGY PREDICTED BY IDOCK:   -0.04 KCAL/MOL
REMARK 927      BINDING AFFINITY PREDICTED BY RF-SCORE:    0.00 PKD
ROOT
HETATM    1  N   UNL     1      -9.325  15.097  68.381  1.00  0.00    -0.191 N  
HETATM    2  C   UNL     1     -10.651  14.805  68.196  1.00  0.00    -0.241 C  
HETATM    3  H1  UNL     1      -8.660  14.330  68.277  1.00  0.00     0.000 HD 
HETATM    4  H2  UNL     1      -9.016  16.041  68.613  1.00  0.00     0.000 HD 
HETATM    5  O   UNL     1     -11.451  15.727  68.321  1.00  0.00    -0.361 OA 
ENDROOT
BRANCH   2   6
HETATM    6  N   UNL     1     -10.914  13.492  67.771  1.00  0.00    -0.261 N  
HETATM    7  C   UNL     1     -11.183  12.462  68.725  1.00  0.00    -0.273 A  
HETATM    8  C   UNL     1     -12.148  12.666  69.725  1.00  0.00    -0.301 A  
HETATM    9  C   UNL     1     -12.406  11.678  70.675  1.00  0.00    -0.437 A  
HETATM   10  C   UNL     1     -11.692  10.483  70.644  1.00  0.00    -0.453 A  
HETATM   11  C   UNL     1     -10.721  10.277  69.663  1.00  0.00    -0.299 A  
HETATM   12  C   UNL     1     -10.459  11.267  68.707  1.00  0.00    -0.232 A  
HETATM   13  C   UNL     1      -9.416  11.068  67.653  1.00  0.00    -0.173 C  
HETATM   14  C   UNL     1     -10.058  10.883  66.308  1.00  0.00    -0.233 C  
HETATM   15  O   UNL     1      -9.844   9.860  65.657  1.00  0.00    -0.266 OA 
HETATM   16  C   UNL     1     -10.922  11.968  65.744  1.00  0.00    -0.351 A  
HETATM   17  C   UNL     1     -11.256  13.179  66.401  1.00  0.00    -0.300 A  
HETATM   18  C   UNL     1     -11.987  14.130  65.653  1.00  0.00    -0.401 A  
HETATM   19  C   UNL     1     -12.374  13.908  64.328  1.00  0.00    -0.390 A  
HETATM   20  C   UNL     1     -12.047  12.717  63.703  1.00  0.00    -0.624 A  
HETATM   21  C   UNL     1     -11.329  11.756  64.407  1.00  0.00    -0.373 A  
ENDBRANCH   2   6
TORSDOF 1
ENDMDL
MODEL       17
REMARK 921   NORMALIZED FREE ENERGY PREDICTED BY IDOCK:   -5.78 KCAL/MOL
REMARK 922        TOTAL FREE ENERGY PREDICTED BY IDOCK:   -6.19 KCAL/MOL
REMARK 923 INTER-LIGAND FREE ENERGY PREDICTED BY IDOCK:   -6.13 KCAL/MOL
REMARK 924 INTRA-LIGAND FREE ENERGY PREDICTED BY IDOCK:   -0.05 KCAL/MOL
REMARK 927      BINDING AFFINITY PREDICTED BY RF-SCORE:    0.00 PKD
ROOT
HETATM    1  N   UNL     1     -10.536  12.116  68.840  1.00  0.00    -0.385 N  
HETATM    2  C   UNL     1      -9.453  12.368  68.038  1.00  0.00    -0.208 C  
HETATM    3  H1  UNL     1     -11.442  12.461  68.521  1.00  0.00     0.000 HD 
HETATM    4  H2  UNL     1     -10.440  11.606  69.717  1.00  0.00     0.000 HD 
HETATM    5  O   UNL     1      -8.364  11.954  68.421  1.00  0.00    -0.159 OA 
ENDROOT
BRANCH   2   6
HETATM    6  N   UNL     1      -9.757  12.980  66.810  1.00  0.00    -0.241 N  
HETATM    7  C   UNL     1      -9.645  14.397  66.659  1.00  0.00    -0.281 A  
HETATM    8  C   UNL     1      -8.468  15.054  67.054  1.00  0.00    -0.258 A  
HETATM    9  C   UNL     1      -8.353  16.439  66.932  1.00  0.00    -0.263 A  
HETATM   10  C   UNL     1      -9.418  17.181  66.429  1.00  0.00    -0.290 A  
HETATM   11  C   UNL     1     -10.596  16.539  66.049  1.00  0.00    -0.259 A  
HETATM   12  C   UNL     1     -10.716  15.148  66.169  1.00  0.00    -0.327 A  
HETATM   13  C   UNL     1     -11.975  14.443  65.775  1.00  0.00    -0.362 C  
HETATM   14  C   UNL     1     -11.757  13.643  64.522  1.00  0.00    -0.400 C  
HETATM   15  O   UNL     1     -12.449  13.857  63.524  1.00  0.00    -0.810 OA 
HETATM   16  C   UNL     1     -10.728  12.556  64.506  1.00  0.00    -0.360 A  
HETATM   17  C   UNL     1      -9.862  12.227  65.579  1.00  0.00    -0.206 A  
HETATM   18  C   UNL     1      -9.041  11.090  65.411  1.00  0.00    -0.213 A  
HETATM   19  C   UNL     1      -9.065  10.310  64.250  1.00  0.00    -0.278 A  
HETATM   20  C   UNL     1      -9.910  10.649  63.208  1.00  0.00    -0.364 A  
HETATM   21  C   UNL     1     -10.732  11.764  63.335  1.00  0.00    -0.468 A  
ENDBRANCH   2   6
TORSDOF 1
ENDMDL
MODEL       18
REMARK 921   NORMALIZED FREE ENERGY PREDICTED BY IDOCK:   -5.70 KCAL/MOL
REMARK 922        TOTAL FREE ENERGY PREDICTED BY IDOCK:   -6.10 KCAL/MOL
REMARK 923 INTER-LIGAND FREE ENERGY PREDICTED BY IDOCK:   -6.23 KCAL/MOL
REMARK 924 INTRA-LIGAND FREE ENERGY PREDICTED BY IDOCK:    0.13 KCAL/MOL
REMARK 927      BINDING AFFINITY PREDICTED BY RF-SCORE:    0.00 PKD
ROOT
HETATM    1  N   UNL     1     -13.491  15.493  70.317  1.00  0.00    -0.649 N  
HETATM    2  C   UNL     1     -12.124  15.477  70.229  1.00  0.00    -0.386 C  
HETATM    3  H1  UNL     1     -14.011  14.988  69.599  1.00  0.00     0.000 HD 
HETATM    4  H2  UNL     1     -13.969  15.990  71.070  1.00  0.00     0.000 HD 
HETATM    5  O   UNL     1     -11.499  16.085  71.092  1.00  0.00    -0.396 OA 
ENDROOT
BRANCH   2   6
HETATM    6  N   UNL     1     -11.607  14.661  69.208  1.00  0.00    -0.284 N  
HETATM    7  C   UNL     1     -10.619  15.165  68.308  1.00  0.00    -0.243 A  
HETATM    8  C   UNL     1      -9.472  15.803  68.809  1.00  0.00    -0.219 A  
HETATM    9  C   UNL     1      -8.508  16.319  67.942  1.00  0.00    -0.166 A  
HETATM   10  C   UNL     1      -8.690  16.216  66.565  1.00  0.00    -0.337 A  
HETATM   11  C   UNL     1      -9.833  15.598  66.058  1.00  0.00    -0.362 A  
HETATM   12  C   UNL     1     -10.803  15.078  66.925  1.00  0.00    -0.315 A  
HETATM   13  C   UNL     1     -12.039  14.420  66.400  1.00  0.00    -0.390 C  
HETATM   14  C   UNL     1     -11.989  12.939  66.646  1.00  0.00    -0.366 C  
HETATM   15  O   UNL     1     -12.069  12.153  65.701  1.00  0.00    -0.545 OA 
HETATM   16  C   UNL     1     -11.888  12.424  68.048  1.00  0.00    -0.376 A  
HETATM   17  C   UNL     1     -11.773  13.224  69.212  1.00  0.00    -0.326 A  
HETATM   18  C   UNL     1     -11.811  12.552  70.455  1.00  0.00    -0.246 A  
HETATM   19  C   UNL     1     -11.954  11.165  70.555  1.00  0.00    -0.475 A  
HETATM   20  C   UNL     1     -12.058  10.396  69.409  1.00  0.00    -0.085 A  
HETATM   21  C   UNL     1     -12.022  11.021  68.167  1.00  0.00    -0.061 A  
ENDBRANCH   2   6
TORSDOF 1
ENDMDL
MODEL       19
REMARK 921   NORMALIZED FREE ENERGY PREDICTED BY IDOCK:   -5.70 KCAL/MOL
REMARK 922        TOTAL FREE ENERGY PREDICTED BY IDOCK:   -6.09 KCAL/MOL
REMARK 923 INTER-LIGAND FREE ENERGY PREDICTED BY IDOCK:   -6.07 KCAL/MOL
REMARK 924 INTRA-LIGAND FREE ENERGY PREDICTED BY IDOCK:   -0.03 KCAL/MOL
REMARK 927      BINDING AFFINITY PREDICTED BY RF-SCORE:    0.00 PKD
ROOT
HETATM    1  N   UNL     1      -7.662  11.740  66.418  1.00  0.00    -0.383 N  
HETATM    2  C   UNL     1      -8.776  10.942  66.424  1.00  0.00    -0.170 C  
HETATM    3  H1  UNL     1      -7.807  12.742  66.543  1.00  0.00     0.000 HD 
HETATM    4  H2  UNL     1      -6.728  11.349  66.295  1.00  0.00     0.000 HD 
HETATM    5  O   UNL     1      -8.603   9.737  66.275  1.00  0.00    -0.125 OA 
ENDROOT
BRANCH   2   6
HETATM    6  N   UNL     1      -9.979  11.607  66.717  1.00  0.00    -0.202 N  
HETATM    7  C   UNL     1     -10.774  12.161  65.668  1.00  0.00    -0.275 A  
HETATM    8  C   UNL     1     -11.115  11.374  64.555  1.00  0.00    -0.302 A  
HETATM    9  C   UNL     1     -11.874  11.908  63.513  1.00  0.00    -0.560 A  
HETATM   10  C   UNL     1     -12.286  13.237  63.567  1.00  0.00    -0.513 A  
HETATM   11  C   UNL     1     -11.940  14.030  64.660  1.00  0.00    -0.449 A  
HETATM   12  C   UNL     1     -11.178  13.498  65.709  1.00  0.00    -0.308 A  
HETATM   13  C   UNL     1     -10.790  14.335  66.886  1.00  0.00    -0.298 C  
HETATM   14  C   UNL     1     -11.548  13.904  68.109  1.00  0.00    -0.335 C  
HETATM   15  O   UNL     1     -12.255  14.712  68.714  1.00  0.00    -0.235 OA 
HETATM   16  C   UNL     1     -11.402  12.503  68.615  1.00  0.00    -0.329 A  
HETATM   17  C   UNL     1     -10.636  11.482  68.000  1.00  0.00    -0.190 A  
HETATM   18  C   UNL     1     -10.529  10.257  68.697  1.00  0.00    -0.215 A  
HETATM   19  C   UNL     1     -11.142  10.040  69.935  1.00  0.00    -0.336 A  
HETATM   20  C   UNL     1     -11.894  11.044  70.519  1.00  0.00    -0.464 A  
HETATM   21  C   UNL     1     -12.024  12.264  69.862  1.00  0.00    -0.377 A  
ENDBRANCH   2   6
TORSDOF 1
ENDMDL
MODEL       20
REMARK 921   NORMALIZED FREE ENERGY PREDICTED BY IDOCK:   -5.65 KCAL/MOL
REMARK 922        TOTAL FREE ENERGY PREDICTED BY IDOCK:   -6.04 KCAL/MOL
REMARK 923 INTER-LIGAND FREE ENERGY PREDICTED BY IDOCK:   -5.98 KCAL/MOL
REMARK 924 INTRA-LIGAND FREE ENERGY PREDICTED BY IDOCK:   -0.06 KCAL/MOL
REMARK 927      BINDING AFFINITY PREDICTED BY RF-SCORE:    0.00 PKD
ROOT
HETATM    1  N   UNL     1     -11.028   8.642  68.056  1.00  0.00    -0.474 N  
HETATM    2  C   UNL     1     -10.307   9.421  68.922  1.00  0.00    -0.213 C  
HETATM    3  H1  UNL     1     -11.824   8.132  68.440  1.00  0.00     0.000 HD 
HETATM    4  H2  UNL     1     -10.779   8.574  67.069  1.00  0.00     0.000 HD 
HETATM    5  O   UNL     1      -9.350  10.034  68.461  1.00  0.00    -0.139 OA 
ENDROOT
BRANCH   2   6
HETATM    6  N   UNL     1     -10.835   9.505  70.222  1.00  0.00    -0.249 N  
HETATM    7  C   UNL     1     -10.282   8.719  71.280  1.00  0.00    -0.262 A  
HETATM    8  C   UNL     1      -8.895   8.721  71.505  1.00  0.00    -0.295 A  
HETATM    9  C   UNL     1      -8.339   7.943  72.521  1.00  0.00    -0.191 A  
HETATM   10  C   UNL     1      -9.162   7.145  73.311  1.00  0.00    -0.193 A  
HETATM   11  C   UNL     1     -10.538   7.126  73.086  1.00  0.00    -0.377 A  
HETATM   12  C   UNL     1     -11.101   7.905  72.067  1.00  0.00    -0.332 A  
HETATM   13  C   UNL     1     -12.574   7.891  71.804  1.00  0.00    -0.353 C  
HETATM   14  C   UNL     1     -13.194   9.193  72.225  1.00  0.00    -0.461 C  
HETATM   15  O   UNL     1     -14.099   9.204  73.061  1.00  0.00    -0.406 OA 
HETATM   16  C   UNL     1     -12.738  10.470  71.591  1.00  0.00    -0.550 A  
HETATM   17  C   UNL     1     -11.700  10.589  70.634  1.00  0.00    -0.357 A  
HETATM   18  C   UNL     1     -11.499  11.866  70.065  1.00  0.00    -0.213 A  
HETATM   19  C   UNL     1     -12.276  12.975  70.414  1.00  0.00    -0.386 A  
HETATM   20  C   UNL     1     -13.283  12.845  71.355  1.00  0.00    -0.262 A  
HETATM   21  C   UNL     1     -13.509  11.603  71.940  1.00  0.00    -0.269 A  
ENDBRANCH   2   6
TORSDOF 1
ENDMDL
MODEL       21
REMARK 921   NORMALIZED FREE ENERGY PREDICTED BY IDOCK:   -5.63 KCAL/MOL
REMARK 922        TOTAL FREE ENERGY PREDICTED BY IDOCK:   -6.03 KCAL/MOL
REMARK 923 INTER-LIGAND FREE ENERGY PREDICTED BY IDOCK:   -6.38 KCAL/MOL
REMARK 924 INTRA-LIGAND FREE ENERGY PREDICTED BY IDOCK:    0.35 KCAL/MOL
REMARK 927      BINDING AFFINITY PREDICTED BY RF-SCORE:    0.00 PKD
ROOT
HETATM    1  N   UNL     1     -11.108   9.088  67.363  1.00  0.00    -0.343 N  
HETATM    2  C   UNL     1     -10.746  10.381  67.635  1.00  0.00    -0.286 C  
HETATM    3  H1  UNL     1     -11.416   8.515  68.149  1.00  0.00     0.000 HD 
HETATM    4  H2  UNL     1     -11.072   8.715  66.414  1.00  0.00     0.000 HD 
HETATM    5  O   UNL     1     -10.376  11.071  66.691  1.00  0.00    -0.223 OA 
ENDROOT
BRANCH   2   6
HETATM    6  N   UNL     1     -10.955  10.787  68.965  1.00  0.00    -0.221 N  
HETATM    7  C   UNL     1     -10.444  10.008  70.048  1.00  0.00    -0.287 A  
HETATM    8  C   UNL     1      -9.097   9.609  70.052  1.00  0.00    -0.269 A  
HETATM    9  C   UNL     1      -8.589   8.831  71.092  1.00  0.00    -0.244 A  
HETATM   10  C   UNL     1      -9.426   8.433  72.131  1.00  0.00    -0.360 A  
HETATM   11  C   UNL     1     -10.768   8.812  72.129  1.00  0.00    -0.383 A  
HETATM   12  C   UNL     1     -11.282   9.593  71.086  1.00  0.00    -0.454 A  
HETATM   13  C   UNL     1     -12.721  10.002  71.062  1.00  0.00    -0.455 C  
HETATM   14  C   UNL     1     -12.852  11.473  71.332  1.00  0.00    -0.384 C  
HETATM   15  O   UNL     1     -13.530  11.869  72.283  1.00  0.00    -0.442 OA 
HETATM   16  C   UNL     1     -12.194  12.457  70.415  1.00  0.00    -0.370 A  
HETATM   17  C   UNL     1     -11.379  12.127  69.304  1.00  0.00    -0.266 A  
HETATM   18  C   UNL     1     -10.947  13.198  68.490  1.00  0.00    -0.289 A  
HETATM   19  C   UNL     1     -11.295  14.528  68.749  1.00  0.00    -0.298 A  
HETATM   20  C   UNL     1     -12.086  14.834  69.843  1.00  0.00    -0.381 A  
HETATM   21  C   UNL     1     -12.529  13.807  70.669  1.00  0.00    -0.429 A  
ENDBRANCH   2   6
TORSDOF 1
ENDMDL
MODEL       22
REMARK 921   NORMALIZED FREE ENERGY PREDICTED BY IDOCK:   -5.58 KCAL/MOL
REMARK 922        TOTAL FREE ENERGY PREDICTED BY IDOCK:   -5.97 KCAL/MOL
REMARK 923 INTER-LIGAND FREE ENERGY PREDICTED BY IDOCK:   -6.02 KCAL/MOL
REMARK 924 INTRA-LIGAND FREE ENERGY PREDICTED BY IDOCK:    0.04 KCAL/MOL
REMARK 927      BINDING AFFINITY PREDICTED BY RF-SCORE:    0.00 PKD
ROOT
HETATM    1  N   UNL     1     -11.908  12.541  66.406  1.00  0.00    -0.402 N  
HETATM    2  C   UNL     1     -11.660  12.052  67.662  1.00  0.00    -0.321 C  
HETATM    3  H1  UNL     1     -11.881  13.554  66.286  1.00  0.00     0.000 HD 
HETATM    4  H2  UNL     1     -12.111  11.918  65.624  1.00  0.00     0.000 HD 
HETATM    5  O   UNL     1     -11.692  10.835  67.806  1.00  0.00    -0.547 OA 
ENDROOT
BRANCH   2   6
HETATM    6  N   UNL     1     -11.285  13.020  68.610  1.00  0.00    -0.260 N  
HETATM    7  C   UNL     1     -12.011  13.156  69.833  1.00  0.00    -0.317 A  
HETATM    8  C   UNL     1     -12.267  12.025  70.626  1.00  0.00    -0.409 A  
HETATM    9  C   UNL     1     -12.993  12.138  71.812  1.00  0.00    -0.437 A  
HETATM   10  C   UNL     1     -13.481  13.380  72.209  1.00  0.00    -0.683 A  
HETATM   11  C   UNL     1     -13.244  14.506  71.421  1.00  0.00    -0.424 A  
HETATM   12  C   UNL     1     -12.516  14.397  70.229  1.00  0.00    -0.413 A  
HETATM   13  C   UNL     1     -12.259  15.591  69.366  1.00  0.00    -0.233 C  
HETATM   14  C   UNL     1     -10.811  15.983  69.431  1.00  0.00    -0.300 C  
HETATM   15  O   UNL     1     -10.493  17.114  69.801  1.00  0.00    -0.172 OA 
HETATM   16  C   UNL     1      -9.760  15.008  68.999  1.00  0.00    -0.229 A  
HETATM   17  C   UNL     1      -9.997  13.678  68.571  1.00  0.00    -0.208 A  
HETATM   18  C   UNL     1      -8.883  12.954  68.090  1.00  0.00    -0.194 A  
HETATM   19  C   UNL     1      -7.598  13.503  68.030  1.00  0.00    -0.143 A  
HETATM   20  C   UNL     1      -7.381  14.801  68.459  1.00  0.00    -0.118 A  
HETATM   21  C   UNL     1      -8.453  15.545  68.941  1.00  0.00    -0.207 A  
ENDBRANCH   2   6
TORSDOF 1
ENDMDL
MODEL       23
REMARK 921   NORMALIZED FREE ENERGY PREDICTED BY IDOCK:   -5.50 KCAL/MOL
REMARK 922        TOTAL FREE ENERGY PREDICTED BY IDOCK:   -5.89 KCAL/MOL
REMARK 923 INTER-LIGAND FREE ENERGY PREDICTED BY IDOCK:   -5.83 KCAL/MOL
REMARK 924 INTRA-LIGAND FREE ENERGY PREDICTED BY IDOCK:   -0.06 KCAL/MOL
REMARK 927      BINDING AFFINITY PREDICTED BY RF-SCORE:    0.00 PKD
ROOT
HETATM    1  N   UNL     1     -10.006  14.164  69.102  1.00  0.00    -0.429 N  
HETATM    2  C   UNL     1     -11.195  13.508  68.914  1.00  0.00    -0.275 C  
HETATM    3  H1  UNL     1      -9.152  13.610  69.037  1.00  0.00     0.000 HD 
HETATM    4  H2  UNL     1      -9.978  15.165  69.297  1.00  0.00     0.000 HD 
HETATM    5  O   UNL     1     -12.221  14.174  68.991  1.00  0.00    -0.332 OA 
ENDROOT
BRANCH   2   6
HETATM    6  N   UNL     1     -11.072  12.158  68.542  1.00  0.00    -0.234 N  
HETATM    7  C   UNL     1     -11.415  11.119  69.460  1.00  0.00    -0.303 A  
HETATM    8  C   UNL     1     -12.654  11.149  70.122  1.00  0.00    -0.249 A  
HETATM    9  C   UNL     1     -12.995  10.152  71.037  1.00  0.00    -0.473 A  
HETATM   10  C   UNL     1     -12.095   9.125  71.310  1.00  0.00    -0.392 A  
HETATM   11  C   UNL     1     -10.858   9.095  70.668  1.00  0.00    -0.321 A  
HETATM   12  C   UNL     1     -10.511  10.094  69.748  1.00  0.00    -0.301 A  
HETATM   13  C   UNL     1      -9.185  10.083  69.057  1.00  0.00    -0.180 C  
HETATM   14  C   UNL     1      -9.353   9.740  67.605  1.00  0.00    -0.140 C  
HETATM   15  O   UNL     1      -8.770   8.765  67.128  1.00  0.00    -0.119 OA 
HETATM   16  C   UNL     1     -10.196  10.615  66.730  1.00  0.00    -0.284 A  
HETATM   17  C   UNL     1     -10.927  11.750  67.161  1.00  0.00    -0.276 A  
HETATM   18  C   UNL     1     -11.567  12.515  66.161  1.00  0.00    -0.448 A  
HETATM   19  C   UNL     1     -11.495  12.188  64.803  1.00  0.00    -0.377 A  
HETATM   20  C   UNL     1     -10.783  11.073  64.398  1.00  0.00    -0.340 A  
HETATM   21  C   UNL     1     -10.142  10.293  65.354  1.00  0.00    -0.354 A  
ENDBRANCH   2   6
TORSDOF 1
ENDMDL
MODEL       24
REMARK 921   NORMALIZED FREE ENERGY PREDICTED BY IDOCK:   -5.44 KCAL/MOL
REMARK 922        TOTAL FREE ENERGY PREDICTED BY IDOCK:   -5.82 KCAL/MOL
REMARK 923 INTER-LIGAND FREE ENERGY PREDICTED BY IDOCK:   -5.77 KCAL/MOL
REMARK 924 INTRA-LIGAND FREE ENERGY PREDICTED BY IDOCK:   -0.05 KCAL/MOL
REMARK 927      BINDING AFFINITY PREDICTED BY RF-SCORE:    0.00 PKD
ROOT
HETATM    1  N   UNL     1     -13.360  13.771  65.373  1.00  0.00    -0.552 N  
HETATM    2  C   UNL     1     -12.000  13.871  65.509  1.00  0.00    -0.383 C  
HETATM    3  H1  UNL     1     -13.867  13.281  66.110  1.00  0.00     0.000 HD 
HETATM    4  H2  UNL     1     -13.844  14.170  64.569  1.00  0.00     0.000 HD 
HETATM    5  O   UNL     1     -11.390  14.460  64.623  1.00  0.00    -0.376 OA 
ENDROOT
BRANCH   2   6
HETATM    6  N   UNL     1     -11.489  13.374  66.720  1.00  0.00    -0.328 N  
HETATM    7  C   UNL     1     -10.660  12.210  66.734  1.00  0.00    -0.226 A  
HETATM    8  C   UNL     1      -9.555  12.125  65.870  1.00  0.00    -0.226 A  
HETATM    9  C   UNL     1      -8.749  10.986  65.857  1.00  0.00    -0.182 A  
HETATM   10  C   UNL     1      -9.049   9.916  66.696  1.00  0.00    -0.171 A  
HETATM   11  C   UNL     1     -10.152   9.986  67.547  1.00  0.00    -0.243 A  
HETATM   12  C   UNL     1     -10.964  11.127  67.563  1.00  0.00    -0.331 A  
HETATM   13  C   UNL     1     -12.156  11.217  68.462  1.00  0.00    -0.161 C  
HETATM   14  C   UNL     1     -11.905  12.199  69.570  1.00  0.00    -0.321 C  
HETATM   15  O   UNL     1     -11.980  11.836  70.746  1.00  0.00    -0.319 OA 
HETATM   16  C   UNL     1     -11.608  13.628  69.240  1.00  0.00    -0.363 A  
HETATM   17  C   UNL     1     -11.479  14.162  67.934  1.00  0.00    -0.312 A  
HETATM   18  C   UNL     1     -11.316  15.561  67.828  1.00  0.00    -0.286 A  
HETATM   19  C   UNL     1     -11.280  16.400  68.947  1.00  0.00    -0.304 A  
HETATM   20  C   UNL     1     -11.400  15.864  70.217  1.00  0.00    -0.381 A  
HETATM   21  C   UNL     1     -11.560  14.489  70.361  1.00  0.00    -0.308 A  
ENDBRANCH   2   6
TORSDOF 1
ENDMDL
MODEL       25
REMARK 921   NORMALIZED FREE ENERGY PREDICTED BY IDOCK:   -5.39 KCAL/MOL
REMARK 922        TOTAL FREE ENERGY PREDICTED BY IDOCK:   -5.77 KCAL/MOL
REMARK 923 INTER-LIGAND FREE ENERGY PREDICTED BY IDOCK:   -5.73 KCAL/MOL
REMARK 924 INTRA-LIGAND FREE ENERGY PREDICTED BY IDOCK:   -0.04 KCAL/MOL
REMARK 927      BINDING AFFINITY PREDICTED BY RF-SCORE:    0.00 PKD
ROOT
HETATM    1  N   UNL     1     -11.140  15.424  64.450  1.00  0.00    -0.700 N  
HETATM    2  C   UNL     1     -11.663  14.462  65.275  1.00  0.00    -0.364 C  
HETATM    3  H1  UNL     1     -10.194  15.748  64.653  1.00  0.00     0.000 HD 
HETATM    4  H2  UNL     1     -11.674  15.800  63.667  1.00  0.00     0.000 HD 
HETATM    5  O   UNL     1     -12.800  14.073  65.031  1.00  0.00    -0.695 OA 
ENDROOT
BRANCH   2   6
HETATM    6  N   UNL     1     -10.771  13.961  66.238  1.00  0.00    -0.284 N  
HETATM    7  C   UNL     1     -10.718  14.536  67.545  1.00  0.00    -0.276 A  
HETATM    8  C   UNL     1     -11.902  14.719  68.280  1.00  0.00    -0.316 A  
HETATM    9  C   UNL     1     -11.869  15.298  69.549  1.00  0.00    -0.368 A  
HETATM   10  C   UNL     1     -10.654  15.713  70.089  1.00  0.00    -0.348 A  
HETATM   11  C   UNL     1      -9.476  15.548  69.361  1.00  0.00    -0.278 A  
HETATM   12  C   UNL     1      -9.505  14.967  68.087  1.00  0.00    -0.196 A  
HETATM   13  C   UNL     1      -8.253  14.791  67.287  1.00  0.00    -0.237 C  
HETATM   14  C   UNL     1      -7.882  13.338  67.208  1.00  0.00    -0.108 C  
HETATM   15  O   UNL     1      -6.784  12.957  67.618  1.00  0.00    -0.123 OA 
HETATM   16  C   UNL     1      -8.833  12.364  66.586  1.00  0.00    -0.156 A  
HETATM   17  C   UNL     1     -10.125  12.674  66.095  1.00  0.00    -0.257 A  
HETATM   18  C   UNL     1     -10.824  11.638  65.435  1.00  0.00    -0.336 A  
HETATM   19  C   UNL     1     -10.285  10.359  65.263  1.00  0.00    -0.332 A  
HETATM   20  C   UNL     1      -9.025  10.069  65.755  1.00  0.00    -0.187 A  
HETATM   21  C   UNL     1      -8.307  11.062  66.413  1.00  0.00    -0.165 A  
ENDBRANCH   2   6
TORSDOF 1
ENDMDL
MODEL       26
REMARK 921   NORMALIZED FREE ENERGY PREDICTED BY IDOCK:   -5.33 KCAL/MOL
REMARK 922        TOTAL FREE ENERGY PREDICTED BY IDOCK:   -5.71 KCAL/MOL
REMARK 923 INTER-LIGAND FREE ENERGY PREDICTED BY IDOCK:   -5.68 KCAL/MOL
REMARK 924 INTRA-LIGAND FREE ENERGY PREDICTED BY IDOCK:   -0.03 KCAL/MOL
REMARK 927      BINDING AFFINITY PREDICTED BY RF-SCORE:    0.00 PKD
ROOT
HETATM    1  N   UNL     1      -8.704  12.225  68.528  1.00  0.00    -0.338 N  
HETATM    2  C   UNL     1      -9.989  11.819  68.282  1.00  0.00    -0.200 C  
HETATM    3  H1  UNL     1      -7.999  11.991  67.828  1.00  0.00     0.000 HD 
HETATM    4  H2  UNL     1      -8.462  12.739  69.375  1.00  0.00     0.000 HD 
HETATM    5  O   UNL     1     -10.837  12.101  69.123  1.00  0.00    -0.201 OA 
ENDROOT
BRANCH   2   6
HETATM    6  N   UNL     1     -10.191  11.222  67.026  1.00  0.00    -0.209 N  
HETATM    7  C   UNL     1     -10.057   9.809  66.865  1.00  0.00    -0.226 A  
HETATM    8  C   UNL     1     -10.730   8.937  67.738  1.00  0.00    -0.204 A  
HETATM    9  C   UNL     1     -10.592   7.555  67.607  1.00  0.00    -0.303 A  
HETATM   10  C   UNL     1      -9.769   7.032  66.613  1.00  0.00    -0.226 A  
HETATM   11  C   UNL     1      -9.086   7.890  65.751  1.00  0.00    -0.084 A  
HETATM   12  C   UNL     1      -9.221   9.278  65.879  1.00  0.00    -0.277 A  
HETATM   13  C   UNL     1      -8.489  10.215  64.971  1.00  0.00    -0.169 C  
HETATM   14  C   UNL     1      -9.446  10.882  64.025  1.00  0.00    -0.262 C  
HETATM   15  O   UNL     1      -9.291  10.769  62.807  1.00  0.00    -0.272 OA 
HETATM   16  C   UNL     1     -10.560  11.722  64.567  1.00  0.00    -0.364 A  
HETATM   17  C   UNL     1     -10.852  11.914  65.941  1.00  0.00    -0.297 A  
HETATM   18  C   UNL     1     -11.873  12.840  66.253  1.00  0.00    -0.485 A  
HETATM   19  C   UNL     1     -12.576  13.544  65.270  1.00  0.00    -0.517 A  
HETATM   20  C   UNL     1     -12.285  13.339  63.932  1.00  0.00    -0.491 A  
HETATM   21  C   UNL     1     -11.287  12.434  63.586  1.00  0.00    -0.556 A  
ENDBRANCH   2   6
TORSDOF 1
ENDMDL
MODEL       27
REMARK 921   NORMALIZED FREE ENERGY PREDICTED BY IDOCK:   -5.29 KCAL/MOL
REMARK 922        TOTAL FREE ENERGY PREDICTED BY IDOCK:   -5.66 KCAL/MOL
REMARK 923 INTER-LIGAND FREE ENERGY PREDICTED BY IDOCK:   -5.60 KCAL/MOL
REMARK 924 INTRA-LIGAND FREE ENERGY PREDICTED BY IDOCK:   -0.06 KCAL/MOL
REMARK 927      BINDING AFFINITY PREDICTED BY RF-SCORE:    0.00 PKD
ROOT
HETATM    1  N   UNL     1      -7.646  10.420  70.037  1.00  0.00    -0.321 N  
HETATM    2  C   UNL     1      -8.661   9.733  69.424  1.00  0.00    -0.174 C  
HETATM    3  H1  UNL     1      -7.732  11.436  70.081  1.00  0.00     0.000 HD 
HETATM    4  H2  UNL     1      -6.839   9.937  70.431  1.00  0.00     0.000 HD 
HETATM    5  O   UNL     1      -8.559   8.512  69.371  1.00  0.00    -0.125 OA 
ENDROOT
BRANCH   2   6
HETATM    6  N   UNL     1      -9.756  10.521  69.031  1.00  0.00    -0.202 N  
HETATM    7  C   UNL     1      -9.955  10.851  67.655  1.00  0.00    -0.173 A  
HETATM    8  C   UNL     1      -9.933   9.839  66.681  1.00  0.00    -0.292 A  
HETATM    9  C   UNL     1     -10.105  10.148  65.331  1.00  0.00    -0.342 A  
HETATM   10  C   UNL     1     -10.285  11.472  64.942  1.00  0.00    -0.324 A  
HETATM   11  C   UNL     1     -10.294  12.485  65.900  1.00  0.00    -0.284 A  
HETATM   12  C   UNL     1     -10.122  12.180  67.257  1.00  0.00    -0.214 A  
HETATM   13  C   UNL     1     -10.120  13.253  68.298  1.00  0.00    -0.250 C  
HETATM   14  C   UNL     1     -11.369  13.180  69.129  1.00  0.00    -0.281 C  
HETATM   15  O   UNL     1     -12.123  14.152  69.198  1.00  0.00    -0.341 OA 
HETATM   16  C   UNL     1     -11.668  11.937  69.909  1.00  0.00    -0.383 A  
HETATM   17  C   UNL     1     -10.890  10.753  69.899  1.00  0.00    -0.202 A  
HETATM   18  C   UNL     1     -11.273   9.730  70.796  1.00  0.00    -0.419 A  
HETATM   19  C   UNL     1     -12.365   9.859  71.662  1.00  0.00    -0.496 A  
HETATM   20  C   UNL     1     -13.119  11.019  71.654  1.00  0.00    -0.543 A  
HETATM   21  C   UNL     1     -12.774  12.048  70.783  1.00  0.00    -0.231 A  
ENDBRANCH   2   6
TORSDOF 1
ENDMDL
MODEL       28
REMARK 921   NORMALIZED FREE ENERGY PREDICTED BY IDOCK:   -5.28 KCAL/MOL
REMARK 922        TOTAL FREE ENERGY PREDICTED BY IDOCK:   -5.65 KCAL/MOL
REMARK 923 INTER-LIGAND FREE ENERGY PREDICTED BY IDOCK:   -5.63 KCAL/MOL
REMARK 924 INTRA-LIGAND FREE ENERGY PREDICTED BY IDOCK:   -0.02 KCAL/MOL
REMARK 927      BINDING AFFINITY PREDICTED BY RF-SCORE:    0.00 PKD
ROOT
HETATM    1  N   UNL     1     -12.461  15.416  69.098  1.00  0.00    -0.605 N  
HETATM    2  C   UNL     1     -11.414  15.720  68.267  1.00  0.00    -0.337 C  
HETATM    3  H1  UNL     1     -12.759  14.441  69.133  1.00  0.00     0.000 HD 
HETATM    4  H2  UNL     1     -12.922  16.134  69.656  1.00  0.00     0.000 HD 
HETATM    5  O   UNL     1     -11.055  16.892  68.224  1.00  0.00    -0.349 OA 
ENDROOT
BRANCH   2   6
HETATM    6  N   UNL     1     -10.808  14.612  67.650  1.00  0.00    -0.277 N  
HETATM    7  C   UNL     1     -11.283  14.136  66.389  1.00  0.00    -0.328 A  
HETATM    8  C   UNL     1     -11.459  15.032  65.321  1.00  0.00    -0.308 A  
HETATM    9  C   UNL     1     -11.941  14.585  64.091  1.00  0.00    -0.346 A  
HETATM   10  C   UNL     1     -12.267  13.242  63.921  1.00  0.00    -0.491 A  
HETATM   11  C   UNL     1     -12.110  12.348  64.980  1.00  0.00    -0.468 A  
HETATM   12  C   UNL     1     -11.625  12.792  66.217  1.00  0.00    -0.433 A  
HETATM   13  C   UNL     1     -11.458  11.850  67.367  1.00  0.00    -0.393 C  
HETATM   14  C   UNL     1     -10.001  11.608  67.639  1.00  0.00    -0.188 C  
HETATM   15  O   UNL     1      -9.548  10.462  67.603  1.00  0.00    -0.147 OA 
HETATM   16  C   UNL     1      -9.114  12.758  67.998  1.00  0.00    -0.207 A  
HETATM   17  C   UNL     1      -9.511  14.117  68.056  1.00  0.00    -0.213 A  
HETATM   18  C   UNL     1      -8.554  15.042  68.532  1.00  0.00    -0.166 A  
HETATM   19  C   UNL     1      -7.271  14.658  68.933  1.00  0.00    -0.124 A  
HETATM   20  C   UNL     1      -6.895  13.328  68.864  1.00  0.00    -0.103 A  
HETATM   21  C   UNL     1      -7.809  12.388  68.398  1.00  0.00    -0.142 A  
ENDBRANCH   2   6
TORSDOF 1
ENDMDL
MODEL       29
REMARK 921   NORMALIZED FREE ENERGY PREDICTED BY IDOCK:   -5.26 KCAL/MOL
REMARK 922        TOTAL FREE ENERGY PREDICTED BY IDOCK:   -5.63 KCAL/MOL
REMARK 923 INTER-LIGAND FREE ENERGY PREDICTED BY IDOCK:   -5.57 KCAL/MOL
REMARK 924 INTRA-LIGAND FREE ENERGY PREDICTED BY IDOCK:   -0.06 KCAL/MOL
REMARK 927      BINDING AFFINITY PREDICTED BY RF-SCORE:    0.00 PKD
ROOT
HETATM    1  N   UNL     1      -9.035   7.126  72.205  1.00  0.00    -0.131 N  
HETATM    2  C   UNL     1     -10.210   6.815  71.572  1.00  0.00    -0.193 C  
HETATM    3  H1  UNL     1      -8.550   7.969  71.899  1.00  0.00     0.000 HD 
HETATM    4  H2  UNL     1      -8.662   6.539  72.952  1.00  0.00     0.000 HD 
HETATM    5  O   UNL     1     -10.794   5.801  71.940  1.00  0.00    -0.238 OA 
ENDROOT
BRANCH   2   6
HETATM    6  N   UNL     1     -10.655   7.774  70.646  1.00  0.00    -0.218 N  
HETATM    7  C   UNL     1     -10.521   7.543  69.243  1.00  0.00    -0.214 A  
HETATM    8  C   UNL     1     -10.974   6.336  68.684  1.00  0.00    -0.423 A  
HETATM    9  C   UNL     1     -10.832   6.087  67.319  1.00  0.00    -0.403 A  
HETATM   10  C   UNL     1     -10.222   7.035  66.502  1.00  0.00    -0.127 A  
HETATM   11  C   UNL     1      -9.756   8.230  67.050  1.00  0.00    -0.274 A  
HETATM   12  C   UNL     1      -9.897   8.485  68.420  1.00  0.00    -0.189 A  
HETATM   13  C   UNL     1      -9.396   9.756  69.028  1.00  0.00    -0.161 C  
HETATM   14  C   UNL     1     -10.547  10.635  69.429  1.00  0.00    -0.239 C  
HETATM   15  O   UNL     1     -10.647  11.772  68.964  1.00  0.00    -0.204 OA 
HETATM   16  C   UNL     1     -11.544  10.139  70.429  1.00  0.00    -0.396 A  
HETATM   17  C   UNL     1     -11.546   8.851  71.020  1.00  0.00    -0.293 A  
HETATM   18  C   UNL     1     -12.502   8.615  72.033  1.00  0.00    -0.433 A  
HETATM   19  C   UNL     1     -13.414   9.591  72.449  1.00  0.00    -0.475 A  
HETATM   20  C   UNL     1     -13.404  10.842  71.857  1.00  0.00    -0.445 A  
HETATM   21  C   UNL     1     -12.478  11.111  70.855  1.00  0.00    -0.509 A  
ENDBRANCH   2   6
TORSDOF 1
ENDMDL
MODEL       30
REMARK 921   NORMALIZED FREE ENERGY PREDICTED BY IDOCK:   -5.26 KCAL/MOL
REMARK 922        TOTAL FREE ENERGY PREDICTED BY IDOCK:   -5.63 KCAL/MOL
REMARK 923 INTER-LIGAND FREE ENERGY PREDICTED BY IDOCK:   -5.71 KCAL/MOL
REMARK 924 INTRA-LIGAND FREE ENERGY PREDICTED BY IDOCK:    0.08 KCAL/MOL
REMARK 927      BINDING AFFINITY PREDICTED BY RF-SCORE:    0.00 PKD
ROOT
HETATM    1  N   UNL     1     -10.688  19.103  66.989  1.00  0.00    -0.458 N  
HETATM    2  C   UNL     1     -10.625  18.194  65.965  1.00  0.00    -0.264 C  
HETATM    3  H1  UNL     1     -10.407  18.781  67.916  1.00  0.00     0.000 HD 
HETATM    4  H2  UNL     1     -11.002  20.061  66.832  1.00  0.00     0.000 HD 
HETATM    5  O   UNL     1     -10.963  18.581  64.852  1.00  0.00    -0.547 OA 
ENDROOT
BRANCH   2   6
HETATM    6  N   UNL     1     -10.068  16.951  66.311  1.00  0.00    -0.311 N  
HETATM    7  C   UNL     1     -10.770  15.739  66.030  1.00  0.00    -0.306 A  
HETATM    8  C   UNL     1     -11.280  15.506  64.742  1.00  0.00    -0.399 A  
HETATM    9  C   UNL     1     -11.985  14.336  64.457  1.00  0.00    -0.478 A  
HETATM   10  C   UNL     1     -12.201  13.397  65.462  1.00  0.00    -0.499 A  
HETATM   11  C   UNL     1     -11.712  13.626  66.747  1.00  0.00    -0.426 A  
HETATM   12  C   UNL     1     -11.002  14.799  67.037  1.00  0.00    -0.324 A  
HETATM   13  C   UNL     1     -10.478  15.068  68.412  1.00  0.00    -0.238 C  
HETATM   14  C   UNL     1      -8.980  14.954  68.433  1.00  0.00    -0.183 C  
HETATM   15  O   UNL     1      -8.432  14.151  69.190  1.00  0.00     0.025 OA 
HETATM   16  C   UNL     1      -8.157  15.852  67.564  1.00  0.00    -0.171 A  
HETATM   17  C   UNL     1      -8.668  16.800  66.643  1.00  0.00    -0.248 A  
HETATM   18  C   UNL     1      -7.728  17.638  66.001  1.00  0.00    -0.228 A  
HETATM   19  C   UNL     1      -6.354  17.553  66.248  1.00  0.00    -0.279 A  
HETATM   20  C   UNL     1      -5.870  16.617  67.145  1.00  0.00    -0.194 A  
HETATM   21  C   UNL     1      -6.764  15.773  67.794  1.00  0.00    -0.178 A  
ENDBRANCH   2   6
TORSDOF 1
ENDMDL
MODEL       31
REMARK 921   NORMALIZED FREE ENERGY PREDICTED BY IDOCK:   -5.25 KCAL/MOL
REMARK 922        TOTAL FREE ENERGY PREDICTED BY IDOCK:   -5.62 KCAL/MOL
REMARK 923 INTER-LIGAND FREE ENERGY PREDICTED BY IDOCK:   -5.56 KCAL/MOL
REMARK 924 INTRA-LIGAND FREE ENERGY PREDICTED BY IDOCK:   -0.06 KCAL/MOL
REMARK 927      BINDING AFFINITY PREDICTED BY RF-SCORE:    0.00 PKD
ROOT
HETATM    1  N   UNL     1     -11.071  15.168  71.058  1.00  0.00    -0.517 N  
HETATM    2  C   UNL     1     -11.617  15.550  69.860  1.00  0.00    -0.335 C  
HETATM    3  H1  UNL     1     -10.109  14.829  71.044  1.00  0.00     0.000 HD 
HETATM    4  H2  UNL     1     -11.605  15.219  71.925  1.00  0.00     0.000 HD 
HETATM    5  O   UNL     1     -12.774  15.956  69.875  1.00  0.00    -0.196 OA 
ENDROOT
BRANCH   2   6
HETATM    6  N   UNL     1     -10.728  15.531  68.772  1.00  0.00    -0.239 N  
HETATM    7  C   UNL     1     -10.868  14.554  67.739  1.00  0.00    -0.264 A  
HETATM    8  C   UNL     1     -12.117  14.355  67.126  1.00  0.00    -0.367 A  
HETATM    9  C   UNL     1     -12.274  13.390  66.130  1.00  0.00    -0.471 A  
HETATM   10  C   UNL     1     -11.189  12.605  65.749  1.00  0.00    -0.347 A  
HETATM   11  C   UNL     1      -9.949  12.786  66.362  1.00  0.00    -0.268 A  
HETATM   12  C   UNL     1      -9.786  13.753  67.362  1.00  0.00    -0.238 A  
HETATM   13  C   UNL     1      -8.467  13.955  68.038  1.00  0.00    -0.173 C  
HETATM   14  C   UNL     1      -7.854  15.258  67.612  1.00  0.00    -0.159 C  
HETATM   15  O   UNL     1      -6.742  15.274  67.082  1.00  0.00    -0.276 OA 
HETATM   16  C   UNL     1      -8.581  16.540  67.876  1.00  0.00    -0.183 A  
HETATM   17  C   UNL     1      -9.868  16.651  68.460  1.00  0.00    -0.252 A  
HETATM   18  C   UNL     1     -10.333  17.957  68.736  1.00  0.00    -0.311 A  
HETATM   19  C   UNL     1      -9.577  19.099  68.454  1.00  0.00    -0.437 A  
HETATM   20  C   UNL     1      -8.326  18.975  67.877  1.00  0.00    -0.320 A  
HETATM   21  C   UNL     1      -7.834  17.706  67.588  1.00  0.00    -0.212 A  
ENDBRANCH   2   6
TORSDOF 1
ENDMDL
MODEL       32
REMARK 921   NORMALIZED FREE ENERGY PREDICTED BY IDOCK:   -5.24 KCAL/MOL
REMARK 922        TOTAL FREE ENERGY PREDICTED BY IDOCK:   -5.61 KCAL/MOL
REMARK 923 INTER-LIGAND FREE ENERGY PREDICTED BY IDOCK:   -6.17 KCAL/MOL
REMARK 924 INTRA-LIGAND FREE ENERGY PREDICTED BY IDOCK:    0.56 KCAL/MOL
REMARK 927      BINDING AFFINITY PREDICTED BY RF-SCORE:    0.00 PKD
ROOT
HETATM    1  N   UNL     1     -10.368  17.579  65.625  1.00  0.00    -0.221 N  
HETATM    2  C   UNL     1     -10.946  16.471  65.061  1.00  0.00    -0.210 C  
HETATM    3  H1  UNL     1      -9.918  17.459  66.532  1.00  0.00     0.000 HD 
HETATM    4  H2  UNL     1     -10.388  18.485  65.156  1.00  0.00     0.000 HD 
HETATM    5  O   UNL     1     -11.488  16.614  63.971  1.00  0.00    -1.192 OA 
ENDROOT
BRANCH   2   6
HETATM    6  N   UNL     1     -10.740  15.273  65.768  1.00  0.00    -0.331 N  
HETATM    7  C   UNL     1     -10.725  15.269  67.196  1.00  0.00    -0.316 A  
HETATM    8  C   UNL     1     -11.769  15.878  67.912  1.00  0.00     0.007 A  
HETATM    9  C   UNL     1     -11.757  15.900  69.307  1.00  0.00    -0.360 A  
HETATM   10  C   UNL     1     -10.694  15.325  69.999  1.00  0.00    -0.297 A  
HETATM   11  C   UNL     1      -9.646  14.731  69.297  1.00  0.00    -0.082 A  
HETATM   12  C   UNL     1      -9.654  14.707  67.896  1.00  0.00    -0.212 A  
HETATM   13  C   UNL     1      -8.535  14.082  67.126  1.00  0.00    -0.207 C  
HETATM   14  C   UNL     1      -8.990  12.803  66.483  1.00  0.00    -0.092 C  
HETATM   15  O   UNL     1      -8.413  11.744  66.736  1.00  0.00    -0.176 OA 
HETATM   16  C   UNL     1     -10.119  12.830  65.500  1.00  0.00    -0.278 A  
HETATM   17  C   UNL     1     -10.869  13.977  65.140  1.00  0.00    -0.369 A  
HETATM   18  C   UNL     1     -11.817  13.820  64.103  1.00  0.00    -0.439 A  
HETATM   19  C   UNL     1     -12.021  12.600  63.449  1.00  0.00    -0.613 A  
HETATM   20  C   UNL     1     -11.285  11.488  63.817  1.00  0.00    -0.456 A  
HETATM   21  C   UNL     1     -10.344  11.602  64.835  1.00  0.00    -0.331 A  
ENDBRANCH   2   6
TORSDOF 1
ENDMDL
MODEL       33
REMARK 921   NORMALIZED FREE ENERGY PREDICTED BY IDOCK:   -5.18 KCAL/MOL
REMARK 922        TOTAL FREE ENERGY PREDICTED BY IDOCK:   -5.55 KCAL/MOL
REMARK 923 INTER-LIGAND FREE ENERGY PREDICTED BY IDOCK:   -5.51 KCAL/MOL
REMARK 924 INTRA-LIGAND FREE ENERGY PREDICTED BY IDOCK:   -0.04 KCAL/MOL
REMARK 927      BINDING AFFINITY PREDICTED BY RF-SCORE:    0.00 PKD
ROOT
HETATM    1  N   UNL     1     -12.386  13.972  66.808  1.00  0.00    -0.525 N  
HETATM    2  C   UNL     1     -11.748  14.078  68.016  1.00  0.00    -0.359 C  
HETATM    3  H1  UNL     1     -12.255  13.104  66.287  1.00  0.00     0.000 HD 
HETATM    4  H2  UNL     1     -12.966  14.728  66.445  1.00  0.00     0.000 HD 
HETATM    5  O   UNL     1     -11.904  15.121  68.643  1.00  0.00    -0.339 OA 
ENDROOT
BRANCH   2   6
HETATM    6  N   UNL     1     -11.078  12.916  68.436  1.00  0.00    -0.247 N  
HETATM    7  C   UNL     1      -9.694  12.729  68.137  1.00  0.00    -0.223 A  
HETATM    8  C   UNL     1      -8.769  13.746  68.431  1.00  0.00    -0.162 A  
HETATM    9  C   UNL     1      -7.417  13.586  68.126  1.00  0.00    -0.132 A  
HETATM   10  C   UNL     1      -6.979  12.416  67.512  1.00  0.00    -0.142 A  
HETATM   11  C   UNL     1      -7.892  11.408  67.203  1.00  0.00    -0.156 A  
HETATM   12  C   UNL     1      -9.250  11.563  67.507  1.00  0.00    -0.166 A  
HETATM   13  C   UNL     1     -10.245  10.497  67.176  1.00  0.00    -0.270 C  
HETATM   14  C   UNL     1     -10.730   9.825  68.428  1.00  0.00    -0.221 C  
HETATM   15  O   UNL     1     -10.592   8.608  68.569  1.00  0.00    -0.196 OA 
HETATM   16  C   UNL     1     -11.421  10.632  69.482  1.00  0.00    -0.360 A  
HETATM   17  C   UNL     1     -11.625  12.033  69.444  1.00  0.00    -0.330 A  
HETATM   18  C   UNL     1     -12.406  12.594  70.480  1.00  0.00    -0.350 A  
HETATM   19  C   UNL     1     -12.961  11.821  71.505  1.00  0.00    -0.446 A  
HETATM   20  C   UNL     1     -12.748  10.454  71.532  1.00  0.00    -0.564 A  
HETATM   21  C   UNL     1     -11.982   9.866  70.531  1.00  0.00    -0.320 A  
ENDBRANCH   2   6
TORSDOF 1
ENDMDL
MODEL       34
REMARK 921   NORMALIZED FREE ENERGY PREDICTED BY IDOCK:   -5.13 KCAL/MOL
REMARK 922        TOTAL FREE ENERGY PREDICTED BY IDOCK:   -5.49 KCAL/MOL
REMARK 923 INTER-LIGAND FREE ENERGY PREDICTED BY IDOCK:   -5.44 KCAL/MOL
REMARK 924 INTRA-LIGAND FREE ENERGY PREDICTED BY IDOCK:   -0.05 KCAL/MOL
REMARK 927      BINDING AFFINITY PREDICTED BY RF-SCORE:    0.00 PKD
ROOT
HETATM    1  N   UNL     1     -11.819  13.081  70.274  1.00  0.00    -0.532 N  
HETATM    2  C   UNL     1     -11.621  14.122  69.405  1.00  0.00    -0.304 C  
HETATM    3  H1  UNL     1     -11.380  12.190  70.042  1.00  0.00     0.000 HD 
HETATM    4  H2  UNL     1     -12.381  13.193  71.117  1.00  0.00     0.000 HD 
HETATM    5  O   UNL     1     -12.148  15.193  69.683  1.00  0.00    -0.314 OA 
ENDROOT
BRANCH   2   6
HETATM    6  N   UNL     1     -10.733  13.850  68.349  1.00  0.00    -0.249 N  
HETATM    7  C   UNL     1     -11.228  13.437  67.074  1.00  0.00    -0.305 A  
HETATM    8  C   UNL     1     -12.246  14.173  66.445  1.00  0.00    -0.473 A  
HETATM    9  C   UNL     1     -12.754  13.770  65.209  1.00  0.00    -0.481 A  
HETATM   10  C   UNL     1     -12.259  12.620  64.599  1.00  0.00    -0.519 A  
HETATM   11  C   UNL     1     -11.259  11.875  65.223  1.00  0.00    -0.351 A  
HETATM   12  C   UNL     1     -10.746  12.276  66.464  1.00  0.00    -0.279 A  
HETATM   13  C   UNL     1      -9.680  11.485  67.153  1.00  0.00    -0.199 C  
HETATM   14  C   UNL     1      -8.375  12.230  67.127  1.00  0.00    -0.183 C  
HETATM   15  O   UNL     1      -7.381  11.715  66.613  1.00  0.00    -0.116 OA 
HETATM   16  C   UNL     1      -8.280  13.579  67.769  1.00  0.00    -0.176 A  
HETATM   17  C   UNL     1      -9.352  14.280  68.374  1.00  0.00    -0.208 A  
HETATM   18  C   UNL     1      -9.033  15.490  69.031  1.00  0.00    -0.237 A  
HETATM   19  C   UNL     1      -7.729  15.991  69.093  1.00  0.00    -0.231 A  
HETATM   20  C   UNL     1      -6.694  15.298  68.491  1.00  0.00    -0.112 A  
HETATM   21  C   UNL     1      -6.968  14.104  67.832  1.00  0.00    -0.173 A  
ENDBRANCH   2   6
TORSDOF 1
ENDMDL
MODEL       35
REMARK 921   NORMALIZED FREE ENERGY PREDICTED BY IDOCK:   -5.12 KCAL/MOL
REMARK 922        TOTAL FREE ENERGY PREDICTED BY IDOCK:   -5.48 KCAL/MOL
REMARK 923 INTER-LIGAND FREE ENERGY PREDICTED BY IDOCK:   -5.49 KCAL/MOL
REMARK 924 INTRA-LIGAND FREE ENERGY PREDICTED BY IDOCK:    0.01 KCAL/MOL
REMARK 927      BINDING AFFINITY PREDICTED BY RF-SCORE:    0.00 PKD
ROOT
HETATM    1  N   UNL     1      -7.415  10.650  64.881  1.00  0.00    -0.354 N  
HETATM    2  C   UNL     1      -8.708  10.525  64.444  1.00  0.00    -0.177 C  
HETATM    3  H1  UNL     1      -7.268  11.115  65.777  1.00  0.00     0.000 HD 
HETATM    4  H2  UNL     1      -6.632  10.292  64.333  1.00  0.00     0.000 HD 
HETATM    5  O   UNL     1      -8.885   9.966  63.367  1.00  0.00    -0.200 OA 
ENDROOT
BRANCH   2   6
HETATM    6  N   UNL     1      -9.685  10.962  65.356  1.00  0.00    -0.222 N  
HETATM    7  C   UNL     1     -10.611  11.987  64.989  1.00  0.00    -0.289 A  
HETATM    8  C   UNL     1     -11.329  11.885  63.786  1.00  0.00    -0.532 A  
HETATM    9  C   UNL     1     -12.222  12.888  63.405  1.00  0.00    -0.574 A  
HETATM   10  C   UNL     1     -12.393  14.007  64.215  1.00  0.00    -0.393 A  
HETATM   11  C   UNL     1     -11.674  14.123  65.404  1.00  0.00    -0.347 A  
HETATM   12  C   UNL     1     -10.776  13.119  65.791  1.00  0.00    -0.292 A  
HETATM   13  C   UNL     1      -9.989  13.230  67.058  1.00  0.00    -0.238 C  
HETATM   14  C   UNL     1     -10.489  12.243  68.074  1.00  0.00    -0.218 C  
HETATM   15  O   UNL     1     -10.894  12.637  69.169  1.00  0.00    -0.186 OA 
HETATM   16  C   UNL     1     -10.451  10.779  67.766  1.00  0.00    -0.243 A  
HETATM   17  C   UNL     1     -10.025  10.207  66.541  1.00  0.00    -0.224 A  
HETATM   18  C   UNL     1      -9.949   8.797  66.488  1.00  0.00    -0.360 A  
HETATM   19  C   UNL     1     -10.274   7.984  67.580  1.00  0.00    -0.311 A  
HETATM   20  C   UNL     1     -10.695   8.558  68.766  1.00  0.00    -0.089 A  
HETATM   21  C   UNL     1     -10.784   9.943  68.857  1.00  0.00    -0.244 A  
ENDBRANCH   2   6
TORSDOF 1
ENDMDL
MODEL       36
REMARK 921   NORMALIZED FREE ENERGY PREDICTED BY IDOCK:   -5.11 KCAL/MOL
REMARK 922        TOTAL FREE ENERGY PREDICTED BY IDOCK:   -5.48 KCAL/MOL
REMARK 923 INTER-LIGAND FREE ENERGY PREDICTED BY IDOCK:   -5.41 KCAL/MOL
REMARK 924 INTRA-LIGAND FREE ENERGY PREDICTED BY IDOCK:   -0.06 KCAL/MOL
REMARK 927      BINDING AFFINITY PREDICTED BY RF-SCORE:    0.00 PKD
ROOT
HETATM    1  N   UNL     1      -7.790  10.102  69.958  1.00  0.00    -0.287 N  
HETATM    2  C   UNL     1      -8.974  10.402  69.337  1.00  0.00    -0.151 C  
HETATM    3  H1  UNL     1      -7.801   9.343  70.640  1.00  0.00     0.000 HD 
HETATM    4  H2  UNL     1      -6.934  10.615  69.748  1.00  0.00     0.000 HD 
HETATM    5  O   UNL     1      -8.961  11.314  68.517  1.00  0.00    -0.161 OA 
ENDROOT
BRANCH   2   6
HETATM    6  N   UNL     1     -10.039   9.538  69.644  1.00  0.00    -0.198 N  
HETATM    7  C   UNL     1     -11.128   9.989  70.451  1.00  0.00    -0.327 A  
HETATM    8  C   UNL     1     -11.783  11.192  70.138  1.00  0.00    -0.439 A  
HETATM    9  C   UNL     1     -12.835  11.656  70.928  1.00  0.00    -0.264 A  
HETATM   10  C   UNL     1     -13.232  10.929  72.047  1.00  0.00    -0.456 A  
HETATM   11  C   UNL     1     -12.579   9.741  72.374  1.00  0.00    -0.126 A  
HETATM   12  C   UNL     1     -11.523   9.271  71.583  1.00  0.00    -0.468 A  
HETATM   13  C   UNL     1     -10.804   8.004  71.923  1.00  0.00    -0.316 C  
HETATM   14  C   UNL     1     -11.140   6.929  70.931  1.00  0.00    -0.272 C  
HETATM   15  O   UNL     1     -11.640   5.869  71.314  1.00  0.00    -0.203 OA 
HETATM   16  C   UNL     1     -10.823   7.132  69.482  1.00  0.00    -0.244 A  
HETATM   17  C   UNL     1     -10.266   8.307  68.919  1.00  0.00    -0.210 A  
HETATM   18  C   UNL     1      -9.929   8.259  67.547  1.00  0.00    -0.252 A  
HETATM   19  C   UNL     1     -10.127   7.118  66.763  1.00  0.00    -0.278 A  
HETATM   20  C   UNL     1     -10.679   5.981  67.326  1.00  0.00    -0.400 A  
HETATM   21  C   UNL     1     -11.026   5.990  68.673  1.00  0.00    -0.361 A  
ENDBRANCH   2   6
TORSDOF 1
ENDMDL
MODEL       37
REMARK 921   NORMALIZED FREE ENERGY PREDICTED BY IDOCK:   -5.10 KCAL/MOL
REMARK 922        TOTAL FREE ENERGY PREDICTED BY IDOCK:   -5.47 KCAL/MOL
REMARK 923 INTER-LIGAND FREE ENERGY PREDICTED BY IDOCK:   -5.41 KCAL/MOL
REMARK 924 INTRA-LIGAND FREE ENERGY PREDICTED BY IDOCK:   -0.05 KCAL/MOL
REMARK 927      BINDING AFFINITY PREDICTED BY RF-SCORE:    0.00 PKD
ROOT
HETATM    1  N   UNL     1     -13.932   7.542  71.156  1.00  0.00    -0.642 N  
HETATM    2  C   UNL     1     -12.735   8.030  71.610  1.00  0.00    -0.326 C  
HETATM    3  H1  UNL     1     -13.900   6.852  70.405  1.00  0.00     0.000 HD 
HETATM    4  H2  UNL     1     -14.818   7.855  71.552  1.00  0.00     0.000 HD 
HETATM    5  O   UNL     1     -12.774   8.859  72.513  1.00  0.00    -0.390 OA 
ENDROOT
BRANCH   2   6
HETATM    6  N   UNL     1     -11.598   7.423  71.049  1.00  0.00    -0.281 N  
HETATM    7  C   UNL     1     -10.734   8.164  70.185  1.00  0.00    -0.243 A  
HETATM    8  C   UNL     1     -10.252   9.422  70.584  1.00  0.00    -0.353 A  
HETATM    9  C   UNL     1      -9.424  10.165  69.742  1.00  0.00    -0.201 A  
HETATM   10  C   UNL     1      -9.083   9.665  68.488  1.00  0.00    -0.131 A  
HETATM   11  C   UNL     1      -9.568   8.424  68.078  1.00  0.00    -0.168 A  
HETATM   12  C   UNL     1     -10.399   7.674  68.919  1.00  0.00    -0.222 A  
HETATM   13  C   UNL     1     -10.937   6.345  68.493  1.00  0.00    -0.396 C  
HETATM   14  C   UNL     1     -10.279   5.240  69.269  1.00  0.00    -0.231 C  
HETATM   15  O   UNL     1      -9.671   4.346  68.676  1.00  0.00    -0.158 OA 
HETATM   16  C   UNL     1     -10.404   5.205  70.760  1.00  0.00    -0.294 A  
HETATM   17  C   UNL     1     -11.060   6.179  71.553  1.00  0.00    -0.286 A  
HETATM   18  C   UNL     1     -11.174   5.905  72.935  1.00  0.00    -0.291 A  
HETATM   19  C   UNL     1     -10.671   4.735  73.514  1.00  0.00    -0.338 A  
HETATM   20  C   UNL     1     -10.027   3.797  72.727  1.00  0.00    -0.212 A  
HETATM   21  C   UNL     1      -9.893   4.032  71.362  1.00  0.00    -0.249 A  
ENDBRANCH   2   6
TORSDOF 1
ENDMDL
MODEL       38
REMARK 921   NORMALIZED FREE ENERGY PREDICTED BY IDOCK:   -5.10 KCAL/MOL
REMARK 922        TOTAL FREE ENERGY PREDICTED BY IDOCK:   -5.46 KCAL/MOL
REMARK 923 INTER-LIGAND FREE ENERGY PREDICTED BY IDOCK:   -5.42 KCAL/MOL
REMARK 924 INTRA-LIGAND FREE ENERGY PREDICTED BY IDOCK:   -0.04 KCAL/MOL
REMARK 927      BINDING AFFINITY PREDICTED BY RF-SCORE:    0.00 PKD
ROOT
HETATM    1  N   UNL     1      -6.709  15.374  68.690  1.00  0.00    -0.100 N  
HETATM    2  C   UNL     1      -7.194  15.937  67.538  1.00  0.00    -0.177 C  
HETATM    3  H1  UNL     1      -7.359  15.273  69.469  1.00  0.00     0.000 HD 
HETATM    4  H2  UNL     1      -5.738  15.070  68.764  1.00  0.00     0.000 HD 
HETATM    5  O   UNL     1      -6.412  16.059  66.601  1.00  0.00    -0.220 OA 
ENDROOT
BRANCH   2   6
HETATM    6  N   UNL     1      -8.574  16.201  67.545  1.00  0.00    -0.174 N  
HETATM    7  C   UNL     1      -9.055  17.544  67.464  1.00  0.00    -0.234 A  
HETATM    8  C   UNL     1      -8.578  18.401  66.457  1.00  0.00    -0.287 A  
HETATM    9  C   UNL     1      -9.022  19.721  66.378  1.00  0.00    -0.440 A  
HETATM   10  C   UNL     1      -9.936  20.201  67.312  1.00  0.00    -0.583 A  
HETATM   11  C   UNL     1     -10.404  19.362  68.323  1.00  0.00    -0.500 A  
HETATM   12  C   UNL     1      -9.961  18.036  68.407  1.00  0.00    -0.382 A  
HETATM   13  C   UNL     1     -10.444  17.124  69.489  1.00  0.00    -0.122 C  
HETATM   14  C   UNL     1     -11.360  16.078  68.922  1.00  0.00    -0.370 C  
HETATM   15  O   UNL     1     -12.513  15.970  69.345  1.00  0.00    -0.050 OA 
HETATM   16  C   UNL     1     -10.852  15.137  67.875  1.00  0.00    -0.291 A  
HETATM   17  C   UNL     1      -9.558  15.169  67.298  1.00  0.00    -0.209 A  
HETATM   18  C   UNL     1      -9.228  14.121  66.411  1.00  0.00    -0.209 A  
HETATM   19  C   UNL     1     -10.120  13.089  66.101  1.00  0.00    -0.287 A  
HETATM   20  C   UNL     1     -11.383  13.075  66.667  1.00  0.00    -0.366 A  
HETATM   21  C   UNL     1     -11.745  14.092  67.544  1.00  0.00    -0.421 A  
ENDBRANCH   2   6
TORSDOF 1
ENDMDL
MODEL       39
REMARK 921   NORMALIZED FREE ENERGY PREDICTED BY IDOCK:   -5.07 KCAL/MOL
REMARK 922        TOTAL FREE ENERGY PREDICTED BY IDOCK:   -5.42 KCAL/MOL
REMARK 923 INTER-LIGAND FREE ENERGY PREDICTED BY IDOCK:   -5.36 KCAL/MOL
REMARK 924 INTRA-LIGAND FREE ENERGY PREDICTED BY IDOCK:   -0.06 KCAL/MOL
REMARK 927      BINDING AFFINITY PREDICTED BY RF-SCORE:    0.00 PKD
ROOT
HETATM    1  N   UNL     1     -10.410  16.730  66.109  1.00  0.00    -0.337 N  
HETATM    2  C   UNL     1      -9.616  16.450  67.191  1.00  0.00    -0.235 C  
HETATM    3  H1  UNL     1     -11.023  15.985  65.776  1.00  0.00     0.000 HD 
HETATM    4  H2  UNL     1     -10.389  17.644  65.657  1.00  0.00     0.000 HD 
HETATM    5  O   UNL     1      -8.879  17.345  67.591  1.00  0.00    -0.222 OA 
ENDROOT
BRANCH   2   6
HETATM    6  N   UNL     1      -9.836  15.192  67.776  1.00  0.00    -0.222 N  
HETATM    7  C   UNL     1      -8.912  14.123  67.564  1.00  0.00    -0.198 A  
HETATM    8  C   UNL     1      -7.538  14.330  67.774  1.00  0.00    -0.175 A  
HETATM    9  C   UNL     1      -6.622  13.301  67.551  1.00  0.00    -0.153 A  
HETATM   10  C   UNL     1      -7.069  12.062  67.101  1.00  0.00    -0.130 A  
HETATM   11  C   UNL     1      -8.429  11.851  66.875  1.00  0.00    -0.174 A  
HETATM   12  C   UNL     1      -9.352  12.881  67.098  1.00  0.00    -0.229 A  
HETATM   13  C   UNL     1     -10.814  12.677  66.853  1.00  0.00    -0.282 C  
HETATM   14  C   UNL     1     -11.562  12.632  68.155  1.00  0.00    -0.338 C  
HETATM   15  O   UNL     1     -12.235  11.641  68.447  1.00  0.00    -0.498 OA 
HETATM   16  C   UNL     1     -11.524  13.814  69.073  1.00  0.00    -0.349 A  
HETATM   17  C   UNL     1     -10.777  14.999  68.858  1.00  0.00    -0.240 A  
HETATM   18  C   UNL     1     -10.966  16.050  69.783  1.00  0.00    -0.334 A  
HETATM   19  C   UNL     1     -11.844  15.947  70.868  1.00  0.00    -0.453 A  
HETATM   20  C   UNL     1     -12.561  14.781  71.069  1.00  0.00    -0.401 A  
HETATM   21  C   UNL     1     -12.399  13.723  70.180  1.00  0.00    -0.390 A  
ENDBRANCH   2   6
TORSDOF 1
ENDMDL
MODEL       40
REMARK 921   NORMALIZED FREE ENERGY PREDICTED BY IDOCK:   -5.06 KCAL/MOL
REMARK 922        TOTAL FREE ENERGY PREDICTED BY IDOCK:   -5.42 KCAL/MOL
REMARK 923 INTER-LIGAND FREE ENERGY PREDICTED BY IDOCK:   -5.36 KCAL/MOL
REMARK 924 INTRA-LIGAND FREE ENERGY PREDICTED BY IDOCK:   -0.06 KCAL/MOL
REMARK 927      BINDING AFFINITY PREDICTED BY RF-SCORE:    0.00 PKD
ROOT
HETATM    1  N   UNL     1     -10.049  15.340  70.191  1.00  0.00    -0.500 N  
HETATM    2  C   UNL     1      -9.100  15.249  69.207  1.00  0.00    -0.240 C  
HETATM    3  H1  UNL     1     -10.605  16.195  70.225  1.00  0.00     0.000 HD 
HETATM    4  H2  UNL     1     -10.194  14.584  70.861  1.00  0.00     0.000 HD 
HETATM    5  O   UNL     1      -8.432  14.222  69.165  1.00  0.00    -0.017 OA 
ENDROOT
BRANCH   2   6
HETATM    6  N   UNL     1      -9.094  16.316  68.291  1.00  0.00    -0.192 N  
HETATM    7  C   UNL     1      -8.153  17.382  68.427  1.00  0.00    -0.264 A  
HETATM    8  C   UNL     1      -6.786  17.096  68.583  1.00  0.00    -0.197 A  
HETATM    9  C   UNL     1      -5.858  18.126  68.737  1.00  0.00    -0.194 A  
HETATM   10  C   UNL     1      -6.289  19.450  68.753  1.00  0.00    -0.288 A  
HETATM   11  C   UNL     1      -7.645  19.742  68.613  1.00  0.00    -0.319 A  
HETATM   12  C   UNL     1      -8.581  18.712  68.458  1.00  0.00    -0.370 A  
HETATM   13  C   UNL     1     -10.040  19.005  68.316  1.00  0.00    -0.466 C  
HETATM   14  C   UNL     1     -10.498  18.725  66.913  1.00  0.00    -0.414 C  
HETATM   15  O   UNL     1     -11.015  19.620  66.242  1.00  0.00    -0.372 OA 
HETATM   16  C   UNL     1     -10.364  17.344  66.352  1.00  0.00    -0.317 A  
HETATM   17  C   UNL     1      -9.774  16.240  67.016  1.00  0.00    -0.239 A  
HETATM   18  C   UNL     1      -9.850  14.988  66.365  1.00  0.00    -0.290 A  
HETATM   19  C   UNL     1     -10.473  14.823  65.124  1.00  0.00    -0.443 A  
HETATM   20  C   UNL     1     -11.039  15.912  64.485  1.00  0.00    -0.285 A  
HETATM   21  C   UNL     1     -10.982  17.162  65.093  1.00  0.00     0.044 A  
ENDBRANCH   2   6
TORSDOF 1
ENDMDL
MODEL       41
REMARK 921   NORMALIZED FREE ENERGY PREDICTED BY IDOCK:   -4.97 KCAL/MOL
REMARK 922        TOTAL FREE ENERGY PREDICTED BY IDOCK:   -5.33 KCAL/MOL
REMARK 923 INTER-LIGAND FREE ENERGY PREDICTED BY IDOCK:   -5.36 KCAL/MOL
REMARK 924 INTRA-LIGAND FREE ENERGY PREDICTED BY IDOCK:    0.03 KCAL/MOL
REMARK 927      BINDING AFFINITY PREDICTED BY RF-SCORE:    0.00 PKD
ROOT
HETATM    1  N   UNL     1      -9.716  13.260  68.957  1.00  0.00    -0.383 N  
HETATM    2  C   UNL     1     -10.848  12.488  68.937  1.00  0.00    -0.196 C  
HETATM    3  H1  UNL     1      -8.826  12.780  69.095  1.00  0.00     0.000 HD 
HETATM    4  H2  UNL     1      -9.761  14.273  68.839  1.00  0.00     0.000 HD 
HETATM    5  O   UNL     1     -11.917  13.066  68.771  1.00  0.00    -0.314 OA 
ENDROOT
BRANCH   2   6
HETATM    6  N   UNL     1     -10.620  11.103  68.999  1.00  0.00    -0.215 N  
HETATM    7  C   UNL     1     -11.214  10.316  70.033  1.00  0.00    -0.311 A  
HETATM    8  C   UNL     1     -12.592  10.418  70.289  1.00  0.00    -0.262 A  
HETATM    9  C   UNL     1     -13.182   9.672  71.309  1.00  0.00    -0.429 A  
HETATM   10  C   UNL     1     -12.399   8.829  72.093  1.00  0.00    -0.458 A  
HETATM   11  C   UNL     1     -11.028   8.732  71.855  1.00  0.00    -0.435 A  
HETATM   12  C   UNL     1     -10.431   9.479  70.832  1.00  0.00    -0.382 A  
HETATM   13  C   UNL     1      -8.961   9.396  70.568  1.00  0.00    -0.303 C  
HETATM   14  C   UNL     1      -8.700   8.672  69.279  1.00  0.00    -0.133 C  
HETATM   15  O   UNL     1      -8.002   7.656  69.270  1.00  0.00    -0.121 OA 
HETATM   16  C   UNL     1      -9.254   9.216  67.999  1.00  0.00    -0.142 A  
HETATM   17  C   UNL     1     -10.081  10.360  67.881  1.00  0.00    -0.171 A  
HETATM   18  C   UNL     1     -10.403  10.783  66.571  1.00  0.00    -0.300 A  
HETATM   19  C   UNL     1      -9.939  10.118  65.431  1.00  0.00    -0.377 A  
HETATM   20  C   UNL     1      -9.138   8.997  65.563  1.00  0.00    -0.271 A  
HETATM   21  C   UNL     1      -8.801   8.550  66.836  1.00  0.00    -0.153 A  
ENDBRANCH   2   6
TORSDOF 1
ENDMDL
MODEL       42
REMARK 921   NORMALIZED FREE ENERGY PREDICTED BY IDOCK:   -4.94 KCAL/MOL
REMARK 922        TOTAL FREE ENERGY PREDICTED BY IDOCK:   -5.30 KCAL/MOL
REMARK 923 INTER-LIGAND FREE ENERGY PREDICTED BY IDOCK:   -5.71 KCAL/MOL
REMARK 924 INTRA-LIGAND FREE ENERGY PREDICTED BY IDOCK:    0.41 KCAL/MOL
REMARK 927      BINDING AFFINITY PREDICTED BY RF-SCORE:    0.00 PKD
ROOT
HETATM    1  N   UNL     1     -12.783  15.019  69.346  1.00  0.00    -0.491 N  
HETATM    2  C   UNL     1     -12.017  13.883  69.360  1.00  0.00    -0.354 C  
HETATM    3  H1  UNL     1     -12.777  15.575  68.491  1.00  0.00     0.000 HD 
HETATM    4  H2  UNL     1     -13.337  15.296  70.157  1.00  0.00     0.000 HD 
HETATM    5  O   UNL     1     -12.024  13.214  70.387  1.00  0.00    -0.332 OA 
ENDROOT
BRANCH   2   6
HETATM    6  N   UNL     1     -11.401  13.570  68.135  1.00  0.00    -0.268 N  
HETATM    7  C   UNL     1     -10.696  14.573  67.402  1.00  0.00    -0.282 A  
HETATM    8  C   UNL     1      -9.729  15.364  68.045  1.00  0.00    -0.207 A  
HETATM    9  C   UNL     1      -9.048  16.361  67.347  1.00  0.00    -0.206 A  
HETATM   10  C   UNL     1      -9.338  16.588  66.004  1.00  0.00    -0.302 A  
HETATM   11  C   UNL     1     -10.306  15.817  65.361  1.00  0.00    -0.417 A  
HETATM   12  C   UNL     1     -10.993  14.815  66.058  1.00  0.00    -0.328 A  
HETATM   13  C   UNL     1     -12.041  13.985  65.388  1.00  0.00    -0.411 C  
HETATM   14  C   UNL     1     -11.550  12.579  65.191  1.00  0.00    -0.353 C  
HETATM   15  O   UNL     1     -11.504  12.094  64.059  1.00  0.00    -0.352 OA 
HETATM   16  C   UNL     1     -11.161  11.757  66.379  1.00  0.00    -0.360 A  
HETATM   17  C   UNL     1     -11.154  12.205  67.724  1.00  0.00    -0.250 A  
HETATM   18  C   UNL     1     -10.869  11.241  68.717  1.00  0.00    -0.252 A  
HETATM   19  C   UNL     1     -10.603   9.903  68.411  1.00  0.00    -0.258 A  
HETATM   20  C   UNL     1     -10.607   9.481  67.093  1.00  0.00    -0.295 A  
HETATM   21  C   UNL     1     -10.881  10.402  66.087  1.00  0.00     0.011 A  
ENDBRANCH   2   6
TORSDOF 1
ENDMDL
MODEL       43
REMARK 921   NORMALIZED FREE ENERGY PREDICTED BY IDOCK:   -4.94 KCAL/MOL
REMARK 922        TOTAL FREE ENERGY PREDICTED BY IDOCK:   -5.29 KCAL/MOL
REMARK 923 INTER-LIGAND FREE ENERGY PREDICTED BY IDOCK:   -5.25 KCAL/MOL
REMARK 924 INTRA-LIGAND FREE ENERGY PREDICTED BY IDOCK:   -0.04 KCAL/MOL
REMARK 927      BINDING AFFINITY PREDICTED BY RF-SCORE:    0.00 PKD
ROOT
HETATM    1  N   UNL     1     -11.565   6.761  67.346  1.00  0.00    -0.616 N  
HETATM    2  C   UNL     1     -10.521   7.647  67.409  1.00  0.00    -0.297 C  
HETATM    3  H1  UNL     1     -12.256   6.802  68.095  1.00  0.00     0.000 HD 
HETATM    4  H2  UNL     1     -11.647   6.090  66.583  1.00  0.00     0.000 HD 
HETATM    5  O   UNL     1      -9.690   7.599  66.509  1.00  0.00    -0.208 OA 
ENDROOT
BRANCH   2   6
HETATM    6  N   UNL     1     -10.603   8.584  68.454  1.00  0.00    -0.160 N  
HETATM    7  C   UNL     1      -9.988   8.318  69.715  1.00  0.00    -0.191 A  
HETATM    8  C   UNL     1      -8.645   7.907  69.768  1.00  0.00    -0.133 A  
HETATM    9  C   UNL     1      -8.037   7.623  70.991  1.00  0.00    -0.095 A  
HETATM   10  C   UNL     1      -8.768   7.733  72.171  1.00  0.00    -0.169 A  
HETATM   11  C   UNL     1     -10.105   8.127  72.127  1.00  0.00    -0.320 A  
HETATM   12  C   UNL     1     -10.721   8.413  70.901  1.00  0.00    -0.260 A  
HETATM   13  C   UNL     1     -12.156   8.827  70.832  1.00  0.00    -0.195 C  
HETATM   14  C   UNL     1     -12.265  10.279  70.463  1.00  0.00    -0.301 C  
HETATM   15  O   UNL     1     -12.850  11.064  71.212  1.00  0.00    -0.388 OA 
HETATM   16  C   UNL     1     -11.702  10.757  69.162  1.00  0.00    -0.368 A  
HETATM   17  C   UNL     1     -10.997   9.958  68.228  1.00  0.00    -0.196 A  
HETATM   18  C   UNL     1     -10.648  10.567  67.001  1.00  0.00    -0.310 A  
HETATM   19  C   UNL     1     -10.973  11.894  66.701  1.00  0.00    -0.336 A  
HETATM   20  C   UNL     1     -11.656  12.663  67.627  1.00  0.00    -0.414 A  
HETATM   21  C   UNL     1     -12.014  12.099  68.847  1.00  0.00    -0.296 A  
ENDBRANCH   2   6
TORSDOF 1
ENDMDL
MODEL       44
REMARK 921   NORMALIZED FREE ENERGY PREDICTED BY IDOCK:   -4.93 KCAL/MOL
REMARK 922        TOTAL FREE ENERGY PREDICTED BY IDOCK:   -5.29 KCAL/MOL
REMARK 923 INTER-LIGAND FREE ENERGY PREDICTED BY IDOCK:   -5.59 KCAL/MOL
REMARK 924 INTRA-LIGAND FREE ENERGY PREDICTED BY IDOCK:    0.30 KCAL/MOL
REMARK 927      BINDING AFFINITY PREDICTED BY RF-SCORE:    0.00 PKD
ROOT
HETATM    1  N   UNL     1     -10.426  11.664  69.349  1.00  0.00    -0.436 N  
HETATM    2  C   UNL     1     -11.227  11.462  68.255  1.00  0.00    -0.263 C  
HETATM    3  H1  UNL     1      -9.445  11.884  69.174  1.00  0.00     0.000 HD 
HETATM    4  H2  UNL     1     -10.795  11.595  70.298  1.00  0.00     0.000 HD 
HETATM    5  O   UNL     1     -12.406  11.197  68.465  1.00  0.00    -0.561 OA 
ENDROOT
BRANCH   2   6
HETATM    6  N   UNL     1     -10.607  11.701  67.017  1.00  0.00    -0.226 N  
HETATM    7  C   UNL     1     -10.421  13.036  66.545  1.00  0.00    -0.277 A  
HETATM    8  C   UNL     1      -9.830  14.000  67.380  1.00  0.00    -0.240 A  
HETATM    9  C   UNL     1      -9.661  15.313  66.941  1.00  0.00    -0.245 A  
HETATM   10  C   UNL     1     -10.093  15.679  65.669  1.00  0.00    -0.395 A  
HETATM   11  C   UNL     1     -10.693  14.733  64.838  1.00  0.00    -0.438 A  
HETATM   12  C   UNL     1     -10.865  13.413  65.275  1.00  0.00    -0.318 A  
HETATM   13  C   UNL     1     -11.515  12.387  64.402  1.00  0.00    -0.408 C  
HETATM   14  C   UNL     1     -10.500  11.388  63.924  1.00  0.00    -0.387 C  
HETATM   15  O   UNL     1     -10.323  11.218  62.716  1.00  0.00    -0.152 OA 
HETATM   16  C   UNL     1      -9.741  10.568  64.920  1.00  0.00    -0.360 A  
HETATM   17  C   UNL     1      -9.844  10.682  66.329  1.00  0.00    -0.214 A  
HETATM   18  C   UNL     1      -9.132   9.736  67.100  1.00  0.00    -0.152 A  
HETATM   19  C   UNL     1      -8.356   8.726  66.521  1.00  0.00    -0.112 A  
HETATM   20  C   UNL     1      -8.260   8.632  65.144  1.00  0.00    -0.152 A  
HETATM   21  C   UNL     1      -8.944   9.547  64.352  1.00  0.00    -0.255 A  
ENDBRANCH   2   6
TORSDOF 1
ENDMDL
MODEL       45
REMARK 921   NORMALIZED FREE ENERGY PREDICTED BY IDOCK:   -4.93 KCAL/MOL
REMARK 922        TOTAL FREE ENERGY PREDICTED BY IDOCK:   -5.28 KCAL/MOL
REMARK 923 INTER-LIGAND FREE ENERGY PREDICTED BY IDOCK:   -5.61 KCAL/MOL
REMARK 924 INTRA-LIGAND FREE ENERGY PREDICTED BY IDOCK:    0.32 KCAL/MOL
REMARK 927      BINDING AFFINITY PREDICTED BY RF-SCORE:    0.00 PKD
ROOT
HETATM    1  N   UNL     1     -12.082  15.574  68.741  1.00  0.00    -0.584 N  
HETATM    2  C   UNL     1     -11.060  16.127  69.467  1.00  0.00    -0.344 C  
HETATM    3  H1  UNL     1     -11.949  15.496  67.733  1.00  0.00     0.000 HD 
HETATM    4  H2  UNL     1     -12.940  15.254  69.191  1.00  0.00     0.000 HD 
HETATM    5  O   UNL     1     -11.220  16.221  70.679  1.00  0.00    -0.371 OA 
ENDROOT
BRANCH   2   6
HETATM    6  N   UNL     1      -9.899  16.415  68.729  1.00  0.00    -0.239 N  
HETATM    7  C   UNL     1      -9.059  15.360  68.257  1.00  0.00    -0.187 A  
HETATM    8  C   UNL     1      -9.618  14.280  67.553  1.00  0.00    -0.216 A  
HETATM    9  C   UNL     1      -8.814  13.232  67.104  1.00  0.00    -0.223 A  
HETATM   10  C   UNL     1      -7.447  13.246  67.369  1.00  0.00    -0.134 A  
HETATM   11  C   UNL     1      -6.886  14.307  68.080  1.00  0.00    -0.150 A  
HETATM   12  C   UNL     1      -7.689  15.361  68.532  1.00  0.00    -0.132 A  
HETATM   13  C   UNL     1      -7.108  16.503  69.304  1.00  0.00    -0.219 C  
HETATM   14  C   UNL     1      -7.102  17.751  68.469  1.00  0.00    -0.245 C  
HETATM   15  O   UNL     1      -6.042  18.339  68.244  1.00  0.00    -0.176 OA 
HETATM   16  C   UNL     1      -8.394  18.302  67.952  1.00  0.00    -0.259 A  
HETATM   17  C   UNL     1      -9.670  17.712  68.129  1.00  0.00    -0.310 A  
HETATM   18  C   UNL     1     -10.784  18.448  67.667  1.00  0.00    -0.390 A  
HETATM   19  C   UNL     1     -10.657  19.702  67.061  1.00  0.00    -0.602 A  
HETATM   20  C   UNL     1      -9.404  20.263  66.889  1.00  0.00    -0.505 A  
HETATM   21  C   UNL     1      -8.282  19.567  67.329  1.00  0.00    -0.321 A  
ENDBRANCH   2   6
TORSDOF 1
ENDMDL
MODEL       46
REMARK 921   NORMALIZED FREE ENERGY PREDICTED BY IDOCK:   -4.92 KCAL/MOL
REMARK 922        TOTAL FREE ENERGY PREDICTED BY IDOCK:   -5.27 KCAL/MOL
REMARK 923 INTER-LIGAND FREE ENERGY PREDICTED BY IDOCK:   -5.21 KCAL/MOL
REMARK 924 INTRA-LIGAND FREE ENERGY PREDICTED BY IDOCK:   -0.06 KCAL/MOL
REMARK 927      BINDING AFFINITY PREDICTED BY RF-SCORE:    0.00 PKD
ROOT
HETATM    1  N   UNL     1     -10.386  19.421  68.509  1.00  0.00    -0.494 N  
HETATM    2  C   UNL     1     -10.326  19.095  67.179  1.00  0.00    -0.420 C  
HETATM    3  H1  UNL     1      -9.724  18.959  69.133  1.00  0.00     0.000 HD 
HETATM    4  H2  UNL     1     -11.064  20.097  68.861  1.00  0.00     0.000 HD 
HETATM    5  O   UNL     1     -11.122  19.651  66.430  1.00  0.00    -0.313 OA 
ENDROOT
BRANCH   2   6
HETATM    6  N   UNL     1      -9.269  18.238  66.828  1.00  0.00    -0.280 N  
HETATM    7  C   UNL     1      -9.531  16.892  66.426  1.00  0.00    -0.283 A  
HETATM    8  C   UNL     1     -10.490  16.631  65.432  1.00  0.00    -0.253 A  
HETATM    9  C   UNL     1     -10.771  15.321  65.044  1.00  0.00    -0.461 A  
HETATM   10  C   UNL     1     -10.109  14.260  65.655  1.00  0.00    -0.364 A  
HETATM   11  C   UNL     1      -9.166  14.509  66.653  1.00  0.00    -0.290 A  
HETATM   12  C   UNL     1      -8.880  15.823  67.046  1.00  0.00    -0.241 A  
HETATM   13  C   UNL     1      -7.879  16.109  68.120  1.00  0.00    -0.147 C  
HETATM   14  C   UNL     1      -6.643  16.727  67.532  1.00  0.00    -0.147 C  
HETATM   15  O   UNL     1      -5.547  16.187  67.692  1.00  0.00    -0.128 OA 
HETATM   16  C   UNL     1      -6.743  18.025  66.793  1.00  0.00    -0.222 A  
HETATM   17  C   UNL     1      -7.942  18.732  66.530  1.00  0.00    -0.279 A  
HETATM   18  C   UNL     1      -7.815  20.001  65.921  1.00  0.00    -0.277 A  
HETATM   19  C   UNL     1      -6.575  20.552  65.583  1.00  0.00    -0.268 A  
HETATM   20  C   UNL     1      -5.413  19.846  65.840  1.00  0.00    -0.172 A  
HETATM   21  C   UNL     1      -5.497  18.592  66.437  1.00  0.00    -0.172 A  
ENDBRANCH   2   6
TORSDOF 1
ENDMDL
MODEL       47
REMARK 921   NORMALIZED FREE ENERGY PREDICTED BY IDOCK:   -4.89 KCAL/MOL
REMARK 922        TOTAL FREE ENERGY PREDICTED BY IDOCK:   -5.24 KCAL/MOL
REMARK 923 INTER-LIGAND FREE ENERGY PREDICTED BY IDOCK:   -5.26 KCAL/MOL
REMARK 924 INTRA-LIGAND FREE ENERGY PREDICTED BY IDOCK:    0.02 KCAL/MOL
REMARK 927      BINDING AFFINITY PREDICTED BY RF-SCORE:    0.00 PKD
ROOT
HETATM    1  N   UNL     1      -7.190   8.947  71.529  1.00  0.00    -0.087 N  
HETATM    2  C   UNL     1      -8.161   9.274  70.619  1.00  0.00    -0.190 C  
HETATM    3  H1  UNL     1      -7.440   8.279  72.258  1.00  0.00     0.000 HD 
HETATM    4  H2  UNL     1      -6.256   9.355  71.479  1.00  0.00     0.000 HD 
HETATM    5  O   UNL     1      -7.861  10.078  69.743  1.00  0.00    -0.147 OA 
ENDROOT
BRANCH   2   6
HETATM    6  N   UNL     1      -9.359   8.550  70.746  1.00  0.00    -0.161 N  
HETATM    7  C   UNL     1     -10.600   9.230  70.943  1.00  0.00    -0.296 A  
HETATM    8  C   UNL     1     -10.963  10.288  70.093  1.00  0.00    -0.377 A  
HETATM    9  C   UNL     1     -12.162  10.975  70.286  1.00  0.00    -0.447 A  
HETATM   10  C   UNL     1     -13.001  10.621  71.339  1.00  0.00    -0.545 A  
HETATM   11  C   UNL     1     -12.642   9.582  72.197  1.00  0.00    -0.411 A  
HETATM   12  C   UNL     1     -11.439   8.889  72.007  1.00  0.00    -0.431 A  
HETATM   13  C   UNL     1     -11.032   7.779  72.922  1.00  0.00    -0.467 C  
HETATM   14  C   UNL     1     -11.128   6.456  72.217  1.00  0.00    -0.265 C  
HETATM   15  O   UNL     1     -11.848   5.565  72.670  1.00  0.00    -0.274 OA 
HETATM   16  C   UNL     1     -10.311   6.212  70.987  1.00  0.00    -0.260 A  
HETATM   17  C   UNL     1      -9.463   7.159  70.361  1.00  0.00    -0.162 A  
HETATM   18  C   UNL     1      -8.682   6.699  69.276  1.00  0.00    -0.131 A  
HETATM   19  C   UNL     1      -8.728   5.376  68.825  1.00  0.00    -0.098 A  
HETATM   20  C   UNL     1      -9.567   4.465  69.441  1.00  0.00    -0.269 A  
HETATM   21  C   UNL     1     -10.353   4.881  70.511  1.00  0.00    -0.242 A  
ENDBRANCH   2   6
TORSDOF 1
ENDMDL
MODEL       48
REMARK 921   NORMALIZED FREE ENERGY PREDICTED BY IDOCK:   -4.87 KCAL/MOL
REMARK 922        TOTAL FREE ENERGY PREDICTED BY IDOCK:   -5.22 KCAL/MOL
REMARK 923 INTER-LIGAND FREE ENERGY PREDICTED BY IDOCK:   -5.19 KCAL/MOL
REMARK 924 INTRA-LIGAND FREE ENERGY PREDICTED BY IDOCK:   -0.03 KCAL/MOL
REMARK 927      BINDING AFFINITY PREDICTED BY RF-SCORE:    0.00 PKD
ROOT
HETATM    1  N   UNL     1     -11.432   6.263  69.687  1.00  0.00    -0.512 N  
HETATM    2  C   UNL     1     -11.589   7.012  70.824  1.00  0.00    -0.338 C  
HETATM    3  H1  UNL     1     -10.852   6.657  68.946  1.00  0.00     0.000 HD 
HETATM    4  H2  UNL     1     -11.876   5.350  69.586  1.00  0.00     0.000 HD 
HETATM    5  O   UNL     1     -12.286   6.538  71.715  1.00  0.00    -0.347 OA 
ENDROOT
BRANCH   2   6
HETATM    6  N   UNL     1     -10.828   8.192  70.864  1.00  0.00    -0.226 N  
HETATM    7  C   UNL     1     -11.471   9.468  70.908  1.00  0.00    -0.334 A  
HETATM    8  C   UNL     1     -12.478   9.713  71.856  1.00  0.00    -0.459 A  
HETATM    9  C   UNL     1     -13.129  10.946  71.898  1.00  0.00    -0.537 A  
HETATM   10  C   UNL     1     -12.790  11.940  70.984  1.00  0.00    -0.291 A  
HETATM   11  C   UNL     1     -11.801  11.700  70.030  1.00  0.00    -0.435 A  
HETATM   12  C   UNL     1     -11.144  10.464  69.984  1.00  0.00    -0.379 A  
HETATM   13  C   UNL     1     -10.088  10.185  68.963  1.00  0.00    -0.216 C  
HETATM   14  C   UNL     1      -8.735  10.123  69.612  1.00  0.00    -0.158 C  
HETATM   15  O   UNL     1      -7.837  10.883  69.243  1.00  0.00    -0.144 OA 
HETATM   16  C   UNL     1      -8.470   9.104  70.676  1.00  0.00    -0.246 A  
HETATM   17  C   UNL     1      -9.420   8.190  71.196  1.00  0.00    -0.157 A  
HETATM   18  C   UNL     1      -8.944   7.226  72.112  1.00  0.00    -0.148 A  
HETATM   19  C   UNL     1      -7.602   7.158  72.503  1.00  0.00    -0.089 A  
HETATM   20  C   UNL     1      -6.687   8.062  71.992  1.00  0.00    -0.067 A  
HETATM   21  C   UNL     1      -7.119   9.028  71.089  1.00  0.00    -0.107 A  
ENDBRANCH   2   6
TORSDOF 1
ENDMDL
MODEL       49
REMARK 921   NORMALIZED FREE ENERGY PREDICTED BY IDOCK:   -4.87 KCAL/MOL
REMARK 922        TOTAL FREE ENERGY PREDICTED BY IDOCK:   -5.22 KCAL/MOL
REMARK 923 INTER-LIGAND FREE ENERGY PREDICTED BY IDOCK:   -5.53 KCAL/MOL
REMARK 924 INTRA-LIGAND FREE ENERGY PREDICTED BY IDOCK:    0.31 KCAL/MOL
REMARK 927      BINDING AFFINITY PREDICTED BY RF-SCORE:    0.00 PKD
ROOT
HETATM    1  N   UNL     1     -10.264  13.001  64.551  1.00  0.00    -0.547 N  
HETATM    2  C   UNL     1     -11.332  12.990  65.411  1.00  0.00    -0.297 C  
HETATM    3  H1  UNL     1      -9.351  13.229  64.945  1.00  0.00     0.000 HD 
HETATM    4  H2  UNL     1     -10.378  12.791  63.559  1.00  0.00     0.000 HD 
HETATM    5  O   UNL     1     -12.430  12.716  64.937  1.00  0.00    -0.484 OA 
ENDROOT
BRANCH   2   6
HETATM    6  N   UNL     1     -11.004  13.187  66.763  1.00  0.00    -0.276 N  
HETATM    7  C   UNL     1     -10.388  12.143  67.519  1.00  0.00    -0.205 A  
HETATM    8  C   UNL     1      -9.252  11.487  67.014  1.00  0.00    -0.180 A  
HETATM    9  C   UNL     1      -8.652  10.452  67.731  1.00  0.00    -0.122 A  
HETATM   10  C   UNL     1      -9.191  10.052  68.952  1.00  0.00    -0.169 A  
HETATM   11  C   UNL     1     -10.326  10.687  69.454  1.00  0.00    -0.234 A  
HETATM   12  C   UNL     1     -10.932  11.728  68.737  1.00  0.00    -0.281 A  
HETATM   13  C   UNL     1     -12.155  12.415  69.254  1.00  0.00    -0.218 C  
HETATM   14  C   UNL     1     -11.825  13.811  69.698  1.00  0.00    -0.333 C  
HETATM   15  O   UNL     1     -12.048  14.160  70.858  1.00  0.00    -0.330 OA 
HETATM   16  C   UNL     1     -11.266  14.789  68.711  1.00  0.00    -0.286 A  
HETATM   17  C   UNL     1     -10.952  14.504  67.359  1.00  0.00    -0.303 A  
HETATM   18  C   UNL     1     -10.546  15.594  66.555  1.00  0.00    -0.307 A  
HETATM   19  C   UNL     1     -10.452  16.899  67.049  1.00  0.00    -0.281 A  
HETATM   20  C   UNL     1     -10.756  17.159  68.374  1.00  0.00    -0.347 A  
HETATM   21  C   UNL     1     -11.157  16.112  69.197  1.00  0.00    -0.329 A  
ENDBRANCH   2   6
TORSDOF 1
ENDMDL
MODEL       50
REMARK 921   NORMALIZED FREE ENERGY PREDICTED BY IDOCK:   -4.85 KCAL/MOL
REMARK 922        TOTAL FREE ENERGY PREDICTED BY IDOCK:   -5.20 KCAL/MOL
REMARK 923 INTER-LIGAND FREE ENERGY PREDICTED BY IDOCK:   -5.17 KCAL/MOL
REMARK 924 INTRA-LIGAND FREE ENERGY PREDICTED BY IDOCK:   -0.03 KCAL/MOL
REMARK 927      BINDING AFFINITY PREDICTED BY RF-SCORE:    0.00 PKD
ROOT
HETATM    1  N   UNL     1     -11.085   9.042  68.053  1.00  0.00    -0.477 N  
HETATM    2  C   UNL     1     -11.032  10.405  67.924  1.00  0.00    -0.297 C  
HETATM    3  H1  UNL     1     -10.598   8.488  67.347  1.00  0.00     0.000 HD 
HETATM    4  H2  UNL     1     -11.589   8.599  68.821  1.00  0.00     0.000 HD 
HETATM    5  O   UNL     1     -11.616  11.071  68.773  1.00  0.00    -0.272 OA 
ENDROOT
BRANCH   2   6
HETATM    6  N   UNL     1     -10.208  10.870  66.885  1.00  0.00    -0.219 N  
HETATM    7  C   UNL     1     -10.766  11.595  65.787  1.00  0.00    -0.280 A  
HETATM    8  C   UNL     1     -11.614  12.690  66.028  1.00  0.00    -0.443 A  
HETATM    9  C   UNL     1     -12.183  13.394  64.967  1.00  0.00    -0.463 A  
HETATM   10  C   UNL     1     -11.922  13.003  63.657  1.00  0.00    -0.608 A  
HETATM   11  C   UNL     1     -11.094  11.908  63.408  1.00  0.00    -0.463 A  
HETATM   12  C   UNL     1     -10.520  11.198  64.471  1.00  0.00    -0.415 A  
HETATM   13  C   UNL     1      -9.637  10.016  64.225  1.00  0.00    -0.301 C  
HETATM   14  C   UNL     1      -8.211  10.350  64.558  1.00  0.00    -0.131 C  
HETATM   15  O   UNL     1      -7.334  10.242  63.698  1.00  0.00    -0.142 OA 
HETATM   16  C   UNL     1      -7.854  10.769  65.949  1.00  0.00    -0.131 A  
HETATM   17  C   UNL     1      -8.770  10.945  67.016  1.00  0.00    -0.141 A  
HETATM   18  C   UNL     1      -8.222  11.229  68.288  1.00  0.00    -0.143 A  
HETATM   19  C   UNL     1      -6.844  11.335  68.506  1.00  0.00    -0.071 A  
HETATM   20  C   UNL     1      -5.963  11.167  67.453  1.00  0.00    -0.057 A  
HETATM   21  C   UNL     1      -6.465  10.889  66.185  1.00  0.00    -0.114 A  
ENDBRANCH   2   6
TORSDOF 1
ENDMDL
MODEL       51
REMARK 921   NORMALIZED FREE ENERGY PREDICTED BY IDOCK:   -4.82 KCAL/MOL
REMARK 922        TOTAL FREE ENERGY PREDICTED BY IDOCK:   -5.16 KCAL/MOL
REMARK 923 INTER-LIGAND FREE ENERGY PREDICTED BY IDOCK:   -5.48 KCAL/MOL
REMARK 924 INTRA-LIGAND FREE ENERGY PREDICTED BY IDOCK:    0.32 KCAL/MOL
REMARK 927      BINDING AFFINITY PREDICTED BY RF-SCORE:    0.00 PKD
ROOT
HETATM    1  N   UNL     1     -10.089  19.577  69.437  1.00  0.00    -0.569 N  
HETATM    2  C   UNL     1     -10.340  18.874  68.288  1.00  0.00    -0.335 C  
HETATM    3  H1  UNL     1      -9.550  19.106  70.163  1.00  0.00     0.000 HD 
HETATM    4  H2  UNL     1     -10.428  20.531  69.560  1.00  0.00     0.000 HD 
HETATM    5  O   UNL     1     -10.988  19.440  67.414  1.00  0.00    -0.490 OA 
ENDROOT
BRANCH   2   6
HETATM    6  N   UNL     1      -9.716  17.616  68.216  1.00  0.00    -0.300 N  
HETATM    7  C   UNL     1      -8.304  17.519  68.016  1.00  0.00    -0.241 A  
HETATM    8  C   UNL     1      -7.428  18.258  68.828  1.00  0.00    -0.297 A  
HETATM    9  C   UNL     1      -6.048  18.189  68.632  1.00  0.00    -0.197 A  
HETATM   10  C   UNL     1      -5.533  17.393  67.612  1.00  0.00    -0.137 A  
HETATM   11  C   UNL     1      -6.396  16.668  66.791  1.00  0.00    -0.157 A  
HETATM   12  C   UNL     1      -7.782  16.734  66.985  1.00  0.00    -0.230 A  
HETATM   13  C   UNL     1      -8.724  15.970  66.109  1.00  0.00    -0.348 C  
HETATM   14  C   UNL     1      -9.346  14.836  66.872  1.00  0.00    -0.240 C  
HETATM   15  O   UNL     1      -9.217  13.677  66.471  1.00  0.00    -0.248 OA 
HETATM   16  C   UNL     1     -10.161  15.124  68.094  1.00  0.00    -0.227 A  
HETATM   17  C   UNL     1     -10.369  16.405  68.661  1.00  0.00    -0.273 A  
HETATM   18  C   UNL     1     -11.269  16.484  69.748  1.00  0.00    -0.166 A  
HETATM   19  C   UNL     1     -11.934  15.364  70.256  1.00  0.00    -0.386 A  
HETATM   20  C   UNL     1     -11.716  14.117  69.696  1.00  0.00    -0.372 A  
HETATM   21  C   UNL     1     -10.835  13.999  68.626  1.00  0.00    -0.272 A  
ENDBRANCH   2   6
TORSDOF 1
ENDMDL
MODEL       52
REMARK 921   NORMALIZED FREE ENERGY PREDICTED BY IDOCK:   -4.82 KCAL/MOL
REMARK 922        TOTAL FREE ENERGY PREDICTED BY IDOCK:   -5.16 KCAL/MOL
REMARK 923 INTER-LIGAND FREE ENERGY PREDICTED BY IDOCK:   -5.19 KCAL/MOL
REMARK 924 INTRA-LIGAND FREE ENERGY PREDICTED BY IDOCK:    0.03 KCAL/MOL
REMARK 927      BINDING AFFINITY PREDICTED BY RF-SCORE:    0.00 PKD
ROOT
HETATM    1  N   UNL     1     -12.293  14.494  68.141  1.00  0.00    -0.588 N  
HETATM    2  C   UNL     1     -11.915  14.035  66.906  1.00  0.00    -0.447 C  
HETATM    3  H1  UNL     1     -11.584  14.499  68.874  1.00  0.00     0.000 HD 
HETATM    4  H2  UNL     1     -13.244  14.817  68.319  1.00  0.00     0.000 HD 
HETATM    5  O   UNL     1     -12.767  14.029  66.025  1.00  0.00    -0.475 OA 
ENDROOT
BRANCH   2   6
HETATM    6  N   UNL     1     -10.548  13.733  66.781  1.00  0.00    -0.272 N  
HETATM    7  C   UNL     1     -10.129  12.428  66.376  1.00  0.00    -0.236 A  
HETATM    8  C   UNL     1     -10.686  11.837  65.230  1.00  0.00    -0.338 A  
HETATM    9  C   UNL     1     -10.302  10.556  64.833  1.00  0.00    -0.307 A  
HETATM   10  C   UNL     1      -9.369   9.848  65.587  1.00  0.00    -0.269 A  
HETATM   11  C   UNL     1      -8.822  10.421  66.734  1.00  0.00    -0.139 A  
HETATM   12  C   UNL     1      -9.204  11.707  67.136  1.00  0.00    -0.176 A  
HETATM   13  C   UNL     1      -8.635  12.335  68.369  1.00  0.00    -0.136 C  
HETATM   14  C   UNL     1      -7.701  13.454  68.004  1.00  0.00    -0.147 C  
HETATM   15  O   UNL     1      -6.528  13.426  68.379  1.00  0.00    -0.077 OA 
HETATM   16  C   UNL     1      -8.215  14.622  67.222  1.00  0.00    -0.235 A  
HETATM   17  C   UNL     1      -9.533  14.762  66.721  1.00  0.00    -0.254 A  
HETATM   18  C   UNL     1      -9.857  15.994  66.110  1.00  0.00    -0.351 A  
HETATM   19  C   UNL     1      -8.936  17.040  65.994  1.00  0.00    -0.168 A  
HETATM   20  C   UNL     1      -7.650  16.886  66.481  1.00  0.00    -0.328 A  
HETATM   21  C   UNL     1      -7.293  15.686  67.088  1.00  0.00    -0.247 A  
ENDBRANCH   2   6
TORSDOF 1
ENDMDL
MODEL       53
REMARK 921   NORMALIZED FREE ENERGY PREDICTED BY IDOCK:   -4.81 KCAL/MOL
REMARK 922        TOTAL FREE ENERGY PREDICTED BY IDOCK:   -5.16 KCAL/MOL
REMARK 923 INTER-LIGAND FREE ENERGY PREDICTED BY IDOCK:   -5.10 KCAL/MOL
REMARK 924 INTRA-LIGAND FREE ENERGY PREDICTED BY IDOCK:   -0.06 KCAL/MOL
REMARK 927      BINDING AFFINITY PREDICTED BY RF-SCORE:    0.00 PKD
ROOT
HETATM    1  N   UNL     1      -7.326  12.407  69.106  1.00  0.00    -0.319 N  
HETATM    2  C   UNL     1      -7.945  11.459  68.334  1.00  0.00    -0.142 C  
HETATM    3  H1  UNL     1      -7.922  12.993  69.691  1.00  0.00     0.000 HD 
HETATM    4  H2  UNL     1      -6.313  12.522  69.096  1.00  0.00     0.000 HD 
HETATM    5  O   UNL     1      -7.230  10.755  67.630  1.00  0.00    -0.089 OA 
ENDROOT
BRANCH   2   6
HETATM    6  N   UNL     1      -9.331  11.343  68.538  1.00  0.00    -0.186 N  
HETATM    7  C   UNL     1     -10.251  11.812  67.550  1.00  0.00    -0.195 A  
HETATM    8  C   UNL     1     -10.099  11.424  66.208  1.00  0.00    -0.263 A  
HETATM    9  C   UNL     1     -10.976  11.891  65.230  1.00  0.00    -0.354 A  
HETATM   10  C   UNL     1     -12.004  12.762  65.580  1.00  0.00    -0.503 A  
HETATM   11  C   UNL     1     -12.154  13.164  66.907  1.00  0.00    -0.377 A  
HETATM   12  C   UNL     1     -11.276  12.698  67.893  1.00  0.00    -0.310 A  
HETATM   13  C   UNL     1     -11.415  13.125  69.320  1.00  0.00    -0.348 C  
HETATM   14  C   UNL     1     -11.904  11.983  70.164  1.00  0.00    -0.301 C  
HETATM   15  O   UNL     1     -12.948  12.095  70.809  1.00  0.00    -0.086 OA 
HETATM   16  C   UNL     1     -11.094  10.728  70.253  1.00  0.00    -0.248 A  
HETATM   17  C   UNL     1      -9.891  10.473  69.550  1.00  0.00    -0.142 A  
HETATM   18  C   UNL     1      -9.211   9.274  69.860  1.00  0.00    -0.209 A  
HETATM   19  C   UNL     1      -9.684   8.366  70.813  1.00  0.00    -0.207 A  
HETATM   20  C   UNL     1     -10.865   8.625  71.487  1.00  0.00    -0.352 A  
HETATM   21  C   UNL     1     -11.564   9.795  71.206  1.00  0.00    -0.465 A  
ENDBRANCH   2   6
TORSDOF 1
ENDMDL
MODEL       54
REMARK 921   NORMALIZED FREE ENERGY PREDICTED BY IDOCK:   -4.74 KCAL/MOL
REMARK 922        TOTAL FREE ENERGY PREDICTED BY IDOCK:   -5.08 KCAL/MOL
REMARK 923 INTER-LIGAND FREE ENERGY PREDICTED BY IDOCK:   -5.40 KCAL/MOL
REMARK 924 INTRA-LIGAND FREE ENERGY PREDICTED BY IDOCK:    0.32 KCAL/MOL
REMARK 927      BINDING AFFINITY PREDICTED BY RF-SCORE:    0.00 PKD
ROOT
HETATM    1  N   UNL     1     -10.901  12.199  69.759  1.00  0.00    -0.361 N  
HETATM    2  C   UNL     1     -10.993  11.896  68.426  1.00  0.00    -0.232 C  
HETATM    3  H1  UNL     1     -10.338  13.010  70.015  1.00  0.00     0.000 HD 
HETATM    4  H2  UNL     1     -11.376  11.637  70.466  1.00  0.00     0.000 HD 
HETATM    5  O   UNL     1     -11.670  10.921  68.118  1.00  0.00    -0.506 OA 
ENDROOT
BRANCH   2   6
HETATM    6  N   UNL     1     -10.380  12.822  67.565  1.00  0.00    -0.218 N  
HETATM    7  C   UNL     1      -9.008  13.179  67.742  1.00  0.00    -0.194 A  
HETATM    8  C   UNL     1      -8.033  12.175  67.866  1.00  0.00    -0.150 A  
HETATM    9  C   UNL     1      -6.692  12.507  68.061  1.00  0.00    -0.090 A  
HETATM   10  C   UNL     1      -6.316  13.845  68.148  1.00  0.00    -0.127 A  
HETATM   11  C   UNL     1      -7.279  14.848  68.041  1.00  0.00    -0.143 A  
HETATM   12  C   UNL     1      -8.626  14.519  67.845  1.00  0.00    -0.161 A  
HETATM   13  C   UNL     1      -9.675  15.580  67.737  1.00  0.00    -0.211 C  
HETATM   14  C   UNL     1     -10.186  15.670  66.327  1.00  0.00    -0.299 C  
HETATM   15  O   UNL     1     -10.108  16.732  65.709  1.00  0.00    -0.478 OA 
HETATM   16  C   UNL     1     -10.831  14.476  65.696  1.00  0.00    -0.329 A  
HETATM   17  C   UNL     1     -10.965  13.199  66.296  1.00  0.00    -0.280 A  
HETATM   18  C   UNL     1     -11.712  12.233  65.584  1.00  0.00    -0.440 A  
HETATM   19  C   UNL     1     -12.300  12.503  64.344  1.00  0.00    -0.537 A  
HETATM   20  C   UNL     1     -12.155  13.753  63.767  1.00  0.00    -0.385 A  
HETATM   21  C   UNL     1     -11.424  14.729  64.438  1.00  0.00    -0.261 A  
ENDBRANCH   2   6
TORSDOF 1
ENDMDL
MODEL       55
REMARK 921   NORMALIZED FREE ENERGY PREDICTED BY IDOCK:   -4.72 KCAL/MOL
REMARK 922        TOTAL FREE ENERGY PREDICTED BY IDOCK:   -5.06 KCAL/MOL
REMARK 923 INTER-LIGAND FREE ENERGY PREDICTED BY IDOCK:   -5.62 KCAL/MOL
REMARK 924 INTRA-LIGAND FREE ENERGY PREDICTED BY IDOCK:    0.57 KCAL/MOL
REMARK 927      BINDING AFFINITY PREDICTED BY RF-SCORE:    0.00 PKD
ROOT
HETATM    1  N   UNL     1     -13.266  11.595  72.101  1.00  0.00    -0.545 N  
HETATM    2  C   UNL     1     -13.009  10.714  71.083  1.00  0.00    -0.387 C  
HETATM    3  H1  UNL     1     -12.643  12.399  72.190  1.00  0.00     0.000 HD 
HETATM    4  H2  UNL     1     -14.046  11.454  72.742  1.00  0.00     0.000 HD 
HETATM    5  O   UNL     1     -13.757   9.749  70.975  1.00  0.00    -0.277 OA 
ENDROOT
BRANCH   2   6
HETATM    6  N   UNL     1     -11.973  11.100  70.215  1.00  0.00    -0.344 N  
HETATM    7  C   UNL     1     -11.905  12.437  69.716  1.00  0.00    -0.317 A  
HETATM    8  C   UNL     1     -11.989  13.522  70.605  1.00  0.00    -0.308 A  
HETATM    9  C   UNL     1     -11.945  14.834  70.130  1.00  0.00    -0.367 A  
HETATM   10  C   UNL     1     -11.833  15.072  68.763  1.00  0.00    -0.331 A  
HETATM   11  C   UNL     1     -11.764  14.001  67.873  1.00  0.00    -0.397 A  
HETATM   12  C   UNL     1     -11.807  12.683  68.344  1.00  0.00    -0.347 A  
HETATM   13  C   UNL     1     -11.744  11.521  67.404  1.00  0.00    -0.231 C  
HETATM   14  C   UNL     1     -10.425  10.814  67.532  1.00  0.00    -0.220 C  
HETATM   15  O   UNL     1      -9.692  10.692  66.549  1.00  0.00    -0.182 OA 
HETATM   16  C   UNL     1     -10.027  10.221  68.847  1.00  0.00    -0.209 A  
HETATM   17  C   UNL     1     -10.773  10.309  70.049  1.00  0.00    -0.292 A  
HETATM   18  C   UNL     1     -10.286   9.580  71.157  1.00  0.00    -0.330 A  
HETATM   19  C   UNL     1      -9.126   8.801  71.094  1.00  0.00    -0.285 A  
HETATM   20  C   UNL     1      -8.405   8.730  69.915  1.00  0.00    -0.125 A  
HETATM   21  C   UNL     1      -8.851   9.437  68.803  1.00  0.00    -0.132 A  
ENDBRANCH   2   6
TORSDOF 1
ENDMDL
MODEL       56
REMARK 921   NORMALIZED FREE ENERGY PREDICTED BY IDOCK:   -4.68 KCAL/MOL
REMARK 922        TOTAL FREE ENERGY PREDICTED BY IDOCK:   -5.02 KCAL/MOL
REMARK 923 INTER-LIGAND FREE ENERGY PREDICTED BY IDOCK:   -4.96 KCAL/MOL
REMARK 924 INTRA-LIGAND FREE ENERGY PREDICTED BY IDOCK:   -0.06 KCAL/MOL
REMARK 927      BINDING AFFINITY PREDICTED BY RF-SCORE:    0.00 PKD
ROOT
HETATM    1  N   UNL     1      -6.808  12.498  67.008  1.00  0.00    -0.362 N  
HETATM    2  C   UNL     1      -7.973  12.570  67.725  1.00  0.00    -0.163 C  
HETATM    3  H1  UNL     1      -6.851  12.051  66.092  1.00  0.00     0.000 HD 
HETATM    4  H2  UNL     1      -5.934  12.876  67.375  1.00  0.00     0.000 HD 
HETATM    5  O   UNL     1      -7.922  13.107  68.826  1.00  0.00    -0.074 OA 
ENDROOT
BRANCH   2   6
HETATM    6  N   UNL     1      -9.115  12.110  67.046  1.00  0.00    -0.192 N  
HETATM    7  C   UNL     1      -9.645  10.811  67.316  1.00  0.00    -0.160 A  
HETATM    8  C   UNL     1      -9.889  10.415  68.642  1.00  0.00    -0.183 A  
HETATM    9  C   UNL     1     -10.387   9.142  68.923  1.00  0.00    -0.232 A  
HETATM   10  C   UNL     1     -10.631   8.249  67.883  1.00  0.00    -0.212 A  
HETATM   11  C   UNL     1     -10.378   8.629  66.565  1.00  0.00    -0.237 A  
HETATM   12  C   UNL     1      -9.878   9.906  66.278  1.00  0.00    -0.308 A  
HETATM   13  C   UNL     1      -9.591  10.328  64.872  1.00  0.00    -0.365 C  
HETATM   14  C   UNL     1     -10.594  11.350  64.417  1.00  0.00    -0.341 C  
HETATM   15  O   UNL     1     -11.286  11.136  63.420  1.00  0.00    -0.211 OA 
HETATM   16  C   UNL     1     -10.714  12.648  65.154  1.00  0.00    -0.321 A  
HETATM   17  C   UNL     1      -9.990  13.003  66.318  1.00  0.00    -0.283 A  
HETATM   18  C   UNL     1     -10.158  14.322  66.797  1.00  0.00    -0.264 A  
HETATM   19  C   UNL     1     -10.994  15.250  66.167  1.00  0.00    -0.307 A  
HETATM   20  C   UNL     1     -11.701  14.885  65.035  1.00  0.00    -0.329 A  
HETATM   21  C   UNL     1     -11.563  13.594  64.535  1.00  0.00    -0.415 A  
ENDBRANCH   2   6
TORSDOF 1
ENDMDL
MODEL       57
REMARK 921   NORMALIZED FREE ENERGY PREDICTED BY IDOCK:   -4.68 KCAL/MOL
REMARK 922        TOTAL FREE ENERGY PREDICTED BY IDOCK:   -5.01 KCAL/MOL
REMARK 923 INTER-LIGAND FREE ENERGY PREDICTED BY IDOCK:   -4.95 KCAL/MOL
REMARK 924 INTRA-LIGAND FREE ENERGY PREDICTED BY IDOCK:   -0.06 KCAL/MOL
REMARK 927      BINDING AFFINITY PREDICTED BY RF-SCORE:    0.00 PKD
ROOT
HETATM    1  N   UNL     1     -10.769   8.214  66.817  1.00  0.00    -0.368 N  
HETATM    2  C   UNL     1      -9.951   8.785  67.757  1.00  0.00    -0.194 C  
HETATM    3  H1  UNL     1     -11.364   7.444  67.124  1.00  0.00     0.000 HD 
HETATM    4  H2  UNL     1     -10.783   8.544  65.853  1.00  0.00     0.000 HD 
HETATM    5  O   UNL     1      -9.235   9.710  67.388  1.00  0.00    -0.130 OA 
ENDROOT
BRANCH   2   6
HETATM    6  N   UNL     1     -10.123   8.301  69.065  1.00  0.00    -0.197 N  
HETATM    7  C   UNL     1      -9.169   7.404  69.637  1.00  0.00    -0.146 A  
HETATM    8  C   UNL     1      -7.800   7.717  69.598  1.00  0.00    -0.107 A  
HETATM    9  C   UNL     1      -6.856   6.842  70.134  1.00  0.00    -0.061 A  
HETATM   10  C   UNL     1      -7.269   5.639  70.701  1.00  0.00    -0.078 A  
HETATM   11  C   UNL     1      -8.625   5.313  70.731  1.00  0.00    -0.135 A  
HETATM   12  C   UNL     1      -9.577   6.189  70.194  1.00  0.00    -0.187 A  
HETATM   13  C   UNL     1     -11.034   5.853  70.209  1.00  0.00    -0.390 C  
HETATM   14  C   UNL     1     -11.764   6.728  71.189  1.00  0.00    -0.345 C  
HETATM   15  O   UNL     1     -12.401   6.222  72.114  1.00  0.00    -0.315 OA 
HETATM   16  C   UNL     1     -11.750   8.214  71.007  1.00  0.00    -0.295 A  
HETATM   17  C   UNL     1     -11.044   8.913  69.998  1.00  0.00    -0.170 A  
HETATM   18  C   UNL     1     -11.254  10.309  69.921  1.00  0.00    -0.360 A  
HETATM   19  C   UNL     1     -12.113  10.988  70.790  1.00  0.00    -0.467 A  
HETATM   20  C   UNL     1     -12.790  10.292  71.776  1.00  0.00    -0.565 A  
HETATM   21  C   UNL     1     -12.608   8.918  71.884  1.00  0.00    -0.439 A  
ENDBRANCH   2   6
TORSDOF 1
ENDMDL
MODEL       58
REMARK 921   NORMALIZED FREE ENERGY PREDICTED BY IDOCK:   -4.68 KCAL/MOL
REMARK 922        TOTAL FREE ENERGY PREDICTED BY IDOCK:   -5.01 KCAL/MOL
REMARK 923 INTER-LIGAND FREE ENERGY PREDICTED BY IDOCK:   -5.32 KCAL/MOL
REMARK 924 INTRA-LIGAND FREE ENERGY PREDICTED BY IDOCK:    0.30 KCAL/MOL
REMARK 927      BINDING AFFINITY PREDICTED BY RF-SCORE:    0.00 PKD
ROOT
HETATM    1  N   UNL     1      -9.203   7.238  68.161  1.00  0.00    -0.133 N  
HETATM    2  C   UNL     1     -10.505   7.010  68.522  1.00  0.00    -0.200 C  
HETATM    3  H1  UNL     1      -8.640   7.812  68.789  1.00  0.00     0.000 HD 
HETATM    4  H2  UNL     1      -8.814   6.851  67.302  1.00  0.00     0.000 HD 
HETATM    5  O   UNL     1     -11.183   6.320  67.768  1.00  0.00    -0.325 OA 
ENDROOT
BRANCH   2   6
HETATM    6  N   UNL     1     -10.866   7.511  69.784  1.00  0.00    -0.245 N  
HETATM    7  C   UNL     1     -10.574   6.769  70.969  1.00  0.00    -0.222 A  
HETATM    8  C   UNL     1      -9.276   6.278  71.187  1.00  0.00    -0.159 A  
HETATM    9  C   UNL     1      -8.980   5.533  72.330  1.00  0.00    -0.143 A  
HETATM   10  C   UNL     1      -9.983   5.261  73.257  1.00  0.00    -0.185 A  
HETATM   11  C   UNL     1     -11.278   5.732  73.042  1.00  0.00    -0.289 A  
HETATM   12  C   UNL     1     -11.579   6.480  71.896  1.00  0.00    -0.357 A  
HETATM   13  C   UNL     1     -12.963   6.986  71.643  1.00  0.00    -0.400 C  
HETATM   14  C   UNL     1     -13.016   8.477  71.814  1.00  0.00    -0.352 C  
HETATM   15  O   UNL     1     -13.787   8.978  72.635  1.00  0.00    -0.467 OA 
HETATM   16  C   UNL     1     -12.161   9.352  70.951  1.00  0.00    -0.297 A  
HETATM   17  C   UNL     1     -11.227   8.897  69.988  1.00  0.00    -0.110 A  
HETATM   18  C   UNL     1     -10.603   9.882  69.189  1.00  0.00    -0.240 A  
HETATM   19  C   UNL     1     -10.879  11.246  69.326  1.00  0.00    -0.259 A  
HETATM   20  C   UNL     1     -11.788  11.676  70.277  1.00  0.00    -0.414 A  
HETATM   21  C   UNL     1     -12.421  10.736  71.083  1.00  0.00    -0.519 A  
ENDBRANCH   2   6
TORSDOF 1
ENDMDL
MODEL       59
REMARK 921   NORMALIZED FREE ENERGY PREDICTED BY IDOCK:   -4.68 KCAL/MOL
REMARK 922        TOTAL FREE ENERGY PREDICTED BY IDOCK:   -5.01 KCAL/MOL
REMARK 923 INTER-LIGAND FREE ENERGY PREDICTED BY IDOCK:   -5.13 KCAL/MOL
REMARK 924 INTRA-LIGAND FREE ENERGY PREDICTED BY IDOCK:    0.12 KCAL/MOL
REMARK 927      BINDING AFFINITY PREDICTED BY RF-SCORE:    0.00 PKD
ROOT
HETATM    1  N   UNL     1     -10.984  13.549  64.907  1.00  0.00    -0.332 N  
HETATM    2  C   UNL     1     -11.267  13.167  66.192  1.00  0.00    -0.295 C  
HETATM    3  H1  UNL     1     -10.260  14.256  64.780  1.00  0.00     0.000 HD 
HETATM    4  H2  UNL     1     -11.478  13.144  64.111  1.00  0.00     0.000 HD 
HETATM    5  O   UNL     1     -12.138  12.317  66.346  1.00  0.00    -0.623 OA 
ENDROOT
BRANCH   2   6
HETATM    6  N   UNL     1     -10.430  13.726  67.173  1.00  0.00    -0.271 N  
HETATM    7  C   UNL     1     -10.988  14.352  68.330  1.00  0.00    -0.248 A  
HETATM    8  C   UNL     1     -11.958  13.680  69.093  1.00  0.00    -0.394 A  
HETATM    9  C   UNL     1     -12.527  14.286  70.213  1.00  0.00    -0.422 A  
HETATM   10  C   UNL     1     -12.143  15.575  70.572  1.00  0.00    -0.423 A  
HETATM   11  C   UNL     1     -11.192  16.256  69.813  1.00  0.00    -0.314 A  
HETATM   12  C   UNL     1     -10.618  15.651  68.687  1.00  0.00    -0.243 A  
HETATM   13  C   UNL     1      -9.603  16.368  67.855  1.00  0.00    -0.228 C  
HETATM   14  C   UNL     1      -8.244  15.759  68.046  1.00  0.00    -0.140 C  
HETATM   15  O   UNL     1      -7.307  16.452  68.448  1.00  0.00    -0.155 OA 
HETATM   16  C   UNL     1      -8.022  14.319  67.702  1.00  0.00    -0.191 A  
HETATM   17  C   UNL     1      -9.019  13.419  67.248  1.00  0.00    -0.221 A  
HETATM   18  C   UNL     1      -8.587  12.130  66.862  1.00  0.00    -0.191 A  
HETATM   19  C   UNL     1      -7.245  11.740  66.915  1.00  0.00    -0.103 A  
HETATM   20  C   UNL     1      -6.284  12.628  67.367  1.00  0.00    -0.149 A  
HETATM   21  C   UNL     1      -6.671  13.905  67.759  1.00  0.00    -0.186 A  
ENDBRANCH   2   6
TORSDOF 1
ENDMDL
MODEL       60
REMARK 921   NORMALIZED FREE ENERGY PREDICTED BY IDOCK:   -4.67 KCAL/MOL
REMARK 922        TOTAL FREE ENERGY PREDICTED BY IDOCK:   -5.00 KCAL/MOL
REMARK 923 INTER-LIGAND FREE ENERGY PREDICTED BY IDOCK:   -4.94 KCAL/MOL
REMARK 924 INTRA-LIGAND FREE ENERGY PREDICTED BY IDOCK:   -0.06 KCAL/MOL
REMARK 927      BINDING AFFINITY PREDICTED BY RF-SCORE:    0.00 PKD
ROOT
HETATM    1  N   UNL     1      -6.916  14.796  70.162  1.00  0.00    -0.320 N  
HETATM    2  C   UNL     1      -7.270  14.829  68.838  1.00  0.00    -0.126 C  
HETATM    3  H1  UNL     1      -7.636  15.038  70.843  1.00  0.00     0.000 HD 
HETATM    4  H2  UNL     1      -5.973  14.540  70.453  1.00  0.00     0.000 HD 
HETATM    5  O   UNL     1      -6.405  14.538  68.019  1.00  0.00    -0.125 OA 
ENDROOT
BRANCH   2   6
HETATM    6  N   UNL     1      -8.630  15.088  68.596  1.00  0.00    -0.166 N  
HETATM    7  C   UNL     1      -9.042  16.338  68.039  1.00  0.00    -0.188 A  
HETATM    8  C   UNL     1      -8.419  16.828  66.879  1.00  0.00    -0.242 A  
HETATM    9  C   UNL     1      -8.796  18.056  66.335  1.00  0.00    -0.251 A  
HETATM   10  C   UNL     1      -9.788  18.813  66.954  1.00  0.00    -0.366 A  
HETATM   11  C   UNL     1     -10.401  18.341  68.114  1.00  0.00    -0.393 A  
HETATM   12  C   UNL     1     -10.027  17.108  68.664  1.00  0.00    -0.313 A  
HETATM   13  C   UNL     1     -10.666  16.590  69.912  1.00  0.00    -0.269 C  
HETATM   14  C   UNL     1     -11.556  15.421  69.598  1.00  0.00    -0.331 C  
HETATM   15  O   UNL     1     -12.752  15.459  69.892  1.00  0.00    -0.239 OA 
HETATM   16  C   UNL     1     -10.973  14.194  68.970  1.00  0.00    -0.286 A  
HETATM   17  C   UNL     1      -9.623  14.036  68.571  1.00  0.00    -0.201 A  
HETATM   18  C   UNL     1      -9.240  12.758  68.106  1.00  0.00    -0.212 A  
HETATM   19  C   UNL     1     -10.134  11.685  68.032  1.00  0.00    -0.198 A  
HETATM   20  C   UNL     1     -11.452  11.857  68.418  1.00  0.00    -0.357 A  
HETATM   21  C   UNL     1     -11.867  13.102  68.880  1.00  0.00    -0.361 A  
ENDBRANCH   2   6
TORSDOF 1
ENDMDL
MODEL       61
REMARK 921   NORMALIZED FREE ENERGY PREDICTED BY IDOCK:   -4.58 KCAL/MOL
REMARK 922        TOTAL FREE ENERGY PREDICTED BY IDOCK:   -4.91 KCAL/MOL
REMARK 923 INTER-LIGAND FREE ENERGY PREDICTED BY IDOCK:   -5.22 KCAL/MOL
REMARK 924 INTRA-LIGAND FREE ENERGY PREDICTED BY IDOCK:    0.31 KCAL/MOL
REMARK 927      BINDING AFFINITY PREDICTED BY RF-SCORE:    0.00 PKD
ROOT
HETATM    1  N   UNL     1     -10.630  19.915  68.063  1.00  0.00    -0.349 N  
HETATM    2  C   UNL     1      -9.915  19.228  67.117  1.00  0.00    -0.360 C  
HETATM    3  H1  UNL     1     -10.569  19.583  69.026  1.00  0.00     0.000 HD 
HETATM    4  H2  UNL     1     -11.199  20.724  67.815  1.00  0.00     0.000 HD 
HETATM    5  O   UNL     1      -9.988  19.627  65.960  1.00  0.00    -0.420 OA 
ENDROOT
BRANCH   2   6
HETATM    6  N   UNL     1      -9.091  18.209  67.624  1.00  0.00    -0.258 N  
HETATM    7  C   UNL     1      -7.792  18.514  68.135  1.00  0.00    -0.290 A  
HETATM    8  C   UNL     1      -7.633  19.543  69.079  1.00  0.00    -0.356 A  
HETATM    9  C   UNL     1      -6.369  19.866  69.572  1.00  0.00    -0.382 A  
HETATM   10  C   UNL     1      -5.250  19.175  69.115  1.00  0.00    -0.202 A  
HETATM   11  C   UNL     1      -5.396  18.162  68.167  1.00  0.00    -0.164 A  
HETATM   12  C   UNL     1      -6.664  17.834  67.670  1.00  0.00    -0.192 A  
HETATM   13  C   UNL     1      -6.839  16.757  66.646  1.00  0.00    -0.255 C  
HETATM   14  C   UNL     1      -7.506  15.557  67.257  1.00  0.00    -0.223 C  
HETATM   15  O   UNL     1      -6.947  14.459  67.229  1.00  0.00    -0.209 OA 
HETATM   16  C   UNL     1      -8.870  15.694  67.858  1.00  0.00    -0.171 A  
HETATM   17  C   UNL     1      -9.605  16.900  67.965  1.00  0.00    -0.247 A  
HETATM   18  C   UNL     1     -10.926  16.801  68.456  1.00  0.00    -0.312 A  
HETATM   19  C   UNL     1     -11.502  15.581  68.825  1.00  0.00    -0.363 A  
HETATM   20  C   UNL     1     -10.769  14.412  68.722  1.00  0.00    -0.258 A  
HETATM   21  C   UNL     1      -9.463  14.470  68.244  1.00  0.00    -0.207 A  
ENDBRANCH   2   6
TORSDOF 1
ENDMDL
MODEL       62
REMARK 921   NORMALIZED FREE ENERGY PREDICTED BY IDOCK:   -4.58 KCAL/MOL
REMARK 922        TOTAL FREE ENERGY PREDICTED BY IDOCK:   -4.91 KCAL/MOL
REMARK 923 INTER-LIGAND FREE ENERGY PREDICTED BY IDOCK:   -5.28 KCAL/MOL
REMARK 924 INTRA-LIGAND FREE ENERGY PREDICTED BY IDOCK:    0.37 KCAL/MOL
REMARK 927      BINDING AFFINITY PREDICTED BY RF-SCORE:    0.00 PKD
ROOT
HETATM    1  N   UNL     1     -10.484  11.120  69.550  1.00  0.00    -0.439 N  
HETATM    2  C   UNL     1     -10.976  11.311  68.285  1.00  0.00    -0.224 C  
HETATM    3  H1  UNL     1      -9.547  11.473  69.745  1.00  0.00     0.000 HD 
HETATM    4  H2  UNL     1     -11.032  10.644  70.267  1.00  0.00     0.000 HD 
HETATM    5  O   UNL     1     -12.102  10.886  68.052  1.00  0.00    -0.563 OA 
ENDROOT
BRANCH   2   6
HETATM    6  N   UNL     1     -10.155  12.080  67.442  1.00  0.00    -0.193 N  
HETATM    7  C   UNL     1      -8.771  11.758  67.289  1.00  0.00    -0.163 A  
HETATM    8  C   UNL     1      -8.385  10.442  66.985  1.00  0.00    -0.127 A  
HETATM    9  C   UNL     1      -7.037  10.109  66.853  1.00  0.00    -0.091 A  
HETATM   10  C   UNL     1      -6.062  11.085  67.038  1.00  0.00    -0.082 A  
HETATM   11  C   UNL     1      -6.434  12.391  67.354  1.00  0.00    -0.154 A  
HETATM   12  C   UNL     1      -7.787  12.730  67.487  1.00  0.00    -0.171 A  
HETATM   13  C   UNL     1      -8.206  14.124  67.834  1.00  0.00    -0.155 C  
HETATM   14  C   UNL     1      -8.847  14.788  66.650  1.00  0.00    -0.229 C  
HETATM   15  O   UNL     1      -8.382  15.839  66.204  1.00  0.00    -0.243 OA 
HETATM   16  C   UNL     1     -10.080  14.194  66.045  1.00  0.00    -0.330 A  
HETATM   17  C   UNL     1     -10.699  12.987  66.455  1.00  0.00    -0.278 A  
HETATM   18  C   UNL     1     -11.925  12.655  65.836  1.00  0.00    -0.497 A  
HETATM   19  C   UNL     1     -12.518  13.464  64.862  1.00  0.00    -0.447 A  
HETATM   20  C   UNL     1     -11.898  14.636  64.466  1.00  0.00    -0.442 A  
HETATM   21  C   UNL     1     -10.689  14.995  65.051  1.00  0.00    -0.448 A  
ENDBRANCH   2   6
TORSDOF 1
ENDMDL
MODEL       63
REMARK 921   NORMALIZED FREE ENERGY PREDICTED BY IDOCK:   -4.57 KCAL/MOL
REMARK 922        TOTAL FREE ENERGY PREDICTED BY IDOCK:   -4.90 KCAL/MOL
REMARK 923 INTER-LIGAND FREE ENERGY PREDICTED BY IDOCK:   -5.10 KCAL/MOL
REMARK 924 INTRA-LIGAND FREE ENERGY PREDICTED BY IDOCK:    0.20 KCAL/MOL
REMARK 927      BINDING AFFINITY PREDICTED BY RF-SCORE:    0.00 PKD
ROOT
HETATM    1  N   UNL     1      -9.637  12.562  65.267  1.00  0.00    -0.460 N  
HETATM    2  C   UNL     1      -9.334  11.837  66.391  1.00  0.00    -0.220 C  
HETATM    3  H1  UNL     1     -10.139  13.440  65.400  1.00  0.00     0.000 HD 
HETATM    4  H2  UNL     1      -9.371  12.236  64.338  1.00  0.00     0.000 HD 
HETATM    5  O   UNL     1      -8.731  10.782  66.231  1.00  0.00    -0.157 OA 
ENDROOT
BRANCH   2   6
HETATM    6  N   UNL     1      -9.663  12.464  67.605  1.00  0.00    -0.191 N  
HETATM    7  C   UNL     1     -10.314  11.733  68.645  1.00  0.00    -0.214 A  
HETATM    8  C   UNL     1      -9.796  10.495  69.063  1.00  0.00    -0.224 A  
HETATM    9  C   UNL     1     -10.433   9.759  70.063  1.00  0.00    -0.314 A  
HETATM   10  C   UNL     1     -11.600  10.247  70.644  1.00  0.00    -0.435 A  
HETATM   11  C   UNL     1     -12.129  11.467  70.226  1.00  0.00    -0.444 A  
HETATM   12  C   UNL     1     -11.494  12.210  69.222  1.00  0.00    -0.363 A  
HETATM   13  C   UNL     1     -12.051  13.516  68.754  1.00  0.00    -0.305 C  
HETATM   14  C   UNL     1     -11.181  14.652  69.213  1.00  0.00    -0.282 C  
HETATM   15  O   UNL     1     -11.655  15.551  69.910  1.00  0.00    -0.284 OA 
HETATM   16  C   UNL     1      -9.749  14.708  68.782  1.00  0.00    -0.217 A  
HETATM   17  C   UNL     1      -9.086  13.731  67.998  1.00  0.00    -0.191 A  
HETATM   18  C   UNL     1      -7.764  14.025  67.595  1.00  0.00    -0.188 A  
HETATM   19  C   UNL     1      -7.120  15.218  67.942  1.00  0.00    -0.157 A  
HETATM   20  C   UNL     1      -7.778  16.159  68.713  1.00  0.00    -0.200 A  
HETATM   21  C   UNL     1      -9.080  15.904  69.131  1.00  0.00    -0.255 A  
ENDBRANCH   2   6
TORSDOF 1
ENDMDL
MODEL       64
REMARK 921   NORMALIZED FREE ENERGY PREDICTED BY IDOCK:   -4.55 KCAL/MOL
REMARK 922        TOTAL FREE ENERGY PREDICTED BY IDOCK:   -4.88 KCAL/MOL
REMARK 923 INTER-LIGAND FREE ENERGY PREDICTED BY IDOCK:   -4.82 KCAL/MOL
REMARK 924 INTRA-LIGAND FREE ENERGY PREDICTED BY IDOCK:   -0.06 KCAL/MOL
REMARK 927      BINDING AFFINITY PREDICTED BY RF-SCORE:    0.00 PKD
ROOT
HETATM    1  N   UNL     1      -8.814  12.009  68.700  1.00  0.00    -0.367 N  
HETATM    2  C   UNL     1     -10.142  12.320  68.570  1.00  0.00    -0.187 C  
HETATM    3  H1  UNL     1      -8.147  12.590  68.191  1.00  0.00     0.000 HD 
HETATM    4  H2  UNL     1      -8.505  11.230  69.281  1.00  0.00     0.000 HD 
HETATM    5  O   UNL     1     -10.944  11.622  69.183  1.00  0.00    -0.227 OA 
ENDROOT
BRANCH   2   6
HETATM    6  N   UNL     1     -10.407  13.485  67.830  1.00  0.00    -0.243 N  
HETATM    7  C   UNL     1     -10.913  13.396  66.497  1.00  0.00    -0.290 A  
HETATM    8  C   UNL     1     -12.030  12.590  66.221  1.00  0.00    -0.410 A  
HETATM    9  C   UNL     1     -12.522  12.477  64.921  1.00  0.00    -0.524 A  
HETATM   10  C   UNL     1     -11.893  13.157  63.881  1.00  0.00    -0.533 A  
HETATM   11  C   UNL     1     -10.775  13.949  64.143  1.00  0.00     0.046 A  
HETATM   12  C   UNL     1     -10.277  14.065  65.447  1.00  0.00    -0.368 A  
HETATM   13  C   UNL     1      -9.074  14.901  65.746  1.00  0.00     0.181 C  
HETATM   14  C   UNL     1      -9.469  16.137  66.503  1.00  0.00    -0.264 C  
HETATM   15  O   UNL     1      -9.206  17.251  66.047  1.00  0.00    -0.478 OA 
HETATM   16  C   UNL     1     -10.142  16.006  67.833  1.00  0.00    -0.241 A  
HETATM   17  C   UNL     1     -10.511  14.786  68.453  1.00  0.00    -0.243 A  
HETATM   18  C   UNL     1     -11.030  14.868  69.765  1.00  0.00    -0.280 A  
HETATM   19  C   UNL     1     -11.180  16.083  70.440  1.00  0.00    -0.401 A  
HETATM   20  C   UNL     1     -10.822  17.267  69.819  1.00  0.00     0.382 A  
HETATM   21  C   UNL     1     -10.310  17.228  68.526  1.00  0.00    -0.371 A  
ENDBRANCH   2   6
TORSDOF 1
ENDMDL
MODEL       65
REMARK 921   NORMALIZED FREE ENERGY PREDICTED BY IDOCK:   -4.53 KCAL/MOL
REMARK 922        TOTAL FREE ENERGY PREDICTED BY IDOCK:   -4.86 KCAL/MOL
REMARK 923 INTER-LIGAND FREE ENERGY PREDICTED BY IDOCK:   -4.82 KCAL/MOL
REMARK 924 INTRA-LIGAND FREE ENERGY PREDICTED BY IDOCK:   -0.04 KCAL/MOL
REMARK 927      BINDING AFFINITY PREDICTED BY RF-SCORE:    0.00 PKD
ROOT
HETATM    1  N   UNL     1      -8.119  11.538  69.310  1.00  0.00    -0.359 N  
HETATM    2  C   UNL     1      -8.025  12.046  68.040  1.00  0.00    -0.149 C  
HETATM    3  H1  UNL     1      -8.641  12.086  69.994  1.00  0.00     0.000 HD 
HETATM    4  H2  UNL     1      -7.686  10.649  69.560  1.00  0.00     0.000 HD 
HETATM    5  O   UNL     1      -7.398  11.387  67.218  1.00  0.00    -0.114 OA 
ENDROOT
BRANCH   2   6
HETATM    6  N   UNL     1      -8.766  13.219  67.817  1.00  0.00    -0.181 N  
HETATM    7  C   UNL     1      -8.161  14.502  67.989  1.00  0.00    -0.139 A  
HETATM    8  C   UNL     1      -6.931  14.787  67.372  1.00  0.00    -0.141 A  
HETATM    9  C   UNL     1      -6.318  16.027  67.548  1.00  0.00    -0.200 A  
HETATM   10  C   UNL     1      -6.921  16.990  68.354  1.00  0.00    -0.180 A  
HETATM   11  C   UNL     1      -8.135  16.711  68.981  1.00  0.00    -0.199 A  
HETATM   12  C   UNL     1      -8.754  15.466  68.808  1.00  0.00    -0.195 A  
HETATM   13  C   UNL     1     -10.051  15.146  69.480  1.00  0.00    -0.222 C  
HETATM   14  C   UNL     1     -11.164  15.089  68.473  1.00  0.00    -0.287 C  
HETATM   15  O   UNL     1     -12.143  15.828  68.592  1.00  0.00    -0.269 OA 
HETATM   16  C   UNL     1     -11.098  14.099  67.352  1.00  0.00    -0.318 A  
HETATM   17  C   UNL     1     -10.022  13.212  67.100  1.00  0.00    -0.236 A  
HETATM   18  C   UNL     1     -10.202  12.270  66.061  1.00  0.00    -0.267 A  
HETATM   19  C   UNL     1     -11.376  12.200  65.305  1.00  0.00    -0.386 A  
HETATM   20  C   UNL     1     -12.415  13.078  65.558  1.00  0.00    -0.496 A  
HETATM   21  C   UNL     1     -12.275  14.021  66.572  1.00  0.00    -0.485 A  
ENDBRANCH   2   6
TORSDOF 1
ENDMDL
MODEL       66
REMARK 921   NORMALIZED FREE ENERGY PREDICTED BY IDOCK:   -4.52 KCAL/MOL
REMARK 922        TOTAL FREE ENERGY PREDICTED BY IDOCK:   -4.85 KCAL/MOL
REMARK 923 INTER-LIGAND FREE ENERGY PREDICTED BY IDOCK:   -4.81 KCAL/MOL
REMARK 924 INTRA-LIGAND FREE ENERGY PREDICTED BY IDOCK:   -0.03 KCAL/MOL
REMARK 927      BINDING AFFINITY PREDICTED BY RF-SCORE:    0.00 PKD
ROOT
HETATM    1  N   UNL     1     -11.249   6.411  67.516  1.00  0.00    -0.660 N  
HETATM    2  C   UNL     1     -10.972   6.633  68.840  1.00  0.00    -0.267 C  
HETATM    3  H1  UNL     1     -11.136   7.200  66.879  1.00  0.00     0.000 HD 
HETATM    4  H2  UNL     1     -11.555   5.497  67.183  1.00  0.00     0.000 HD 
HETATM    5  O   UNL     1     -11.108   5.686  69.607  1.00  0.00    -0.328 OA 
ENDROOT
BRANCH   2   6
HETATM    6  N   UNL     1     -10.454   7.906  69.131  1.00  0.00    -0.220 N  
HETATM    7  C   UNL     1     -11.186   8.815  69.956  1.00  0.00    -0.106 A  
HETATM    8  C   UNL     1     -11.685   8.390  71.198  1.00  0.00    -0.315 A  
HETATM    9  C   UNL     1     -12.419   9.260  72.005  1.00  0.00    -0.451 A  
HETATM   10  C   UNL     1     -12.673  10.558  71.571  1.00  0.00    -0.558 A  
HETATM   11  C   UNL     1     -12.194  10.985  70.333  1.00  0.00    -0.461 A  
HETATM   12  C   UNL     1     -11.457  10.115  69.519  1.00  0.00    -0.227 A  
HETATM   13  C   UNL     1     -10.943  10.551  68.184  1.00  0.00    -0.330 C  
HETATM   14  C   UNL     1      -9.449  10.707  68.223  1.00  0.00    -0.159 C  
HETATM   15  O   UNL     1      -8.933  11.790  67.942  1.00  0.00    -0.165 OA 
HETATM   16  C   UNL     1      -8.590   9.528  68.559  1.00  0.00    -0.119 A  
HETATM   17  C   UNL     1      -9.063   8.240  68.915  1.00  0.00    -0.147 A  
HETATM   18  C   UNL     1      -8.092   7.226  69.080  1.00  0.00    -0.121 A  
HETATM   19  C   UNL     1      -6.724   7.460  68.906  1.00  0.00    -0.049 A  
HETATM   20  C   UNL     1      -6.277   8.725  68.566  1.00  0.00    -0.053 A  
HETATM   21  C   UNL     1      -7.203   9.749  68.397  1.00  0.00    -0.077 A  
ENDBRANCH   2   6
TORSDOF 1
ENDMDL
MODEL       67
REMARK 921   NORMALIZED FREE ENERGY PREDICTED BY IDOCK:   -4.52 KCAL/MOL
REMARK 922        TOTAL FREE ENERGY PREDICTED BY IDOCK:   -4.85 KCAL/MOL
REMARK 923 INTER-LIGAND FREE ENERGY PREDICTED BY IDOCK:   -4.78 KCAL/MOL
REMARK 924 INTRA-LIGAND FREE ENERGY PREDICTED BY IDOCK:   -0.06 KCAL/MOL
REMARK 927      BINDING AFFINITY PREDICTED BY RF-SCORE:    0.00 PKD
ROOT
HETATM    1  N   UNL     1      -6.903  11.397  68.495  1.00  0.00    -0.068 N  
HETATM    2  C   UNL     1      -7.764  10.406  68.102  1.00  0.00    -0.092 C  
HETATM    3  H1  UNL     1      -7.221  12.361  68.387  1.00  0.00     0.000 HD 
HETATM    4  H2  UNL     1      -5.983  11.181  68.879  1.00  0.00     0.000 HD 
HETATM    5  O   UNL     1      -7.382   9.248  68.232  1.00  0.00    -0.077 OA 
ENDROOT
BRANCH   2   6
HETATM    6  N   UNL     1      -9.035  10.852  67.699  1.00  0.00    -0.140 N  
HETATM    7  C   UNL     1      -9.391  10.872  66.316  1.00  0.00    -0.179 A  
HETATM    8  C   UNL     1      -9.196   9.728  65.524  1.00  0.00    -0.270 A  
HETATM    9  C   UNL     1      -9.519   9.740  64.167  1.00  0.00    -0.164 A  
HETATM   10  C   UNL     1     -10.026  10.899  63.586  1.00  0.00    -0.415 A  
HETATM   11  C   UNL     1     -10.210  12.044  64.361  1.00  0.00    -0.332 A  
HETATM   12  C   UNL     1      -9.887  12.037  65.724  1.00  0.00    -0.263 A  
HETATM   13  C   UNL     1     -10.068  13.257  66.569  1.00  0.00    -0.275 C  
HETATM   14  C   UNL     1     -11.211  13.068  67.525  1.00  0.00    -0.284 C  
HETATM   15  O   UNL     1     -12.164  13.849  67.510  1.00  0.00    -0.366 OA 
HETATM   16  C   UNL     1     -11.163  11.955  68.525  1.00  0.00    -0.308 A  
HETATM   17  C   UNL     1     -10.134  10.986  68.630  1.00  0.00    -0.197 A  
HETATM   18  C   UNL     1     -10.213  10.087  69.717  1.00  0.00    -0.286 A  
HETATM   19  C   UNL     1     -11.247  10.133  70.657  1.00  0.00    -0.418 A  
HETATM   20  C   UNL     1     -12.249  11.080  70.537  1.00  0.00    -0.472 A  
HETATM   21  C   UNL     1     -12.207  11.981  69.478  1.00  0.00    -0.176 A  
ENDBRANCH   2   6
TORSDOF 1
ENDMDL
MODEL       68
REMARK 921   NORMALIZED FREE ENERGY PREDICTED BY IDOCK:   -4.49 KCAL/MOL
REMARK 922        TOTAL FREE ENERGY PREDICTED BY IDOCK:   -4.82 KCAL/MOL
REMARK 923 INTER-LIGAND FREE ENERGY PREDICTED BY IDOCK:   -5.09 KCAL/MOL
REMARK 924 INTRA-LIGAND FREE ENERGY PREDICTED BY IDOCK:    0.27 KCAL/MOL
REMARK 927      BINDING AFFINITY PREDICTED BY RF-SCORE:    0.00 PKD
ROOT
HETATM    1  N   UNL     1      -8.144  15.894  69.540  1.00  0.00    -0.170 N  
HETATM    2  C   UNL     1      -8.087  14.990  68.512  1.00  0.00    -0.148 C  
HETATM    3  H1  UNL     1      -8.367  16.860  69.299  1.00  0.00     0.000 HD 
HETATM    4  H2  UNL     1      -7.970  15.614  70.505  1.00  0.00     0.000 HD 
HETATM    5  O   UNL     1      -7.820  13.828  68.802  1.00  0.00    -0.128 OA 
ENDROOT
BRANCH   2   6
HETATM    6  N   UNL     1      -8.460  15.498  67.256  1.00  0.00    -0.178 N  
HETATM    7  C   UNL     1      -7.764  16.610  66.689  1.00  0.00    -0.281 A  
HETATM    8  C   UNL     1      -6.361  16.598  66.618  1.00  0.00    -0.071 A  
HETATM    9  C   UNL     1      -5.667  17.685  66.087  1.00  0.00    -0.245 A  
HETATM   10  C   UNL     1      -6.367  18.800  65.635  1.00  0.00    -0.297 A  
HETATM   11  C   UNL     1      -7.759  18.827  65.715  1.00  0.00    -0.033 A  
HETATM   12  C   UNL     1      -8.461  17.738  66.248  1.00  0.00    -0.225 A  
HETATM   13  C   UNL     1      -9.953  17.752  66.350  1.00  0.00    -0.345 C  
HETATM   14  C   UNL     1     -10.555  16.797  65.360  1.00  0.00    -0.203 C  
HETATM   15  O   UNL     1     -11.355  17.206  64.516  1.00  0.00    -1.034 OA 
HETATM   16  C   UNL     1     -10.214  15.342  65.433  1.00  0.00    -0.414 A  
HETATM   17  C   UNL     1      -9.300  14.755  66.342  1.00  0.00    -0.291 A  
HETATM   18  C   UNL     1      -9.204  13.345  66.332  1.00  0.00    -0.131 A  
HETATM   19  C   UNL     1      -9.966  12.547  65.473  1.00  0.00    -0.248 A  
HETATM   20  C   UNL     1     -10.850  13.135  64.585  1.00  0.00    -0.383 A  
HETATM   21  C   UNL     1     -10.970  14.520  64.564  1.00  0.00    -0.264 A  
ENDBRANCH   2   6
TORSDOF 1
ENDMDL
MODEL       69
REMARK 921   NORMALIZED FREE ENERGY PREDICTED BY IDOCK:   -4.49 KCAL/MOL
REMARK 922        TOTAL FREE ENERGY PREDICTED BY IDOCK:   -4.82 KCAL/MOL
REMARK 923 INTER-LIGAND FREE ENERGY PREDICTED BY IDOCK:   -5.01 KCAL/MOL
REMARK 924 INTRA-LIGAND FREE ENERGY PREDICTED BY IDOCK:    0.19 KCAL/MOL
REMARK 927      BINDING AFFINITY PREDICTED BY RF-SCORE:    0.00 PKD
ROOT
HETATM    1  N   UNL     1      -7.957  14.575  69.638  1.00  0.00    -0.389 N  
HETATM    2  C   UNL     1      -8.196  14.409  68.299  1.00  0.00    -0.149 C  
HETATM    3  H1  UNL     1      -8.551  14.057  70.286  1.00  0.00     0.000 HD 
HETATM    4  H2  UNL     1      -7.216  15.191  69.973  1.00  0.00     0.000 HD 
HETATM    5  O   UNL     1      -7.482  15.032  67.520  1.00  0.00    -0.168 OA 
ENDROOT
BRANCH   2   6
HETATM    6  N   UNL     1      -9.171  13.445  67.988  1.00  0.00    -0.203 N  
HETATM    7  C   UNL     1     -10.182  13.725  67.018  1.00  0.00    -0.254 A  
HETATM    8  C   UNL     1      -9.824  14.226  65.755  1.00  0.00    -0.314 A  
HETATM    9  C   UNL     1     -10.801  14.523  64.805  1.00  0.00    -0.410 A  
HETATM   10  C   UNL     1     -12.146  14.336  65.113  1.00  0.00    -0.410 A  
HETATM   11  C   UNL     1     -12.512  13.852  66.369  1.00  0.00    -0.414 A  
HETATM   12  C   UNL     1     -11.534  13.552  67.326  1.00  0.00    -0.369 A  
HETATM   13  C   UNL     1     -11.907  13.042  68.682  1.00  0.00    -0.353 C  
HETATM   14  C   UNL     1     -11.529  11.595  68.819  1.00  0.00    -0.285 C  
HETATM   15  O   UNL     1     -12.390  10.754  69.086  1.00  0.00    -0.400 OA 
HETATM   16  C   UNL     1     -10.096  11.187  68.675  1.00  0.00    -0.208 A  
HETATM   17  C   UNL     1      -9.022  12.053  68.353  1.00  0.00    -0.153 A  
HETATM   18  C   UNL     1      -7.723  11.497  68.380  1.00  0.00    -0.129 A  
HETATM   19  C   UNL     1      -7.485  10.159  68.706  1.00  0.00    -0.086 A  
HETATM   20  C   UNL     1      -8.545   9.323  69.012  1.00  0.00    -0.134 A  
HETATM   21  C   UNL     1      -9.839   9.833  68.993  1.00  0.00    -0.183 A  
ENDBRANCH   2   6
TORSDOF 1
ENDMDL
MODEL       70
REMARK 921   NORMALIZED FREE ENERGY PREDICTED BY IDOCK:   -4.48 KCAL/MOL
REMARK 922        TOTAL FREE ENERGY PREDICTED BY IDOCK:   -4.80 KCAL/MOL
REMARK 923 INTER-LIGAND FREE ENERGY PREDICTED BY IDOCK:   -4.76 KCAL/MOL
REMARK 924 INTRA-LIGAND FREE ENERGY PREDICTED BY IDOCK:   -0.04 KCAL/MOL
REMARK 927      BINDING AFFINITY PREDICTED BY RF-SCORE:    0.00 PKD
ROOT
HETATM    1  N   UNL     1     -14.022   8.807  70.853  1.00  0.00    -0.500 N  
HETATM    2  C   UNL     1     -13.117   9.799  71.126  1.00  0.00    -0.346 C  
HETATM    3  H1  UNL     1     -13.765   8.124  70.140  1.00  0.00     0.000 HD 
HETATM    4  H2  UNL     1     -14.916   8.753  71.342  1.00  0.00     0.000 HD 
HETATM    5  O   UNL     1     -13.427  10.619  71.984  1.00  0.00    -0.375 OA 
ENDROOT
BRANCH   2   6
HETATM    6  N   UNL     1     -11.888   9.678  70.457  1.00  0.00    -0.247 N  
HETATM    7  C   UNL     1     -11.494  10.649  69.485  1.00  0.00    -0.291 A  
HETATM    8  C   UNL     1     -11.546  12.018  69.798  1.00  0.00    -0.348 A  
HETATM    9  C   UNL     1     -11.185  12.977  68.853  1.00  0.00    -0.326 A  
HETATM   10  C   UNL     1     -10.782  12.579  67.581  1.00  0.00    -0.242 A  
HETATM   11  C   UNL     1     -10.741  11.224  67.256  1.00  0.00    -0.295 A  
HETATM   12  C   UNL     1     -11.103  10.256  68.202  1.00  0.00    -0.324 A  
HETATM   13  C   UNL     1     -11.074   8.798  67.870  1.00  0.00     0.256 C  
HETATM   14  C   UNL     1      -9.947   8.118  68.593  1.00  0.00    -0.190 C  
HETATM   15  O   UNL     1      -9.078   7.517  67.958  1.00  0.00    -0.132 OA 
HETATM   16  C   UNL     1      -9.910   8.135  70.089  1.00  0.00    -0.184 A  
HETATM   17  C   UNL     1     -10.836   8.803  70.928  1.00  0.00    -0.238 A  
HETATM   18  C   UNL     1     -10.699   8.601  72.319  1.00  0.00    -0.383 A  
HETATM   19  C   UNL     1      -9.704   7.785  72.866  1.00  0.00    -0.310 A  
HETATM   20  C   UNL     1      -8.802   7.145  72.035  1.00  0.00    -0.135 A  
HETATM   21  C   UNL     1      -8.903   7.321  70.659  1.00  0.00    -0.148 A  
ENDBRANCH   2   6
TORSDOF 1
ENDMDL
MODEL       71
REMARK 921   NORMALIZED FREE ENERGY PREDICTED BY IDOCK:   -4.48 KCAL/MOL
REMARK 922        TOTAL FREE ENERGY PREDICTED BY IDOCK:   -4.80 KCAL/MOL
REMARK 923 INTER-LIGAND FREE ENERGY PREDICTED BY IDOCK:   -4.74 KCAL/MOL
REMARK 924 INTRA-LIGAND FREE ENERGY PREDICTED BY IDOCK:   -0.06 KCAL/MOL
REMARK 927      BINDING AFFINITY PREDICTED BY RF-SCORE:    0.00 PKD
ROOT
HETATM    1  N   UNL     1      -6.742  13.186  69.542  1.00  0.00    -0.301 N  
HETATM    2  C   UNL     1      -6.910  13.481  68.214  1.00  0.00    -0.108 C  
HETATM    3  H1  UNL     1      -7.582  12.973  70.082  1.00  0.00     0.000 HD 
HETATM    4  H2  UNL     1      -5.818  13.180  69.973  1.00  0.00     0.000 HD 
HETATM    5  O   UNL     1      -5.901  13.737  67.566  1.00  0.00    -0.328 OA 
ENDROOT
BRANCH   2   6
HETATM    6  N   UNL     1      -8.224  13.339  67.738  1.00  0.00    -0.154 N  
HETATM    7  C   UNL     1      -9.037  14.490  67.501  1.00  0.00    -0.193 A  
HETATM    8  C   UNL     1      -8.539  15.554  66.731  1.00  0.00    -0.307 A  
HETATM    9  C   UNL     1      -9.313  16.693  66.508  1.00  0.00    -0.290 A  
HETATM   10  C   UNL     1     -10.586  16.785  67.065  1.00  0.00    -0.234 A  
HETATM   11  C   UNL     1     -11.083  15.740  67.842  1.00  0.00    -0.326 A  
HETATM   12  C   UNL     1     -10.309  14.594  68.069  1.00  0.00    -0.235 A  
HETATM   13  C   UNL     1     -10.822  13.467  68.908  1.00  0.00    -0.253 C  
HETATM   14  C   UNL     1     -11.130  12.273  68.049  1.00  0.00    -0.239 C  
HETATM   15  O   UNL     1     -12.266  11.796  68.041  1.00  0.00    -0.518 OA 
HETATM   16  C   UNL     1     -10.040  11.640  67.242  1.00  0.00    -0.221 A  
HETATM   17  C   UNL     1      -8.704  12.104  67.156  1.00  0.00    -0.190 A  
HETATM   18  C   UNL     1      -7.793  11.299  66.435  1.00  0.00    -0.109 A  
HETATM   19  C   UNL     1      -8.171  10.098  65.826  1.00  0.00    -0.144 A  
HETATM   20  C   UNL     1      -9.481   9.662  65.913  1.00  0.00    -0.296 A  
HETATM   21  C   UNL     1     -10.407  10.428  66.613  1.00  0.00    -0.292 A  
ENDBRANCH   2   6
TORSDOF 1
ENDMDL
MODEL       72
REMARK 921   NORMALIZED FREE ENERGY PREDICTED BY IDOCK:   -4.46 KCAL/MOL
REMARK 922        TOTAL FREE ENERGY PREDICTED BY IDOCK:   -4.79 KCAL/MOL
REMARK 923 INTER-LIGAND FREE ENERGY PREDICTED BY IDOCK:   -4.96 KCAL/MOL
REMARK 924 INTRA-LIGAND FREE ENERGY PREDICTED BY IDOCK:    0.17 KCAL/MOL
REMARK 927      BINDING AFFINITY PREDICTED BY RF-SCORE:    0.00 PKD
ROOT
HETATM    1  N   UNL     1     -10.559   5.219  71.144  1.00  0.00    -0.208 N  
HETATM    2  C   UNL     1     -11.224   6.239  71.773  1.00  0.00    -0.284 C  
HETATM    3  H1  UNL     1      -9.651   5.437  70.734  1.00  0.00     0.000 HD 
HETATM    4  H2  UNL     1     -10.955   4.280  71.089  1.00  0.00     0.000 HD 
HETATM    5  O   UNL     1     -12.316   5.976  72.266  1.00  0.00    -0.252 OA 
ENDROOT
BRANCH   2   6
HETATM    6  N   UNL     1     -10.506   7.443  71.868  1.00  0.00    -0.200 N  
HETATM    7  C   UNL     1     -11.127   8.686  71.534  1.00  0.00    -0.288 A  
HETATM    8  C   UNL     1     -12.372   9.020  72.092  1.00  0.00    -0.442 A  
HETATM    9  C   UNL     1     -13.001  10.220  71.759  1.00  0.00    -0.574 A  
HETATM   10  C   UNL     1     -12.398  11.090  70.855  1.00  0.00    -0.503 A  
HETATM   11  C   UNL     1     -11.168  10.760  70.285  1.00  0.00    -0.326 A  
HETATM   12  C   UNL     1     -10.533   9.556  70.616  1.00  0.00    -0.374 A  
HETATM   13  C   UNL     1      -9.219   9.181  70.008  1.00  0.00    -0.209 C  
HETATM   14  C   UNL     1      -8.125   9.263  71.034  1.00  0.00    -0.066 C  
HETATM   15  O   UNL     1      -7.155  10.000  70.844  1.00  0.00    -0.337 OA 
HETATM   16  C   UNL     1      -8.197   8.413  72.263  1.00  0.00    -0.202 A  
HETATM   17  C   UNL     1      -9.263   7.543  72.601  1.00  0.00    -0.152 A  
HETATM   18  C   UNL     1      -9.089   6.735  73.747  1.00  0.00    -0.178 A  
HETATM   19  C   UNL     1      -7.928   6.775  74.526  1.00  0.00    -0.143 A  
HETATM   20  C   UNL     1      -6.898   7.635  74.187  1.00  0.00    -0.115 A  
HETATM   21  C   UNL     1      -7.034   8.448  73.067  1.00  0.00    -0.108 A  
ENDBRANCH   2   6
TORSDOF 1
ENDMDL
MODEL       73
REMARK 921   NORMALIZED FREE ENERGY PREDICTED BY IDOCK:   -4.45 KCAL/MOL
REMARK 922        TOTAL FREE ENERGY PREDICTED BY IDOCK:   -4.78 KCAL/MOL
REMARK 923 INTER-LIGAND FREE ENERGY PREDICTED BY IDOCK:   -5.10 KCAL/MOL
REMARK 924 INTRA-LIGAND FREE ENERGY PREDICTED BY IDOCK:    0.33 KCAL/MOL
REMARK 927      BINDING AFFINITY PREDICTED BY RF-SCORE:    0.00 PKD
ROOT
HETATM    1  N   UNL     1     -10.377  11.979  68.961  1.00  0.00    -0.420 N  
HETATM    2  C   UNL     1     -11.166  10.943  68.533  1.00  0.00    -0.274 C  
HETATM    3  H1  UNL     1      -9.466  11.740  69.352  1.00  0.00     0.000 HD 
HETATM    4  H2  UNL     1     -10.689  12.948  68.892  1.00  0.00     0.000 HD 
HETATM    5  O   UNL     1     -12.262  11.230  68.063  1.00  0.00    -0.621 OA 
ENDROOT
BRANCH   2   6
HETATM    6  N   UNL     1     -10.560   9.676  68.588  1.00  0.00    -0.216 N  
HETATM    7  C   UNL     1      -9.510   9.336  67.681  1.00  0.00    -0.132 A  
HETATM    8  C   UNL     1      -8.414  10.201  67.520  1.00  0.00    -0.118 A  
HETATM    9  C   UNL     1      -7.391   9.892  66.623  1.00  0.00    -0.099 A  
HETATM   10  C   UNL     1      -7.461   8.725  65.867  1.00  0.00    -0.089 A  
HETATM   11  C   UNL     1      -8.552   7.868  66.010  1.00  0.00    -0.166 A  
HETATM   12  C   UNL     1      -9.581   8.174  66.909  1.00  0.00    -0.269 A  
HETATM   13  C   UNL     1     -10.764   7.272  67.069  1.00  0.00    -0.406 C  
HETATM   14  C   UNL     1     -10.716   6.576  68.399  1.00  0.00    -0.279 C  
HETATM   15  O   UNL     1     -10.711   5.344  68.452  1.00  0.00    -0.138 OA 
HETATM   16  C   UNL     1     -10.721   7.384  69.658  1.00  0.00    -0.245 A  
HETATM   17  C   UNL     1     -10.709   8.799  69.728  1.00  0.00    -0.218 A  
HETATM   18  C   UNL     1     -10.838   9.377  71.012  1.00  0.00    -0.406 A  
HETATM   19  C   UNL     1     -10.971   8.607  72.172  1.00  0.00    -0.434 A  
HETATM   20  C   UNL     1     -10.975   7.226  72.088  1.00  0.00    -0.274 A  
HETATM   21  C   UNL     1     -10.848   6.621  70.842  1.00  0.00    -0.297 A  
ENDBRANCH   2   6
TORSDOF 1
ENDMDL
MODEL       74
REMARK 921   NORMALIZED FREE ENERGY PREDICTED BY IDOCK:   -4.42 KCAL/MOL
REMARK 922        TOTAL FREE ENERGY PREDICTED BY IDOCK:   -4.75 KCAL/MOL
REMARK 923 INTER-LIGAND FREE ENERGY PREDICTED BY IDOCK:   -4.73 KCAL/MOL
REMARK 924 INTRA-LIGAND FREE ENERGY PREDICTED BY IDOCK:   -0.01 KCAL/MOL
REMARK 927      BINDING AFFINITY PREDICTED BY RF-SCORE:    0.00 PKD
ROOT
HETATM    1  N   UNL     1      -7.407  13.922  68.450  1.00  0.00    -0.106 N  
HETATM    2  C   UNL     1      -8.580  14.591  68.683  1.00  0.00    -0.168 C  
HETATM    3  H1  UNL     1      -7.434  13.154  67.779  1.00  0.00     0.000 HD 
HETATM    4  H2  UNL     1      -6.543  14.181  68.927  1.00  0.00     0.000 HD 
HETATM    5  O   UNL     1      -8.547  15.515  69.489  1.00  0.00    -0.260 OA 
ENDROOT
BRANCH   2   6
HETATM    6  N   UNL     1      -9.657  14.197  67.871  1.00  0.00    -0.217 N  
HETATM    7  C   UNL     1     -10.505  13.117  68.267  1.00  0.00    -0.250 A  
HETATM    8  C   UNL     1     -11.063  13.100  69.556  1.00  0.00    -0.067 A  
HETATM    9  C   UNL     1     -11.876  12.042  69.964  1.00  0.00    -0.392 A  
HETATM   10  C   UNL     1     -12.127  10.986  69.093  1.00  0.00    -0.333 A  
HETATM   11  C   UNL     1     -11.567  10.988  67.816  1.00  0.00    -0.277 A  
HETATM   12  C   UNL     1     -10.749  12.048  67.402  1.00  0.00    -0.266 A  
HETATM   13  C   UNL     1     -10.131  12.063  66.040  1.00  0.00    -0.257 C  
HETATM   14  C   UNL     1     -10.781  13.111  65.181  1.00  0.00    -0.315 C  
HETATM   15  O   UNL     1     -11.316  12.793  64.118  1.00  0.00    -0.342 OA 
HETATM   16  C   UNL     1     -10.734  14.546  65.602  1.00  0.00    -0.335 A  
HETATM   17  C   UNL     1     -10.165  15.033  66.805  1.00  0.00    -0.260 A  
HETATM   18  C   UNL     1     -10.114  16.436  66.965  1.00  0.00    -0.272 A  
HETATM   19  C   UNL     1     -10.595  17.322  65.995  1.00  0.00    -0.217 A  
HETATM   20  C   UNL     1     -11.154  16.831  64.829  1.00  0.00    -0.025 A  
HETATM   21  C   UNL     1     -11.225  15.455  64.636  1.00  0.00    -0.374 A  
ENDBRANCH   2   6
TORSDOF 1
ENDMDL
MODEL       75
REMARK 921   NORMALIZED FREE ENERGY PREDICTED BY IDOCK:   -4.41 KCAL/MOL
REMARK 922        TOTAL FREE ENERGY PREDICTED BY IDOCK:   -4.73 KCAL/MOL
REMARK 923 INTER-LIGAND FREE ENERGY PREDICTED BY IDOCK:   -4.67 KCAL/MOL
REMARK 924 INTRA-LIGAND FREE ENERGY PREDICTED BY IDOCK:   -0.06 KCAL/MOL
REMARK 927      BINDING AFFINITY PREDICTED BY RF-SCORE:    0.00 PKD
ROOT
HETATM    1  N   UNL     1     -10.205  13.812  64.446  1.00  0.00    -0.669 N  
HETATM    2  C   UNL     1     -10.720  14.331  65.606  1.00  0.00    -0.316 C  
HETATM    3  H1  UNL     1      -9.306  13.333  64.509  1.00  0.00     0.000 HD 
HETATM    4  H2  UNL     1     -10.699  13.903  63.559  1.00  0.00     0.000 HD 
HETATM    5  O   UNL     1     -11.800  14.907  65.531  1.00  0.00    -0.279 OA 
ENDROOT
BRANCH   2   6
HETATM    6  N   UNL     1      -9.985  14.031  66.766  1.00  0.00    -0.262 N  
HETATM    7  C   UNL     1      -9.257  15.054  67.447  1.00  0.00    -0.195 A  
HETATM    8  C   UNL     1      -9.892  16.262  67.783  1.00  0.00    -0.237 A  
HETATM    9  C   UNL     1      -9.189  17.278  68.430  1.00  0.00    -0.268 A  
HETATM   10  C   UNL     1      -7.841  17.103  68.733  1.00  0.00    -0.258 A  
HETATM   11  C   UNL     1      -7.199  15.914  68.391  1.00  0.00    -0.121 A  
HETATM   12  C   UNL     1      -7.901  14.890  67.741  1.00  0.00    -0.164 A  
HETATM   13  C   UNL     1      -7.227  13.612  67.357  1.00  0.00    -0.108 C  
HETATM   14  C   UNL     1      -7.713  12.483  68.221  1.00  0.00    -0.141 C  
HETATM   15  O   UNL     1      -6.912  11.832  68.896  1.00  0.00    -0.096 OA 
HETATM   16  C   UNL     1      -9.166  12.125  68.224  1.00  0.00    -0.192 A  
HETATM   17  C   UNL     1     -10.182  12.805  67.508  1.00  0.00    -0.216 A  
HETATM   18  C   UNL     1     -11.477  12.239  67.545  1.00  0.00    -0.414 A  
HETATM   19  C   UNL     1     -11.765  11.066  68.248  1.00  0.00    -0.301 A  
HETATM   20  C   UNL     1     -10.763  10.417  68.949  1.00  0.00    -0.255 A  
HETATM   21  C   UNL     1      -9.476  10.944  68.938  1.00  0.00    -0.182 A  
ENDBRANCH   2   6
TORSDOF 1
ENDMDL
MODEL       76
REMARK 921   NORMALIZED FREE ENERGY PREDICTED BY IDOCK:   -4.39 KCAL/MOL
REMARK 922        TOTAL FREE ENERGY PREDICTED BY IDOCK:   -4.71 KCAL/MOL
REMARK 923 INTER-LIGAND FREE ENERGY PREDICTED BY IDOCK:   -5.02 KCAL/MOL
REMARK 924 INTRA-LIGAND FREE ENERGY PREDICTED BY IDOCK:    0.32 KCAL/MOL
REMARK 927      BINDING AFFINITY PREDICTED BY RF-SCORE:    0.00 PKD
ROOT
HETATM    1  N   UNL     1      -9.398   8.986  64.610  1.00  0.00    -0.381 N  
HETATM    2  C   UNL     1      -8.833   9.499  65.748  1.00  0.00    -0.162 C  
HETATM    3  H1  UNL     1     -10.373   8.690  64.666  1.00  0.00     0.000 HD 
HETATM    4  H2  UNL     1      -8.866   8.903  63.743  1.00  0.00     0.000 HD 
HETATM    5  O   UNL     1      -7.661   9.854  65.681  1.00  0.00    -0.108 OA 
ENDROOT
BRANCH   2   6
HETATM    6  N   UNL     1      -9.718   9.656  66.829  1.00  0.00    -0.185 N  
HETATM    7  C   UNL     1     -10.476  10.858  66.974  1.00  0.00    -0.244 A  
HETATM    8  C   UNL     1     -11.216  11.357  65.889  1.00  0.00    -0.172 A  
HETATM    9  C   UNL     1     -11.946  12.540  66.010  1.00  0.00    -0.456 A  
HETATM   10  C   UNL     1     -11.930  13.243  67.211  1.00  0.00    -0.393 A  
HETATM   11  C   UNL     1     -11.187  12.764  68.289  1.00  0.00    -0.308 A  
HETATM   12  C   UNL     1     -10.453  11.576  68.173  1.00  0.00    -0.216 A  
HETATM   13  C   UNL     1      -9.643  11.050  69.315  1.00  0.00    -0.008 C  
HETATM   14  C   UNL     1     -10.279   9.815  69.884  1.00  0.00    -0.254 C  
HETATM   15  O   UNL     1     -10.604   9.778  71.072  1.00  0.00    -0.314 OA 
HETATM   16  C   UNL     1     -10.474   8.613  69.012  1.00  0.00    -0.216 A  
HETATM   17  C   UNL     1     -10.158   8.537  67.633  1.00  0.00    -0.213 A  
HETATM   18  C   UNL     1     -10.304   7.276  67.013  1.00  0.00    -0.376 A  
HETATM   19  C   UNL     1     -10.739   6.143  67.708  1.00  0.00    -0.382 A  
HETATM   20  C   UNL     1     -11.050   6.234  69.053  1.00  0.00    -0.446 A  
HETATM   21  C   UNL     1     -10.921   7.460  69.698  1.00  0.00    -0.186 A  
ENDBRANCH   2   6
TORSDOF 1
ENDMDL
MODEL       77
REMARK 921   NORMALIZED FREE ENERGY PREDICTED BY IDOCK:   -4.38 KCAL/MOL
REMARK 922        TOTAL FREE ENERGY PREDICTED BY IDOCK:   -4.70 KCAL/MOL
REMARK 923 INTER-LIGAND FREE ENERGY PREDICTED BY IDOCK:   -4.68 KCAL/MOL
REMARK 924 INTRA-LIGAND FREE ENERGY PREDICTED BY IDOCK:   -0.02 KCAL/MOL
REMARK 927      BINDING AFFINITY PREDICTED BY RF-SCORE:    0.00 PKD
ROOT
HETATM    1  N   UNL     1      -8.899  11.010  63.630  1.00  0.00    -0.377 N  
HETATM    2  C   UNL     1     -10.057  11.191  64.342  1.00  0.00    -0.320 C  
HETATM    3  H1  UNL     1      -8.022  11.053  64.148  1.00  0.00     0.000 HD 
HETATM    4  H2  UNL     1      -8.915  10.840  62.624  1.00  0.00     0.000 HD 
HETATM    5  O   UNL     1     -11.112  11.140  63.719  1.00  0.00    -0.329 OA 
ENDROOT
BRANCH   2   6
HETATM    6  N   UNL     1      -9.884  11.302  65.732  1.00  0.00    -0.221 N  
HETATM    7  C   UNL     1     -10.264  12.497  66.416  1.00  0.00    -0.244 A  
HETATM    8  C   UNL     1     -11.543  13.045  66.215  1.00  0.00    -0.408 A  
HETATM    9  C   UNL     1     -11.921  14.223  66.860  1.00  0.00    -0.467 A  
HETATM   10  C   UNL     1     -11.020  14.872  67.700  1.00  0.00    -0.300 A  
HETATM   11  C   UNL     1      -9.744  14.344  67.894  1.00  0.00    -0.223 A  
HETATM   12  C   UNL     1      -9.360  13.161  67.249  1.00  0.00    -0.225 A  
HETATM   13  C   UNL     1      -7.993  12.584  67.438  1.00  0.00    -0.180 C  
HETATM   14  C   UNL     1      -8.064  11.326  68.254  1.00  0.00    -0.137 C  
HETATM   15  O   UNL     1      -7.432  11.237  69.309  1.00  0.00    -0.109 OA 
HETATM   16  C   UNL     1      -8.867  10.165  67.757  1.00  0.00    -0.125 A  
HETATM   17  C   UNL     1      -9.646  10.149  66.573  1.00  0.00    -0.187 A  
HETATM   18  C   UNL     1     -10.236   8.917  66.213  1.00  0.00    -0.203 A  
HETATM   19  C   UNL     1     -10.073   7.755  66.973  1.00  0.00    -0.343 A  
HETATM   20  C   UNL     1      -9.315   7.787  68.131  1.00  0.00    -0.148 A  
HETATM   21  C   UNL     1      -8.720   8.983  68.519  1.00  0.00    -0.133 A  
ENDBRANCH   2   6
TORSDOF 1
ENDMDL
MODEL       78
REMARK 921   NORMALIZED FREE ENERGY PREDICTED BY IDOCK:   -4.38 KCAL/MOL
REMARK 922        TOTAL FREE ENERGY PREDICTED BY IDOCK:   -4.70 KCAL/MOL
REMARK 923 INTER-LIGAND FREE ENERGY PREDICTED BY IDOCK:   -4.69 KCAL/MOL
REMARK 924 INTRA-LIGAND FREE ENERGY PREDICTED BY IDOCK:   -0.01 KCAL/MOL
REMARK 927      BINDING AFFINITY PREDICTED BY RF-SCORE:    0.00 PKD
ROOT
HETATM    1  N   UNL     1      -8.091  14.480  69.520  1.00  0.00    -0.382 N  
HETATM    2  C   UNL     1      -8.106  14.522  68.150  1.00  0.00    -0.137 C  
HETATM    3  H1  UNL     1      -8.653  13.758  69.970  1.00  0.00     0.000 HD 
HETATM    4  H2  UNL     1      -7.542  15.144  70.066  1.00  0.00     0.000 HD 
HETATM    5  O   UNL     1      -7.431  15.391  67.609  1.00  0.00    -0.140 OA 
ENDROOT
BRANCH   2   6
HETATM    6  N   UNL     1      -8.815  13.477  67.534  1.00  0.00    -0.197 N  
HETATM    7  C   UNL     1      -9.937  13.758  66.695  1.00  0.00    -0.279 A  
HETATM    8  C   UNL     1      -9.822  14.708  65.665  1.00  0.00    -0.354 A  
HETATM    9  C   UNL     1     -10.915  15.008  64.851  1.00  0.00    -0.427 A  
HETATM   10  C   UNL     1     -12.135  14.374  65.068  1.00  0.00    -0.417 A  
HETATM   11  C   UNL     1     -12.262  13.441  66.097  1.00  0.00    -0.471 A  
HETATM   12  C   UNL     1     -11.168  13.136  66.917  1.00  0.00    -0.328 A  
HETATM   13  C   UNL     1     -11.287  12.145  68.031  1.00  0.00    -0.353 C  
HETATM   14  C   UNL     1     -10.533  10.889  67.698  1.00  0.00    -0.209 C  
HETATM   15  O   UNL     1     -11.120   9.805  67.670  1.00  0.00    -0.244 OA 
HETATM   16  C   UNL     1      -9.059  10.955  67.445  1.00  0.00    -0.144 A  
HETATM   17  C   UNL     1      -8.279  12.137  67.432  1.00  0.00    -0.175 A  
HETATM   18  C   UNL     1      -6.881  11.978  67.292  1.00  0.00    -0.150 A  
HETATM   19  C   UNL     1      -6.276  10.723  67.172  1.00  0.00    -0.065 A  
HETATM   20  C   UNL     1      -7.052   9.578  67.180  1.00  0.00    -0.086 A  
HETATM   21  C   UNL     1      -8.432   9.694  67.312  1.00  0.00    -0.132 A  
ENDBRANCH   2   6
TORSDOF 1
ENDMDL
MODEL       79
REMARK 921   NORMALIZED FREE ENERGY PREDICTED BY IDOCK:   -4.35 KCAL/MOL
REMARK 922        TOTAL FREE ENERGY PREDICTED BY IDOCK:   -4.67 KCAL/MOL
REMARK 923 INTER-LIGAND FREE ENERGY PREDICTED BY IDOCK:   -4.61 KCAL/MOL
REMARK 924 INTRA-LIGAND FREE ENERGY PREDICTED BY IDOCK:   -0.06 KCAL/MOL
REMARK 927      BINDING AFFINITY PREDICTED BY RF-SCORE:    0.00 PKD
ROOT
HETATM    1  N   UNL     1     -12.530   7.054  70.688  1.00  0.00    -0.604 N  
HETATM    2  C   UNL     1     -11.863   8.180  71.093  1.00  0.00    -0.279 C  
HETATM    3  H1  UNL     1     -12.347   6.718  69.742  1.00  0.00     0.000 HD 
HETATM    4  H2  UNL     1     -13.182   6.572  71.306  1.00  0.00     0.000 HD 
HETATM    5  O   UNL     1     -12.083   8.584  72.230  1.00  0.00    -0.358 OA 
ENDROOT
BRANCH   2   6
HETATM    6  N   UNL     1     -10.915   8.668  70.177  1.00  0.00    -0.244 N  
HETATM    7  C   UNL     1     -11.163   9.873  69.451  1.00  0.00    -0.153 A  
HETATM    8  C   UNL     1     -11.564  11.034  70.133  1.00  0.00    -0.421 A  
HETATM    9  C   UNL     1     -11.830  12.212  69.435  1.00  0.00    -0.370 A  
HETATM   10  C   UNL     1     -11.711  12.237  68.048  1.00  0.00    -0.417 A  
HETATM   11  C   UNL     1     -11.327  11.086  67.361  1.00  0.00    -0.306 A  
HETATM   12  C   UNL     1     -11.059   9.900  68.058  1.00  0.00    -0.220 A  
HETATM   13  C   UNL     1     -10.656   8.653  67.338  1.00  0.00    -0.298 C  
HETATM   14  C   UNL     1      -9.209   8.344  67.597  1.00  0.00    -0.134 C  
HETATM   15  O   UNL     1      -8.419   8.250  66.656  1.00  0.00    -0.117 OA 
HETATM   16  C   UNL     1      -8.742   8.104  68.999  1.00  0.00    -0.144 A  
HETATM   17  C   UNL     1      -9.547   8.199  70.161  1.00  0.00    -0.168 A  
HETATM   18  C   UNL     1      -8.949   7.818  71.384  1.00  0.00    -0.151 A  
HETATM   19  C   UNL     1      -7.628   7.366  71.467  1.00  0.00    -0.085 A  
HETATM   20  C   UNL     1      -6.852   7.286  70.323  1.00  0.00    -0.052 A  
HETATM   21  C   UNL     1      -7.405   7.655  69.101  1.00  0.00    -0.089 A  
ENDBRANCH   2   6
TORSDOF 1
ENDMDL
MODEL       80
REMARK 921   NORMALIZED FREE ENERGY PREDICTED BY IDOCK:   -4.33 KCAL/MOL
REMARK 922        TOTAL FREE ENERGY PREDICTED BY IDOCK:   -4.65 KCAL/MOL
REMARK 923 INTER-LIGAND FREE ENERGY PREDICTED BY IDOCK:   -4.62 KCAL/MOL
REMARK 924 INTRA-LIGAND FREE ENERGY PREDICTED BY IDOCK:   -0.03 KCAL/MOL
REMARK 927      BINDING AFFINITY PREDICTED BY RF-SCORE:    0.00 PKD
ROOT
HETATM    1  N   UNL     1      -7.574   7.092  71.427  1.00  0.00    -0.085 N  
HETATM    2  C   UNL     1      -8.185   8.279  71.119  1.00  0.00    -0.120 C  
HETATM    3  H1  UNL     1      -8.017   6.238  71.088  1.00  0.00     0.000 HD 
HETATM    4  H2  UNL     1      -6.712   7.063  71.973  1.00  0.00     0.000 HD 
HETATM    5  O   UNL     1      -7.652   9.306  71.527  1.00  0.00    -0.340 OA 
ENDROOT
BRANCH   2   6
HETATM    6  N   UNL     1      -9.298   8.168  70.268  1.00  0.00    -0.155 N  
HETATM    7  C   UNL     1     -10.612   8.022  70.809  1.00  0.00    -0.214 A  
HETATM    8  C   UNL     1     -11.064   8.908  71.802  1.00  0.00    -0.433 A  
HETATM    9  C   UNL     1     -12.337   8.765  72.355  1.00  0.00    -0.414 A  
HETATM   10  C   UNL     1     -13.164   7.727  71.931  1.00  0.00    -0.300 A  
HETATM   11  C   UNL     1     -12.717   6.835  70.957  1.00  0.00    -0.197 A  
HETATM   12  C   UNL     1     -11.440   6.974  70.399  1.00  0.00    -0.355 A  
HETATM   13  C   UNL     1     -10.940   6.022  69.360  1.00  0.00    -0.455 C  
HETATM   14  C   UNL     1     -10.867   6.698  68.021  1.00  0.00    -0.271 C  
HETATM   15  O   UNL     1     -11.497   6.244  67.064  1.00  0.00    -0.143 OA 
HETATM   16  C   UNL     1      -9.991   7.899  67.844  1.00  0.00    -0.220 A  
HETATM   17  C   UNL     1      -9.234   8.523  68.867  1.00  0.00    -0.146 A  
HETATM   18  C   UNL     1      -8.375   9.574  68.475  1.00  0.00    -0.118 A  
HETATM   19  C   UNL     1      -8.260   9.995  67.146  1.00  0.00    -0.117 A  
HETATM   20  C   UNL     1      -9.011   9.380  66.159  1.00  0.00    -0.197 A  
HETATM   21  C   UNL     1      -9.870   8.343  66.507  1.00  0.00    -0.338 A  
ENDBRANCH   2   6
TORSDOF 1
ENDMDL
MODEL       81
REMARK 921   NORMALIZED FREE ENERGY PREDICTED BY IDOCK:   -4.32 KCAL/MOL
REMARK 922        TOTAL FREE ENERGY PREDICTED BY IDOCK:   -4.63 KCAL/MOL
REMARK 923 INTER-LIGAND FREE ENERGY PREDICTED BY IDOCK:   -4.72 KCAL/MOL
REMARK 924 INTRA-LIGAND FREE ENERGY PREDICTED BY IDOCK:    0.09 KCAL/MOL
REMARK 927      BINDING AFFINITY PREDICTED BY RF-SCORE:    0.00 PKD
ROOT
HETATM    1  N   UNL     1      -9.849   7.926  65.958  1.00  0.00    -0.440 N  
HETATM    2  C   UNL     1      -9.447   9.231  65.849  1.00  0.00    -0.259 C  
HETATM    3  H1  UNL     1     -10.184   7.616  66.870  1.00  0.00     0.000 HD 
HETATM    4  H2  UNL     1      -9.815   7.291  65.160  1.00  0.00     0.000 HD 
HETATM    5  O   UNL     1      -9.044   9.604  64.752  1.00  0.00    -0.211 OA 
ENDROOT
BRANCH   2   6
HETATM    6  N   UNL     1      -9.657  10.013  66.998  1.00  0.00    -0.166 N  
HETATM    7  C   UNL     1      -8.817   9.858  68.143  1.00  0.00    -0.118 A  
HETATM    8  C   UNL     1      -7.420   9.886  67.997  1.00  0.00    -0.085 A  
HETATM    9  C   UNL     1      -6.586   9.716  69.103  1.00  0.00    -0.049 A  
HETATM   10  C   UNL     1      -7.141   9.501  70.362  1.00  0.00    -0.120 A  
HETATM   11  C   UNL     1      -8.527   9.457  70.514  1.00  0.00    -0.251 A  
HETATM   12  C   UNL     1      -9.368   9.628  69.406  1.00  0.00    -0.201 A  
HETATM   13  C   UNL     1     -10.856   9.574  69.548  1.00  0.00    -0.243 C  
HETATM   14  C   UNL     1     -11.449  10.942  69.365  1.00  0.00    -0.302 C  
HETATM   15  O   UNL     1     -12.130  11.445  70.260  1.00  0.00    -0.331 OA 
HETATM   16  C   UNL     1     -11.247  11.670  68.072  1.00  0.00    -0.327 A  
HETATM   17  C   UNL     1     -10.474  11.206  66.979  1.00  0.00    -0.235 A  
HETATM   18  C   UNL     1     -10.504  11.985  65.800  1.00  0.00    -0.290 A  
HETATM   19  C   UNL     1     -11.253  13.162  65.695  1.00  0.00    -0.306 A  
HETATM   20  C   UNL     1     -11.997  13.606  66.774  1.00  0.00    -0.458 A  
HETATM   21  C   UNL     1     -11.991  12.867  67.953  1.00  0.00    -0.333 A  
ENDBRANCH   2   6
TORSDOF 1
ENDMDL
MODEL       82
REMARK 921   NORMALIZED FREE ENERGY PREDICTED BY IDOCK:   -4.31 KCAL/MOL
REMARK 922        TOTAL FREE ENERGY PREDICTED BY IDOCK:   -4.63 KCAL/MOL
REMARK 923 INTER-LIGAND FREE ENERGY PREDICTED BY IDOCK:   -4.94 KCAL/MOL
REMARK 924 INTRA-LIGAND FREE ENERGY PREDICTED BY IDOCK:    0.32 KCAL/MOL
REMARK 927      BINDING AFFINITY PREDICTED BY RF-SCORE:    0.00 PKD
ROOT
HETATM    1  N   UNL     1      -6.931  12.570  69.588  1.00  0.00    -0.337 N  
HETATM    2  C   UNL     1      -7.358  12.695  68.292  1.00  0.00    -0.116 C  
HETATM    3  H1  UNL     1      -7.645  12.415  70.301  1.00  0.00     0.000 HD 
HETATM    4  H2  UNL     1      -5.942  12.629  69.830  1.00  0.00     0.000 HD 
HETATM    5  O   UNL     1      -6.501  12.882  67.435  1.00  0.00    -0.160 OA 
ENDROOT
BRANCH   2   6
HETATM    6  N   UNL     1      -8.733  12.478  68.099  1.00  0.00    -0.186 N  
HETATM    7  C   UNL     1      -9.276  11.159  68.172  1.00  0.00    -0.166 A  
HETATM    8  C   UNL     1      -8.982  10.339  69.275  1.00  0.00    -0.190 A  
HETATM    9  C   UNL     1      -9.488   9.041  69.350  1.00  0.00    -0.159 A  
HETATM   10  C   UNL     1     -10.279   8.545  68.318  1.00  0.00    -0.244 A  
HETATM   11  C   UNL     1     -10.564   9.346  67.212  1.00  0.00    -0.314 A  
HETATM   12  C   UNL     1     -10.059  10.650  67.132  1.00  0.00    -0.248 A  
HETATM   13  C   UNL     1     -10.346  11.521  65.951  1.00  0.00    -0.293 C  
HETATM   14  C   UNL     1     -11.289  12.627  66.331  1.00  0.00    -0.331 C  
HETATM   15  O   UNL     1     -12.364  12.752  65.742  1.00  0.00    -0.547 OA 
HETATM   16  C   UNL     1     -10.895  13.602  67.396  1.00  0.00    -0.282 A  
HETATM   17  C   UNL     1      -9.698  13.555  68.153  1.00  0.00    -0.233 A  
HETATM   18  C   UNL     1      -9.454  14.636  69.030  1.00  0.00    -0.127 A  
HETATM   19  C   UNL     1     -10.338  15.712  69.160  1.00  0.00    -0.241 A  
HETATM   20  C   UNL     1     -11.506  15.741  68.419  1.00  0.00    -0.367 A  
HETATM   21  C   UNL     1     -11.782  14.693  67.547  1.00  0.00    -0.403 A  
ENDBRANCH   2   6
TORSDOF 1
ENDMDL
MODEL       83
REMARK 921   NORMALIZED FREE ENERGY PREDICTED BY IDOCK:   -4.30 KCAL/MOL
REMARK 922        TOTAL FREE ENERGY PREDICTED BY IDOCK:   -4.61 KCAL/MOL
REMARK 923 INTER-LIGAND FREE ENERGY PREDICTED BY IDOCK:   -4.94 KCAL/MOL
REMARK 924 INTRA-LIGAND FREE ENERGY PREDICTED BY IDOCK:    0.33 KCAL/MOL
REMARK 927      BINDING AFFINITY PREDICTED BY RF-SCORE:    0.00 PKD
ROOT
HETATM    1  N   UNL     1      -9.667  14.167  65.288  1.00  0.00    -0.567 N  
HETATM    2  C   UNL     1     -10.167  15.436  65.422  1.00  0.00    -0.377 C  
HETATM    3  H1  UNL     1      -9.129  13.793  66.070  1.00  0.00     0.000 HD 
HETATM    4  H2  UNL     1      -9.825  13.620  64.442  1.00  0.00     0.000 HD 
HETATM    5  O   UNL     1     -10.814  15.885  64.481  1.00  0.00    -0.532 OA 
ENDROOT
BRANCH   2   6
HETATM    6  N   UNL     1      -9.965  16.021  66.683  1.00  0.00    -0.256 N  
HETATM    7  C   UNL     1     -10.676  15.543  67.826  1.00  0.00    -0.297 A  
HETATM    8  C   UNL     1     -10.691  14.168  68.118  1.00  0.00    -0.251 A  
HETATM    9  C   UNL     1     -11.398  13.684  69.219  1.00  0.00    -0.323 A  
HETATM   10  C   UNL     1     -12.108  14.566  70.029  1.00  0.00    -0.395 A  
HETATM   11  C   UNL     1     -12.110  15.930  69.739  1.00  0.00    -0.231 A  
HETATM   12  C   UNL     1     -11.402  16.422  68.635  1.00  0.00    -0.289 A  
HETATM   13  C   UNL     1     -11.399  17.880  68.301  1.00  0.00     0.769 C  
HETATM   14  C   UNL     1     -10.052  18.480  68.586  1.00  0.00    -0.369 C  
HETATM   15  O   UNL     1      -9.950  19.423  69.373  1.00  0.00    -0.355 OA 
HETATM   16  C   UNL     1      -8.843  17.958  67.875  1.00  0.00    -0.260 A  
HETATM   17  C   UNL     1      -8.829  16.872  66.964  1.00  0.00    -0.212 A  
HETATM   18  C   UNL     1      -7.607  16.607  66.305  1.00  0.00    -0.226 A  
HETATM   19  C   UNL     1      -6.454  17.367  66.526  1.00  0.00    -0.269 A  
HETATM   20  C   UNL     1      -6.482  18.420  67.424  1.00  0.00    -0.197 A  
HETATM   21  C   UNL     1      -7.666  18.710  68.094  1.00  0.00    -0.302 A  
ENDBRANCH   2   6
TORSDOF 1
ENDMDL
MODEL       84
REMARK 921   NORMALIZED FREE ENERGY PREDICTED BY IDOCK:   -4.28 KCAL/MOL
REMARK 922        TOTAL FREE ENERGY PREDICTED BY IDOCK:   -4.59 KCAL/MOL
REMARK 923 INTER-LIGAND FREE ENERGY PREDICTED BY IDOCK:   -4.53 KCAL/MOL
REMARK 924 INTRA-LIGAND FREE ENERGY PREDICTED BY IDOCK:   -0.06 KCAL/MOL
REMARK 927      BINDING AFFINITY PREDICTED BY RF-SCORE:    0.00 PKD
ROOT
HETATM    1  N   UNL     1     -12.623   9.567  70.661  1.00  0.00    -0.507 N  
HETATM    2  C   UNL     1     -12.369   8.286  71.076  1.00  0.00    -0.133 C  
HETATM    3  H1  UNL     1     -11.823  10.129  70.369  1.00  0.00     0.000 HD 
HETATM    4  H2  UNL     1     -13.571   9.943  70.646  1.00  0.00     0.000 HD 
HETATM    5  O   UNL     1     -13.331   7.610  71.427  1.00  0.00    -0.337 OA 
ENDROOT
BRANCH   2   6
HETATM    6  N   UNL     1     -11.034   7.872  70.934  1.00  0.00    -0.239 N  
HETATM    7  C   UNL     1     -10.213   7.669  72.086  1.00  0.00    -0.207 A  
HETATM    8  C   UNL     1     -10.676   6.873  73.147  1.00  0.00    -0.338 A  
HETATM    9  C   UNL     1      -9.894   6.683  74.287  1.00  0.00    -0.353 A  
HETATM   10  C   UNL     1      -8.649   7.298  74.383  1.00  0.00    -0.242 A  
HETATM   11  C   UNL     1      -8.187   8.102  73.341  1.00  0.00    -0.267 A  
HETATM   12  C   UNL     1      -8.968   8.295  72.194  1.00  0.00    -0.274 A  
HETATM   13  C   UNL     1      -8.494   9.161  71.071  1.00  0.00    -0.221 C  
HETATM   14  C   UNL     1      -8.144   8.322  69.875  1.00  0.00    -0.117 C  
HETATM   15  O   UNL     1      -7.008   8.368  69.399  1.00  0.00    -0.048 OA 
HETATM   16  C   UNL     1      -9.194   7.467  69.237  1.00  0.00    -0.147 A  
HETATM   17  C   UNL     1     -10.525   7.317  69.699  1.00  0.00    -0.231 A  
HETATM   18  C   UNL     1     -11.400   6.557  68.890  1.00  0.00    -0.267 A  
HETATM   19  C   UNL     1     -10.993   5.970  67.688  1.00  0.00    -0.334 A  
HETATM   20  C   UNL     1      -9.687   6.119  67.254  1.00  0.00    -0.146 A  
HETATM   21  C   UNL     1      -8.796   6.859  68.024  1.00  0.00    -0.123 A  
ENDBRANCH   2   6
TORSDOF 1
ENDMDL
MODEL       85
REMARK 921   NORMALIZED FREE ENERGY PREDICTED BY IDOCK:   -4.26 KCAL/MOL
REMARK 922        TOTAL FREE ENERGY PREDICTED BY IDOCK:   -4.57 KCAL/MOL
REMARK 923 INTER-LIGAND FREE ENERGY PREDICTED BY IDOCK:   -5.40 KCAL/MOL
REMARK 924 INTRA-LIGAND FREE ENERGY PREDICTED BY IDOCK:    0.83 KCAL/MOL
REMARK 927      BINDING AFFINITY PREDICTED BY RF-SCORE:    0.00 PKD
ROOT
HETATM    1  N   UNL     1     -11.567  11.309  62.943  1.00  0.00    -0.684 N  
HETATM    2  C   UNL     1     -11.839  11.936  64.131  1.00  0.00    -0.318 C  
HETATM    3  H1  UNL     1     -10.794  10.644  62.933  1.00  0.00     0.000 HD 
HETATM    4  H2  UNL     1     -12.115  11.500  62.104  1.00  0.00     0.000 HD 
HETATM    5  O   UNL     1     -12.769  12.736  64.143  1.00  0.00    -0.658 OA 
ENDROOT
BRANCH   2   6
HETATM    6  N   UNL     1     -11.076  11.490  65.224  1.00  0.00    -0.237 N  
HETATM    7  C   UNL     1      -9.943  10.644  65.018  1.00  0.00    -0.305 A  
HETATM    8  C   UNL     1      -8.962  11.001  64.076  1.00  0.00    -0.050 A  
HETATM    9  C   UNL     1      -7.861  10.175  63.850  1.00  0.00    -0.149 A  
HETATM   10  C   UNL     1      -7.737   8.979  64.551  1.00  0.00    -0.116 A  
HETATM   11  C   UNL     1      -8.712   8.610  65.477  1.00  0.00    -0.219 A  
HETATM   12  C   UNL     1      -9.820   9.435  65.708  1.00  0.00    -0.345 A  
HETATM   13  C   UNL     1     -10.880   9.052  66.690  1.00  0.00     0.151 C  
HETATM   14  C   UNL     1     -10.814   9.934  67.904  1.00  0.00    -0.258 C  
HETATM   15  O   UNL     1     -10.650   9.437  69.020  1.00  0.00    -0.217 OA 
HETATM   16  C   UNL     1     -10.993  11.413  67.756  1.00  0.00    -0.301 A  
HETATM   17  C   UNL     1     -11.170  12.102  66.531  1.00  0.00    -0.328 A  
HETATM   18  C   UNL     1     -11.442  13.486  66.610  1.00  0.00    -0.366 A  
HETATM   19  C   UNL     1     -11.536  14.165  67.830  1.00  0.00    -0.379 A  
HETATM   20  C   UNL     1     -11.354  13.480  69.018  1.00  0.00    -0.336 A  
HETATM   21  C   UNL     1     -11.082  12.116  68.980  1.00  0.00    -0.290 A  
ENDBRANCH   2   6
TORSDOF 1
ENDMDL
MODEL       86
REMARK 921   NORMALIZED FREE ENERGY PREDICTED BY IDOCK:   -4.20 KCAL/MOL
REMARK 922        TOTAL FREE ENERGY PREDICTED BY IDOCK:   -4.51 KCAL/MOL
REMARK 923 INTER-LIGAND FREE ENERGY PREDICTED BY IDOCK:   -4.47 KCAL/MOL
REMARK 924 INTRA-LIGAND FREE ENERGY PREDICTED BY IDOCK:   -0.04 KCAL/MOL
REMARK 927      BINDING AFFINITY PREDICTED BY RF-SCORE:    0.00 PKD
ROOT
HETATM    1  N   UNL     1      -7.243  15.859  66.964  1.00  0.00    -0.216 N  
HETATM    2  C   UNL     1      -7.449  14.673  67.619  1.00  0.00    -0.186 C  
HETATM    3  H1  UNL     1      -7.983  16.180  66.339  1.00  0.00     0.000 HD 
HETATM    4  H2  UNL     1      -6.387  16.397  67.095  1.00  0.00     0.000 HD 
HETATM    5  O   UNL     1      -6.559  14.287  68.371  1.00  0.00    -0.089 OA 
ENDROOT
BRANCH   2   6
HETATM    6  N   UNL     1      -8.719  14.103  67.427  1.00  0.00    -0.198 N  
HETATM    7  C   UNL     1      -8.856  12.849  66.756  1.00  0.00    -0.147 A  
HETATM    8  C   UNL     1      -8.078  11.750  67.156  1.00  0.00    -0.169 A  
HETATM    9  C   UNL     1      -8.186  10.525  66.497  1.00  0.00    -0.133 A  
HETATM   10  C   UNL     1      -9.062  10.392  65.423  1.00  0.00    -0.221 A  
HETATM   11  C   UNL     1      -9.828  11.481  65.010  1.00  0.00    -0.294 A  
HETATM   12  C   UNL     1      -9.723  12.713  65.668  1.00  0.00    -0.149 A  
HETATM   13  C   UNL     1     -10.529  13.895  65.234  1.00  0.00    -0.386 C  
HETATM   14  C   UNL     1     -11.595  14.204  66.246  1.00  0.00    -0.370 C  
HETATM   15  O   UNL     1     -12.781  14.213  65.911  1.00  0.00    -0.487 OA 
HETATM   16  C   UNL     1     -11.206  14.544  67.651  1.00  0.00    -0.335 A  
HETATM   17  C   UNL     1      -9.883  14.551  68.160  1.00  0.00    -0.223 A  
HETATM   18  C   UNL     1      -9.710  15.016  69.483  1.00  0.00    -0.113 A  
HETATM   19  C   UNL     1     -10.779  15.455  70.271  1.00  0.00    -0.320 A  
HETATM   20  C   UNL     1     -12.066  15.435  69.762  1.00  0.00    -0.373 A  
HETATM   21  C   UNL     1     -12.276  14.981  68.464  1.00  0.00    -0.063 A  
ENDBRANCH   2   6
TORSDOF 1
ENDMDL
MODEL       87
REMARK 921   NORMALIZED FREE ENERGY PREDICTED BY IDOCK:   -4.18 KCAL/MOL
REMARK 922        TOTAL FREE ENERGY PREDICTED BY IDOCK:   -4.48 KCAL/MOL
REMARK 923 INTER-LIGAND FREE ENERGY PREDICTED BY IDOCK:   -4.42 KCAL/MOL
REMARK 924 INTRA-LIGAND FREE ENERGY PREDICTED BY IDOCK:   -0.06 KCAL/MOL
REMARK 927      BINDING AFFINITY PREDICTED BY RF-SCORE:    0.00 PKD
ROOT
HETATM    1  N   UNL     1      -6.686   8.009  68.171  1.00  0.00    -0.063 N  
HETATM    2  C   UNL     1      -7.794   7.738  67.411  1.00  0.00    -0.118 C  
HETATM    3  H1  UNL     1      -6.788   8.702  68.912  1.00  0.00     0.000 HD 
HETATM    4  H2  UNL     1      -5.797   7.538  68.001  1.00  0.00     0.000 HD 
HETATM    5  O   UNL     1      -7.672   6.906  66.519  1.00  0.00    -0.097 OA 
ENDROOT
BRANCH   2   6
HETATM    6  N   UNL     1      -8.972   8.379  67.833  1.00  0.00    -0.137 N  
HETATM    7  C   UNL     1      -9.520   9.459  67.075  1.00  0.00    -0.155 A  
HETATM    8  C   UNL     1      -9.721   9.316  65.692  1.00  0.00    -0.302 A  
HETATM    9  C   UNL     1     -10.236  10.369  64.936  1.00  0.00    -0.330 A  
HETATM   10  C   UNL     1     -10.541  11.579  65.552  1.00  0.00    -0.334 A  
HETATM   11  C   UNL     1     -10.332  11.736  66.922  1.00  0.00    -0.247 A  
HETATM   12  C   UNL     1      -9.815  10.681  67.686  1.00  0.00    -0.191 A  
HETATM   13  C   UNL     1      -9.574  10.833  69.154  1.00  0.00    -0.169 C  
HETATM   14  C   UNL     1     -10.570  10.023  69.935  1.00  0.00    -0.282 C  
HETATM   15  O   UNL     1     -11.305  10.574  70.756  1.00  0.00    -0.327 OA 
HETATM   16  C   UNL     1     -10.632   8.540  69.742  1.00  0.00    -0.224 A  
HETATM   17  C   UNL     1      -9.854   7.797  68.821  1.00  0.00    -0.169 A  
HETATM   18  C   UNL     1      -9.972   6.390  68.874  1.00  0.00    -0.168 A  
HETATM   19  C   UNL     1     -10.812   5.740  69.785  1.00  0.00    -0.419 A  
HETATM   20  C   UNL     1     -11.571   6.480  70.674  1.00  0.00    -0.442 A  
HETATM   21  C   UNL     1     -11.482   7.868  70.650  1.00  0.00    -0.247 A  
ENDBRANCH   2   6
TORSDOF 1
ENDMDL
MODEL       88
REMARK 921   NORMALIZED FREE ENERGY PREDICTED BY IDOCK:   -4.15 KCAL/MOL
REMARK 922        TOTAL FREE ENERGY PREDICTED BY IDOCK:   -4.45 KCAL/MOL
REMARK 923 INTER-LIGAND FREE ENERGY PREDICTED BY IDOCK:   -4.49 KCAL/MOL
REMARK 924 INTRA-LIGAND FREE ENERGY PREDICTED BY IDOCK:    0.04 KCAL/MOL
REMARK 927      BINDING AFFINITY PREDICTED BY RF-SCORE:    0.00 PKD
ROOT
HETATM    1  N   UNL     1      -9.286   7.020  66.446  1.00  0.00    -0.249 N  
HETATM    2  C   UNL     1     -10.372   7.242  67.252  1.00  0.00    -0.279 C  
HETATM    3  H1  UNL     1      -8.426   7.518  66.676  1.00  0.00     0.000 HD 
HETATM    4  H2  UNL     1      -9.337   6.385  65.649  1.00  0.00     0.000 HD 
HETATM    5  O   UNL     1     -11.407   6.645  66.976  1.00  0.00    -0.348 OA 
ENDROOT
BRANCH   2   6
HETATM    6  N   UNL     1     -10.121   8.052  68.373  1.00  0.00    -0.190 N  
HETATM    7  C   UNL     1     -10.081   9.474  68.245  1.00  0.00    -0.183 A  
HETATM    8  C   UNL     1     -11.131  10.150  67.601  1.00  0.00    -0.275 A  
HETATM    9  C   UNL     1     -11.096  11.537  67.450  1.00  0.00    -0.339 A  
HETATM   10  C   UNL     1     -10.006  12.258  67.929  1.00  0.00    -0.202 A  
HETATM   11  C   UNL     1      -8.953  11.594  68.557  1.00  0.00    -0.138 A  
HETATM   12  C   UNL     1      -8.983  10.202  68.711  1.00  0.00    -0.147 A  
HETATM   13  C   UNL     1      -7.859   9.471  69.374  1.00  0.00    -0.097 C  
HETATM   14  C   UNL     1      -8.289   8.957  70.718  1.00  0.00    -0.175 C  
HETATM   15  O   UNL     1      -7.677   9.296  71.733  1.00  0.00    -0.320 OA 
HETATM   16  C   UNL     1      -9.433   7.998  70.813  1.00  0.00    -0.173 A  
HETATM   17  C   UNL     1     -10.223   7.548  69.726  1.00  0.00    -0.211 A  
HETATM   18  C   UNL     1     -11.183   6.549  70.003  1.00  0.00    -0.453 A  
HETATM   19  C   UNL     1     -11.362   6.014  71.283  1.00  0.00    -0.296 A  
HETATM   20  C   UNL     1     -10.589   6.468  72.337  1.00  0.00    -0.242 A  
HETATM   21  C   UNL     1      -9.635   7.453  72.103  1.00  0.00    -0.177 A  
ENDBRANCH   2   6
TORSDOF 1
ENDMDL
MODEL       89
REMARK 921   NORMALIZED FREE ENERGY PREDICTED BY IDOCK:   -4.14 KCAL/MOL
REMARK 922        TOTAL FREE ENERGY PREDICTED BY IDOCK:   -4.45 KCAL/MOL
REMARK 923 INTER-LIGAND FREE ENERGY PREDICTED BY IDOCK:   -4.39 KCAL/MOL
REMARK 924 INTRA-LIGAND FREE ENERGY PREDICTED BY IDOCK:   -0.06 KCAL/MOL
REMARK 927      BINDING AFFINITY PREDICTED BY RF-SCORE:    0.00 PKD
ROOT
HETATM    1  N   UNL     1     -12.606   7.082  72.046  1.00  0.00    -0.504 N  
HETATM    2  C   UNL     1     -11.255   7.008  72.264  1.00  0.00    -0.263 C  
HETATM    3  H1  UNL     1     -12.933   6.933  71.091  1.00  0.00     0.000 HD 
HETATM    4  H2  UNL     1     -13.258   7.279  72.806  1.00  0.00     0.000 HD 
HETATM    5  O   UNL     1     -10.862   7.188  73.412  1.00  0.00    -0.351 OA 
ENDROOT
BRANCH   2   6
HETATM    6  N   UNL     1     -10.496   6.620  71.147  1.00  0.00    -0.214 N  
HETATM    7  C   UNL     1      -9.820   7.598  70.355  1.00  0.00    -0.183 A  
HETATM    8  C   UNL     1      -8.999   8.556  70.973  1.00  0.00    -0.219 A  
HETATM    9  C   UNL     1      -8.349   9.530  70.215  1.00  0.00    -0.221 A  
HETATM   10  C   UNL     1      -8.525   9.565  68.834  1.00  0.00    -0.123 A  
HETATM   11  C   UNL     1      -9.350   8.626  68.214  1.00  0.00    -0.143 A  
HETATM   12  C   UNL     1     -10.004   7.646  68.971  1.00  0.00    -0.181 A  
HETATM   13  C   UNL     1     -10.900   6.638  68.325  1.00  0.00    -0.322 C  
HETATM   14  C   UNL     1     -10.262   5.278  68.350  1.00  0.00    -0.137 C  
HETATM   15  O   UNL     1     -10.061   4.670  67.298  1.00  0.00    -0.179 OA 
HETATM   16  C   UNL     1      -9.917   4.647  69.663  1.00  0.00    -0.281 A  
HETATM   17  C   UNL     1     -10.084   5.249  70.935  1.00  0.00    -0.226 A  
HETATM   18  C   UNL     1      -9.809   4.445  72.063  1.00  0.00    -0.240 A  
HETATM   19  C   UNL     1      -9.390   3.115  71.954  1.00  0.00    -0.196 A  
HETATM   20  C   UNL     1      -9.225   2.543  70.705  1.00  0.00    -0.201 A  
HETATM   21  C   UNL     1      -9.483   3.304  69.570  1.00  0.00    -0.205 A  
ENDBRANCH   2   6
TORSDOF 1
ENDMDL
MODEL       90
REMARK 921   NORMALIZED FREE ENERGY PREDICTED BY IDOCK:   -4.13 KCAL/MOL
REMARK 922        TOTAL FREE ENERGY PREDICTED BY IDOCK:   -4.44 KCAL/MOL
REMARK 923 INTER-LIGAND FREE ENERGY PREDICTED BY IDOCK:   -4.47 KCAL/MOL
REMARK 924 INTRA-LIGAND FREE ENERGY PREDICTED BY IDOCK:    0.03 KCAL/MOL
REMARK 927      BINDING AFFINITY PREDICTED BY RF-SCORE:    0.00 PKD
ROOT
HETATM    1  N   UNL     1      -9.957   6.938  66.086  1.00  0.00    -0.413 N  
HETATM    2  C   UNL     1      -9.945   8.150  66.725  1.00  0.00    -0.279 C  
HETATM    3  H1  UNL     1      -9.644   6.919  65.115  1.00  0.00     0.000 HD 
HETATM    4  H2  UNL     1     -10.267   6.090  66.561  1.00  0.00     0.000 HD 
HETATM    5  O   UNL     1     -10.322   8.173  67.891  1.00  0.00    -0.210 OA 
ENDROOT
BRANCH   2   6
HETATM    6  N   UNL     1      -9.387   9.204  65.981  1.00  0.00    -0.219 N  
HETATM    7  C   UNL     1     -10.143  10.390  65.726  1.00  0.00    -0.262 A  
HETATM    8  C   UNL     1     -10.781  11.057  66.785  1.00  0.00    -0.319 A  
HETATM    9  C   UNL     1     -11.539  12.204  66.548  1.00  0.00    -0.425 A  
HETATM   10  C   UNL     1     -11.680  12.685  65.249  1.00  0.00    -0.417 A  
HETATM   11  C   UNL     1     -11.062  12.021  64.189  1.00  0.00    -0.431 A  
HETATM   12  C   UNL     1     -10.299  10.869  64.422  1.00  0.00    -0.430 A  
HETATM   13  C   UNL     1      -9.637  10.138  63.298  1.00  0.00    -0.231 C  
HETATM   14  C   UNL     1      -8.148  10.324  63.357  1.00  0.00    -0.154 C  
HETATM   15  O   UNL     1      -7.549  10.817  62.399  1.00  0.00    -0.153 OA 
HETATM   16  C   UNL     1      -7.391   9.867  64.565  1.00  0.00    -0.140 A  
HETATM   17  C   UNL     1      -7.966   9.303  65.731  1.00  0.00    -0.109 A  
HETATM   18  C   UNL     1      -7.072   8.824  66.715  1.00  0.00    -0.081 A  
HETATM   19  C   UNL     1      -5.683   8.892  66.567  1.00  0.00    -0.047 A  
HETATM   20  C   UNL     1      -5.137   9.451  65.425  1.00  0.00    -0.035 A  
HETATM   21  C   UNL     1      -5.985   9.936  64.435  1.00  0.00    -0.111 A  
ENDBRANCH   2   6
TORSDOF 1
ENDMDL
MODEL       91
REMARK 921   NORMALIZED FREE ENERGY PREDICTED BY IDOCK:   -4.13 KCAL/MOL
REMARK 922        TOTAL FREE ENERGY PREDICTED BY IDOCK:   -4.43 KCAL/MOL
REMARK 923 INTER-LIGAND FREE ENERGY PREDICTED BY IDOCK:   -4.95 KCAL/MOL
REMARK 924 INTRA-LIGAND FREE ENERGY PREDICTED BY IDOCK:    0.52 KCAL/MOL
REMARK 927      BINDING AFFINITY PREDICTED BY RF-SCORE:    0.00 PKD
ROOT
HETATM    1  N   UNL     1     -11.117  16.692  64.227  1.00  0.00    -0.192 N  
HETATM    2  C   UNL     1     -10.742  15.797  65.195  1.00  0.00    -0.435 C  
HETATM    3  H1  UNL     1     -10.731  17.634  64.288  1.00  0.00     0.000 HD 
HETATM    4  H2  UNL     1     -11.756  16.427  63.477  1.00  0.00     0.000 HD 
HETATM    5  O   UNL     1     -11.206  14.664  65.121  1.00  0.00    -0.337 OA 
ENDROOT
BRANCH   2   6
HETATM    6  N   UNL     1      -9.771  16.272  66.094  1.00  0.00    -0.308 N  
HETATM    7  C   UNL     1      -9.829  17.614  66.580  1.00  0.00    -0.309 A  
HETATM    8  C   UNL     1     -11.026  18.114  67.120  1.00  0.00    -0.058 A  
HETATM    9  C   UNL     1     -11.104  19.429  67.580  1.00  0.00    -0.252 A  
HETATM   10  C   UNL     1      -9.991  20.260  67.491  1.00  0.00    -0.557 A  
HETATM   11  C   UNL     1      -8.802  19.777  66.944  1.00  0.00    -0.401 A  
HETATM   12  C   UNL     1      -8.720  18.457  66.481  1.00  0.00    -0.291 A  
HETATM   13  C   UNL     1      -7.457  17.924  65.882  1.00  0.00    -0.212 C  
HETATM   14  C   UNL     1      -6.817  16.931  66.809  1.00  0.00    -0.232 C  
HETATM   15  O   UNL     1      -5.666  17.114  67.212  1.00  0.00    -0.121 OA 
HETATM   16  C   UNL     1      -7.565  15.695  67.203  1.00  0.00    -0.258 A  
HETATM   17  C   UNL     1      -8.893  15.381  66.820  1.00  0.00    -0.269 A  
HETATM   18  C   UNL     1      -9.381  14.109  67.196  1.00  0.00    -0.241 A  
HETATM   19  C   UNL     1      -8.609  13.189  67.912  1.00  0.00    -0.185 A  
HETATM   20  C   UNL     1      -7.317  13.514  68.285  1.00  0.00    -0.116 A  
HETATM   21  C   UNL     1      -6.801  14.757  67.935  1.00  0.00    -0.174 A  
ENDBRANCH   2   6
TORSDOF 1
ENDMDL
MODEL       92
REMARK 921   NORMALIZED FREE ENERGY PREDICTED BY IDOCK:   -4.13 KCAL/MOL
REMARK 922        TOTAL FREE ENERGY PREDICTED BY IDOCK:   -4.43 KCAL/MOL
REMARK 923 INTER-LIGAND FREE ENERGY PREDICTED BY IDOCK:   -4.74 KCAL/MOL
REMARK 924 INTRA-LIGAND FREE ENERGY PREDICTED BY IDOCK:    0.31 KCAL/MOL
REMARK 927      BINDING AFFINITY PREDICTED BY RF-SCORE:    0.00 PKD
ROOT
HETATM    1  N   UNL     1      -6.804  14.542  70.511  1.00  0.00    -0.321 N  
HETATM    2  C   UNL     1      -6.680  14.809  69.173  1.00  0.00    -0.123 C  
HETATM    3  H1  UNL     1      -7.375  15.182  71.063  1.00  0.00     0.000 HD 
HETATM    4  H2  UNL     1      -6.344  13.738  70.938  1.00  0.00     0.000 HD 
HETATM    5  O   UNL     1      -5.993  14.039  68.509  1.00  0.00    -0.080 OA 
ENDROOT
BRANCH   2   6
HETATM    6  N   UNL     1      -7.460  15.882  68.709  1.00  0.00    -0.158 N  
HETATM    7  C   UNL     1      -8.873  15.737  68.555  1.00  0.00    -0.193 A  
HETATM    8  C   UNL     1      -9.645  15.223  69.611  1.00  0.00    -0.188 A  
HETATM    9  C   UNL     1     -11.023  15.057  69.469  1.00  0.00    -0.281 A  
HETATM   10  C   UNL     1     -11.640  15.388  68.265  1.00  0.00    -0.361 A  
HETATM   11  C   UNL     1     -10.880  15.885  67.207  1.00  0.00    -0.279 A  
HETATM   12  C   UNL     1      -9.496  16.055  67.345  1.00  0.00    -0.220 A  
HETATM   13  C   UNL     1      -8.663  16.578  66.219  1.00  0.00    -0.369 C  
HETATM   14  C   UNL     1      -8.188  17.970  66.521  1.00  0.00    -0.271 C  
HETATM   15  O   UNL     1      -8.465  18.897  65.758  1.00  0.00    -0.429 OA 
HETATM   16  C   UNL     1      -7.337  18.217  67.728  1.00  0.00    -0.215 A  
HETATM   17  C   UNL     1      -6.965  17.241  68.686  1.00  0.00    -0.220 A  
HETATM   18  C   UNL     1      -6.058  17.646  69.690  1.00  0.00    -0.245 A  
HETATM   19  C   UNL     1      -5.538  18.943  69.756  1.00  0.00    -0.232 A  
HETATM   20  C   UNL     1      -5.917  19.887  68.818  1.00  0.00    -0.290 A  
HETATM   21  C   UNL     1      -6.810  19.526  67.814  1.00  0.00    -0.270 A  
ENDBRANCH   2   6
TORSDOF 1
ENDMDL
MODEL       93
REMARK 921   NORMALIZED FREE ENERGY PREDICTED BY IDOCK:   -4.11 KCAL/MOL
REMARK 922        TOTAL FREE ENERGY PREDICTED BY IDOCK:   -4.41 KCAL/MOL
REMARK 923 INTER-LIGAND FREE ENERGY PREDICTED BY IDOCK:   -4.74 KCAL/MOL
REMARK 924 INTRA-LIGAND FREE ENERGY PREDICTED BY IDOCK:    0.33 KCAL/MOL
REMARK 927      BINDING AFFINITY PREDICTED BY RF-SCORE:    0.00 PKD
ROOT
HETATM    1  N   UNL     1     -13.864   8.604  70.969  1.00  0.00    -0.571 N  
HETATM    2  C   UNL     1     -12.706   8.791  71.677  1.00  0.00    -0.348 C  
HETATM    3  H1  UNL     1     -13.783   8.521  69.956  1.00  0.00     0.000 HD 
HETATM    4  H2  UNL     1     -14.770   8.551  71.436  1.00  0.00     0.000 HD 
HETATM    5  O   UNL     1     -12.803   8.890  72.896  1.00  0.00    -0.321 OA 
ENDROOT
BRANCH   2   6
HETATM    6  N   UNL     1     -11.529   8.730  70.912  1.00  0.00    -0.280 N  
HETATM    7  C   UNL     1     -10.844   7.488  70.732  1.00  0.00    -0.242 A  
HETATM    8  C   UNL     1     -11.553   6.352  70.308  1.00  0.00    -0.451 A  
HETATM    9  C   UNL     1     -10.902   5.128  70.148  1.00  0.00     0.070 A  
HETATM   10  C   UNL     1      -9.541   5.025  70.426  1.00  0.00    -0.260 A  
HETATM   11  C   UNL     1      -8.833   6.145  70.862  1.00  0.00    -0.136 A  
HETATM   12  C   UNL     1      -9.482   7.376  71.023  1.00  0.00    -0.157 A  
HETATM   13  C   UNL     1      -8.742   8.586  71.499  1.00  0.00    -0.246 C  
HETATM   14  C   UNL     1      -8.583   9.576  70.380  1.00  0.00    -0.206 C  
HETATM   15  O   UNL     1      -7.458   9.943  70.036  1.00  0.00    -0.134 OA 
HETATM   16  C   UNL     1      -9.798  10.148  69.719  1.00  0.00    -0.245 A  
HETATM   17  C   UNL     1     -11.138   9.794  70.013  1.00  0.00    -0.267 A  
HETATM   18  C   UNL     1     -12.151  10.534  69.363  1.00  0.00    -0.175 A  
HETATM   19  C   UNL     1     -11.868  11.570  68.467  1.00  0.00    -0.365 A  
HETATM   20  C   UNL     1     -10.554  11.899  68.184  1.00  0.00    -0.233 A  
HETATM   21  C   UNL     1      -9.529  11.191  68.803  1.00  0.00    -0.173 A  
ENDBRANCH   2   6
TORSDOF 1
ENDMDL
MODEL       94
REMARK 921   NORMALIZED FREE ENERGY PREDICTED BY IDOCK:   -4.00 KCAL/MOL
REMARK 922        TOTAL FREE ENERGY PREDICTED BY IDOCK:   -4.30 KCAL/MOL
REMARK 923 INTER-LIGAND FREE ENERGY PREDICTED BY IDOCK:   -4.65 KCAL/MOL
REMARK 924 INTRA-LIGAND FREE ENERGY PREDICTED BY IDOCK:    0.35 KCAL/MOL
REMARK 927      BINDING AFFINITY PREDICTED BY RF-SCORE:    0.00 PKD
ROOT
HETATM    1  N   UNL     1      -8.340   8.027  68.228  1.00  0.00    -0.123 N  
HETATM    2  C   UNL     1      -9.492   8.633  67.799  1.00  0.00    -0.142 C  
HETATM    3  H1  UNL     1      -7.757   8.546  68.884  1.00  0.00     0.000 HD 
HETATM    4  H2  UNL     1      -8.078   7.096  67.905  1.00  0.00     0.000 HD 
HETATM    5  O   UNL     1     -10.194   8.008  67.010  1.00  0.00    -0.246 OA 
ENDROOT
BRANCH   2   6
HETATM    6  N   UNL     1      -9.779   9.863  68.415  1.00  0.00    -0.147 N  
HETATM    7  C   UNL     1     -10.628   9.918  69.563  1.00  0.00    -0.242 A  
HETATM    8  C   UNL     1     -10.387   9.068  70.656  1.00  0.00    -0.284 A  
HETATM    9  C   UNL     1     -11.221   9.096  71.774  1.00  0.00    -0.451 A  
HETATM   10  C   UNL     1     -12.311   9.961  71.804  1.00  0.00    -0.456 A  
HETATM   11  C   UNL     1     -12.567  10.798  70.718  1.00  0.00    -0.476 A  
HETATM   12  C   UNL     1     -11.732  10.774  69.592  1.00  0.00    -0.395 A  
HETATM   13  C   UNL     1     -11.996  11.656  68.414  1.00  0.00    -0.266 C  
HETATM   14  C   UNL     1     -10.959  12.739  68.329  1.00  0.00    -0.252 C  
HETATM   15  O   UNL     1     -11.300  13.924  68.347  1.00  0.00    -0.254 OA 
HETATM   16  C   UNL     1      -9.516  12.373  68.175  1.00  0.00    -0.214 A  
HETATM   17  C   UNL     1      -8.999  11.054  68.157  1.00  0.00    -0.152 A  
HETATM   18  C   UNL     1      -7.620  10.912  67.882  1.00  0.00    -0.095 A  
HETATM   19  C   UNL     1      -6.786  12.007  67.636  1.00  0.00    -0.109 A  
HETATM   20  C   UNL     1      -7.304  13.290  67.664  1.00  0.00    -0.164 A  
HETATM   21  C   UNL     1      -8.657  13.470  67.933  1.00  0.00    -0.182 A  
ENDBRANCH   2   6
TORSDOF 1
ENDMDL
MODEL       95
REMARK 921   NORMALIZED FREE ENERGY PREDICTED BY IDOCK:   -3.95 KCAL/MOL
REMARK 922        TOTAL FREE ENERGY PREDICTED BY IDOCK:   -4.25 KCAL/MOL
REMARK 923 INTER-LIGAND FREE ENERGY PREDICTED BY IDOCK:   -4.19 KCAL/MOL
REMARK 924 INTRA-LIGAND FREE ENERGY PREDICTED BY IDOCK:   -0.06 KCAL/MOL
REMARK 927      BINDING AFFINITY PREDICTED BY RF-SCORE:    0.00 PKD
ROOT
HETATM    1  N   UNL     1     -11.205  12.758  69.147  1.00  0.00    -0.348 N  
HETATM    2  C   UNL     1     -10.644  13.435  68.096  1.00  0.00    -0.245 C  
HETATM    3  H1  UNL     1     -10.976  11.768  69.239  1.00  0.00     0.000 HD 
HETATM    4  H2  UNL     1     -11.825  13.223  69.809  1.00  0.00     0.000 HD 
HETATM    5  O   UNL     1     -10.920  14.625  67.986  1.00  0.00    -0.254 OA 
ENDROOT
BRANCH   2   6
HETATM    6  N   UNL     1      -9.724  12.693  67.337  1.00  0.00    -0.196 N  
HETATM    7  C   UNL     1     -10.049  12.278  66.008  1.00  0.00    -0.248 A  
HETATM    8  C   UNL     1     -10.537  13.214  65.081  1.00  0.00    -0.332 A  
HETATM    9  C   UNL     1     -10.878  12.819  63.787  1.00  0.00    -0.416 A  
HETATM   10  C   UNL     1     -10.749  11.485  63.412  1.00  0.00    -0.444 A  
HETATM   11  C   UNL     1     -10.279  10.546  64.331  1.00  0.00    -0.337 A  
HETATM   12  C   UNL     1      -9.935  10.937  65.631  1.00  0.00    -0.305 A  
HETATM   13  C   UNL     1      -9.438   9.944  66.633  1.00  0.00    -0.220 C  
HETATM   14  C   UNL     1      -7.976  10.157  66.901  1.00  0.00    -0.114 C  
HETATM   15  O   UNL     1      -7.173   9.243  66.708  1.00  0.00    -0.082 OA 
HETATM   16  C   UNL     1      -7.507  11.469  67.448  1.00  0.00    -0.127 A  
HETATM   17  C   UNL     1      -8.327  12.598  67.697  1.00  0.00    -0.174 A  
HETATM   18  C   UNL     1      -7.715  13.705  68.327  1.00  0.00    -0.140 A  
HETATM   19  C   UNL     1      -6.366  13.709  68.697  1.00  0.00    -0.091 A  
HETATM   20  C   UNL     1      -5.577  12.602  68.442  1.00  0.00    -0.060 A  
HETATM   21  C   UNL     1      -6.142  11.493  67.820  1.00  0.00    -0.052 A  
ENDBRANCH   2   6
TORSDOF 1
ENDMDL
MODEL       96
REMARK 921   NORMALIZED FREE ENERGY PREDICTED BY IDOCK:   -3.93 KCAL/MOL
REMARK 922        TOTAL FREE ENERGY PREDICTED BY IDOCK:   -4.22 KCAL/MOL
REMARK 923 INTER-LIGAND FREE ENERGY PREDICTED BY IDOCK:   -4.59 KCAL/MOL
REMARK 924 INTRA-LIGAND FREE ENERGY PREDICTED BY IDOCK:    0.37 KCAL/MOL
REMARK 927      BINDING AFFINITY PREDICTED BY RF-SCORE:    0.00 PKD
ROOT
HETATM    1  N   UNL     1      -7.574   9.936  63.118  1.00  0.00    -0.130 N  
HETATM    2  C   UNL     1      -7.514  10.047  64.482  1.00  0.00    -0.142 C  
HETATM    3  H1  UNL     1      -8.456   9.619  62.714  1.00  0.00     0.000 HD 
HETATM    4  H2  UNL     1      -6.770  10.160  62.531  1.00  0.00     0.000 HD 
HETATM    5  O   UNL     1      -6.454  10.428  64.968  1.00  0.00    -0.127 OA 
ENDROOT
BRANCH   2   6
HETATM    6  N   UNL     1      -8.729   9.814  65.149  1.00  0.00    -0.156 N  
HETATM    7  C   UNL     1      -9.846  10.680  64.943  1.00  0.00    -0.302 A  
HETATM    8  C   UNL     1     -10.261  10.994  63.637  1.00  0.00    -0.431 A  
HETATM    9  C   UNL     1     -11.336  11.855  63.421  1.00  0.00    -0.465 A  
HETATM   10  C   UNL     1     -11.998  12.423  64.506  1.00  0.00    -0.474 A  
HETATM   11  C   UNL     1     -11.585  12.129  65.805  1.00  0.00    -0.414 A  
HETATM   12  C   UNL     1     -10.505  11.264  66.028  1.00  0.00    -0.310 A  
HETATM   13  C   UNL     1     -10.041  10.945  67.413  1.00  0.00    -0.223 C  
HETATM   14  C   UNL     1     -10.384   9.526  67.766  1.00  0.00    -0.239 C  
HETATM   15  O   UNL     1     -11.087   9.286  68.750  1.00  0.00    -0.066 OA 
HETATM   16  C   UNL     1      -9.830   8.404  66.945  1.00  0.00    -0.313 A  
HETATM   17  C   UNL     1      -9.028   8.550  65.787  1.00  0.00    -0.182 A  
HETATM   18  C   UNL     1      -8.503   7.367  65.220  1.00  0.00    -0.066 A  
HETATM   19  C   UNL     1      -8.751   6.101  65.759  1.00  0.00    -0.151 A  
HETATM   20  C   UNL     1      -9.543   5.973  66.887  1.00  0.00    -0.158 A  
HETATM   21  C   UNL     1     -10.079   7.115  67.472  1.00  0.00    -0.241 A  
ENDBRANCH   2   6
TORSDOF 1
ENDMDL
MODEL       97
REMARK 921   NORMALIZED FREE ENERGY PREDICTED BY IDOCK:   -3.93 KCAL/MOL
REMARK 922        TOTAL FREE ENERGY PREDICTED BY IDOCK:   -4.22 KCAL/MOL
REMARK 923 INTER-LIGAND FREE ENERGY PREDICTED BY IDOCK:   -4.16 KCAL/MOL
REMARK 924 INTRA-LIGAND FREE ENERGY PREDICTED BY IDOCK:   -0.06 KCAL/MOL
REMARK 927      BINDING AFFINITY PREDICTED BY RF-SCORE:    0.00 PKD
ROOT
HETATM    1  N   UNL     1     -10.086  14.297  64.798  1.00  0.00    -0.588 N  
HETATM    2  C   UNL     1     -10.755  15.326  65.409  1.00  0.00    -0.391 C  
HETATM    3  H1  UNL     1      -9.187  14.024  65.196  1.00  0.00     0.000 HD 
HETATM    4  H2  UNL     1     -10.472  13.825  63.980  1.00  0.00     0.000 HD 
HETATM    5  O   UNL     1     -11.835  15.654  64.931  1.00  0.00    -0.117 OA 
ENDROOT
BRANCH   2   6
HETATM    6  N   UNL     1     -10.157  15.802  66.588  1.00  0.00    -0.269 N  
HETATM    7  C   UNL     1      -9.403  17.016  66.579  1.00  0.00    -0.269 A  
HETATM    8  C   UNL     1      -9.953  18.180  66.015  1.00  0.00    -0.220 A  
HETATM    9  C   UNL     1      -9.221  19.367  65.980  1.00  0.00    -0.206 A  
HETATM   10  C   UNL     1      -7.927  19.398  66.494  1.00  0.00    -0.309 A  
HETATM   11  C   UNL     1      -7.368  18.244  67.043  1.00  0.00    -0.225 A  
HETATM   12  C   UNL     1      -8.099  17.050  67.080  1.00  0.00    -0.216 A  
HETATM   13  C   UNL     1      -7.513  15.800  67.656  1.00  0.00    -0.180 C  
HETATM   14  C   UNL     1      -8.175  15.464  68.961  1.00  0.00    -0.217 C  
HETATM   15  O   UNL     1      -7.500  15.362  69.988  1.00  0.00    -0.090 OA 
HETATM   16  C   UNL     1      -9.649  15.208  69.000  1.00  0.00    -0.229 A  
HETATM   17  C   UNL     1     -10.531  15.309  67.895  1.00  0.00    -0.253 A  
HETATM   18  C   UNL     1     -11.870  14.910  68.109  1.00  0.00    -0.307 A  
HETATM   19  C   UNL     1     -12.325  14.435  69.343  1.00  0.00    -0.228 A  
HETATM   20  C   UNL     1     -11.453  14.349  70.414  1.00  0.00    -0.228 A  
HETATM   21  C   UNL     1     -10.128  14.734  70.243  1.00  0.00     0.387 A  
ENDBRANCH   2   6
TORSDOF 1
ENDMDL
MODEL       98
REMARK 921   NORMALIZED FREE ENERGY PREDICTED BY IDOCK:   -3.87 KCAL/MOL
REMARK 922        TOTAL FREE ENERGY PREDICTED BY IDOCK:   -4.16 KCAL/MOL
REMARK 923 INTER-LIGAND FREE ENERGY PREDICTED BY IDOCK:   -4.14 KCAL/MOL
REMARK 924 INTRA-LIGAND FREE ENERGY PREDICTED BY IDOCK:   -0.03 KCAL/MOL
REMARK 927      BINDING AFFINITY PREDICTED BY RF-SCORE:    0.00 PKD
ROOT
HETATM    1  N   UNL     1      -9.459  12.032  65.033  1.00  0.00    -0.439 N  
HETATM    2  C   UNL     1     -10.163  12.304  66.177  1.00  0.00    -0.239 C  
HETATM    3  H1  UNL     1      -8.518  12.419  64.962  1.00  0.00     0.000 HD 
HETATM    4  H2  UNL     1      -9.859  11.465  64.285  1.00  0.00     0.000 HD 
HETATM    5  O   UNL     1     -11.295  11.839  66.263  1.00  0.00    -0.329 OA 
ENDROOT
BRANCH   2   6
HETATM    6  N   UNL     1      -9.443  12.999  67.163  1.00  0.00    -0.223 N  
HETATM    7  C   UNL     1      -9.854  14.303  67.578  1.00  0.00    -0.231 A  
HETATM    8  C   UNL     1     -11.190  14.534  67.946  1.00  0.00    -0.310 A  
HETATM    9  C   UNL     1     -11.611  15.806  68.333  1.00  0.00    -0.343 A  
HETATM   10  C   UNL     1     -10.705  16.863  68.341  1.00  0.00    -0.368 A  
HETATM   11  C   UNL     1      -9.380  16.647  67.963  1.00  0.00    -0.227 A  
HETATM   12  C   UNL     1      -8.952  15.371  67.574  1.00  0.00    -0.191 A  
HETATM   13  C   UNL     1      -7.538  15.121  67.156  1.00  0.00    -0.204 C  
HETATM   14  C   UNL     1      -6.819  14.312  68.198  1.00  0.00    -0.124 C  
HETATM   15  O   UNL     1      -5.798  14.754  68.727  1.00  0.00    -0.082 OA 
HETATM   16  C   UNL     1      -7.323  12.949  68.555  1.00  0.00    -0.115 A  
HETATM   17  C   UNL     1      -8.490  12.339  68.030  1.00  0.00    -0.171 A  
HETATM   18  C   UNL     1      -8.733  10.998  68.403  1.00  0.00    -0.150 A  
HETATM   19  C   UNL     1      -7.876  10.286  69.248  1.00  0.00    -0.142 A  
HETATM   20  C   UNL     1      -6.744  10.897  69.758  1.00  0.00    -0.144 A  
HETATM   21  C   UNL     1      -6.472  12.217  69.415  1.00  0.00    -0.105 A  
ENDBRANCH   2   6
TORSDOF 1
ENDMDL
MODEL       99
REMARK 921   NORMALIZED FREE ENERGY PREDICTED BY IDOCK:   -3.86 KCAL/MOL
REMARK 922        TOTAL FREE ENERGY PREDICTED BY IDOCK:   -4.15 KCAL/MOL
REMARK 923 INTER-LIGAND FREE ENERGY PREDICTED BY IDOCK:   -4.12 KCAL/MOL
REMARK 924 INTRA-LIGAND FREE ENERGY PREDICTED BY IDOCK:   -0.03 KCAL/MOL
REMARK 927      BINDING AFFINITY PREDICTED BY RF-SCORE:    0.00 PKD
ROOT
HETATM    1  N   UNL     1      -7.277   7.254  71.520  1.00  0.00    -0.071 N  
HETATM    2  C   UNL     1      -8.624   7.443  71.354  1.00  0.00    -0.117 C  
HETATM    3  H1  UNL     1      -6.904   6.331  71.297  1.00  0.00     0.000 HD 
HETATM    4  H2  UNL     1      -6.672   8.005  71.853  1.00  0.00     0.000 HD 
HETATM    5  O   UNL     1      -9.072   8.552  71.622  1.00  0.00    -0.185 OA 
ENDROOT
BRANCH   2   6
HETATM    6  N   UNL     1      -9.307   6.356  70.782  1.00  0.00    -0.158 N  
HETATM    7  C   UNL     1      -9.872   5.339  71.611  1.00  0.00    -0.170 A  
HETATM    8  C   UNL     1     -10.697   5.692  72.693  1.00  0.00    -0.285 A  
HETATM    9  C   UNL     1     -11.239   4.711  73.523  1.00  0.00    -0.400 A  
HETATM   10  C   UNL     1     -10.950   3.369  73.290  1.00  0.00    -0.268 A  
HETATM   11  C   UNL     1     -10.121   3.010  72.227  1.00  0.00    -0.219 A  
HETATM   12  C   UNL     1      -9.575   3.991  71.390  1.00  0.00    -0.241 A  
HETATM   13  C   UNL     1      -8.676   3.626  70.252  1.00  0.00    -0.125 C  
HETATM   14  C   UNL     1      -9.375   3.850  68.941  1.00  0.00    -0.164 C  
HETATM   15  O   UNL     1      -9.518   2.916  68.150  1.00  0.00    -0.205 OA 
HETATM   16  C   UNL     1      -9.854   5.222  68.581  1.00  0.00    -0.216 A  
HETATM   17  C   UNL     1      -9.763   6.368  69.409  1.00  0.00    -0.145 A  
HETATM   18  C   UNL     1     -10.164   7.599  68.842  1.00  0.00    -0.217 A  
HETATM   19  C   UNL     1     -10.632   7.704  67.528  1.00  0.00    -0.323 A  
HETATM   20  C   UNL     1     -10.722   6.574  66.734  1.00  0.00    -0.344 A  
HETATM   21  C   UNL     1     -10.338   5.344  67.258  1.00  0.00    -0.273 A  
ENDBRANCH   2   6
TORSDOF 1
ENDMDL
MODEL      100
REMARK 921   NORMALIZED FREE ENERGY PREDICTED BY IDOCK:   -3.81 KCAL/MOL
REMARK 922        TOTAL FREE ENERGY PREDICTED BY IDOCK:   -4.10 KCAL/MOL
REMARK 923 INTER-LIGAND FREE ENERGY PREDICTED BY IDOCK:   -4.45 KCAL/MOL
REMARK 924 INTRA-LIGAND FREE ENERGY PREDICTED BY IDOCK:    0.35 KCAL/MOL
REMARK 927      BINDING AFFINITY PREDICTED BY RF-SCORE:    0.00 PKD
ROOT
HETATM    1  N   UNL     1     -12.359   8.899  70.800  1.00  0.00    -0.492 N  
HETATM    2  C   UNL     1     -12.188   7.599  71.201  1.00  0.00    -0.285 C  
HETATM    3  H1  UNL     1     -11.548   9.375  70.405  1.00  0.00     0.000 HD 
HETATM    4  H2  UNL     1     -13.259   9.370  70.893  1.00  0.00     0.000 HD 
HETATM    5  O   UNL     1     -13.162   7.027  71.677  1.00  0.00    -0.374 OA 
ENDROOT
BRANCH   2   6
HETATM    6  N   UNL     1     -10.927   7.051  70.908  1.00  0.00    -0.245 N  
HETATM    7  C   UNL     1     -10.534   6.825  69.553  1.00  0.00    -0.220 A  
HETATM    8  C   UNL     1     -10.655   7.856  68.606  1.00  0.00    -0.145 A  
HETATM    9  C   UNL     1     -10.294   7.644  67.275  1.00  0.00    -0.367 A  
HETATM   10  C   UNL     1      -9.823   6.396  66.875  1.00  0.00    -0.202 A  
HETATM   11  C   UNL     1      -9.714   5.362  67.805  1.00  0.00    -0.160 A  
HETATM   12  C   UNL     1     -10.075   5.570  69.143  1.00  0.00    -0.286 A  
HETATM   13  C   UNL     1      -9.973   4.472  70.153  1.00  0.00    -0.278 C  
HETATM   14  C   UNL     1      -8.850   4.745  71.112  1.00  0.00    -0.119 C  
HETATM   15  O   UNL     1      -7.933   3.931  71.237  1.00  0.00    -0.065 OA 
HETATM   16  C   UNL     1      -8.875   5.986  71.948  1.00  0.00    -0.138 A  
HETATM   17  C   UNL     1      -9.862   7.001  71.885  1.00  0.00    -0.163 A  
HETATM   18  C   UNL     1      -9.774   8.038  72.841  1.00  0.00    -0.353 A  
HETATM   19  C   UNL     1      -8.769   8.081  73.813  1.00  0.00    -0.329 A  
HETATM   20  C   UNL     1      -7.809   7.086  73.858  1.00  0.00    -0.123 A  
HETATM   21  C   UNL     1      -7.861   6.050  72.931  1.00  0.00    -0.106 A  
ENDBRANCH   2   6
TORSDOF 1
ENDMDL
MODEL      101
REMARK 921   NORMALIZED FREE ENERGY PREDICTED BY IDOCK:   -3.72 KCAL/MOL
REMARK 922        TOTAL FREE ENERGY PREDICTED BY IDOCK:   -4.00 KCAL/MOL
REMARK 923 INTER-LIGAND FREE ENERGY PREDICTED BY IDOCK:   -4.20 KCAL/MOL
REMARK 924 INTRA-LIGAND FREE ENERGY PREDICTED BY IDOCK:    0.20 KCAL/MOL
REMARK 927      BINDING AFFINITY PREDICTED BY RF-SCORE:    0.00 PKD
ROOT
HETATM    1  N   UNL     1      -7.335  11.845  69.597  1.00  0.00    -0.297 N  
HETATM    2  C   UNL     1      -7.205  10.589  70.129  1.00  0.00    -0.012 C  
HETATM    3  H1  UNL     1      -8.233  12.083  69.176  1.00  0.00     0.000 HD 
HETATM    4  H2  UNL     1      -6.565  12.515  69.622  1.00  0.00     0.000 HD 
HETATM    5  O   UNL     1      -6.125  10.303  70.635  1.00  0.00    -0.099 OA 
ENDROOT
BRANCH   2   6
HETATM    6  N   UNL     1      -8.382   9.820  70.123  1.00  0.00    -0.190 N  
HETATM    7  C   UNL     1      -8.987   9.432  68.888  1.00  0.00    -0.136 A  
HETATM    8  C   UNL     1      -8.212   8.824  67.887  1.00  0.00    -0.111 A  
HETATM    9  C   UNL     1      -8.784   8.459  66.668  1.00  0.00    -0.144 A  
HETATM   10  C   UNL     1     -10.134   8.711  66.434  1.00  0.00    -0.294 A  
HETATM   11  C   UNL     1     -10.908   9.327  67.417  1.00  0.00    -0.165 A  
HETATM   12  C   UNL     1     -10.337   9.695  68.642  1.00  0.00    -0.226 A  
HETATM   13  C   UNL     1     -11.149  10.365  69.705  1.00  0.00    -0.328 C  
HETATM   14  C   UNL     1     -11.379   9.429  70.856  1.00  0.00    -0.319 C  
HETATM   15  O   UNL     1     -12.528   9.148  71.204  1.00  0.00    -0.305 OA 
HETATM   16  C   UNL     1     -10.208   8.877  71.608  1.00  0.00    -0.415 A  
HETATM   17  C   UNL     1      -8.846   9.113  71.296  1.00  0.00    -0.112 A  
HETATM   18  C   UNL     1      -7.887   8.599  72.198  1.00  0.00    -0.081 A  
HETATM   19  C   UNL     1      -8.242   7.890  73.350  1.00  0.00    -0.246 A  
HETATM   20  C   UNL     1      -9.576   7.662  73.637  1.00  0.00    -0.333 A  
HETATM   21  C   UNL     1     -10.550   8.150  72.771  1.00  0.00    -0.386 A  
ENDBRANCH   2   6
TORSDOF 1
ENDMDL
MODEL      102
REMARK 921   NORMALIZED FREE ENERGY PREDICTED BY IDOCK:   -3.71 KCAL/MOL
REMARK 922        TOTAL FREE ENERGY PREDICTED BY IDOCK:   -3.99 KCAL/MOL
REMARK 923 INTER-LIGAND FREE ENERGY PREDICTED BY IDOCK:   -3.93 KCAL/MOL
REMARK 924 INTRA-LIGAND FREE ENERGY PREDICTED BY IDOCK:   -0.06 KCAL/MOL
REMARK 927      BINDING AFFINITY PREDICTED BY RF-SCORE:    0.00 PKD
ROOT
HETATM    1  N   UNL     1     -11.233   6.123  66.636  1.00  0.00    -0.758 N  
HETATM    2  C   UNL     1     -10.451   6.669  67.621  1.00  0.00    -0.227 C  
HETATM    3  H1  UNL     1     -11.398   6.691  65.805  1.00  0.00     0.000 HD 
HETATM    4  H2  UNL     1     -11.632   5.189  66.731  1.00  0.00     0.000 HD 
HETATM    5  O   UNL     1     -10.251   5.987  68.621  1.00  0.00    -0.157 OA 
ENDROOT
BRANCH   2   6
HETATM    6  N   UNL     1      -9.880   7.913  67.302  1.00  0.00    -0.177 N  
HETATM    7  C   UNL     1     -10.383   9.113  67.892  1.00  0.00    -0.232 A  
HETATM    8  C   UNL     1     -10.550   9.194  69.284  1.00  0.00    -0.229 A  
HETATM    9  C   UNL     1     -11.059  10.352  69.873  1.00  0.00    -0.367 A  
HETATM   10  C   UNL     1     -11.420  11.434  69.074  1.00  0.00    -0.366 A  
HETATM   11  C   UNL     1     -11.271  11.357  67.689  1.00  0.00    -0.346 A  
HETATM   12  C   UNL     1     -10.760  10.197  67.094  1.00  0.00    -0.286 A  
HETATM   13  C   UNL     1     -10.602  10.092  65.610  1.00  0.00     0.019 C  
HETATM   14  C   UNL     1      -9.148  10.120  65.235  1.00  0.00    -0.195 C  
HETATM   15  O   UNL     1      -8.724  10.987  64.469  1.00  0.00    -0.083 OA 
HETATM   16  C   UNL     1      -8.228   9.062  65.759  1.00  0.00    -0.120 A  
HETATM   17  C   UNL     1      -8.591   8.026  66.656  1.00  0.00    -0.136 A  
HETATM   18  C   UNL     1      -7.606   7.053  66.940  1.00  0.00    -0.094 A  
HETATM   19  C   UNL     1      -6.327   7.091  66.375  1.00  0.00    -0.050 A  
HETATM   20  C   UNL     1      -5.986   8.112  65.506  1.00  0.00    -0.045 A  
HETATM   21  C   UNL     1      -6.928   9.090  65.204  1.00  0.00    -0.080 A  
ENDBRANCH   2   6
TORSDOF 1
ENDMDL
MODEL      103
REMARK 921   NORMALIZED FREE ENERGY PREDICTED BY IDOCK:   -3.71 KCAL/MOL
REMARK 922        TOTAL FREE ENERGY PREDICTED BY IDOCK:   -3.99 KCAL/MOL
REMARK 923 INTER-LIGAND FREE ENERGY PREDICTED BY IDOCK:   -4.33 KCAL/MOL
REMARK 924 INTRA-LIGAND FREE ENERGY PREDICTED BY IDOCK:    0.34 KCAL/MOL
REMARK 927      BINDING AFFINITY PREDICTED BY RF-SCORE:    0.00 PKD
ROOT
HETATM    1  N   UNL     1      -5.881  13.880  67.877  1.00  0.00    -0.136 N  
HETATM    2  C   UNL     1      -6.974  14.241  68.621  1.00  0.00    -0.105 C  
HETATM    3  H1  UNL     1      -6.030  13.713  66.882  1.00  0.00     0.000 HD 
HETATM    4  H2  UNL     1      -4.959  13.783  68.301  1.00  0.00     0.000 HD 
HETATM    5  O   UNL     1      -6.796  14.441  69.818  1.00  0.00    -0.144 OA 
ENDROOT
BRANCH   2   6
HETATM    6  N   UNL     1      -8.152  14.445  67.882  1.00  0.00    -0.138 N  
HETATM    7  C   UNL     1      -8.487  15.748  67.399  1.00  0.00    -0.171 A  
HETATM    8  C   UNL     1      -7.536  16.498  66.687  1.00  0.00    -0.310 A  
HETATM    9  C   UNL     1      -7.842  17.779  66.227  1.00  0.00    -0.299 A  
HETATM   10  C   UNL     1      -9.095  18.328  66.488  1.00  0.00    -0.291 A  
HETATM   11  C   UNL     1     -10.040  17.596  67.206  1.00  0.00    -0.331 A  
HETATM   12  C   UNL     1      -9.737  16.309  67.670  1.00  0.00    -0.234 A  
HETATM   13  C   UNL     1     -10.734  15.512  68.450  1.00  0.00    -0.263 C  
HETATM   14  C   UNL     1     -11.251  14.368  67.626  1.00  0.00    -0.313 C  
HETATM   15  O   UNL     1     -12.458  14.263  67.403  1.00  0.00    -0.204 OA 
HETATM   16  C   UNL     1     -10.297  13.332  67.117  1.00  0.00    -0.248 A  
HETATM   17  C   UNL     1      -8.891  13.351  67.293  1.00  0.00    -0.220 A  
HETATM   18  C   UNL     1      -8.176  12.219  66.841  1.00  0.00    -0.112 A  
HETATM   19  C   UNL     1      -8.805  11.121  66.245  1.00  0.00    -0.190 A  
HETATM   20  C   UNL     1     -10.179  11.120  66.074  1.00  0.00    -0.300 A  
HETATM   21  C   UNL     1     -10.917  12.218  66.505  1.00  0.00    -0.320 A  
ENDBRANCH   2   6
TORSDOF 1
ENDMDL
MODEL      104
REMARK 921   NORMALIZED FREE ENERGY PREDICTED BY IDOCK:   -3.68 KCAL/MOL
REMARK 922        TOTAL FREE ENERGY PREDICTED BY IDOCK:   -3.96 KCAL/MOL
REMARK 923 INTER-LIGAND FREE ENERGY PREDICTED BY IDOCK:   -3.95 KCAL/MOL
REMARK 924 INTRA-LIGAND FREE ENERGY PREDICTED BY IDOCK:   -0.02 KCAL/MOL
REMARK 927      BINDING AFFINITY PREDICTED BY RF-SCORE:    0.00 PKD
ROOT
HETATM    1  N   UNL     1     -11.520   6.700  66.975  1.00  0.00    -0.754 N  
HETATM    2  C   UNL     1     -10.250   7.150  67.227  1.00  0.00    -0.245 C  
HETATM    3  H1  UNL     1     -11.891   5.980  67.595  1.00  0.00     0.000 HD 
HETATM    4  H2  UNL     1     -12.070   7.070  66.199  1.00  0.00     0.000 HD 
HETATM    5  O   UNL     1      -9.803   8.015  66.482  1.00  0.00    -0.234 OA 
ENDROOT
BRANCH   2   6
HETATM    6  N   UNL     1      -9.660   6.631  68.393  1.00  0.00    -0.124 N  
HETATM    7  C   UNL     1      -8.464   5.854  68.316  1.00  0.00    -0.114 A  
HETATM    8  C   UNL     1      -7.359   6.336  67.594  1.00  0.00    -0.084 A  
HETATM    9  C   UNL     1      -6.191   5.579  67.492  1.00  0.00    -0.031 A  
HETATM   10  C   UNL     1      -6.123   4.327  68.098  1.00  0.00    -0.031 A  
HETATM   11  C   UNL     1      -7.220   3.834  68.804  1.00  0.00    -0.051 A  
HETATM   12  C   UNL     1      -8.394   4.591  68.909  1.00  0.00    -0.086 A  
HETATM   13  C   UNL     1      -9.584   4.075  69.654  1.00  0.00    -0.270 C  
HETATM   14  C   UNL     1      -9.773   4.839  70.933  1.00  0.00    -0.190 C  
HETATM   15  O   UNL     1      -9.776   4.245  72.013  1.00  0.00    -0.148 OA 
HETATM   16  C   UNL     1     -10.005   6.317  70.885  1.00  0.00    -0.219 A  
HETATM   17  C   UNL     1     -10.009   7.112  69.712  1.00  0.00    -0.178 A  
HETATM   18  C   UNL     1     -10.366   8.471  69.863  1.00  0.00    -0.210 A  
HETATM   19  C   UNL     1     -10.703   9.027  71.101  1.00  0.00    -0.358 A  
HETATM   20  C   UNL     1     -10.688   8.239  72.239  1.00  0.00    -0.399 A  
HETATM   21  C   UNL     1     -10.340   6.897  72.131  1.00  0.00    -0.221 A  
ENDBRANCH   2   6
TORSDOF 1
ENDMDL
MODEL      105
REMARK 921   NORMALIZED FREE ENERGY PREDICTED BY IDOCK:   -3.68 KCAL/MOL
REMARK 922        TOTAL FREE ENERGY PREDICTED BY IDOCK:   -3.96 KCAL/MOL
REMARK 923 INTER-LIGAND FREE ENERGY PREDICTED BY IDOCK:   -3.96 KCAL/MOL
REMARK 924 INTRA-LIGAND FREE ENERGY PREDICTED BY IDOCK:    0.01 KCAL/MOL
REMARK 927      BINDING AFFINITY PREDICTED BY RF-SCORE:    0.00 PKD
ROOT
HETATM    1  N   UNL     1     -10.758  10.239  70.417  1.00  0.00    -0.416 N  
HETATM    2  C   UNL     1     -11.568  10.983  69.599  1.00  0.00    -0.318 C  
HETATM    3  H1  UNL     1      -9.750  10.358  70.309  1.00  0.00     0.000 HD 
HETATM    4  H2  UNL     1     -11.146   9.593  71.104  1.00  0.00     0.000 HD 
HETATM    5  O   UNL     1     -12.779  10.839  69.728  1.00  0.00    -0.208 OA 
ENDROOT
BRANCH   2   6
HETATM    6  N   UNL     1     -10.894  11.909  68.784  1.00  0.00    -0.224 N  
HETATM    7  C   UNL     1     -10.343  11.505  67.529  1.00  0.00    -0.194 A  
HETATM    8  C   UNL     1     -11.137  10.799  66.610  1.00  0.00    -0.107 A  
HETATM    9  C   UNL     1     -10.606  10.379  65.389  1.00  0.00    -0.080 A  
HETATM   10  C   UNL     1      -9.275  10.648  65.083  1.00  0.00    -0.241 A  
HETATM   11  C   UNL     1      -8.476  11.336  65.996  1.00  0.00    -0.102 A  
HETATM   12  C   UNL     1      -9.004  11.759  67.223  1.00  0.00    -0.172 A  
HETATM   13  C   UNL     1      -8.160  12.490  68.219  1.00  0.00    -0.165 C  
HETATM   14  C   UNL     1      -8.579  13.930  68.303  1.00  0.00    -0.177 C  
HETATM   15  O   UNL     1      -7.763  14.825  68.074  1.00  0.00    -0.108 OA 
HETATM   16  C   UNL     1      -9.977  14.272  68.713  1.00  0.00    -0.205 A  
HETATM   17  C   UNL     1     -11.007  13.338  68.986  1.00  0.00    -0.206 A  
HETATM   18  C   UNL     1     -12.227  13.856  69.475  1.00  0.00    -0.356 A  
HETATM   19  C   UNL     1     -12.432  15.223  69.686  1.00  0.00    -0.174 A  
HETATM   20  C   UNL     1     -11.419  16.125  69.408  1.00  0.00    -0.296 A  
HETATM   21  C   UNL     1     -10.204  15.652  68.923  1.00  0.00    -0.214 A  
ENDBRANCH   2   6
TORSDOF 1
ENDMDL
MODEL      106
REMARK 921   NORMALIZED FREE ENERGY PREDICTED BY IDOCK:   -3.66 KCAL/MOL
REMARK 922        TOTAL FREE ENERGY PREDICTED BY IDOCK:   -3.94 KCAL/MOL
REMARK 923 INTER-LIGAND FREE ENERGY PREDICTED BY IDOCK:   -4.24 KCAL/MOL
REMARK 924 INTRA-LIGAND FREE ENERGY PREDICTED BY IDOCK:    0.31 KCAL/MOL
REMARK 927      BINDING AFFINITY PREDICTED BY RF-SCORE:    0.00 PKD
ROOT
HETATM    1  N   UNL     1      -7.990   2.558  71.227  1.00  0.00    -0.043 N  
HETATM    2  C   UNL     1      -9.275   2.899  71.560  1.00  0.00    -0.115 C  
HETATM    3  H1  UNL     1      -7.414   3.280  70.793  1.00  0.00     0.000 HD 
HETATM    4  H2  UNL     1      -7.625   1.622  71.404  1.00  0.00     0.000 HD 
HETATM    5  O   UNL     1      -9.968   2.032  72.081  1.00  0.00    -0.135 OA 
ENDROOT
BRANCH   2   6
HETATM    6  N   UNL     1      -9.599   4.252  71.360  1.00  0.00    -0.158 N  
HETATM    7  C   UNL     1      -9.265   5.230  72.347  1.00  0.00    -0.140 A  
HETATM    8  C   UNL     1      -7.958   5.294  72.858  1.00  0.00    -0.102 A  
HETATM    9  C   UNL     1      -7.623   6.230  73.837  1.00  0.00    -0.089 A  
HETATM   10  C   UNL     1      -8.594   7.100  74.324  1.00  0.00    -0.225 A  
HETATM   11  C   UNL     1      -9.897   7.035  73.832  1.00  0.00    -0.354 A  
HETATM   12  C   UNL     1     -10.239   6.097  72.850  1.00  0.00    -0.206 A  
HETATM   13  C   UNL     1     -11.633   6.005  72.317  1.00  0.00    -0.359 C  
HETATM   14  C   UNL     1     -11.689   6.510  70.904  1.00  0.00    -0.356 C  
HETATM   15  O   UNL     1     -12.436   7.445  70.610  1.00  0.00    -0.146 OA 
HETATM   16  C   UNL     1     -10.867   5.842  69.846  1.00  0.00    -0.439 A  
HETATM   17  C   UNL     1      -9.961   4.774  70.060  1.00  0.00    -0.244 A  
HETATM   18  C   UNL     1      -9.368   4.200  68.913  1.00  0.00    -0.228 A  
HETATM   19  C   UNL     1      -9.646   4.649  67.618  1.00  0.00    -0.200 A  
HETATM   20  C   UNL     1     -10.528   5.698  67.426  1.00  0.00    -0.306 A  
HETATM   21  C   UNL     1     -11.130   6.290  68.531  1.00  0.00    -0.397 A  
ENDBRANCH   2   6
TORSDOF 1
ENDMDL
MODEL      107
REMARK 921   NORMALIZED FREE ENERGY PREDICTED BY IDOCK:   -3.59 KCAL/MOL
REMARK 922        TOTAL FREE ENERGY PREDICTED BY IDOCK:   -3.86 KCAL/MOL
REMARK 923 INTER-LIGAND FREE ENERGY PREDICTED BY IDOCK:   -4.29 KCAL/MOL
REMARK 924 INTRA-LIGAND FREE ENERGY PREDICTED BY IDOCK:    0.43 KCAL/MOL
REMARK 927      BINDING AFFINITY PREDICTED BY RF-SCORE:    0.00 PKD
ROOT
HETATM    1  N   UNL     1      -9.315   6.764  66.604  1.00  0.00    -0.161 N  
HETATM    2  C   UNL     1     -10.485   7.158  67.198  1.00  0.00    -0.319 C  
HETATM    3  H1  UNL     1      -8.448   7.137  66.989  1.00  0.00     0.000 HD 
HETATM    4  H2  UNL     1      -9.313   6.124  65.809  1.00  0.00     0.000 HD 
HETATM    5  O   UNL     1     -11.529   6.710  66.735  1.00  0.00    -0.139 OA 
ENDROOT
BRANCH   2   6
HETATM    6  N   UNL     1     -10.326   7.949  68.349  1.00  0.00    -0.206 N  
HETATM    7  C   UNL     1      -9.575   7.464  69.463  1.00  0.00    -0.155 A  
HETATM    8  C   UNL     1      -8.287   6.937  69.266  1.00  0.00    -0.129 A  
HETATM    9  C   UNL     1      -7.550   6.441  70.341  1.00  0.00    -0.096 A  
HETATM   10  C   UNL     1      -8.098   6.453  71.621  1.00  0.00    -0.109 A  
HETATM   11  C   UNL     1      -9.381   6.961  71.824  1.00  0.00    -0.147 A  
HETATM   12  C   UNL     1     -10.125   7.460  70.748  1.00  0.00    -0.190 A  
HETATM   13  C   UNL     1     -11.506   8.000  70.945  1.00  0.00    -0.291 C  
HETATM   14  C   UNL     1     -11.514   9.493  70.775  1.00  0.00    -0.310 C  
HETATM   15  O   UNL     1     -11.906  10.217  71.692  1.00  0.00    -0.333 OA 
HETATM   16  C   UNL     1     -11.088  10.092  69.471  1.00  0.00    -0.279 A  
HETATM   17  C   UNL     1     -10.603   9.369  68.353  1.00  0.00    -0.204 A  
HETATM   18  C   UNL     1     -10.364  10.106  67.171  1.00  0.00    -0.295 A  
HETATM   19  C   UNL     1     -10.589  11.484  67.086  1.00  0.00    -0.273 A  
HETATM   20  C   UNL     1     -11.056  12.177  68.189  1.00  0.00    -0.295 A  
HETATM   21  C   UNL     1     -11.300  11.487  69.371  1.00  0.00    -0.355 A  
ENDBRANCH   2   6
TORSDOF 1
ENDMDL
MODEL      108
REMARK 921   NORMALIZED FREE ENERGY PREDICTED BY IDOCK:   -3.54 KCAL/MOL
REMARK 922        TOTAL FREE ENERGY PREDICTED BY IDOCK:   -3.81 KCAL/MOL
REMARK 923 INTER-LIGAND FREE ENERGY PREDICTED BY IDOCK:   -3.75 KCAL/MOL
REMARK 924 INTRA-LIGAND FREE ENERGY PREDICTED BY IDOCK:   -0.06 KCAL/MOL
REMARK 927      BINDING AFFINITY PREDICTED BY RF-SCORE:    0.00 PKD
ROOT
HETATM    1  N   UNL     1     -11.410  10.026  67.963  1.00  0.00    -0.521 N  
HETATM    2  C   UNL     1     -10.728  10.295  69.121  1.00  0.00    -0.228 C  
HETATM    3  H1  UNL     1     -11.184   9.156  67.481  1.00  0.00     0.000 HD 
HETATM    4  H2  UNL     1     -12.114  10.668  67.599  1.00  0.00     0.000 HD 
HETATM    5  O   UNL     1     -11.000  11.341  69.702  1.00  0.00    -0.227 OA 
ENDROOT
BRANCH   2   6
HETATM    6  N   UNL     1      -9.874   9.268  69.558  1.00  0.00    -0.174 N  
HETATM    7  C   UNL     1      -8.469   9.340  69.311  1.00  0.00    -0.137 A  
HETATM    8  C   UNL     1      -7.756  10.503  69.648  1.00  0.00    -0.119 A  
HETATM    9  C   UNL     1      -6.387  10.596  69.393  1.00  0.00    -0.060 A  
HETATM   10  C   UNL     1      -5.722   9.534  68.787  1.00  0.00    -0.040 A  
HETATM   11  C   UNL     1      -6.424   8.382  68.436  1.00  0.00    -0.059 A  
HETATM   12  C   UNL     1      -7.798   8.283  68.689  1.00  0.00    -0.120 A  
HETATM   13  C   UNL     1      -8.570   7.059  68.311  1.00  0.00    -0.129 C  
HETATM   14  C   UNL     1      -8.969   6.292  69.539  1.00  0.00    -0.134 C  
HETATM   15  O   UNL     1      -8.617   5.119  69.676  1.00  0.00    -0.091 OA 
HETATM   16  C   UNL     1      -9.834   6.944  70.572  1.00  0.00    -0.187 A  
HETATM   17  C   UNL     1     -10.287   8.287  70.537  1.00  0.00    -0.202 A  
HETATM   18  C   UNL     1     -11.194   8.681  71.547  1.00  0.00    -0.360 A  
HETATM   19  C   UNL     1     -11.636   7.805  72.544  1.00  0.00    -0.422 A  
HETATM   20  C   UNL     1     -11.179   6.499  72.569  1.00  0.00    -0.298 A  
HETATM   21  C   UNL     1     -10.283   6.075  71.593  1.00  0.00    -0.245 A  
ENDBRANCH   2   6
TORSDOF 1
ENDMDL
MODEL      109
REMARK 921   NORMALIZED FREE ENERGY PREDICTED BY IDOCK:   -3.51 KCAL/MOL
REMARK 922        TOTAL FREE ENERGY PREDICTED BY IDOCK:   -3.78 KCAL/MOL
REMARK 923 INTER-LIGAND FREE ENERGY PREDICTED BY IDOCK:   -3.73 KCAL/MOL
REMARK 924 INTRA-LIGAND FREE ENERGY PREDICTED BY IDOCK:   -0.05 KCAL/MOL
REMARK 927      BINDING AFFINITY PREDICTED BY RF-SCORE:    0.00 PKD
ROOT
HETATM    1  N   UNL     1      -6.318   5.812  70.579  1.00  0.00    -0.031 N  
HETATM    2  C   UNL     1      -7.429   5.577  69.813  1.00  0.00    -0.070 C  
HETATM    3  H1  UNL     1      -6.436   6.404  71.402  1.00  0.00     0.000 HD 
HETATM    4  H2  UNL     1      -5.411   5.413  70.337  1.00  0.00     0.000 HD 
HETATM    5  O   UNL     1      -7.288   4.865  68.824  1.00  0.00    -0.060 OA 
ENDROOT
BRANCH   2   6
HETATM    6  N   UNL     1      -8.627   6.098  70.332  1.00  0.00    -0.132 N  
HETATM    7  C   UNL     1      -9.306   7.161  69.659  1.00  0.00    -0.149 A  
HETATM    8  C   UNL     1      -9.578   7.061  68.285  1.00  0.00    -0.134 A  
HETATM    9  C   UNL     1     -10.222   8.099  67.610  1.00  0.00    -0.296 A  
HETATM   10  C   UNL     1     -10.585   9.252  68.300  1.00  0.00    -0.237 A  
HETATM   11  C   UNL     1     -10.306   9.366  69.662  1.00  0.00    -0.229 A  
HETATM   12  C   UNL     1      -9.660   8.327  70.343  1.00  0.00    -0.174 A  
HETATM   13  C   UNL     1      -9.344   8.435  71.801  1.00  0.00    -0.293 C  
HETATM   14  C   UNL     1     -10.222   7.512  72.597  1.00  0.00    -0.245 C  
HETATM   15  O   UNL     1     -10.948   7.964  73.485  1.00  0.00    -0.225 OA 
HETATM   16  C   UNL     1     -10.176   6.039  72.338  1.00  0.00    -0.216 A  
HETATM   17  C   UNL     1      -9.398   5.403  71.339  1.00  0.00    -0.147 A  
HETATM   18  C   UNL     1      -9.399   3.990  71.332  1.00  0.00    -0.212 A  
HETATM   19  C   UNL     1     -10.127   3.234  72.257  1.00  0.00    -0.215 A  
HETATM   20  C   UNL     1     -10.887   3.869  73.222  1.00  0.00    -0.297 A  
HETATM   21  C   UNL     1     -10.913   5.260  73.260  1.00  0.00    -0.369 A  
ENDBRANCH   2   6
TORSDOF 1
ENDMDL
MODEL      110
REMARK 921   NORMALIZED FREE ENERGY PREDICTED BY IDOCK:   -3.51 KCAL/MOL
REMARK 922        TOTAL FREE ENERGY PREDICTED BY IDOCK:   -3.78 KCAL/MOL
REMARK 923 INTER-LIGAND FREE ENERGY PREDICTED BY IDOCK:   -4.21 KCAL/MOL
REMARK 924 INTRA-LIGAND FREE ENERGY PREDICTED BY IDOCK:    0.43 KCAL/MOL
REMARK 927      BINDING AFFINITY PREDICTED BY RF-SCORE:    0.00 PKD
ROOT
HETATM    1  N   UNL     1      -6.271   7.855  71.297  1.00  0.00    -0.034 N  
HETATM    2  C   UNL     1      -7.321   8.275  72.071  1.00  0.00    -0.097 C  
HETATM    3  H1  UNL     1      -6.482   7.210  70.535  1.00  0.00     0.000 HD 
HETATM    4  H2  UNL     1      -5.318   8.173  71.475  1.00  0.00     0.000 HD 
HETATM    5  O   UNL     1      -7.067   9.051  72.986  1.00  0.00    -0.324 OA 
ENDROOT
BRANCH   2   6
HETATM    6  N   UNL     1      -8.586   7.843  71.637  1.00  0.00    -0.114 N  
HETATM    7  C   UNL     1      -9.460   8.738  70.947  1.00  0.00    -0.216 A  
HETATM    8  C   UNL     1      -8.987   9.473  69.847  1.00  0.00    -0.231 A  
HETATM    9  C   UNL     1      -9.823  10.366  69.177  1.00  0.00    -0.237 A  
HETATM   10  C   UNL     1     -11.134  10.544  69.608  1.00  0.00    -0.338 A  
HETATM   11  C   UNL     1     -11.609   9.829  70.708  1.00  0.00    -0.417 A  
HETATM   12  C   UNL     1     -10.773   8.931  71.384  1.00  0.00    -0.382 A  
HETATM   13  C   UNL     1     -11.261   8.163  72.572  1.00  0.00    -0.459 C  
HETATM   14  C   UNL     1     -11.423   6.711  72.225  1.00  0.00    -0.283 C  
HETATM   15  O   UNL     1     -12.518   6.162  72.358  1.00  0.00    -0.180 OA 
HETATM   16  C   UNL     1     -10.237   5.923  71.763  1.00  0.00    -0.248 A  
HETATM   17  C   UNL     1      -8.935   6.441  71.555  1.00  0.00    -0.144 A  
HETATM   18  C   UNL     1      -7.921   5.511  71.231  1.00  0.00    -0.111 A  
HETATM   19  C   UNL     1      -8.169   4.139  71.116  1.00  0.00    -0.075 A  
HETATM   20  C   UNL     1      -9.448   3.649  71.314  1.00  0.00    -0.231 A  
HETATM   21  C   UNL     1     -10.472   4.534  71.633  1.00  0.00    -0.084 A  
ENDBRANCH   2   6
TORSDOF 1
ENDMDL
MODEL      111
REMARK 921   NORMALIZED FREE ENERGY PREDICTED BY IDOCK:   -3.45 KCAL/MOL
REMARK 922        TOTAL FREE ENERGY PREDICTED BY IDOCK:   -3.72 KCAL/MOL
REMARK 923 INTER-LIGAND FREE ENERGY PREDICTED BY IDOCK:   -4.33 KCAL/MOL
REMARK 924 INTRA-LIGAND FREE ENERGY PREDICTED BY IDOCK:    0.61 KCAL/MOL
REMARK 927      BINDING AFFINITY PREDICTED BY RF-SCORE:    0.00 PKD
ROOT
HETATM    1  N   UNL     1      -5.189  16.340  67.525  1.00  0.00    -0.132 N  
HETATM    2  C   UNL     1      -6.464  15.850  67.410  1.00  0.00    -0.175 C  
HETATM    3  H1  UNL     1      -5.068  17.349  67.430  1.00  0.00     0.000 HD 
HETATM    4  H2  UNL     1      -4.396  15.723  67.697  1.00  0.00     0.000 HD 
HETATM    5  O   UNL     1      -6.611  14.638  67.524  1.00  0.00    -0.220 OA 
ENDROOT
BRANCH   2   6
HETATM    6  N   UNL     1      -7.465  16.829  67.287  1.00  0.00    -0.159 N  
HETATM    7  C   UNL     1      -7.196  18.060  66.615  1.00  0.00    -0.214 A  
HETATM    8  C   UNL     1      -6.611  18.049  65.337  1.00  0.00    -0.048 A  
HETATM    9  C   UNL     1      -6.323  19.244  64.677  1.00  0.00    -0.140 A  
HETATM   10  C   UNL     1      -6.603  20.460  65.293  1.00  0.00    -0.312 A  
HETATM   11  C   UNL     1      -7.170  20.481  66.567  1.00  0.00    -0.279 A  
HETATM   12  C   UNL     1      -7.461  19.284  67.234  1.00  0.00    -0.253 A  
HETATM   13  C   UNL     1      -8.060  19.287  68.604  1.00  0.00    -0.405 C  
HETATM   14  C   UNL     1      -9.489  18.824  68.553  1.00  0.00    -0.358 C  
HETATM   15  O   UNL     1     -10.390  19.554  68.969  1.00  0.00    -0.322 OA 
HETATM   16  C   UNL     1      -9.805  17.456  68.035  1.00  0.00    -0.288 A  
HETATM   17  C   UNL     1      -8.863  16.534  67.515  1.00  0.00    -0.191 A  
HETATM   18  C   UNL     1      -9.344  15.246  67.188  1.00  0.00    -0.227 A  
HETATM   19  C   UNL     1     -10.681  14.876  67.360  1.00  0.00    -0.292 A  
HETATM   20  C   UNL     1     -11.591  15.790  67.863  1.00  0.00    -0.153 A  
HETATM   21  C   UNL     1     -11.156  17.069  68.194  1.00  0.00    -0.163 A  
ENDBRANCH   2   6
TORSDOF 1
ENDMDL
MODEL      112
REMARK 921   NORMALIZED FREE ENERGY PREDICTED BY IDOCK:   -3.44 KCAL/MOL
REMARK 922        TOTAL FREE ENERGY PREDICTED BY IDOCK:   -3.70 KCAL/MOL
REMARK 923 INTER-LIGAND FREE ENERGY PREDICTED BY IDOCK:   -3.64 KCAL/MOL
REMARK 924 INTRA-LIGAND FREE ENERGY PREDICTED BY IDOCK:   -0.06 KCAL/MOL
REMARK 927      BINDING AFFINITY PREDICTED BY RF-SCORE:    0.00 PKD
ROOT
HETATM    1  N   UNL     1     -11.459   6.478  67.275  1.00  0.00    -0.743 N  
HETATM    2  C   UNL     1     -10.124   6.193  67.396  1.00  0.00    -0.156 C  
HETATM    3  H1  UNL     1     -11.934   6.842  68.101  1.00  0.00     0.000 HD 
HETATM    4  H2  UNL     1     -11.956   6.331  66.396  1.00  0.00     0.000 HD 
HETATM    5  O   UNL     1      -9.552   5.755  66.403  1.00  0.00    -0.154 OA 
ENDROOT
BRANCH   2   6
HETATM    6  N   UNL     1      -9.552   6.552  68.628  1.00  0.00    -0.125 N  
HETATM    7  C   UNL     1      -9.359   5.572  69.650  1.00  0.00    -0.134 A  
HETATM    8  C   UNL     1      -8.716   4.360  69.348  1.00  0.00    -0.121 A  
HETATM    9  C   UNL     1      -8.539   3.385  70.330  1.00  0.00    -0.105 A  
HETATM   10  C   UNL     1      -9.016   3.606  71.619  1.00  0.00    -0.156 A  
HETATM   11  C   UNL     1      -9.669   4.800  71.924  1.00  0.00    -0.219 A  
HETATM   12  C   UNL     1      -9.849   5.782  70.942  1.00  0.00    -0.229 A  
HETATM   13  C   UNL     1     -10.554   7.064  71.248  1.00  0.00    -0.238 C  
HETATM   14  C   UNL     1      -9.581   8.208  71.261  1.00  0.00    -0.162 C  
HETATM   15  O   UNL     1      -9.457   8.902  72.272  1.00  0.00    -0.327 OA 
HETATM   16  C   UNL     1      -8.796   8.527  70.027  1.00  0.00    -0.141 A  
HETATM   17  C   UNL     1      -8.838   7.796  68.814  1.00  0.00    -0.134 A  
HETATM   18  C   UNL     1      -8.113   8.328  67.723  1.00  0.00    -0.127 A  
HETATM   19  C   UNL     1      -7.382   9.516  67.814  1.00  0.00    -0.083 A  
HETATM   20  C   UNL     1      -7.345  10.215  69.008  1.00  0.00    -0.087 A  
HETATM   21  C   UNL     1      -8.045   9.722  70.105  1.00  0.00    -0.202 A  
ENDBRANCH   2   6
TORSDOF 1
ENDMDL
MODEL      113
REMARK 921   NORMALIZED FREE ENERGY PREDICTED BY IDOCK:   -3.41 KCAL/MOL
REMARK 922        TOTAL FREE ENERGY PREDICTED BY IDOCK:   -3.67 KCAL/MOL
REMARK 923 INTER-LIGAND FREE ENERGY PREDICTED BY IDOCK:   -4.43 KCAL/MOL
REMARK 924 INTRA-LIGAND FREE ENERGY PREDICTED BY IDOCK:    0.76 KCAL/MOL
REMARK 927      BINDING AFFINITY PREDICTED BY RF-SCORE:    0.00 PKD
ROOT
HETATM    1  N   UNL     1     -10.911  10.828  67.144  1.00  0.00    -0.280 N  
HETATM    2  C   UNL     1      -9.678  10.744  67.735  1.00  0.00    -0.162 C  
HETATM    3  H1  UNL     1     -11.705  10.459  67.667  1.00  0.00     0.000 HD 
HETATM    4  H2  UNL     1     -11.030  11.241  66.219  1.00  0.00     0.000 HD 
HETATM    5  O   UNL     1      -8.723  11.188  67.106  1.00  0.00    -0.136 OA 
ENDROOT
BRANCH   2   6
HETATM    6  N   UNL     1      -9.686  10.255  69.053  1.00  0.00    -0.194 N  
HETATM    7  C   UNL     1      -8.471   9.832  69.676  1.00  0.00    -0.185 A  
HETATM    8  C   UNL     1      -7.345  10.672  69.661  1.00  0.00    -0.133 A  
HETATM    9  C   UNL     1      -6.147  10.264  70.247  1.00  0.00    -0.098 A  
HETATM   10  C   UNL     1      -6.058   9.007  70.840  1.00  0.00    -0.049 A  
HETATM   11  C   UNL     1      -7.167   8.161  70.847  1.00  0.00    -0.055 A  
HETATM   12  C   UNL     1      -8.372   8.566  70.260  1.00  0.00    -0.125 A  
HETATM   13  C   UNL     1      -9.569   7.669  70.249  1.00  0.00    -0.172 C  
HETATM   14  C   UNL     1     -10.624   8.191  71.182  1.00  0.00    -0.204 C  
HETATM   15  O   UNL     1     -11.034   7.486  72.106  1.00  0.00    -0.229 OA 
HETATM   16  C   UNL     1     -11.206   9.551  70.956  1.00  0.00    -0.432 A  
HETATM   17  C   UNL     1     -10.807  10.459  69.944  1.00  0.00    -0.298 A  
HETATM   18  C   UNL     1     -11.561  11.648  69.819  1.00  0.00    -0.389 A  
HETATM   19  C   UNL     1     -12.651  11.936  70.646  1.00  0.00    -0.269 A  
HETATM   20  C   UNL     1     -13.024  11.044  71.635  1.00  0.00    -0.561 A  
HETATM   21  C   UNL     1     -12.305   9.863  71.790  1.00  0.00    -0.456 A  
ENDBRANCH   2   6
TORSDOF 1
ENDMDL
MODEL      114
REMARK 921   NORMALIZED FREE ENERGY PREDICTED BY IDOCK:   -3.39 KCAL/MOL
REMARK 922        TOTAL FREE ENERGY PREDICTED BY IDOCK:   -3.65 KCAL/MOL
REMARK 923 INTER-LIGAND FREE ENERGY PREDICTED BY IDOCK:   -3.98 KCAL/MOL
REMARK 924 INTRA-LIGAND FREE ENERGY PREDICTED BY IDOCK:    0.33 KCAL/MOL
REMARK 927      BINDING AFFINITY PREDICTED BY RF-SCORE:    0.00 PKD
ROOT
HETATM    1  N   UNL     1      -9.102  10.585  69.785  1.00  0.00    -0.397 N  
HETATM    2  C   UNL     1      -8.619   9.402  70.281  1.00  0.00    -0.221 C  
HETATM    3  H1  UNL     1      -9.845  10.529  69.089  1.00  0.00     0.000 HD 
HETATM    4  H2  UNL     1      -8.733  11.483  70.099  1.00  0.00     0.000 HD 
HETATM    5  O   UNL     1      -7.725   9.469  71.118  1.00  0.00    -0.325 OA 
ENDROOT
BRANCH   2   6
HETATM    6  N   UNL     1      -9.299   8.254  69.841  1.00  0.00    -0.158 N  
HETATM    7  C   UNL     1     -10.416   7.748  70.575  1.00  0.00    -0.217 A  
HETATM    8  C   UNL     1     -11.462   8.610  70.944  1.00  0.00    -0.315 A  
HETATM    9  C   UNL     1     -12.549   8.134  71.678  1.00  0.00    -0.347 A  
HETATM   10  C   UNL     1     -12.592   6.797  72.064  1.00  0.00    -0.259 A  
HETATM   11  C   UNL     1     -11.551   5.937  71.714  1.00  0.00    -0.220 A  
HETATM   12  C   UNL     1     -10.458   6.410  70.976  1.00  0.00    -0.268 A  
HETATM   13  C   UNL     1      -9.327   5.506  70.600  1.00  0.00    -0.195 C  
HETATM   14  C   UNL     1      -9.347   5.228  69.125  1.00  0.00    -0.123 C  
HETATM   15  O   UNL     1      -9.426   4.068  68.716  1.00  0.00    -0.153 OA 
HETATM   16  C   UNL     1      -9.225   6.362  68.155  1.00  0.00    -0.111 A  
HETATM   17  C   UNL     1      -9.145   7.734  68.500  1.00  0.00    -0.132 A  
HETATM   18  C   UNL     1      -8.912   8.645  67.445  1.00  0.00    -0.144 A  
HETATM   19  C   UNL     1      -8.765   8.234  66.116  1.00  0.00    -0.174 A  
HETATM   20  C   UNL     1      -8.853   6.891  65.794  1.00  0.00    -0.088 A  
HETATM   21  C   UNL     1      -9.083   5.964  66.805  1.00  0.00    -0.130 A  
ENDBRANCH   2   6
TORSDOF 1
ENDMDL
MODEL      115
REMARK 921   NORMALIZED FREE ENERGY PREDICTED BY IDOCK:   -3.36 KCAL/MOL
REMARK 922        TOTAL FREE ENERGY PREDICTED BY IDOCK:   -3.62 KCAL/MOL
REMARK 923 INTER-LIGAND FREE ENERGY PREDICTED BY IDOCK:   -3.64 KCAL/MOL
REMARK 924 INTRA-LIGAND FREE ENERGY PREDICTED BY IDOCK:    0.02 KCAL/MOL
REMARK 927      BINDING AFFINITY PREDICTED BY RF-SCORE:    0.00 PKD
ROOT
HETATM    1  N   UNL     1      -8.428  11.363  69.084  1.00  0.00    -0.377 N  
HETATM    2  C   UNL     1      -7.906  10.240  69.671  1.00  0.00    -0.160 C  
HETATM    3  H1  UNL     1      -8.984  11.231  68.239  1.00  0.00     0.000 HD 
HETATM    4  H2  UNL     1      -8.267  12.291  69.475  1.00  0.00     0.000 HD 
HETATM    5  O   UNL     1      -7.237  10.398  70.687  1.00  0.00    -0.259 OA 
ENDROOT
BRANCH   2   6
HETATM    6  N   UNL     1      -8.305   9.026  69.085  1.00  0.00    -0.121 N  
HETATM    7  C   UNL     1      -7.639   8.529  67.923  1.00  0.00    -0.098 A  
HETATM    8  C   UNL     1      -6.237   8.440  67.902  1.00  0.00    -0.052 A  
HETATM    9  C   UNL     1      -5.572   7.976  66.766  1.00  0.00    -0.033 A  
HETATM   10  C   UNL     1      -6.301   7.611  65.638  1.00  0.00    -0.042 A  
HETATM   11  C   UNL     1      -7.692   7.710  65.645  1.00  0.00    -0.099 A  
HETATM   12  C   UNL     1      -8.364   8.175  66.782  1.00  0.00    -0.115 A  
HETATM   13  C   UNL     1      -9.855   8.297  66.806  1.00  0.00    -0.333 C  
HETATM   14  C   UNL     1     -10.452   7.250  67.702  1.00  0.00    -0.242 C  
HETATM   15  O   UNL     1     -11.271   6.446  67.254  1.00  0.00    -0.364 OA 
HETATM   16  C   UNL     1     -10.081   7.218  69.152  1.00  0.00    -0.183 A  
HETATM   17  C   UNL     1      -9.143   8.074  69.781  1.00  0.00    -0.149 A  
HETATM   18  C   UNL     1      -9.020   7.966  71.185  1.00  0.00    -0.153 A  
HETATM   19  C   UNL     1      -9.778   7.063  71.938  1.00  0.00    -0.166 A  
HETATM   20  C   UNL     1     -10.685   6.229  71.309  1.00  0.00    -0.299 A  
HETATM   21  C   UNL     1     -10.833   6.305  69.928  1.00  0.00    -0.399 A  
ENDBRANCH   2   6
TORSDOF 1
ENDMDL
MODEL      116
REMARK 921   NORMALIZED FREE ENERGY PREDICTED BY IDOCK:   -3.36 KCAL/MOL
REMARK 922        TOTAL FREE ENERGY PREDICTED BY IDOCK:   -3.62 KCAL/MOL
REMARK 923 INTER-LIGAND FREE ENERGY PREDICTED BY IDOCK:   -3.55 KCAL/MOL
REMARK 924 INTRA-LIGAND FREE ENERGY PREDICTED BY IDOCK:   -0.06 KCAL/MOL
REMARK 927      BINDING AFFINITY PREDICTED BY RF-SCORE:    0.00 PKD
ROOT
HETATM    1  N   UNL     1      -6.899   8.462  71.553  1.00  0.00    -0.066 N  
HETATM    2  C   UNL     1      -8.256   8.348  71.711  1.00  0.00    -0.152 C  
HETATM    3  H1  UNL     1      -6.458   7.856  70.861  1.00  0.00     0.000 HD 
HETATM    4  H2  UNL     1      -6.354   9.126  72.103  1.00  0.00     0.000 HD 
HETATM    5  O   UNL     1      -8.786   9.077  72.543  1.00  0.00    -0.305 OA 
ENDROOT
BRANCH   2   6
HETATM    6  N   UNL     1      -8.886   7.476  70.807  1.00  0.00    -0.147 N  
HETATM    7  C   UNL     1      -9.326   6.185  71.233  1.00  0.00    -0.159 A  
HETATM    8  C   UNL     1     -10.113   6.058  72.389  1.00  0.00    -0.199 A  
HETATM    9  C   UNL     1     -10.533   4.802  72.829  1.00  0.00    -0.258 A  
HETATM   10  C   UNL     1     -10.157   3.661  72.125  1.00  0.00    -0.212 A  
HETATM   11  C   UNL     1      -9.364   3.776  70.984  1.00  0.00    -0.218 A  
HETATM   12  C   UNL     1      -8.940   5.035  70.539  1.00  0.00    -0.160 A  
HETATM   13  C   UNL     1      -8.081   5.178  69.323  1.00  0.00    -0.084 C  
HETATM   14  C   UNL     1      -8.866   5.786  68.195  1.00  0.00    -0.105 C  
HETATM   15  O   UNL     1      -8.982   5.182  67.127  1.00  0.00    -0.113 OA 
HETATM   16  C   UNL     1      -9.466   7.147  68.361  1.00  0.00    -0.138 A  
HETATM   17  C   UNL     1      -9.416   7.931  69.540  1.00  0.00    -0.160 A  
HETATM   18  C   UNL     1      -9.940   9.241  69.459  1.00  0.00    -0.194 A  
HETATM   19  C   UNL     1     -10.487   9.760  68.281  1.00  0.00    -0.255 A  
HETATM   20  C   UNL     1     -10.535   8.980  67.139  1.00  0.00    -0.333 A  
HETATM   21  C   UNL     1     -10.031   7.684  67.181  1.00  0.00    -0.297 A  
ENDBRANCH   2   6
TORSDOF 1
ENDMDL
MODEL      117
REMARK 921   NORMALIZED FREE ENERGY PREDICTED BY IDOCK:   -3.35 KCAL/MOL
REMARK 922        TOTAL FREE ENERGY PREDICTED BY IDOCK:   -3.61 KCAL/MOL
REMARK 923 INTER-LIGAND FREE ENERGY PREDICTED BY IDOCK:   -3.58 KCAL/MOL
REMARK 924 INTRA-LIGAND FREE ENERGY PREDICTED BY IDOCK:   -0.03 KCAL/MOL
REMARK 927      BINDING AFFINITY PREDICTED BY RF-SCORE:    0.00 PKD
ROOT
HETATM    1  N   UNL     1     -10.557   6.338  66.127  1.00  0.00    -0.374 N  
HETATM    2  C   UNL     1     -10.230   5.897  67.382  1.00  0.00    -0.194 C  
HETATM    3  H1  UNL     1     -10.513   7.344  65.960  1.00  0.00     0.000 HD 
HETATM    4  H2  UNL     1     -10.833   5.689  65.390  1.00  0.00     0.000 HD 
HETATM    5  O   UNL     1     -10.282   4.688  67.583  1.00  0.00    -0.097 OA 
ENDROOT
BRANCH   2   6
HETATM    6  N   UNL     1      -9.761   6.894  68.256  1.00  0.00    -0.132 N  
HETATM    7  C   UNL     1     -10.486   7.213  69.445  1.00  0.00    -0.222 A  
HETATM    8  C   UNL     1     -10.882   6.189  70.322  1.00  0.00    -0.385 A  
HETATM    9  C   UNL     1     -11.608   6.484  71.477  1.00  0.00    -0.366 A  
HETATM   10  C   UNL     1     -11.957   7.802  71.757  1.00  0.00    -0.332 A  
HETATM   11  C   UNL     1     -11.581   8.823  70.885  1.00  0.00    -0.320 A  
HETATM   12  C   UNL     1     -10.852   8.532  69.725  1.00  0.00    -0.177 A  
HETATM   13  C   UNL     1     -10.448   9.612  68.773  1.00  0.00    -0.238 C  
HETATM   14  C   UNL     1      -8.965   9.843  68.841  1.00  0.00    -0.153 C  
HETATM   15  O   UNL     1      -8.526  10.959  69.124  1.00  0.00    -0.137 OA 
HETATM   16  C   UNL     1      -8.026   8.723  68.517  1.00  0.00    -0.112 A  
HETATM   17  C   UNL     1      -8.407   7.397  68.195  1.00  0.00    -0.124 A  
HETATM   18  C   UNL     1      -7.375   6.514  67.803  1.00  0.00    -0.096 A  
HETATM   19  C   UNL     1      -6.035   6.908  67.730  1.00  0.00    -0.032 A  
HETATM   20  C   UNL     1      -5.678   8.205  68.055  1.00  0.00    -0.035 A  
HETATM   21  C   UNL     1      -6.665   9.103  68.448  1.00  0.00    -0.059 A  
ENDBRANCH   2   6
TORSDOF 1
ENDMDL
MODEL      118
REMARK 921   NORMALIZED FREE ENERGY PREDICTED BY IDOCK:   -3.34 KCAL/MOL
REMARK 922        TOTAL FREE ENERGY PREDICTED BY IDOCK:   -3.59 KCAL/MOL
REMARK 923 INTER-LIGAND FREE ENERGY PREDICTED BY IDOCK:   -3.54 KCAL/MOL
REMARK 924 INTRA-LIGAND FREE ENERGY PREDICTED BY IDOCK:   -0.05 KCAL/MOL
REMARK 927      BINDING AFFINITY PREDICTED BY RF-SCORE:    0.00 PKD
ROOT
HETATM    1  N   UNL     1     -10.782   5.626  68.237  1.00  0.00    -0.192 N  
HETATM    2  C   UNL     1      -9.729   4.988  68.837  1.00  0.00    -0.167 C  
HETATM    3  H1  UNL     1     -11.390   6.186  68.835  1.00  0.00     0.000 HD 
HETATM    4  H2  UNL     1     -10.951   5.545  67.234  1.00  0.00     0.000 HD 
HETATM    5  O   UNL     1      -8.998   4.315  68.119  1.00  0.00    -0.109 OA 
ENDROOT
BRANCH   2   6
HETATM    6  N   UNL     1      -9.557   5.284  70.201  1.00  0.00    -0.166 N  
HETATM    7  C   UNL     1      -9.786   4.282  71.194  1.00  0.00    -0.189 A  
HETATM    8  C   UNL     1      -9.181   3.020  71.069  1.00  0.00    -0.200 A  
HETATM    9  C   UNL     1      -9.411   2.025  72.020  1.00  0.00    -0.174 A  
HETATM   10  C   UNL     1     -10.259   2.277  73.095  1.00  0.00    -0.205 A  
HETATM   11  C   UNL     1     -10.875   3.522  73.219  1.00  0.00    -0.288 A  
HETATM   12  C   UNL     1     -10.647   4.524  72.267  1.00  0.00    -0.173 A  
HETATM   13  C   UNL     1     -11.306   5.862  72.378  1.00  0.00    -0.358 C  
HETATM   14  C   UNL     1     -10.298   6.914  72.744  1.00  0.00    -0.213 C  
HETATM   15  O   UNL     1     -10.450   7.586  73.766  1.00  0.00    -0.317 OA 
HETATM   16  C   UNL     1      -9.134   7.172  71.839  1.00  0.00    -0.144 A  
HETATM   17  C   UNL     1      -8.842   6.458  70.650  1.00  0.00    -0.144 A  
HETATM   18  C   UNL     1      -7.763   6.931  69.870  1.00  0.00    -0.109 A  
HETATM   19  C   UNL     1      -7.005   8.049  70.234  1.00  0.00    -0.044 A  
HETATM   20  C   UNL     1      -7.298   8.731  71.401  1.00  0.00    -0.117 A  
HETATM   21  C   UNL     1      -8.352   8.294  72.197  1.00  0.00    -0.232 A  
ENDBRANCH   2   6
TORSDOF 1
ENDMDL
MODEL      119
REMARK 921   NORMALIZED FREE ENERGY PREDICTED BY IDOCK:   -3.29 KCAL/MOL
REMARK 922        TOTAL FREE ENERGY PREDICTED BY IDOCK:   -3.55 KCAL/MOL
REMARK 923 INTER-LIGAND FREE ENERGY PREDICTED BY IDOCK:   -3.48 KCAL/MOL
REMARK 924 INTRA-LIGAND FREE ENERGY PREDICTED BY IDOCK:   -0.06 KCAL/MOL
REMARK 927      BINDING AFFINITY PREDICTED BY RF-SCORE:    0.00 PKD
ROOT
HETATM    1  N   UNL     1      -6.178   8.274  68.144  1.00  0.00    -0.050 N  
HETATM    2  C   UNL     1      -6.893   8.466  66.991  1.00  0.00    -0.070 C  
HETATM    3  H1  UNL     1      -6.703   8.022  68.982  1.00  0.00     0.000 HD 
HETATM    4  H2  UNL     1      -5.163   8.379  68.164  1.00  0.00     0.000 HD 
HETATM    5  O   UNL     1      -6.262   8.768  65.984  1.00  0.00    -0.054 OA 
ENDROOT
BRANCH   2   6
HETATM    6  N   UNL     1      -8.264   8.176  67.091  1.00  0.00    -0.119 N  
HETATM    7  C   UNL     1      -9.221   9.230  67.215  1.00  0.00    -0.126 A  
HETATM    8  C   UNL     1      -9.194  10.311  66.318  1.00  0.00    -0.191 A  
HETATM    9  C   UNL     1     -10.108  11.358  66.440  1.00  0.00    -0.255 A  
HETATM   10  C   UNL     1     -11.047  11.342  67.468  1.00  0.00    -0.346 A  
HETATM   11  C   UNL     1     -11.071  10.280  68.372  1.00  0.00    -0.302 A  
HETATM   12  C   UNL     1     -10.156   9.226  68.254  1.00  0.00    -0.214 A  
HETATM   13  C   UNL     1     -10.160   8.083  69.218  1.00  0.00    -0.198 C  
HETATM   14  C   UNL     1     -10.662   6.835  68.550  1.00  0.00    -0.231 C  
HETATM   15  O   UNL     1     -11.646   6.246  69.001  1.00  0.00    -0.278 OA 
HETATM   16  C   UNL     1      -9.934   6.287  67.363  1.00  0.00    -0.168 A  
HETATM   17  C   UNL     1      -8.805   6.879  66.744  1.00  0.00    -0.125 A  
HETATM   18  C   UNL     1      -8.186   6.145  65.707  1.00  0.00    -0.138 A  
HETATM   19  C   UNL     1      -8.649   4.891  65.295  1.00  0.00    -0.142 A  
HETATM   20  C   UNL     1      -9.756   4.329  65.905  1.00  0.00    -0.211 A  
HETATM   21  C   UNL     1     -10.394   5.023  66.928  1.00  0.00    -0.267 A  
ENDBRANCH   2   6
TORSDOF 1
ENDMDL
MODEL      120
REMARK 921   NORMALIZED FREE ENERGY PREDICTED BY IDOCK:   -3.28 KCAL/MOL
REMARK 922        TOTAL FREE ENERGY PREDICTED BY IDOCK:   -3.53 KCAL/MOL
REMARK 923 INTER-LIGAND FREE ENERGY PREDICTED BY IDOCK:   -4.02 KCAL/MOL
REMARK 924 INTRA-LIGAND FREE ENERGY PREDICTED BY IDOCK:    0.48 KCAL/MOL
REMARK 927      BINDING AFFINITY PREDICTED BY RF-SCORE:    0.00 PKD
ROOT
HETATM    1  N   UNL     1      -9.033  11.236  67.833  1.00  0.00    -0.142 N  
HETATM    2  C   UNL     1     -10.241  11.004  68.437  1.00  0.00    -0.185 C  
HETATM    3  H1  UNL     1      -8.328  10.502  67.902  1.00  0.00     0.000 HD 
HETATM    4  H2  UNL     1      -8.846  12.106  67.334  1.00  0.00     0.000 HD 
HETATM    5  O   UNL     1     -11.088  11.887  68.354  1.00  0.00    -0.211 OA 
ENDROOT
BRANCH   2   6
HETATM    6  N   UNL     1     -10.390   9.719  68.986  1.00  0.00    -0.199 N  
HETATM    7  C   UNL     1     -11.232   9.510  70.122  1.00  0.00    -0.234 A  
HETATM    8  C   UNL     1     -12.547  10.005  70.121  1.00  0.00     0.031 A  
HETATM    9  C   UNL     1     -13.374   9.827  71.231  1.00  0.00    -0.413 A  
HETATM   10  C   UNL     1     -12.889   9.166  72.357  1.00  0.00    -0.438 A  
HETATM   11  C   UNL     1     -11.580   8.684  72.371  1.00  0.00    -0.385 A  
HETATM   12  C   UNL     1     -10.747   8.860  71.260  1.00  0.00    -0.357 A  
HETATM   13  C   UNL     1      -9.337   8.359  71.260  1.00  0.00    -0.239 C  
HETATM   14  C   UNL     1      -9.199   7.183  70.337  1.00  0.00    -0.156 C  
HETATM   15  O   UNL     1      -8.794   6.102  70.768  1.00  0.00    -0.137 OA 
HETATM   16  C   UNL     1      -9.512   7.343  68.881  1.00  0.00    -0.144 A  
HETATM   17  C   UNL     1      -9.999   8.525  68.270  1.00  0.00    -0.184 A  
HETATM   18  C   UNL     1     -10.119   8.513  66.862  1.00  0.00    -0.364 A  
HETATM   19  C   UNL     1      -9.779   7.398  66.088  1.00  0.00     0.016 A  
HETATM   20  C   UNL     1      -9.311   6.249  66.701  1.00  0.00    -0.167 A  
HETATM   21  C   UNL     1      -9.182   6.222  68.085  1.00  0.00    -0.110 A  
ENDBRANCH   2   6
TORSDOF 1
ENDMDL
MODEL      121
REMARK 921   NORMALIZED FREE ENERGY PREDICTED BY IDOCK:   -3.26 KCAL/MOL
REMARK 922        TOTAL FREE ENERGY PREDICTED BY IDOCK:   -3.51 KCAL/MOL
REMARK 923 INTER-LIGAND FREE ENERGY PREDICTED BY IDOCK:   -4.00 KCAL/MOL
REMARK 924 INTRA-LIGAND FREE ENERGY PREDICTED BY IDOCK:    0.48 KCAL/MOL
REMARK 927      BINDING AFFINITY PREDICTED BY RF-SCORE:    0.00 PKD
ROOT
HETATM    1  N   UNL     1     -11.278   6.681  68.930  1.00  0.00    -0.541 N  
HETATM    2  C   UNL     1     -11.427   6.360  70.254  1.00  0.00    -0.402 C  
HETATM    3  H1  UNL     1     -10.387   6.447  68.491  1.00  0.00     0.000 HD 
HETATM    4  H2  UNL     1     -12.026   7.135  68.406  1.00  0.00     0.000 HD 
HETATM    5  O   UNL     1     -12.497   6.641  70.782  1.00  0.00    -0.314 OA 
ENDROOT
BRANCH   2   6
HETATM    6  N   UNL     1     -10.357   5.638  70.811  1.00  0.00    -0.228 N  
HETATM    7  C   UNL     1      -9.880   4.448  70.180  1.00  0.00    -0.217 A  
HETATM    8  C   UNL     1      -9.571   4.456  68.810  1.00  0.00    -0.224 A  
HETATM    9  C   UNL     1      -9.124   3.297  68.175  1.00  0.00    -0.214 A  
HETATM   10  C   UNL     1      -8.995   2.116  68.902  1.00  0.00    -0.165 A  
HETATM   11  C   UNL     1      -9.312   2.095  70.259  1.00  0.00    -0.182 A  
HETATM   12  C   UNL     1      -9.762   3.256  70.901  1.00  0.00    -0.187 A  
HETATM   13  C   UNL     1     -10.116   3.252  72.354  1.00  0.00    -0.226 C  
HETATM   14  C   UNL     1      -9.094   4.015  73.145  1.00  0.00    -0.106 C  
HETATM   15  O   UNL     1      -8.480   3.461  74.059  1.00  0.00    -0.080 OA 
HETATM   16  C   UNL     1      -8.858   5.463  72.848  1.00  0.00    -0.121 A  
HETATM   17  C   UNL     1      -9.486   6.205  71.817  1.00  0.00    -0.150 A  
HETATM   18  C   UNL     1      -9.218   7.592  71.774  1.00  0.00    -0.162 A  
HETATM   19  C   UNL     1      -8.377   8.224  72.695  1.00  0.00    -0.235 A  
HETATM   20  C   UNL     1      -7.765   7.485  73.692  1.00  0.00    -0.144 A  
HETATM   21  C   UNL     1      -8.002   6.116  73.766  1.00  0.00    -0.097 A  
ENDBRANCH   2   6
TORSDOF 1
ENDMDL
MODEL      122
REMARK 921   NORMALIZED FREE ENERGY PREDICTED BY IDOCK:   -3.25 KCAL/MOL
REMARK 922        TOTAL FREE ENERGY PREDICTED BY IDOCK:   -3.50 KCAL/MOL
REMARK 923 INTER-LIGAND FREE ENERGY PREDICTED BY IDOCK:   -3.45 KCAL/MOL
REMARK 924 INTRA-LIGAND FREE ENERGY PREDICTED BY IDOCK:   -0.05 KCAL/MOL
REMARK 927      BINDING AFFINITY PREDICTED BY RF-SCORE:    0.00 PKD
ROOT
HETATM    1  N   UNL     1     -11.100   7.001  67.617  1.00  0.00    -0.553 N  
HETATM    2  C   UNL     1     -10.354   8.026  68.139  1.00  0.00    -0.200 C  
HETATM    3  H1  UNL     1     -10.867   6.055  67.918  1.00  0.00     0.000 HD 
HETATM    4  H2  UNL     1     -11.856   7.177  66.955  1.00  0.00     0.000 HD 
HETATM    5  O   UNL     1     -10.634   9.163  67.777  1.00  0.00    -0.248 OA 
ENDROOT
BRANCH   2   6
HETATM    6  N   UNL     1      -9.426   7.640  69.121  1.00  0.00    -0.154 N  
HETATM    7  C   UNL     1      -8.023   7.751  68.875  1.00  0.00    -0.124 A  
HETATM    8  C   UNL     1      -7.487   8.957  68.394  1.00  0.00    -0.086 A  
HETATM    9  C   UNL     1      -6.123   9.073  68.129  1.00  0.00    -0.050 A  
HETATM   10  C   UNL     1      -5.283   7.980  68.328  1.00  0.00    -0.032 A  
HETATM   11  C   UNL     1      -5.808   6.774  68.791  1.00  0.00    -0.018 A  
HETATM   12  C   UNL     1      -7.178   6.653  69.058  1.00  0.00    -0.091 A  
HETATM   13  C   UNL     1      -7.761   5.365  69.546  1.00  0.00    -0.077 C  
HETATM   14  C   UNL     1      -8.173   5.488  70.985  1.00  0.00    -0.120 C  
HETATM   15  O   UNL     1      -7.698   4.729  71.831  1.00  0.00    -0.092 OA 
HETATM   16  C   UNL     1      -9.198   6.506  71.377  1.00  0.00    -0.148 A  
HETATM   17  C   UNL     1      -9.804   7.443  70.503  1.00  0.00    -0.180 A  
HETATM   18  C   UNL     1     -10.838   8.242  71.041  1.00  0.00    -0.269 A  
HETATM   19  C   UNL     1     -11.260   8.131  72.370  1.00  0.00    -0.452 A  
HETATM   20  C   UNL     1     -10.654   7.217  73.213  1.00  0.00    -0.405 A  
HETATM   21  C   UNL     1      -9.630   6.413  72.721  1.00  0.00    -0.154 A  
ENDBRANCH   2   6
TORSDOF 1
ENDMDL
MODEL      123
REMARK 921   NORMALIZED FREE ENERGY PREDICTED BY IDOCK:   -3.22 KCAL/MOL
REMARK 922        TOTAL FREE ENERGY PREDICTED BY IDOCK:   -3.48 KCAL/MOL
REMARK 923 INTER-LIGAND FREE ENERGY PREDICTED BY IDOCK:   -3.50 KCAL/MOL
REMARK 924 INTRA-LIGAND FREE ENERGY PREDICTED BY IDOCK:    0.02 KCAL/MOL
REMARK 927      BINDING AFFINITY PREDICTED BY RF-SCORE:    0.00 PKD
ROOT
HETATM    1  N   UNL     1      -7.555   9.754  70.339  1.00  0.00    -0.165 N  
HETATM    2  C   UNL     1      -8.843   9.383  70.051  1.00  0.00    -0.211 C  
HETATM    3  H1  UNL     1      -6.923   9.025  70.671  1.00  0.00     0.000 HD 
HETATM    4  H2  UNL     1      -7.241  10.718  70.225  1.00  0.00     0.000 HD 
HETATM    5  O   UNL     1      -9.602  10.260  69.652  1.00  0.00    -0.215 OA 
ENDROOT
BRANCH   2   6
HETATM    6  N   UNL     1      -9.097   8.004  70.147  1.00  0.00    -0.151 N  
HETATM    7  C   UNL     1      -9.387   7.408  71.412  1.00  0.00    -0.142 A  
HETATM    8  C   UNL     1     -10.374   7.966  72.242  1.00  0.00    -0.314 A  
HETATM    9  C   UNL     1     -10.654   7.406  73.489  1.00  0.00    -0.388 A  
HETATM   10  C   UNL     1      -9.939   6.293  73.924  1.00  0.00    -0.252 A  
HETATM   11  C   UNL     1      -8.948   5.741  73.114  1.00  0.00    -0.124 A  
HETATM   12  C   UNL     1      -8.663   6.299  71.861  1.00  0.00    -0.136 A  
HETATM   13  C   UNL     1      -7.597   5.727  70.982  1.00  0.00    -0.096 C  
HETATM   14  C   UNL     1      -8.210   5.044  69.792  1.00  0.00    -0.077 C  
HETATM   15  O   UNL     1      -7.981   3.852  69.579  1.00  0.00    -0.055 OA 
HETATM   16  C   UNL     1      -9.060   5.830  68.844  1.00  0.00    -0.121 A  
HETATM   17  C   UNL     1      -9.408   7.196  68.988  1.00  0.00    -0.140 A  
HETATM   18  C   UNL     1     -10.122   7.790  67.923  1.00  0.00    -0.232 A  
HETATM   19  C   UNL     1     -10.479   7.082  66.771  1.00  0.00    -0.297 A  
HETATM   20  C   UNL     1     -10.139   5.746  66.647  1.00  0.00    -0.235 A  
HETATM   21  C   UNL     1      -9.437   5.126  67.677  1.00  0.00    -0.145 A  
ENDBRANCH   2   6
TORSDOF 1
ENDMDL
MODEL      124
REMARK 921   NORMALIZED FREE ENERGY PREDICTED BY IDOCK:   -3.21 KCAL/MOL
REMARK 922        TOTAL FREE ENERGY PREDICTED BY IDOCK:   -3.47 KCAL/MOL
REMARK 923 INTER-LIGAND FREE ENERGY PREDICTED BY IDOCK:   -3.40 KCAL/MOL
REMARK 924 INTRA-LIGAND FREE ENERGY PREDICTED BY IDOCK:   -0.06 KCAL/MOL
REMARK 927      BINDING AFFINITY PREDICTED BY RF-SCORE:    0.00 PKD
ROOT
HETATM    1  N   UNL     1      -7.471   4.478  71.177  1.00  0.00    -0.058 N  
HETATM    2  C   UNL     1      -8.705   4.384  70.587  1.00  0.00    -0.090 C  
HETATM    3  H1  UNL     1      -6.972   5.362  71.075  1.00  0.00     0.000 HD 
HETATM    4  H2  UNL     1      -7.069   3.697  71.695  1.00  0.00     0.000 HD 
HETATM    5  O   UNL     1      -9.305   3.321  70.710  1.00  0.00    -0.126 OA 
ENDROOT
BRANCH   2   6
HETATM    6  N   UNL     1      -9.175   5.574  70.007  1.00  0.00    -0.137 N  
HETATM    7  C   UNL     1      -9.063   5.786  68.598  1.00  0.00    -0.114 A  
HETATM    8  C   UNL     1      -9.514   4.802  67.702  1.00  0.00    -0.176 A  
HETATM    9  C   UNL     1      -9.393   4.986  66.325  1.00  0.00    -0.151 A  
HETATM   10  C   UNL     1      -8.807   6.148  65.830  1.00  0.00    -0.151 A  
HETATM   11  C   UNL     1      -8.344   7.124  66.712  1.00  0.00    -0.116 A  
HETATM   12  C   UNL     1      -8.463   6.944  68.096  1.00  0.00    -0.124 A  
HETATM   13  C   UNL     1      -7.964   7.975  69.058  1.00  0.00    -0.114 C  
HETATM   14  C   UNL     1      -9.116   8.672  69.724  1.00  0.00    -0.150 C  
HETATM   15  O   UNL     1      -9.235   9.895  69.633  1.00  0.00    -0.203 OA 
HETATM   16  C   UNL     1     -10.090   7.878  70.538  1.00  0.00    -0.192 A  
HETATM   17  C   UNL     1     -10.070   6.471  70.705  1.00  0.00    -0.185 A  
HETATM   18  C   UNL     1     -11.006   5.922  71.610  1.00  0.00    -0.327 A  
HETATM   19  C   UNL     1     -11.919   6.710  72.317  1.00  0.00    -0.259 A  
HETATM   20  C   UNL     1     -11.932   8.082  72.138  1.00  0.00    -0.399 A  
HETATM   21  C   UNL     1     -11.027   8.660  71.254  1.00  0.00    -0.333 A  
ENDBRANCH   2   6
TORSDOF 1
ENDMDL
MODEL      125
REMARK 921   NORMALIZED FREE ENERGY PREDICTED BY IDOCK:   -3.15 KCAL/MOL
REMARK 922        TOTAL FREE ENERGY PREDICTED BY IDOCK:   -3.39 KCAL/MOL
REMARK 923 INTER-LIGAND FREE ENERGY PREDICTED BY IDOCK:   -3.96 KCAL/MOL
REMARK 924 INTRA-LIGAND FREE ENERGY PREDICTED BY IDOCK:    0.57 KCAL/MOL
REMARK 927      BINDING AFFINITY PREDICTED BY RF-SCORE:    0.00 PKD
ROOT
HETATM    1  N   UNL     1     -10.643   8.470  66.636  1.00  0.00    -0.268 N  
HETATM    2  C   UNL     1     -10.395   9.455  67.556  1.00  0.00    -0.255 C  
HETATM    3  H1  UNL     1     -10.323   8.633  65.681  1.00  0.00     0.000 HD 
HETATM    4  H2  UNL     1     -11.127   7.610  66.895  1.00  0.00     0.000 HD 
HETATM    5  O   UNL     1     -10.779   9.259  68.704  1.00  0.00    -0.209 OA 
ENDROOT
BRANCH   2   6
HETATM    6  N   UNL     1      -9.622  10.528  67.080  1.00  0.00    -0.166 N  
HETATM    7  C   UNL     1      -8.441  10.285  66.314  1.00  0.00    -0.135 A  
HETATM    8  C   UNL     1      -8.487   9.419  65.209  1.00  0.00    -0.161 A  
HETATM    9  C   UNL     1      -7.337   9.156  64.463  1.00  0.00    -0.099 A  
HETATM   10  C   UNL     1      -6.128   9.746  64.824  1.00  0.00    -0.093 A  
HETATM   11  C   UNL     1      -6.070  10.596  65.928  1.00  0.00    -0.138 A  
HETATM   12  C   UNL     1      -7.222  10.863  66.680  1.00  0.00    -0.139 A  
HETATM   13  C   UNL     1      -7.178  11.764  67.872  1.00  0.00    -0.092 C  
HETATM   14  C   UNL     1      -7.882  13.058  67.578  1.00  0.00    -0.178 C  
HETATM   15  O   UNL     1      -7.279  14.127  67.680  1.00  0.00    -0.155 OA 
HETATM   16  C   UNL     1      -9.332  13.043  67.205  1.00  0.00    -0.230 A  
HETATM   17  C   UNL     1     -10.127  11.882  67.039  1.00  0.00    -0.205 A  
HETATM   18  C   UNL     1     -11.506  12.082  66.802  1.00  0.00    -0.410 A  
HETATM   19  C   UNL     1     -12.080  13.355  66.730  1.00  0.00    -0.419 A  
HETATM   20  C   UNL     1     -11.289  14.479  66.887  1.00  0.00    -0.355 A  
HETATM   21  C   UNL     1      -9.926  14.324  67.120  1.00  0.00    -0.255 A  
ENDBRANCH   2   6
TORSDOF 1
ENDMDL
MODEL      126
REMARK 921   NORMALIZED FREE ENERGY PREDICTED BY IDOCK:   -3.11 KCAL/MOL
REMARK 922        TOTAL FREE ENERGY PREDICTED BY IDOCK:   -3.35 KCAL/MOL
REMARK 923 INTER-LIGAND FREE ENERGY PREDICTED BY IDOCK:   -3.68 KCAL/MOL
REMARK 924 INTRA-LIGAND FREE ENERGY PREDICTED BY IDOCK:    0.33 KCAL/MOL
REMARK 927      BINDING AFFINITY PREDICTED BY RF-SCORE:    0.00 PKD
ROOT
HETATM    1  N   UNL     1      -8.395   5.868  71.276  1.00  0.00    -0.123 N  
HETATM    2  C   UNL     1      -7.935   6.809  70.392  1.00  0.00    -0.115 C  
HETATM    3  H1  UNL     1      -9.361   5.557  71.165  1.00  0.00     0.000 HD 
HETATM    4  H2  UNL     1      -7.798   5.496  72.014  1.00  0.00     0.000 HD 
HETATM    5  O   UNL     1      -6.775   7.184  70.525  1.00  0.00    -0.050 OA 
ENDROOT
BRANCH   2   6
HETATM    6  N   UNL     1      -8.833   7.143  69.363  1.00  0.00    -0.137 N  
HETATM    7  C   UNL     1      -9.118   6.210  68.319  1.00  0.00    -0.112 A  
HETATM    8  C   UNL     1      -9.483   4.891  68.637  1.00  0.00    -0.198 A  
HETATM    9  C   UNL     1      -9.744   3.963  67.628  1.00  0.00    -0.156 A  
HETATM   10  C   UNL     1      -9.628   4.341  66.293  1.00  0.00    -0.204 A  
HETATM   11  C   UNL     1      -9.252   5.645  65.968  1.00  0.00    -0.164 A  
HETATM   12  C   UNL     1      -8.990   6.580  66.978  1.00  0.00    -0.121 A  
HETATM   13  C   UNL     1      -8.576   7.979  66.649  1.00  0.00    -0.141 C  
HETATM   14  C   UNL     1      -9.684   8.942  66.972  1.00  0.00    -0.190 C  
HETATM   15  O   UNL     1     -10.148   9.667  66.091  1.00  0.00    -0.277 OA 
HETATM   16  C   UNL     1     -10.187   9.047  68.378  1.00  0.00    -0.232 A  
HETATM   17  C   UNL     1      -9.747   8.259  69.471  1.00  0.00    -0.174 A  
HETATM   18  C   UNL     1     -10.260   8.592  70.745  1.00  0.00    -0.250 A  
HETATM   19  C   UNL     1     -11.159   9.645  70.942  1.00  0.00    -0.422 A  
HETATM   20  C   UNL     1     -11.585  10.401  69.864  1.00  0.00    -0.358 A  
HETATM   21  C   UNL     1     -11.104  10.102  68.593  1.00  0.00    -0.254 A  
ENDBRANCH   2   6
TORSDOF 1
ENDMDL
MODEL      127
REMARK 921   NORMALIZED FREE ENERGY PREDICTED BY IDOCK:   -3.07 KCAL/MOL
REMARK 922        TOTAL FREE ENERGY PREDICTED BY IDOCK:   -3.31 KCAL/MOL
REMARK 923 INTER-LIGAND FREE ENERGY PREDICTED BY IDOCK:   -3.29 KCAL/MOL
REMARK 924 INTRA-LIGAND FREE ENERGY PREDICTED BY IDOCK:   -0.03 KCAL/MOL
REMARK 927      BINDING AFFINITY PREDICTED BY RF-SCORE:    0.00 PKD
ROOT
HETATM    1  N   UNL     1     -11.032   5.991  68.221  1.00  0.00    -0.300 N  
HETATM    2  C   UNL     1      -9.978   5.260  68.704  1.00  0.00    -0.168 C  
HETATM    3  H1  UNL     1     -11.313   6.813  68.756  1.00  0.00     0.000 HD 
HETATM    4  H2  UNL     1     -11.515   5.725  67.363  1.00  0.00     0.000 HD 
HETATM    5  O   UNL     1      -9.640   4.272  68.061  1.00  0.00    -0.161 OA 
ENDROOT
BRANCH   2   6
HETATM    6  N   UNL     1      -9.342   5.812  69.830  1.00  0.00    -0.145 N  
HETATM    7  C   UNL     1      -9.777   5.470  71.147  1.00  0.00    -0.174 A  
HETATM    8  C   UNL     1      -9.934   4.120  71.506  1.00  0.00    -0.230 A  
HETATM    9  C   UNL     1     -10.378   3.772  72.782  1.00  0.00    -0.238 A  
HETATM   10  C   UNL     1     -10.683   4.768  73.706  1.00  0.00    -0.359 A  
HETATM   11  C   UNL     1     -10.544   6.110  73.353  1.00  0.00    -0.288 A  
HETATM   12  C   UNL     1     -10.098   6.465  72.074  1.00  0.00    -0.197 A  
HETATM   13  C   UNL     1      -9.952   7.899  71.674  1.00  0.00    -0.227 C  
HETATM   14  C   UNL     1      -8.500   8.263  71.550  1.00  0.00    -0.140 C  
HETATM   15  O   UNL     1      -8.033   9.180  72.227  1.00  0.00    -0.290 OA 
HETATM   16  C   UNL     1      -7.636   7.537  70.566  1.00  0.00    -0.085 A  
HETATM   17  C   UNL     1      -8.051   6.458  69.746  1.00  0.00    -0.121 A  
HETATM   18  C   UNL     1      -7.119   5.984  68.795  1.00  0.00    -0.081 A  
HETATM   19  C   UNL     1      -5.842   6.537  68.653  1.00  0.00    -0.021 A  
HETATM   20  C   UNL     1      -5.449   7.585  69.467  1.00  0.00    -0.023 A  
HETATM   21  C   UNL     1      -6.339   8.078  70.416  1.00  0.00    -0.036 A  
ENDBRANCH   2   6
TORSDOF 1
ENDMDL
MODEL      128
REMARK 921   NORMALIZED FREE ENERGY PREDICTED BY IDOCK:   -3.06 KCAL/MOL
REMARK 922        TOTAL FREE ENERGY PREDICTED BY IDOCK:   -3.30 KCAL/MOL
REMARK 923 INTER-LIGAND FREE ENERGY PREDICTED BY IDOCK:   -3.34 KCAL/MOL
REMARK 924 INTRA-LIGAND FREE ENERGY PREDICTED BY IDOCK:    0.04 KCAL/MOL
REMARK 927      BINDING AFFINITY PREDICTED BY RF-SCORE:    0.00 PKD
ROOT
HETATM    1  N   UNL     1      -7.221  13.591  69.027  1.00  0.00    -0.235 N  
HETATM    2  C   UNL     1      -7.030  12.577  68.126  1.00  0.00    -0.089 C  
HETATM    3  H1  UNL     1      -8.113  13.614  69.520  1.00  0.00     0.000 HD 
HETATM    4  H2  UNL     1      -6.501  14.294  69.196  1.00  0.00     0.000 HD 
HETATM    5  O   UNL     1      -5.957  12.549  67.532  1.00  0.00    -0.125 OA 
ENDROOT
BRANCH   2   6
HETATM    6  N   UNL     1      -8.061  11.623  68.082  1.00  0.00    -0.140 N  
HETATM    7  C   UNL     1      -9.255  11.880  67.342  1.00  0.00    -0.177 A  
HETATM    8  C   UNL     1      -9.174  12.314  66.008  1.00  0.00    -0.086 A  
HETATM    9  C   UNL     1     -10.331  12.590  65.279  1.00  0.00    -0.310 A  
HETATM   10  C   UNL     1     -11.579  12.449  65.880  1.00  0.00    -0.449 A  
HETATM   11  C   UNL     1     -11.669  12.032  67.208  1.00  0.00    -0.339 A  
HETATM   12  C   UNL     1     -10.510  11.754  67.944  1.00  0.00    -0.219 A  
HETATM   13  C   UNL     1     -10.585  11.316  69.372  1.00  0.00    -0.142 C  
HETATM   14  C   UNL     1     -10.205   9.868  69.496  1.00  0.00    -0.225 C  
HETATM   15  O   UNL     1     -10.997   9.061  69.986  1.00  0.00    -0.235 OA 
HETATM   16  C   UNL     1      -8.843   9.420  69.065  1.00  0.00    -0.141 A  
HETATM   17  C   UNL     1      -7.854  10.246  68.475  1.00  0.00    -0.097 A  
HETATM   18  C   UNL     1      -6.587   9.662  68.248  1.00  0.00    -0.057 A  
HETATM   19  C   UNL     1      -6.301   8.334  68.581  1.00  0.00    -0.053 A  
HETATM   20  C   UNL     1      -7.279   7.538  69.151  1.00  0.00    -0.084 A  
HETATM   21  C   UNL     1      -8.540   8.077  69.388  1.00  0.00    -0.136 A  
ENDBRANCH   2   6
TORSDOF 1
ENDMDL
MODEL      129
REMARK 921   NORMALIZED FREE ENERGY PREDICTED BY IDOCK:   -3.06 KCAL/MOL
REMARK 922        TOTAL FREE ENERGY PREDICTED BY IDOCK:   -3.30 KCAL/MOL
REMARK 923 INTER-LIGAND FREE ENERGY PREDICTED BY IDOCK:   -3.52 KCAL/MOL
REMARK 924 INTRA-LIGAND FREE ENERGY PREDICTED BY IDOCK:    0.22 KCAL/MOL
REMARK 927      BINDING AFFINITY PREDICTED BY RF-SCORE:    0.00 PKD
ROOT
HETATM    1  N   UNL     1     -10.262   8.865  67.811  1.00  0.00    -0.214 N  
HETATM    2  C   UNL     1     -10.511   7.518  67.847  1.00  0.00    -0.204 C  
HETATM    3  H1  UNL     1      -9.881   9.292  68.656  1.00  0.00     0.000 HD 
HETATM    4  H2  UNL     1     -10.449   9.418  66.974  1.00  0.00     0.000 HD 
HETATM    5  O   UNL     1     -10.968   7.005  66.831  1.00  0.00    -0.371 OA 
ENDROOT
BRANCH   2   6
HETATM    6  N   UNL     1     -10.098   6.872  69.025  1.00  0.00    -0.165 N  
HETATM    7  C   UNL     1     -10.670   7.229  70.285  1.00  0.00    -0.236 A  
HETATM    8  C   UNL     1     -12.066   7.285  70.432  1.00  0.00    -0.067 A  
HETATM    9  C   UNL     1     -12.638   7.652  71.650  1.00  0.00    -0.365 A  
HETATM   10  C   UNL     1     -11.820   7.980  72.728  1.00  0.00    -0.303 A  
HETATM   11  C   UNL     1     -10.433   7.941  72.588  1.00  0.00    -0.384 A  
HETATM   12  C   UNL     1      -9.854   7.573  71.366  1.00  0.00    -0.191 A  
HETATM   13  C   UNL     1      -8.369   7.535  71.193  1.00  0.00    -0.109 C  
HETATM   14  C   UNL     1      -7.891   6.115  71.082  1.00  0.00    -0.111 C  
HETATM   15  O   UNL     1      -7.060   5.678  71.881  1.00  0.00    -0.080 OA 
HETATM   16  C   UNL     1      -8.395   5.249  69.970  1.00  0.00    -0.098 A  
HETATM   17  C   UNL     1      -9.359   5.629  69.003  1.00  0.00    -0.124 A  
HETATM   18  C   UNL     1      -9.615   4.709  67.961  1.00  0.00    -0.207 A  
HETATM   19  C   UNL     1      -8.960   3.477  67.868  1.00  0.00    -0.174 A  
HETATM   20  C   UNL     1      -8.026   3.118  68.823  1.00  0.00    -0.064 A  
HETATM   21  C   UNL     1      -7.748   3.996  69.866  1.00  0.00    -0.052 A  
ENDBRANCH   2   6
TORSDOF 1
ENDMDL
MODEL      130
REMARK 921   NORMALIZED FREE ENERGY PREDICTED BY IDOCK:   -3.05 KCAL/MOL
REMARK 922        TOTAL FREE ENERGY PREDICTED BY IDOCK:   -3.30 KCAL/MOL
REMARK 923 INTER-LIGAND FREE ENERGY PREDICTED BY IDOCK:   -3.49 KCAL/MOL
REMARK 924 INTRA-LIGAND FREE ENERGY PREDICTED BY IDOCK:    0.19 KCAL/MOL
REMARK 927      BINDING AFFINITY PREDICTED BY RF-SCORE:    0.00 PKD
ROOT
HETATM    1  N   UNL     1      -8.845  15.568  70.035  1.00  0.00    -0.102 N  
HETATM    2  C   UNL     1     -10.109  15.045  70.120  1.00  0.00     0.074 C  
HETATM    3  H1  UNL     1      -8.281  15.297  69.229  1.00  0.00     0.000 HD 
HETATM    4  H2  UNL     1      -8.483  16.202  70.748  1.00  0.00     0.000 HD 
HETATM    5  O   UNL     1     -10.786  15.371  71.089  1.00  0.00    -0.243 OA 
ENDROOT
BRANCH   2   6
HETATM    6  N   UNL     1     -10.508  14.281  69.010  1.00  0.00    -0.231 N  
HETATM    7  C   UNL     1     -11.159  13.023  69.194  1.00  0.00    -0.192 A  
HETATM    8  C   UNL     1     -12.264  12.923  70.056  1.00  0.00    -0.292 A  
HETATM    9  C   UNL     1     -12.898  11.697  70.261  1.00  0.00     0.095 A  
HETATM   10  C   UNL     1     -12.423  10.557  69.618  1.00  0.00    -0.062 A  
HETATM   11  C   UNL     1     -11.318  10.643  68.772  1.00  0.00    -0.339 A  
HETATM   12  C   UNL     1     -10.679  11.872  68.563  1.00  0.00    -0.254 A  
HETATM   13  C   UNL     1      -9.487  11.983  67.666  1.00  0.00    -0.185 C  
HETATM   14  C   UNL     1      -9.846  12.716  66.405  1.00  0.00    -0.259 C  
HETATM   15  O   UNL     1      -9.686  12.175  65.309  1.00  0.00    -0.230 OA 
HETATM   16  C   UNL     1     -10.355  14.121  66.484  1.00  0.00    -0.284 A  
HETATM   17  C   UNL     1     -10.596  14.843  67.680  1.00  0.00    -0.264 A  
HETATM   18  C   UNL     1     -10.963  16.200  67.543  1.00  0.00    -0.238 A  
HETATM   19  C   UNL     1     -11.088  16.824  66.297  1.00  0.00     0.318 A  
HETATM   20  C   UNL     1     -10.856  16.104  65.138  1.00  0.00    -0.376 A  
HETATM   21  C   UNL     1     -10.495  14.764  65.232  1.00  0.00    -0.427 A  
ENDBRANCH   2   6
TORSDOF 1
ENDMDL
MODEL      131
REMARK 921   NORMALIZED FREE ENERGY PREDICTED BY IDOCK:   -3.05 KCAL/MOL
REMARK 922        TOTAL FREE ENERGY PREDICTED BY IDOCK:   -3.29 KCAL/MOL
REMARK 923 INTER-LIGAND FREE ENERGY PREDICTED BY IDOCK:   -3.40 KCAL/MOL
REMARK 924 INTRA-LIGAND FREE ENERGY PREDICTED BY IDOCK:    0.11 KCAL/MOL
REMARK 927      BINDING AFFINITY PREDICTED BY RF-SCORE:    0.00 PKD
ROOT
HETATM    1  N   UNL     1      -8.997   6.685  73.415  1.00  0.00    -0.123 N  
HETATM    2  C   UNL     1      -9.459   6.019  72.309  1.00  0.00    -0.150 C  
HETATM    3  H1  UNL     1      -8.566   7.597  73.263  1.00  0.00     0.000 HD 
HETATM    4  H2  UNL     1      -9.081   6.284  74.349  1.00  0.00     0.000 HD 
HETATM    5  O   UNL     1      -9.977   4.923  72.490  1.00  0.00    -0.162 OA 
ENDROOT
BRANCH   2   6
HETATM    6  N   UNL     1      -9.377   6.743  71.107  1.00  0.00    -0.159 N  
HETATM    7  C   UNL     1      -8.785   6.155  69.947  1.00  0.00    -0.136 A  
HETATM    8  C   UNL     1      -9.194   4.881  69.518  1.00  0.00    -0.171 A  
HETATM    9  C   UNL     1      -8.611   4.286  68.399  1.00  0.00    -0.109 A  
HETATM   10  C   UNL     1      -7.602   4.952  67.708  1.00  0.00    -0.083 A  
HETATM   11  C   UNL     1      -7.179   6.211  68.135  1.00  0.00    -0.084 A  
HETATM   12  C   UNL     1      -7.762   6.812  69.257  1.00  0.00    -0.105 A  
HETATM   13  C   UNL     1      -7.315   8.157  69.736  1.00  0.00    -0.065 C  
HETATM   14  C   UNL     1      -8.374   9.188  69.466  1.00  0.00    -0.126 C  
HETATM   15  O   UNL     1      -8.114  10.175  68.775  1.00  0.00    -0.099 OA 
HETATM   16  C   UNL     1      -9.732   9.033  70.078  1.00  0.00    -0.203 A  
HETATM   17  C   UNL     1     -10.156   7.939  70.873  1.00  0.00    -0.190 A  
HETATM   18  C   UNL     1     -11.438   8.035  71.458  1.00  0.00    -0.303 A  
HETATM   19  C   UNL     1     -12.267   9.147  71.275  1.00  0.00    -0.395 A  
HETATM   20  C   UNL     1     -11.842  10.204  70.490  1.00  0.00    -0.408 A  
HETATM   21  C   UNL     1     -10.586  10.145  69.895  1.00  0.00    -0.331 A  
ENDBRANCH   2   6
TORSDOF 1
ENDMDL
MODEL      132
REMARK 921   NORMALIZED FREE ENERGY PREDICTED BY IDOCK:   -3.04 KCAL/MOL
REMARK 922        TOTAL FREE ENERGY PREDICTED BY IDOCK:   -3.28 KCAL/MOL
REMARK 923 INTER-LIGAND FREE ENERGY PREDICTED BY IDOCK:   -3.59 KCAL/MOL
REMARK 924 INTRA-LIGAND FREE ENERGY PREDICTED BY IDOCK:    0.30 KCAL/MOL
REMARK 927      BINDING AFFINITY PREDICTED BY RF-SCORE:    0.00 PKD
ROOT
HETATM    1  N   UNL     1      -8.118   3.012  70.628  1.00  0.00    -0.046 N  
HETATM    2  C   UNL     1      -8.904   3.372  69.565  1.00  0.00    -0.092 C  
HETATM    3  H1  UNL     1      -7.695   3.765  71.171  1.00  0.00     0.000 HD 
HETATM    4  H2  UNL     1      -7.962   2.033  70.867  1.00  0.00     0.000 HD 
HETATM    5  O   UNL     1      -9.412   2.466  68.912  1.00  0.00    -0.158 OA 
ENDROOT
BRANCH   2   6
HETATM    6  N   UNL     1      -9.118   4.754  69.429  1.00  0.00    -0.098 N  
HETATM    7  C   UNL     1     -10.131   5.409  70.194  1.00  0.00    -0.252 A  
HETATM    8  C   UNL     1     -10.194   5.219  71.585  1.00  0.00    -0.274 A  
HETATM    9  C   UNL     1     -11.190   5.835  72.343  1.00  0.00    -0.343 A  
HETATM   10  C   UNL     1     -12.141   6.635  71.716  1.00  0.00    -0.400 A  
HETATM   11  C   UNL     1     -12.096   6.818  70.334  1.00  0.00    -0.270 A  
HETATM   12  C   UNL     1     -11.098   6.201  69.569  1.00  0.00    -0.490 A  
HETATM   13  C   UNL     1     -11.039   6.378  68.085  1.00  0.00    -0.358 C  
HETATM   14  C   UNL     1      -9.864   7.234  67.706  1.00  0.00    -0.149 C  
HETATM   15  O   UNL     1     -10.038   8.277  67.073  1.00  0.00    -0.226 OA 
HETATM   16  C   UNL     1      -8.479   6.790  68.060  1.00  0.00    -0.120 A  
HETATM   17  C   UNL     1      -8.152   5.625  68.797  1.00  0.00    -0.100 A  
HETATM   18  C   UNL     1      -6.779   5.315  68.925  1.00  0.00    -0.053 A  
HETATM   19  C   UNL     1      -5.774   6.108  68.361  1.00  0.00    -0.012 A  
HETATM   20  C   UNL     1      -6.109   7.247  67.650  1.00  0.00    -0.042 A  
HETATM   21  C   UNL     1      -7.450   7.585  67.504  1.00  0.00    -0.104 A  
ENDBRANCH   2   6
TORSDOF 1
ENDMDL
MODEL      133
REMARK 921   NORMALIZED FREE ENERGY PREDICTED BY IDOCK:   -3.03 KCAL/MOL
REMARK 922        TOTAL FREE ENERGY PREDICTED BY IDOCK:   -3.27 KCAL/MOL
REMARK 923 INTER-LIGAND FREE ENERGY PREDICTED BY IDOCK:   -3.77 KCAL/MOL
REMARK 924 INTRA-LIGAND FREE ENERGY PREDICTED BY IDOCK:    0.49 KCAL/MOL
REMARK 927      BINDING AFFINITY PREDICTED BY RF-SCORE:    0.00 PKD
ROOT
HETATM    1  N   UNL     1     -11.034   7.666  67.590  1.00  0.00    -0.521 N  
HETATM    2  C   UNL     1     -10.532   8.939  67.671  1.00  0.00    -0.255 C  
HETATM    3  H1  UNL     1     -10.865   7.047  68.384  1.00  0.00     0.000 HD 
HETATM    4  H2  UNL     1     -11.554   7.351  66.772  1.00  0.00     0.000 HD 
HETATM    5  O   UNL     1     -10.735   9.683  66.718  1.00  0.00    -0.180 OA 
ENDROOT
BRANCH   2   6
HETATM    6  N   UNL     1      -9.938   9.263  68.903  1.00  0.00    -0.176 N  
HETATM    7  C   UNL     1      -8.885  10.227  68.968  1.00  0.00    -0.168 A  
HETATM    8  C   UNL     1      -9.043  11.482  68.358  1.00  0.00    -0.185 A  
HETATM    9  C   UNL     1      -8.016  12.425  68.395  1.00  0.00    -0.149 A  
HETATM   10  C   UNL     1      -6.816  12.117  69.030  1.00  0.00    -0.098 A  
HETATM   11  C   UNL     1      -6.644  10.868  69.626  1.00  0.00    -0.123 A  
HETATM   12  C   UNL     1      -7.673   9.918  69.591  1.00  0.00    -0.149 A  
HETATM   13  C   UNL     1      -7.504   8.570  70.217  1.00  0.00    -0.064 C  
HETATM   14  C   UNL     1      -8.350   8.456  71.453  1.00  0.00    -0.145 C  
HETATM   15  O   UNL     1      -7.826   8.200  72.539  1.00  0.00    -0.117 OA 
HETATM   16  C   UNL     1      -9.835   8.610  71.351  1.00  0.00    -0.327 A  
HETATM   17  C   UNL     1     -10.551   8.921  70.168  1.00  0.00    -0.222 A  
HETATM   18  C   UNL     1     -11.961   8.905  70.253  1.00  0.00     0.205 A  
HETATM   19  C   UNL     1     -12.640   8.600  71.437  1.00  0.00    -0.325 A  
HETATM   20  C   UNL     1     -11.927   8.306  72.586  1.00  0.00    -0.360 A  
HETATM   21  C   UNL     1     -10.537   8.314  72.542  1.00  0.00    -0.407 A  
ENDBRANCH   2   6
TORSDOF 1
ENDMDL
MODEL      134
REMARK 921   NORMALIZED FREE ENERGY PREDICTED BY IDOCK:   -3.03 KCAL/MOL
REMARK 922        TOTAL FREE ENERGY PREDICTED BY IDOCK:   -3.27 KCAL/MOL
REMARK 923 INTER-LIGAND FREE ENERGY PREDICTED BY IDOCK:   -3.37 KCAL/MOL
REMARK 924 INTRA-LIGAND FREE ENERGY PREDICTED BY IDOCK:    0.10 KCAL/MOL
REMARK 927      BINDING AFFINITY PREDICTED BY RF-SCORE:    0.00 PKD
ROOT
HETATM    1  N   UNL     1     -11.945   6.744  70.273  1.00  0.00    -0.609 N  
HETATM    2  C   UNL     1     -10.592   6.802  70.483  1.00  0.00    -0.225 C  
HETATM    3  H1  UNL     1     -12.268   6.771  69.306  1.00  0.00     0.000 HD 
HETATM    4  H2  UNL     1     -12.601   6.678  71.052  1.00  0.00     0.000 HD 
HETATM    5  O   UNL     1     -10.203   6.770  71.645  1.00  0.00    -0.192 OA 
ENDROOT
BRANCH   2   6
HETATM    6  N   UNL     1      -9.811   6.776  69.315  1.00  0.00    -0.154 N  
HETATM    7  C   UNL     1      -9.735   7.926  68.469  1.00  0.00    -0.161 A  
HETATM    8  C   UNL     1      -9.434   9.183  69.020  1.00  0.00    -0.152 A  
HETATM    9  C   UNL     1      -9.376  10.318  68.210  1.00  0.00    -0.140 A  
HETATM   10  C   UNL     1      -9.634  10.209  66.846  1.00  0.00    -0.219 A  
HETATM   11  C   UNL     1      -9.948   8.968  66.293  1.00  0.00    -0.352 A  
HETATM   12  C   UNL     1     -10.006   7.825  67.102  1.00  0.00    -0.298 A  
HETATM   13  C   UNL     1     -10.350   6.487  66.530  1.00  0.00    -0.132 C  
HETATM   14  C   UNL     1      -9.141   5.597  66.515  1.00  0.00    -0.138 C  
HETATM   15  O   UNL     1      -8.740   5.116  65.454  1.00  0.00    -0.140 OA 
HETATM   16  C   UNL     1      -8.454   5.260  67.802  1.00  0.00    -0.105 A  
HETATM   17  C   UNL     1      -8.808   5.760  69.080  1.00  0.00    -0.111 A  
HETATM   18  C   UNL     1      -8.113   5.229  70.189  1.00  0.00    -0.087 A  
HETATM   19  C   UNL     1      -7.118   4.255  70.056  1.00  0.00    -0.042 A  
HETATM   20  C   UNL     1      -6.778   3.781  68.801  1.00  0.00    -0.045 A  
HETATM   21  C   UNL     1      -7.439   4.282  67.685  1.00  0.00    -0.069 A  
ENDBRANCH   2   6
TORSDOF 1
ENDMDL
MODEL      135
REMARK 921   NORMALIZED FREE ENERGY PREDICTED BY IDOCK:   -3.03 KCAL/MOL
REMARK 922        TOTAL FREE ENERGY PREDICTED BY IDOCK:   -3.27 KCAL/MOL
REMARK 923 INTER-LIGAND FREE ENERGY PREDICTED BY IDOCK:   -3.20 KCAL/MOL
REMARK 924 INTRA-LIGAND FREE ENERGY PREDICTED BY IDOCK:   -0.06 KCAL/MOL
REMARK 927      BINDING AFFINITY PREDICTED BY RF-SCORE:    0.00 PKD
ROOT
HETATM    1  N   UNL     1     -11.430   6.410  67.421  1.00  0.00    -0.697 N  
HETATM    2  C   UNL     1     -11.015   6.337  68.725  1.00  0.00    -0.352 C  
HETATM    3  H1  UNL     1     -10.708   6.495  66.705  1.00  0.00     0.000 HD 
HETATM    4  H2  UNL     1     -12.420   6.381  67.176  1.00  0.00     0.000 HD 
HETATM    5  O   UNL     1     -11.883   6.235  69.585  1.00  0.00    -0.290 OA 
ENDROOT
BRANCH   2   6
HETATM    6  N   UNL     1      -9.622   6.275  68.899  1.00  0.00    -0.126 N  
HETATM    7  C   UNL     1      -8.888   7.436  69.294  1.00  0.00    -0.136 A  
HETATM    8  C   UNL     1      -9.309   8.187  70.404  1.00  0.00    -0.158 A  
HETATM    9  C   UNL     1      -8.616   9.335  70.790  1.00  0.00    -0.254 A  
HETATM   10  C   UNL     1      -7.505   9.750  70.060  1.00  0.00    -0.158 A  
HETATM   11  C   UNL     1      -7.088   9.019  68.948  1.00  0.00    -0.069 A  
HETATM   12  C   UNL     1      -7.781   7.866  68.558  1.00  0.00    -0.114 A  
HETATM   13  C   UNL     1      -7.356   7.073  67.363  1.00  0.00    -0.092 C  
HETATM   14  C   UNL     1      -6.762   5.761  67.788  1.00  0.00    -0.058 C  
HETATM   15  O   UNL     1      -5.610   5.469  67.461  1.00  0.00    -0.011 OA 
HETATM   16  C   UNL     1      -7.591   4.792  68.572  1.00  0.00    -0.073 A  
HETATM   17  C   UNL     1      -8.916   5.018  69.021  1.00  0.00    -0.097 A  
HETATM   18  C   UNL     1      -9.572   3.933  69.644  1.00  0.00    -0.259 A  
HETATM   19  C   UNL     1      -8.963   2.686  69.820  1.00  0.00    -0.167 A  
HETATM   20  C   UNL     1      -7.666   2.483  69.382  1.00  0.00    -0.046 A  
HETATM   21  C   UNL     1      -6.986   3.529  68.766  1.00  0.00    -0.046 A  
ENDBRANCH   2   6
TORSDOF 1
ENDMDL
MODEL      136
REMARK 921   NORMALIZED FREE ENERGY PREDICTED BY IDOCK:   -2.95 KCAL/MOL
REMARK 922        TOTAL FREE ENERGY PREDICTED BY IDOCK:   -3.19 KCAL/MOL
REMARK 923 INTER-LIGAND FREE ENERGY PREDICTED BY IDOCK:   -3.49 KCAL/MOL
REMARK 924 INTRA-LIGAND FREE ENERGY PREDICTED BY IDOCK:    0.31 KCAL/MOL
REMARK 927      BINDING AFFINITY PREDICTED BY RF-SCORE:    0.00 PKD
ROOT
HETATM    1  N   UNL     1      -6.309   6.291  72.220  1.00  0.00    -0.052 N  
HETATM    2  C   UNL     1      -7.293   7.122  72.689  1.00  0.00    -0.076 C  
HETATM    3  H1  UNL     1      -6.581   5.587  71.533  1.00  0.00     0.000 HD 
HETATM    4  H2  UNL     1      -5.345   6.373  72.544  1.00  0.00     0.000 HD 
HETATM    5  O   UNL     1      -6.966   7.968  73.514  1.00  0.00    -0.108 OA 
ENDROOT
BRANCH   2   6
HETATM    6  N   UNL     1      -8.544   6.965  72.068  1.00  0.00    -0.121 N  
HETATM    7  C   UNL     1      -8.781   7.506  70.768  1.00  0.00    -0.140 A  
HETATM    8  C   UNL     1      -7.879   7.243  69.723  1.00  0.00    -0.117 A  
HETATM    9  C   UNL     1      -8.086   7.782  68.453  1.00  0.00    -0.124 A  
HETATM   10  C   UNL     1      -9.188   8.600  68.219  1.00  0.00    -0.140 A  
HETATM   11  C   UNL     1     -10.081   8.879  69.253  1.00  0.00    -0.205 A  
HETATM   12  C   UNL     1      -9.877   8.340  70.530  1.00  0.00    -0.197 A  
HETATM   13  C   UNL     1     -10.818   8.635  71.655  1.00  0.00    -0.374 C  
HETATM   14  C   UNL     1     -11.622   7.413  71.999  1.00  0.00    -0.284 C  
HETATM   15  O   UNL     1     -12.853   7.449  71.950  1.00  0.00    -0.317 OA 
HETATM   16  C   UNL     1     -10.922   6.168  72.448  1.00  0.00    -0.299 A  
HETATM   17  C   UNL     1      -9.517   5.998  72.530  1.00  0.00    -0.147 A  
HETATM   18  C   UNL     1      -9.052   4.787  73.090  1.00  0.00    -0.121 A  
HETATM   19  C   UNL     1      -9.919   3.790  73.549  1.00  0.00    -0.172 A  
HETATM   20  C   UNL     1     -11.288   3.967  73.455  1.00  0.00    -0.280 A  
HETATM   21  C   UNL     1     -11.784   5.146  72.907  1.00  0.00    -0.220 A  
ENDBRANCH   2   6
TORSDOF 1
ENDMDL
MODEL      137
REMARK 921   NORMALIZED FREE ENERGY PREDICTED BY IDOCK:   -2.92 KCAL/MOL
REMARK 922        TOTAL FREE ENERGY PREDICTED BY IDOCK:   -3.16 KCAL/MOL
REMARK 923 INTER-LIGAND FREE ENERGY PREDICTED BY IDOCK:   -3.63 KCAL/MOL
REMARK 924 INTRA-LIGAND FREE ENERGY PREDICTED BY IDOCK:    0.47 KCAL/MOL
REMARK 927      BINDING AFFINITY PREDICTED BY RF-SCORE:    0.00 PKD
ROOT
HETATM    1  N   UNL     1      -7.956  10.821  68.645  1.00  0.00    -0.124 N  
HETATM    2  C   UNL     1      -7.367  11.817  67.911  1.00  0.00    -0.098 C  
HETATM    3  H1  UNL     1      -8.671  11.098  69.318  1.00  0.00     0.000 HD 
HETATM    4  H2  UNL     1      -7.690   9.844  68.524  1.00  0.00     0.000 HD 
HETATM    5  O   UNL     1      -6.508  11.484  67.102  1.00  0.00    -0.096 OA 
ENDROOT
BRANCH   2   6
HETATM    6  N   UNL     1      -7.914  13.097  68.105  1.00  0.00    -0.144 N  
HETATM    7  C   UNL     1      -9.319  13.315  67.957  1.00  0.00    -0.218 A  
HETATM    8  C   UNL     1     -10.232  12.480  68.623  1.00  0.00    -0.166 A  
HETATM    9  C   UNL     1     -11.607  12.668  68.471  1.00  0.00    -0.363 A  
HETATM   10  C   UNL     1     -12.080  13.681  67.642  1.00  0.00    -0.328 A  
HETATM   11  C   UNL     1     -11.181  14.506  66.967  1.00  0.00    -0.342 A  
HETATM   12  C   UNL     1      -9.800  14.321  67.116  1.00  0.00    -0.252 A  
HETATM   13  C   UNL     1      -8.820  15.189  66.392  1.00  0.00    -0.277 C  
HETATM   14  C   UNL     1      -8.124  16.109  67.355  1.00  0.00    -0.159 C  
HETATM   15  O   UNL     1      -8.185  17.329  67.197  1.00  0.00    -0.193 OA 
HETATM   16  C   UNL     1      -7.318  15.533  68.478  1.00  0.00    -0.120 A  
HETATM   17  C   UNL     1      -7.185  14.154  68.772  1.00  0.00    -0.120 A  
HETATM   18  C   UNL     1      -6.283  13.805  69.802  1.00  0.00    -0.126 A  
HETATM   19  C   UNL     1      -5.546  14.759  70.511  1.00  0.00    -0.144 A  
HETATM   20  C   UNL     1      -5.693  16.104  70.217  1.00  0.00    -0.149 A  
HETATM   21  C   UNL     1      -6.573  16.486  69.211  1.00  0.00    -0.207 A  
ENDBRANCH   2   6
TORSDOF 1
ENDMDL
MODEL      138
REMARK 921   NORMALIZED FREE ENERGY PREDICTED BY IDOCK:   -2.92 KCAL/MOL
REMARK 922        TOTAL FREE ENERGY PREDICTED BY IDOCK:   -3.15 KCAL/MOL
REMARK 923 INTER-LIGAND FREE ENERGY PREDICTED BY IDOCK:   -3.71 KCAL/MOL
REMARK 924 INTRA-LIGAND FREE ENERGY PREDICTED BY IDOCK:    0.56 KCAL/MOL
REMARK 927      BINDING AFFINITY PREDICTED BY RF-SCORE:    0.00 PKD
ROOT
HETATM    1  N   UNL     1     -12.453   6.425  71.898  1.00  0.00    -0.375 N  
HETATM    2  C   UNL     1     -11.174   6.330  72.382  1.00  0.00    -0.280 C  
HETATM    3  H1  UNL     1     -12.579   6.899  71.003  1.00  0.00     0.000 HD 
HETATM    4  H2  UNL     1     -13.245   6.039  72.411  1.00  0.00     0.000 HD 
HETATM    5  O   UNL     1     -11.023   5.761  73.457  1.00  0.00    -0.262 OA 
ENDROOT
BRANCH   2   6
HETATM    6  N   UNL     1     -10.177   6.807  71.514  1.00  0.00    -0.193 N  
HETATM    7  C   UNL     1     -10.412   7.960  70.704  1.00  0.00    -0.213 A  
HETATM    8  C   UNL     1     -10.909   9.138  71.287  1.00  0.00    -0.402 A  
HETATM    9  C   UNL     1     -11.163  10.266  70.505  1.00  0.00    -0.408 A  
HETATM   10  C   UNL     1     -10.938  10.221  69.132  1.00  0.00    -0.280 A  
HETATM   11  C   UNL     1     -10.459   9.051  68.542  1.00  0.00    -0.232 A  
HETATM   12  C   UNL     1     -10.202   7.917  69.323  1.00  0.00    -0.216 A  
HETATM   13  C   UNL     1      -9.697   6.651  68.708  1.00  0.00    -0.130 C  
HETATM   14  C   UNL     1      -8.264   6.416  69.092  1.00  0.00    -0.111 C  
HETATM   15  O   UNL     1      -7.400   6.306  68.221  1.00  0.00    -0.082 OA 
HETATM   16  C   UNL     1      -7.899   6.272  70.537  1.00  0.00    -0.106 A  
HETATM   17  C   UNL     1      -8.795   6.395  71.628  1.00  0.00    -0.136 A  
HETATM   18  C   UNL     1      -8.281   6.106  72.912  1.00  0.00    -0.116 A  
HETATM   19  C   UNL     1      -6.954   5.715  73.120  1.00  0.00    -0.081 A  
HETATM   20  C   UNL     1      -6.089   5.606  72.045  1.00  0.00    -0.038 A  
HETATM   21  C   UNL     1      -6.558   5.885  70.766  1.00  0.00    -0.044 A  
ENDBRANCH   2   6
TORSDOF 1
ENDMDL
MODEL      139
REMARK 921   NORMALIZED FREE ENERGY PREDICTED BY IDOCK:   -2.90 KCAL/MOL
REMARK 922        TOTAL FREE ENERGY PREDICTED BY IDOCK:   -3.14 KCAL/MOL
REMARK 923 INTER-LIGAND FREE ENERGY PREDICTED BY IDOCK:   -3.07 KCAL/MOL
REMARK 924 INTRA-LIGAND FREE ENERGY PREDICTED BY IDOCK:   -0.06 KCAL/MOL
REMARK 927      BINDING AFFINITY PREDICTED BY RF-SCORE:    0.00 PKD
ROOT
HETATM    1  N   UNL     1      -9.197  10.582  66.550  1.00  0.00    -0.159 N  
HETATM    2  C   UNL     1      -8.224   9.670  66.866  1.00  0.00    -0.113 C  
HETATM    3  H1  UNL     1     -10.160  10.336  66.783  1.00  0.00     0.000 HD 
HETATM    4  H2  UNL     1      -8.969  11.469  66.102  1.00  0.00     0.000 HD 
HETATM    5  O   UNL     1      -7.067   9.966  66.587  1.00  0.00    -0.084 OA 
ENDROOT
BRANCH   2   6
HETATM    6  N   UNL     1      -8.676   8.547  67.581  1.00  0.00    -0.136 N  
HETATM    7  C   UNL     1      -8.747   7.267  66.950  1.00  0.00    -0.126 A  
HETATM    8  C   UNL     1      -7.635   6.767  66.251  1.00  0.00    -0.086 A  
HETATM    9  C   UNL     1      -7.696   5.528  65.613  1.00  0.00    -0.088 A  
HETATM   10  C   UNL     1      -8.873   4.785  65.654  1.00  0.00    -0.135 A  
HETATM   11  C   UNL     1      -9.986   5.280  66.333  1.00  0.00    -0.227 A  
HETATM   12  C   UNL     1      -9.929   6.524  66.976  1.00  0.00    -0.216 A  
HETATM   13  C   UNL     1     -11.115   7.076  67.701  1.00  0.00    -0.190 C  
HETATM   14  C   UNL     1     -10.881   7.050  69.184  1.00  0.00    -0.195 C  
HETATM   15  O   UNL     1     -11.655   6.436  69.921  1.00  0.00    -0.429 OA 
HETATM   16  C   UNL     1      -9.731   7.811  69.766  1.00  0.00    -0.176 A  
HETATM   17  C   UNL     1      -8.767   8.538  69.025  1.00  0.00    -0.134 A  
HETATM   18  C   UNL     1      -7.826   9.290  69.765  1.00  0.00    -0.100 A  
HETATM   19  C   UNL     1      -7.828   9.329  71.163  1.00  0.00    -0.046 A  
HETATM   20  C   UNL     1      -8.772   8.607  71.873  1.00  0.00    -0.256 A  
HETATM   21  C   UNL     1      -9.713   7.854  71.179  1.00  0.00    -0.182 A  
ENDBRANCH   2   6
TORSDOF 1
ENDMDL
MODEL      140
REMARK 921   NORMALIZED FREE ENERGY PREDICTED BY IDOCK:   -2.89 KCAL/MOL
REMARK 922        TOTAL FREE ENERGY PREDICTED BY IDOCK:   -3.12 KCAL/MOL
REMARK 923 INTER-LIGAND FREE ENERGY PREDICTED BY IDOCK:   -3.43 KCAL/MOL
REMARK 924 INTRA-LIGAND FREE ENERGY PREDICTED BY IDOCK:    0.30 KCAL/MOL
REMARK 927      BINDING AFFINITY PREDICTED BY RF-SCORE:    0.00 PKD
ROOT
HETATM    1  N   UNL     1     -12.337   6.730  70.035  1.00  0.00    -0.483 N  
HETATM    2  C   UNL     1     -11.582   6.870  71.170  1.00  0.00    -0.319 C  
HETATM    3  H1  UNL     1     -11.840   6.699  69.145  1.00  0.00     0.000 HD 
HETATM    4  H2  UNL     1     -13.354   6.662  70.079  1.00  0.00     0.000 HD 
HETATM    5  O   UNL     1     -12.179   6.908  72.240  1.00  0.00    -0.242 OA 
ENDROOT
BRANCH   2   6
HETATM    6  N   UNL     1     -10.192   6.837  70.963  1.00  0.00    -0.197 N  
HETATM    7  C   UNL     1      -9.507   5.590  70.840  1.00  0.00    -0.166 A  
HETATM    8  C   UNL     1      -9.979   4.615  69.945  1.00  0.00    -0.296 A  
HETATM    9  C   UNL     1      -9.333   3.384  69.828  1.00  0.00    -0.238 A  
HETATM   10  C   UNL     1      -8.218   3.110  70.616  1.00  0.00    -0.076 A  
HETATM   11  C   UNL     1      -7.750   4.066  71.518  1.00  0.00    -0.065 A  
HETATM   12  C   UNL     1      -8.396   5.303  71.638  1.00  0.00    -0.118 A  
HETATM   13  C   UNL     1      -7.915   6.337  72.606  1.00  0.00    -0.106 C  
HETATM   14  C   UNL     1      -7.290   7.490  71.873  1.00  0.00    -0.072 C  
HETATM   15  O   UNL     1      -6.122   7.808  72.104  1.00  0.00    -0.039 OA 
HETATM   16  C   UNL     1      -8.107   8.278  70.897  1.00  0.00    -0.105 A  
HETATM   17  C   UNL     1      -9.449   8.003  70.536  1.00  0.00    -0.166 A  
HETATM   18  C   UNL     1     -10.086   8.936  69.687  1.00  0.00    -0.202 A  
HETATM   19  C   UNL     1      -9.442  10.083  69.213  1.00  0.00    -0.227 A  
HETATM   20  C   UNL     1      -8.128  10.334  69.568  1.00  0.00    -0.170 A  
HETATM   21  C   UNL     1      -7.467   9.438  70.401  1.00  0.00    -0.141 A  
ENDBRANCH   2   6
TORSDOF 1
ENDMDL
MODEL      141
REMARK 921   NORMALIZED FREE ENERGY PREDICTED BY IDOCK:   -2.88 KCAL/MOL
REMARK 922        TOTAL FREE ENERGY PREDICTED BY IDOCK:   -3.12 KCAL/MOL
REMARK 923 INTER-LIGAND FREE ENERGY PREDICTED BY IDOCK:   -3.87 KCAL/MOL
REMARK 924 INTRA-LIGAND FREE ENERGY PREDICTED BY IDOCK:    0.75 KCAL/MOL
REMARK 927      BINDING AFFINITY PREDICTED BY RF-SCORE:    0.00 PKD
ROOT
HETATM    1  N   UNL     1     -10.846   6.282  70.268  1.00  0.00    -0.276 N  
HETATM    2  C   UNL     1     -10.973   7.634  70.089  1.00  0.00    -0.246 C  
HETATM    3  H1  UNL     1     -10.382   5.755  69.528  1.00  0.00     0.000 HD 
HETATM    4  H2  UNL     1     -11.201   5.821  71.106  1.00  0.00     0.000 HD 
HETATM    5  O   UNL     1     -11.532   8.268  70.979  1.00  0.00    -0.270 OA 
ENDROOT
BRANCH   2   6
HETATM    6  N   UNL     1     -10.338   8.142  68.943  1.00  0.00    -0.214 N  
HETATM    7  C   UNL     1     -10.008   7.276  67.855  1.00  0.00    -0.158 A  
HETATM    8  C   UNL     1     -10.985   6.420  67.318  1.00  0.00    -0.474 A  
HETATM    9  C   UNL     1     -10.672   5.554  66.270  1.00  0.00    -0.191 A  
HETATM   10  C   UNL     1      -9.377   5.526  65.758  1.00  0.00    -0.107 A  
HETATM   11  C   UNL     1      -8.398   6.362  66.293  1.00  0.00    -0.123 A  
HETATM   12  C   UNL     1      -8.707   7.233  67.346  1.00  0.00    -0.121 A  
HETATM   13  C   UNL     1      -7.669   8.130  67.940  1.00  0.00    -0.114 C  
HETATM   14  C   UNL     1      -7.936   9.560  67.567  1.00  0.00    -0.106 C  
HETATM   15  O   UNL     1      -7.082  10.211  66.963  1.00  0.00    -0.087 OA 
HETATM   16  C   UNL     1      -9.226  10.203  67.972  1.00  0.00    -0.142 A  
HETATM   17  C   UNL     1     -10.289   9.558  68.652  1.00  0.00    -0.205 A  
HETATM   18  C   UNL     1     -11.375  10.368  69.052  1.00  0.00    -0.279 A  
HETATM   19  C   UNL     1     -11.421  11.743  68.801  1.00  0.00    -0.350 A  
HETATM   20  C   UNL     1     -10.379  12.357  68.130  1.00  0.00    -0.231 A  
HETATM   21  C   UNL     1      -9.292  11.592  67.717  1.00  0.00    -0.178 A  
ENDBRANCH   2   6
TORSDOF 1
ENDMDL
MODEL      142
REMARK 921   NORMALIZED FREE ENERGY PREDICTED BY IDOCK:   -2.86 KCAL/MOL
REMARK 922        TOTAL FREE ENERGY PREDICTED BY IDOCK:   -3.09 KCAL/MOL
REMARK 923 INTER-LIGAND FREE ENERGY PREDICTED BY IDOCK:   -3.49 KCAL/MOL
REMARK 924 INTRA-LIGAND FREE ENERGY PREDICTED BY IDOCK:    0.40 KCAL/MOL
REMARK 927      BINDING AFFINITY PREDICTED BY RF-SCORE:    0.00 PKD
ROOT
HETATM    1  N   UNL     1      -8.465  11.515  69.279  1.00  0.00    -0.344 N  
HETATM    2  C   UNL     1      -7.936  10.251  69.249  1.00  0.00    -0.149 C  
HETATM    3  H1  UNL     1      -9.248  11.707  68.654  1.00  0.00     0.000 HD 
HETATM    4  H2  UNL     1      -8.092  12.232  69.900  1.00  0.00     0.000 HD 
HETATM    5  O   UNL     1      -6.995  10.019  70.000  1.00  0.00    -0.099 OA 
ENDROOT
BRANCH   2   6
HETATM    6  N   UNL     1      -8.625   9.340  68.429  1.00  0.00    -0.124 N  
HETATM    7  C   UNL     1      -9.542   8.404  68.997  1.00  0.00    -0.160 A  
HETATM    8  C   UNL     1     -10.542   8.848  69.879  1.00  0.00    -0.229 A  
HETATM    9  C   UNL     1     -11.431   7.942  70.458  1.00  0.00    -0.204 A  
HETATM   10  C   UNL     1     -11.321   6.584  70.172  1.00  0.00    -0.463 A  
HETATM   11  C   UNL     1     -10.324   6.133  69.308  1.00  0.00    -0.276 A  
HETATM   12  C   UNL     1      -9.428   7.038  68.725  1.00  0.00    -0.136 A  
HETATM   13  C   UNL     1      -8.346   6.573  67.804  1.00  0.00    -0.119 C  
HETATM   14  C   UNL     1      -8.643   6.990  66.392  1.00  0.00    -0.135 C  
HETATM   15  O   UNL     1      -8.737   6.141  65.503  1.00  0.00    -0.152 OA 
HETATM   16  C   UNL     1      -8.780   8.443  66.062  1.00  0.00    -0.183 A  
HETATM   17  C   UNL     1      -8.711   9.508  66.994  1.00  0.00    -0.128 A  
HETATM   18  C   UNL     1      -8.745  10.820  66.469  1.00  0.00    -0.154 A  
HETATM   19  C   UNL     1      -8.843  11.078  65.098  1.00  0.00    -0.116 A  
HETATM   20  C   UNL     1      -8.917  10.028  64.201  1.00  0.00    -0.268 A  
HETATM   21  C   UNL     1      -8.888   8.722  64.680  1.00  0.00    -0.054 A  
ENDBRANCH   2   6
TORSDOF 1
ENDMDL
MODEL      143
REMARK 921   NORMALIZED FREE ENERGY PREDICTED BY IDOCK:   -2.85 KCAL/MOL
REMARK 922        TOTAL FREE ENERGY PREDICTED BY IDOCK:   -3.08 KCAL/MOL
REMARK 923 INTER-LIGAND FREE ENERGY PREDICTED BY IDOCK:   -3.35 KCAL/MOL
REMARK 924 INTRA-LIGAND FREE ENERGY PREDICTED BY IDOCK:    0.27 KCAL/MOL
REMARK 927      BINDING AFFINITY PREDICTED BY RF-SCORE:    0.00 PKD
ROOT
HETATM    1  N   UNL     1     -12.522  14.805  67.520  1.00  0.00    -0.355 N  
HETATM    2  C   UNL     1     -12.145  13.952  68.524  1.00  0.00    -0.296 C  
HETATM    3  H1  UNL     1     -11.816  15.045  66.823  1.00  0.00     0.000 HD 
HETATM    4  H2  UNL     1     -13.467  15.185  67.471  1.00  0.00     0.000 HD 
HETATM    5  O   UNL     1     -12.993  13.664  69.362  1.00  0.00     0.488 OA 
ENDROOT
BRANCH   2   6
HETATM    6  N   UNL     1     -10.849  13.424  68.396  1.00  0.00    -0.256 N  
HETATM    7  C   UNL     1      -9.717  14.292  68.326  1.00  0.00    -0.221 A  
HETATM    8  C   UNL     1      -9.548  15.306  69.284  1.00  0.00    -0.249 A  
HETATM    9  C   UNL     1      -8.459  16.174  69.216  1.00  0.00    -0.187 A  
HETATM   10  C   UNL     1      -7.536  16.047  68.181  1.00  0.00    -0.132 A  
HETATM   11  C   UNL     1      -7.703  15.054  67.217  1.00  0.00    -0.233 A  
HETATM   12  C   UNL     1      -8.795  14.179  67.282  1.00  0.00    -0.227 A  
HETATM   13  C   UNL     1      -8.996  13.113  66.252  1.00  0.00     0.098 C  
HETATM   14  C   UNL     1      -8.732  11.758  66.842  1.00  0.00    -0.189 C  
HETATM   15  O   UNL     1      -7.870  11.027  66.350  1.00  0.00    -0.150 OA 
HETATM   16  C   UNL     1      -9.551  11.282  68.001  1.00  0.00    -0.182 A  
HETATM   17  C   UNL     1     -10.555  12.033  68.663  1.00  0.00    -0.229 A  
HETATM   18  C   UNL     1     -11.300  11.364  69.660  1.00  0.00    -0.347 A  
HETATM   19  C   UNL     1     -11.074  10.025  69.995  1.00  0.00    -0.350 A  
HETATM   20  C   UNL     1     -10.086   9.307  69.345  1.00  0.00    -0.200 A  
HETATM   21  C   UNL     1      -9.330   9.932  68.359  1.00  0.00    -0.135 A  
ENDBRANCH   2   6
TORSDOF 1
ENDMDL
MODEL      144
REMARK 921   NORMALIZED FREE ENERGY PREDICTED BY IDOCK:   -2.78 KCAL/MOL
REMARK 922        TOTAL FREE ENERGY PREDICTED BY IDOCK:   -3.01 KCAL/MOL
REMARK 923 INTER-LIGAND FREE ENERGY PREDICTED BY IDOCK:   -3.09 KCAL/MOL
REMARK 924 INTRA-LIGAND FREE ENERGY PREDICTED BY IDOCK:    0.08 KCAL/MOL
REMARK 927      BINDING AFFINITY PREDICTED BY RF-SCORE:    0.00 PKD
ROOT
HETATM    1  N   UNL     1     -11.657   6.600  67.340  1.00  0.00    -0.643 N  
HETATM    2  C   UNL     1     -10.772   6.100  68.260  1.00  0.00    -0.290 C  
HETATM    3  H1  UNL     1     -11.330   6.682  66.377  1.00  0.00     0.000 HD 
HETATM    4  H2  UNL     1     -12.601   6.878  67.607  1.00  0.00     0.000 HD 
HETATM    5  O   UNL     1     -11.164   6.001  69.418  1.00  0.00    -0.395 OA 
ENDROOT
BRANCH   2   6
HETATM    6  N   UNL     1      -9.551   5.654  67.725  1.00  0.00    -0.115 N  
HETATM    7  C   UNL     1      -8.549   6.592  67.330  1.00  0.00    -0.119 A  
HETATM    8  C   UNL     1      -8.150   7.609  68.215  1.00  0.00    -0.124 A  
HETATM    9  C   UNL     1      -7.188   8.544  67.835  1.00  0.00    -0.088 A  
HETATM   10  C   UNL     1      -6.625   8.482  66.563  1.00  0.00    -0.059 A  
HETATM   11  C   UNL     1      -7.024   7.485  65.673  1.00  0.00    -0.060 A  
HETATM   12  C   UNL     1      -7.991   6.543  66.050  1.00  0.00    -0.112 A  
HETATM   13  C   UNL     1      -8.439   5.473  65.106  1.00  0.00    -0.147 C  
HETATM   14  C   UNL     1      -7.927   4.133  65.552  1.00  0.00    -0.097 C  
HETATM   15  O   UNL     1      -7.219   3.460  64.800  1.00  0.00    -0.063 OA 
HETATM   16  C   UNL     1      -8.318   3.600  66.895  1.00  0.00    -0.103 A  
HETATM   17  C   UNL     1      -9.109   4.283  67.853  1.00  0.00    -0.131 A  
HETATM   18  C   UNL     1      -9.468   3.563  69.014  1.00  0.00    -0.213 A  
HETATM   19  C   UNL     1      -9.073   2.239  69.230  1.00  0.00    -0.182 A  
HETATM   20  C   UNL     1      -8.295   1.588  68.289  1.00  0.00    -0.075 A  
HETATM   21  C   UNL     1      -7.919   2.265  67.133  1.00  0.00    -0.070 A  
ENDBRANCH   2   6
TORSDOF 1
ENDMDL
MODEL      145
REMARK 921   NORMALIZED FREE ENERGY PREDICTED BY IDOCK:   -2.76 KCAL/MOL
REMARK 922        TOTAL FREE ENERGY PREDICTED BY IDOCK:   -2.99 KCAL/MOL
REMARK 923 INTER-LIGAND FREE ENERGY PREDICTED BY IDOCK:   -3.40 KCAL/MOL
REMARK 924 INTRA-LIGAND FREE ENERGY PREDICTED BY IDOCK:    0.42 KCAL/MOL
REMARK 927      BINDING AFFINITY PREDICTED BY RF-SCORE:    0.00 PKD
ROOT
HETATM    1  N   UNL     1     -11.068   6.348  68.043  1.00  0.00    -0.471 N  
HETATM    2  C   UNL     1     -10.412   6.140  66.858  1.00  0.00    -0.276 C  
HETATM    3  H1  UNL     1     -10.692   7.063  68.665  1.00  0.00     0.000 HD 
HETATM    4  H2  UNL     1     -11.899   5.810  68.291  1.00  0.00     0.000 HD 
HETATM    5  O   UNL     1     -10.864   5.281  66.109  1.00  0.00    -0.257 OA 
ENDROOT
BRANCH   2   6
HETATM    6  N   UNL     1      -9.355   7.032  66.603  1.00  0.00    -0.160 N  
HETATM    7  C   UNL     1      -9.593   8.440  66.550  1.00  0.00    -0.236 A  
HETATM    8  C   UNL     1     -10.293   9.074  67.590  1.00  0.00    -0.317 A  
HETATM    9  C   UNL     1     -10.550  10.444  67.542  1.00  0.00    -0.312 A  
HETATM   10  C   UNL     1     -10.123  11.190  66.447  1.00  0.00    -0.269 A  
HETATM   11  C   UNL     1      -9.440  10.567  65.403  1.00  0.00    -0.273 A  
HETATM   12  C   UNL     1      -9.179   9.192  65.447  1.00  0.00    -0.266 A  
HETATM   13  C   UNL     1      -8.456   8.504  64.333  1.00  0.00    -0.089 C  
HETATM   14  C   UNL     1      -7.078   8.100  64.773  1.00  0.00    -0.079 C  
HETATM   15  O   UNL     1      -6.090   8.510  64.162  1.00  0.00    -0.066 OA 
HETATM   16  C   UNL     1      -6.915   7.160  65.927  1.00  0.00    -0.065 A  
HETATM   17  C   UNL     1      -7.969   6.635  66.716  1.00  0.00    -0.108 A  
HETATM   18  C   UNL     1      -7.619   5.669  67.686  1.00  0.00    -0.089 A  
HETATM   19  C   UNL     1      -6.303   5.237  67.876  1.00  0.00    -0.040 A  
HETATM   20  C   UNL     1      -5.284   5.764  67.103  1.00  0.00    -0.005 A  
HETATM   21  C   UNL     1      -5.588   6.719  66.139  1.00  0.00    -0.025 A  
ENDBRANCH   2   6
TORSDOF 1
ENDMDL
MODEL      146
REMARK 921   NORMALIZED FREE ENERGY PREDICTED BY IDOCK:   -2.75 KCAL/MOL
REMARK 922        TOTAL FREE ENERGY PREDICTED BY IDOCK:   -2.98 KCAL/MOL
REMARK 923 INTER-LIGAND FREE ENERGY PREDICTED BY IDOCK:   -2.91 KCAL/MOL
REMARK 924 INTRA-LIGAND FREE ENERGY PREDICTED BY IDOCK:   -0.06 KCAL/MOL
REMARK 927      BINDING AFFINITY PREDICTED BY RF-SCORE:    0.00 PKD
ROOT
HETATM    1  N   UNL     1     -11.172   8.351  69.115  1.00  0.00    -0.359 N  
HETATM    2  C   UNL     1     -10.845   7.059  69.434  1.00  0.00    -0.227 C  
HETATM    3  H1  UNL     1     -10.447   8.921  68.678  1.00  0.00     0.000 HD 
HETATM    4  H2  UNL     1     -12.101   8.726  69.306  1.00  0.00     0.000 HD 
HETATM    5  O   UNL     1     -11.716   6.374  69.959  1.00  0.00    -0.429 OA 
ENDROOT
BRANCH   2   6
HETATM    6  N   UNL     1      -9.569   6.649  69.009  1.00  0.00    -0.134 N  
HETATM    7  C   UNL     1      -8.506   6.498  69.952  1.00  0.00    -0.135 A  
HETATM    8  C   UNL     1      -8.705   5.742  71.119  1.00  0.00    -0.135 A  
HETATM    9  C   UNL     1      -7.682   5.602  72.058  1.00  0.00    -0.102 A  
HETATM   10  C   UNL     1      -6.458   6.230  71.846  1.00  0.00    -0.050 A  
HETATM   11  C   UNL     1      -6.256   6.995  70.698  1.00  0.00    -0.032 A  
HETATM   12  C   UNL     1      -7.280   7.137  69.752  1.00  0.00    -0.079 A  
HETATM   13  C   UNL     1      -7.086   7.961  68.519  1.00  0.00    -0.076 C  
HETATM   14  C   UNL     1      -7.002   7.078  67.306  1.00  0.00    -0.078 C  
HETATM   15  O   UNL     1      -6.004   7.113  66.584  1.00  0.00    -0.032 OA 
HETATM   16  C   UNL     1      -8.155   6.191  66.956  1.00  0.00    -0.106 A  
HETATM   17  C   UNL     1      -9.345   6.050  67.712  1.00  0.00    -0.106 A  
HETATM   18  C   UNL     1     -10.368   5.252  67.151  1.00  0.00    -0.268 A  
HETATM   19  C   UNL     1     -10.233   4.621  65.910  1.00  0.00    -0.303 A  
HETATM   20  C   UNL     1      -9.063   4.762  65.186  1.00  0.00    -0.155 A  
HETATM   21  C   UNL     1      -8.032   5.538  65.707  1.00  0.00    -0.108 A  
ENDBRANCH   2   6
TORSDOF 1
ENDMDL
MODEL      147
REMARK 921   NORMALIZED FREE ENERGY PREDICTED BY IDOCK:   -2.70 KCAL/MOL
REMARK 922        TOTAL FREE ENERGY PREDICTED BY IDOCK:   -2.92 KCAL/MOL
REMARK 923 INTER-LIGAND FREE ENERGY PREDICTED BY IDOCK:   -3.25 KCAL/MOL
REMARK 924 INTRA-LIGAND FREE ENERGY PREDICTED BY IDOCK:    0.32 KCAL/MOL
REMARK 927      BINDING AFFINITY PREDICTED BY RF-SCORE:    0.00 PKD
ROOT
HETATM    1  N   UNL     1      -7.846   3.448  70.675  1.00  0.00    -0.043 N  
HETATM    2  C   UNL     1      -9.025   3.988  70.229  1.00  0.00    -0.095 C  
HETATM    3  H1  UNL     1      -7.169   4.087  71.091  1.00  0.00     0.000 HD 
HETATM    4  H2  UNL     1      -7.655   2.450  70.593  1.00  0.00     0.000 HD 
HETATM    5  O   UNL     1      -9.839   3.220  69.729  1.00  0.00    -0.062 OA 
ENDROOT
BRANCH   2   6
HETATM    6  N   UNL     1      -9.193   5.354  70.512  1.00  0.00    -0.144 N  
HETATM    7  C   UNL     1      -9.444   5.792  71.848  1.00  0.00    -0.151 A  
HETATM    8  C   UNL     1      -8.616   5.356  72.897  1.00  0.00    -0.119 A  
HETATM    9  C   UNL     1      -8.861   5.759  74.210  1.00  0.00    -0.122 A  
HETATM   10  C   UNL     1      -9.943   6.589  74.489  1.00  0.00    -0.358 A  
HETATM   11  C   UNL     1     -10.779   7.015  73.457  1.00  0.00    -0.368 A  
HETATM   12  C   UNL     1     -10.537   6.614  72.137  1.00  0.00    -0.238 A  
HETATM   13  C   UNL     1     -11.427   7.053  71.018  1.00  0.00    -0.343 C  
HETATM   14  C   UNL     1     -10.715   8.042  70.140  1.00  0.00    -0.244 C  
HETATM   15  O   UNL     1     -11.190   9.165  69.964  1.00  0.00    -0.231 OA 
HETATM   16  C   UNL     1      -9.452   7.639  69.444  1.00  0.00    -0.152 A  
HETATM   17  C   UNL     1      -8.801   6.388  69.578  1.00  0.00    -0.136 A  
HETATM   18  C   UNL     1      -7.684   6.157  68.745  1.00  0.00    -0.096 A  
HETATM   19  C   UNL     1      -7.224   7.104  67.824  1.00  0.00    -0.091 A  
HETATM   20  C   UNL     1      -7.866   8.324  67.710  1.00  0.00    -0.114 A  
HETATM   21  C   UNL     1      -8.969   8.589  68.515  1.00  0.00    -0.139 A  
ENDBRANCH   2   6
TORSDOF 1
ENDMDL
MODEL      148
REMARK 921   NORMALIZED FREE ENERGY PREDICTED BY IDOCK:   -2.68 KCAL/MOL
REMARK 922        TOTAL FREE ENERGY PREDICTED BY IDOCK:   -2.90 KCAL/MOL
REMARK 923 INTER-LIGAND FREE ENERGY PREDICTED BY IDOCK:   -2.84 KCAL/MOL
REMARK 924 INTRA-LIGAND FREE ENERGY PREDICTED BY IDOCK:   -0.06 KCAL/MOL
REMARK 927      BINDING AFFINITY PREDICTED BY RF-SCORE:    0.00 PKD
ROOT
HETATM    1  N   UNL     1      -9.242   8.407  68.614  1.00  0.00    -0.143 N  
HETATM    2  C   UNL     1      -8.167   7.721  69.117  1.00  0.00    -0.129 C  
HETATM    3  H1  UNL     1     -10.168   8.118  68.931  1.00  0.00     0.000 HD 
HETATM    4  H2  UNL     1      -9.122   9.172  67.951  1.00  0.00     0.000 HD 
HETATM    5  O   UNL     1      -7.054   8.068  68.737  1.00  0.00    -0.068 OA 
ENDROOT
BRANCH   2   6
HETATM    6  N   UNL     1      -8.481   6.771  70.104  1.00  0.00    -0.138 N  
HETATM    7  C   UNL     1      -8.478   5.377  69.794  1.00  0.00    -0.100 A  
HETATM    8  C   UNL     1      -7.369   4.803  69.149  1.00  0.00    -0.053 A  
HETATM    9  C   UNL     1      -7.360   3.447  68.820  1.00  0.00    -0.050 A  
HETATM   10  C   UNL     1      -8.466   2.655  69.120  1.00  0.00    -0.098 A  
HETATM   11  C   UNL     1      -9.577   3.219  69.747  1.00  0.00    -0.157 A  
HETATM   12  C   UNL     1      -9.590   4.580  70.079  1.00  0.00    -0.267 A  
HETATM   13  C   UNL     1     -10.775   5.204  70.743  1.00  0.00    -0.132 C  
HETATM   14  C   UNL     1     -10.457   5.546  72.171  1.00  0.00    -0.220 C  
HETATM   15  O   UNL     1     -11.133   5.072  73.086  1.00  0.00    -0.277 OA 
HETATM   16  C   UNL     1      -9.344   6.501  72.473  1.00  0.00    -0.145 A  
HETATM   17  C   UNL     1      -8.489   7.098  71.514  1.00  0.00    -0.115 A  
HETATM   18  C   UNL     1      -7.575   8.066  71.987  1.00  0.00    -0.108 A  
HETATM   19  C   UNL     1      -7.501   8.434  73.335  1.00  0.00    -0.118 A  
HETATM   20  C   UNL     1      -8.339   7.837  74.261  1.00  0.00    -0.293 A  
HETATM   21  C   UNL     1      -9.250   6.878  73.833  1.00  0.00    -0.229 A  
ENDBRANCH   2   6
TORSDOF 1
ENDMDL
MODEL      149
REMARK 921   NORMALIZED FREE ENERGY PREDICTED BY IDOCK:   -2.67 KCAL/MOL
REMARK 922        TOTAL FREE ENERGY PREDICTED BY IDOCK:   -2.89 KCAL/MOL
REMARK 923 INTER-LIGAND FREE ENERGY PREDICTED BY IDOCK:   -3.23 KCAL/MOL
REMARK 924 INTRA-LIGAND FREE ENERGY PREDICTED BY IDOCK:    0.34 KCAL/MOL
REMARK 927      BINDING AFFINITY PREDICTED BY RF-SCORE:    0.00 PKD
ROOT
HETATM    1  N   UNL     1     -11.222   6.479  68.598  1.00  0.00    -0.551 N  
HETATM    2  C   UNL     1     -10.958   6.501  69.943  1.00  0.00    -0.335 C  
HETATM    3  H1  UNL     1     -10.427   6.370  67.969  1.00  0.00     0.000 HD 
HETATM    4  H2  UNL     1     -12.174   6.569  68.242  1.00  0.00     0.000 HD 
HETATM    5  O   UNL     1     -11.914   6.632  70.700  1.00  0.00    -0.395 OA 
ENDROOT
BRANCH   2   6
HETATM    6  N   UNL     1      -9.618   6.253  70.287  1.00  0.00    -0.163 N  
HETATM    7  C   UNL     1      -9.009   6.948  71.376  1.00  0.00    -0.141 A  
HETATM    8  C   UNL     1      -9.649   6.994  72.626  1.00  0.00    -0.165 A  
HETATM    9  C   UNL     1      -9.077   7.687  73.693  1.00  0.00    -0.327 A  
HETATM   10  C   UNL     1      -7.867   8.353  73.516  1.00  0.00    -0.153 A  
HETATM   11  C   UNL     1      -7.232   8.326  72.275  1.00  0.00    -0.121 A  
HETATM   12  C   UNL     1      -7.803   7.631  71.201  1.00  0.00    -0.090 A  
HETATM   13  C   UNL     1      -7.141   7.598  69.860  1.00  0.00    -0.063 C  
HETATM   14  C   UNL     1      -6.589   6.229  69.581  1.00  0.00    -0.047 C  
HETATM   15  O   UNL     1      -5.388   6.083  69.348  1.00  0.00    -0.004 OA 
HETATM   16  C   UNL     1      -7.512   5.052  69.544  1.00  0.00    -0.057 A  
HETATM   17  C   UNL     1      -8.904   5.088  69.811  1.00  0.00    -0.098 A  
HETATM   18  C   UNL     1      -9.625   3.890  69.607  1.00  0.00    -0.259 A  
HETATM   19  C   UNL     1      -9.015   2.712  69.163  1.00  0.00    -0.171 A  
HETATM   20  C   UNL     1      -7.654   2.690  68.914  1.00  0.00    -0.047 A  
HETATM   21  C   UNL     1      -6.910   3.850  69.105  1.00  0.00    -0.046 A  
ENDBRANCH   2   6
TORSDOF 1
ENDMDL
MODEL      150
REMARK 921   NORMALIZED FREE ENERGY PREDICTED BY IDOCK:   -2.67 KCAL/MOL
REMARK 922        TOTAL FREE ENERGY PREDICTED BY IDOCK:   -2.89 KCAL/MOL
REMARK 923 INTER-LIGAND FREE ENERGY PREDICTED BY IDOCK:   -3.21 KCAL/MOL
REMARK 924 INTRA-LIGAND FREE ENERGY PREDICTED BY IDOCK:    0.32 KCAL/MOL
REMARK 927      BINDING AFFINITY PREDICTED BY RF-SCORE:    0.00 PKD
ROOT
HETATM    1  N   UNL     1     -11.122   5.977  68.940  1.00  0.00    -0.335 N  
HETATM    2  C   UNL     1      -9.903   5.566  69.411  1.00  0.00    -0.177 C  
HETATM    3  H1  UNL     1     -11.594   6.721  69.454  1.00  0.00     0.000 HD 
HETATM    4  H2  UNL     1     -11.540   5.556  68.110  1.00  0.00     0.000 HD 
HETATM    5  O   UNL     1      -9.336   4.671  68.794  1.00  0.00    -0.121 OA 
ENDROOT
BRANCH   2   6
HETATM    6  N   UNL     1      -9.404   6.313  70.493  1.00  0.00    -0.161 N  
HETATM    7  C   UNL     1      -8.898   7.633  70.288  1.00  0.00    -0.145 A  
HETATM    8  C   UNL     1      -9.664   8.577  69.583  1.00  0.00    -0.179 A  
HETATM    9  C   UNL     1      -9.175   9.864  69.358  1.00  0.00    -0.225 A  
HETATM   10  C   UNL     1      -7.910  10.215  69.823  1.00  0.00    -0.175 A  
HETATM   11  C   UNL     1      -7.137   9.280  70.511  1.00  0.00    -0.100 A  
HETATM   12  C   UNL     1      -7.624   7.987  70.740  1.00  0.00    -0.077 A  
HETATM   13  C   UNL     1      -6.806   6.968  71.468  1.00  0.00    -0.064 C  
HETATM   14  C   UNL     1      -7.387   6.705  72.828  1.00  0.00    -0.084 C  
HETATM   15  O   UNL     1      -6.703   6.883  73.837  1.00  0.00    -0.071 OA 
HETATM   16  C   UNL     1      -8.784   6.181  72.947  1.00  0.00    -0.122 A  
HETATM   17  C   UNL     1      -9.673   5.952  71.867  1.00  0.00    -0.151 A  
HETATM   18  C   UNL     1     -10.909   5.341  72.176  1.00  0.00    -0.252 A  
HETATM   19  C   UNL     1     -11.261   4.971  73.478  1.00  0.00    -0.341 A  
HETATM   20  C   UNL     1     -10.385   5.208  74.524  1.00  0.00    -0.301 A  
HETATM   21  C   UNL     1      -9.160   5.810  74.260  1.00  0.00    -0.124 A  
ENDBRANCH   2   6
TORSDOF 1
ENDMDL
MODEL      151
REMARK 921   NORMALIZED FREE ENERGY PREDICTED BY IDOCK:   -2.66 KCAL/MOL
REMARK 922        TOTAL FREE ENERGY PREDICTED BY IDOCK:   -2.88 KCAL/MOL
REMARK 923 INTER-LIGAND FREE ENERGY PREDICTED BY IDOCK:   -3.29 KCAL/MOL
REMARK 924 INTRA-LIGAND FREE ENERGY PREDICTED BY IDOCK:    0.41 KCAL/MOL
REMARK 927      BINDING AFFINITY PREDICTED BY RF-SCORE:    0.00 PKD
ROOT
HETATM    1  N   UNL     1     -10.265  12.223  68.947  1.00  0.00    -0.421 N  
HETATM    2  C   UNL     1     -10.793  10.974  69.149  1.00  0.00    -0.237 C  
HETATM    3  H1  UNL     1      -9.249  12.297  68.899  1.00  0.00     0.000 HD 
HETATM    4  H2  UNL     1     -10.863  13.043  68.850  1.00  0.00     0.000 HD 
HETATM    5  O   UNL     1     -12.014  10.884  69.207  1.00  0.00    -0.321 OA 
ENDROOT
BRANCH   2   6
HETATM    6  N   UNL     1      -9.854   9.928  69.150  1.00  0.00    -0.187 N  
HETATM    7  C   UNL     1     -10.048   8.781  69.980  1.00  0.00    -0.190 A  
HETATM    8  C   UNL     1     -11.276   8.099  69.958  1.00  0.00    -0.084 A  
HETATM    9  C   UNL     1     -11.487   6.990  70.777  1.00  0.00    -0.360 A  
HETATM   10  C   UNL     1     -10.479   6.562  71.637  1.00  0.00    -0.241 A  
HETATM   11  C   UNL     1      -9.262   7.242  71.676  1.00  0.00    -0.155 A  
HETATM   12  C   UNL     1      -9.045   8.356  70.855  1.00  0.00    -0.190 A  
HETATM   13  C   UNL     1      -7.750   9.104  70.890  1.00  0.00    -0.152 C  
HETATM   14  C   UNL     1      -6.971   8.861  69.629  1.00  0.00    -0.054 C  
HETATM   15  O   UNL     1      -5.837   8.383  69.685  1.00  0.00    -0.029 OA 
HETATM   16  C   UNL     1      -7.561   9.246  68.308  1.00  0.00    -0.083 A  
HETATM   17  C   UNL     1      -8.856   9.787  68.112  1.00  0.00    -0.119 A  
HETATM   18  C   UNL     1      -9.185  10.197  66.800  1.00  0.00    -0.174 A  
HETATM   19  C   UNL     1      -8.290  10.084  65.731  1.00  0.00    -0.134 A  
HETATM   20  C   UNL     1      -7.032   9.548  65.937  1.00  0.00    -0.091 A  
HETATM   21  C   UNL     1      -6.672   9.130  67.214  1.00  0.00    -0.069 A  
ENDBRANCH   2   6
TORSDOF 1
ENDMDL
MODEL      152
REMARK 921   NORMALIZED FREE ENERGY PREDICTED BY IDOCK:   -2.64 KCAL/MOL
REMARK 922        TOTAL FREE ENERGY PREDICTED BY IDOCK:   -2.86 KCAL/MOL
REMARK 923 INTER-LIGAND FREE ENERGY PREDICTED BY IDOCK:   -3.22 KCAL/MOL
REMARK 924 INTRA-LIGAND FREE ENERGY PREDICTED BY IDOCK:    0.36 KCAL/MOL
REMARK 927      BINDING AFFINITY PREDICTED BY RF-SCORE:    0.00 PKD
ROOT
HETATM    1  N   UNL     1      -9.045   6.025  65.331  1.00  0.00    -0.366 N  
HETATM    2  C   UNL     1      -8.057   6.681  66.018  1.00  0.00    -0.122 C  
HETATM    3  H1  UNL     1      -9.976   6.019  65.747  1.00  0.00     0.000 HD 
HETATM    4  H2  UNL     1      -8.856   5.562  64.442  1.00  0.00     0.000 HD 
HETATM    5  O   UNL     1      -6.937   6.688  65.519  1.00  0.00    -0.057 OA 
ENDROOT
BRANCH   2   6
HETATM    6  N   UNL     1      -8.490   7.365  67.167  1.00  0.00    -0.117 N  
HETATM    7  C   UNL     1      -8.812   8.755  67.104  1.00  0.00    -0.127 A  
HETATM    8  C   UNL     1      -9.684   9.230  66.110  1.00  0.00    -0.349 A  
HETATM    9  C   UNL     1      -9.991  10.588  66.024  1.00  0.00    -0.295 A  
HETATM   10  C   UNL     1      -9.418  11.486  66.919  1.00  0.00    -0.194 A  
HETATM   11  C   UNL     1      -8.539  11.026  67.900  1.00  0.00    -0.133 A  
HETATM   12  C   UNL     1      -8.228   9.664  67.991  1.00  0.00    -0.110 A  
HETATM   13  C   UNL     1      -7.281   9.153  69.030  1.00  0.00    -0.072 C  
HETATM   14  C   UNL     1      -8.022   8.367  70.074  1.00  0.00    -0.109 C  
HETATM   15  O   UNL     1      -7.963   8.705  71.258  1.00  0.00    -0.112 OA 
HETATM   16  C   UNL     1      -8.793   7.148  69.675  1.00  0.00    -0.141 A  
HETATM   17  C   UNL     1      -8.948   6.670  68.350  1.00  0.00    -0.123 A  
HETATM   18  C   UNL     1      -9.614   5.434  68.192  1.00  0.00    -0.154 A  
HETATM   19  C   UNL     1     -10.105   4.700  69.276  1.00  0.00    -0.170 A  
HETATM   20  C   UNL     1      -9.951   5.183  70.564  1.00  0.00    -0.304 A  
HETATM   21  C   UNL     1      -9.303   6.398  70.760  1.00  0.00    -0.165 A  
ENDBRANCH   2   6
TORSDOF 1
ENDMDL
MODEL      153
REMARK 921   NORMALIZED FREE ENERGY PREDICTED BY IDOCK:   -2.60 KCAL/MOL
REMARK 922        TOTAL FREE ENERGY PREDICTED BY IDOCK:   -2.82 KCAL/MOL
REMARK 923 INTER-LIGAND FREE ENERGY PREDICTED BY IDOCK:   -3.53 KCAL/MOL
REMARK 924 INTRA-LIGAND FREE ENERGY PREDICTED BY IDOCK:    0.71 KCAL/MOL
REMARK 927      BINDING AFFINITY PREDICTED BY RF-SCORE:    0.00 PKD
ROOT
HETATM    1  N   UNL     1     -10.636   5.742  68.088  1.00  0.00    -0.225 N  
HETATM    2  C   UNL     1      -9.796   5.198  69.025  1.00  0.00    -0.176 C  
HETATM    3  H1  UNL     1     -11.142   6.588  68.351  1.00  0.00     0.000 HD 
HETATM    4  H2  UNL     1     -10.750   5.319  67.167  1.00  0.00     0.000 HD 
HETATM    5  O   UNL     1      -9.188   4.181  68.708  1.00  0.00    -0.123 OA 
ENDROOT
BRANCH   2   6
HETATM    6  N   UNL     1      -9.656   5.951  70.202  1.00  0.00    -0.159 N  
HETATM    7  C   UNL     1     -10.683   6.857  70.610  1.00  0.00    -0.236 A  
HETATM    8  C   UNL     1     -12.018   6.421  70.674  1.00  0.00    -0.240 A  
HETATM    9  C   UNL     1     -13.034   7.299  71.050  1.00  0.00    -0.233 A  
HETATM   10  C   UNL     1     -12.729   8.624  71.350  1.00  0.00    -0.308 A  
HETATM   11  C   UNL     1     -11.410   9.069  71.275  1.00  0.00    -0.389 A  
HETATM   12  C   UNL     1     -10.385   8.191  70.898  1.00  0.00    -0.218 A  
HETATM   13  C   UNL     1      -8.966   8.652  70.802  1.00  0.00    -0.209 C  
HETATM   14  C   UNL     1      -8.148   8.064  71.916  1.00  0.00    -0.121 C  
HETATM   15  O   UNL     1      -7.551   8.803  72.701  1.00  0.00    -0.353 OA 
HETATM   16  C   UNL     1      -8.024   6.577  72.039  1.00  0.00    -0.103 A  
HETATM   17  C   UNL     1      -8.673   5.627  71.212  1.00  0.00    -0.132 A  
HETATM   18  C   UNL     1      -8.334   4.269  71.413  1.00  0.00    -0.095 A  
HETATM   19  C   UNL     1      -7.406   3.861  72.376  1.00  0.00    -0.058 A  
HETATM   20  C   UNL     1      -6.786   4.800  73.181  1.00  0.00    -0.068 A  
HETATM   21  C   UNL     1      -7.095   6.146  73.015  1.00  0.00    -0.080 A  
ENDBRANCH   2   6
TORSDOF 1
ENDMDL
MODEL      154
REMARK 921   NORMALIZED FREE ENERGY PREDICTED BY IDOCK:   -2.59 KCAL/MOL
REMARK 922        TOTAL FREE ENERGY PREDICTED BY IDOCK:   -2.81 KCAL/MOL
REMARK 923 INTER-LIGAND FREE ENERGY PREDICTED BY IDOCK:   -3.02 KCAL/MOL
REMARK 924 INTRA-LIGAND FREE ENERGY PREDICTED BY IDOCK:    0.22 KCAL/MOL
REMARK 927      BINDING AFFINITY PREDICTED BY RF-SCORE:    0.00 PKD
ROOT
HETATM    1  N   UNL     1      -6.489  12.881  67.023  1.00  0.00    -0.208 N  
HETATM    2  C   UNL     1      -7.469  12.331  67.808  1.00  0.00    -0.126 C  
HETATM    3  H1  UNL     1      -6.172  12.335  66.222  1.00  0.00     0.000 HD 
HETATM    4  H2  UNL     1      -6.093  13.798  67.232  1.00  0.00     0.000 HD 
HETATM    5  O   UNL     1      -7.850  12.988  68.771  1.00  0.00    -0.081 OA 
ENDROOT
BRANCH   2   6
HETATM    6  N   UNL     1      -7.995  11.118  67.334  1.00  0.00    -0.121 N  
HETATM    7  C   UNL     1      -8.217  10.026  68.228  1.00  0.00    -0.106 A  
HETATM    8  C   UNL     1      -8.930  10.230  69.421  1.00  0.00    -0.190 A  
HETATM    9  C   UNL     1      -9.138   9.178  70.314  1.00  0.00    -0.247 A  
HETATM   10  C   UNL     1      -8.622   7.917  70.030  1.00  0.00    -0.135 A  
HETATM   11  C   UNL     1      -7.901   7.708  68.854  1.00  0.00    -0.123 A  
HETATM   12  C   UNL     1      -7.690   8.761  67.955  1.00  0.00    -0.102 A  
HETATM   13  C   UNL     1      -6.911   8.559  66.694  1.00  0.00    -0.076 C  
HETATM   14  C   UNL     1      -7.823   8.610  65.501  1.00  0.00    -0.099 C  
HETATM   15  O   UNL     1      -7.888   7.649  64.732  1.00  0.00    -0.115 OA 
HETATM   16  C   UNL     1      -8.615   9.850  65.227  1.00  0.00    -0.168 A  
HETATM   17  C   UNL     1      -8.637  11.009  66.042  1.00  0.00    -0.172 A  
HETATM   18  C   UNL     1      -9.356  12.122  65.550  1.00  0.00     0.007 A  
HETATM   19  C   UNL     1     -10.021  12.103  64.320  1.00  0.00    -0.262 A  
HETATM   20  C   UNL     1      -9.995  10.961  63.538  1.00  0.00    -0.419 A  
HETATM   21  C   UNL     1      -9.300   9.844  63.990  1.00  0.00    -0.280 A  
ENDBRANCH   2   6
TORSDOF 1
ENDMDL
MODEL      155
REMARK 921   NORMALIZED FREE ENERGY PREDICTED BY IDOCK:   -2.59 KCAL/MOL
REMARK 922        TOTAL FREE ENERGY PREDICTED BY IDOCK:   -2.81 KCAL/MOL
REMARK 923 INTER-LIGAND FREE ENERGY PREDICTED BY IDOCK:   -2.77 KCAL/MOL
REMARK 924 INTRA-LIGAND FREE ENERGY PREDICTED BY IDOCK:   -0.04 KCAL/MOL
REMARK 927      BINDING AFFINITY PREDICTED BY RF-SCORE:    0.00 PKD
ROOT
HETATM    1  N   UNL     1      -9.059   6.160  67.413  1.00  0.00    -0.111 N  
HETATM    2  C   UNL     1      -9.904   7.040  68.036  1.00  0.00    -0.138 C  
HETATM    3  H1  UNL     1      -8.089   6.453  67.289  1.00  0.00     0.000 HD 
HETATM    4  H2  UNL     1      -9.385   5.250  67.087  1.00  0.00     0.000 HD 
HETATM    5  O   UNL     1     -11.069   6.688  68.186  1.00  0.00    -0.257 OA 
ENDROOT
BRANCH   2   6
HETATM    6  N   UNL     1      -9.288   8.203  68.530  1.00  0.00    -0.139 N  
HETATM    7  C   UNL     1      -9.628   9.484  67.997  1.00  0.00    -0.137 A  
HETATM    8  C   UNL     1     -10.976   9.866  67.892  1.00  0.00    -0.281 A  
HETATM    9  C   UNL     1     -11.324  11.105  67.354  1.00  0.00    -0.329 A  
HETATM   10  C   UNL     1     -10.329  11.969  66.904  1.00  0.00    -0.238 A  
HETATM   11  C   UNL     1      -8.989  11.593  66.992  1.00  0.00    -0.182 A  
HETATM   12  C   UNL     1      -8.634  10.349  67.531  1.00  0.00    -0.125 A  
HETATM   13  C   UNL     1      -7.203   9.924  67.625  1.00  0.00    -0.089 C  
HETATM   14  C   UNL     1      -6.750   9.922  69.057  1.00  0.00    -0.053 C  
HETATM   15  O   UNL     1      -5.790  10.613  69.402  1.00  0.00    -0.037 OA 
HETATM   16  C   UNL     1      -7.441   9.042  70.051  1.00  0.00    -0.062 A  
HETATM   17  C   UNL     1      -8.562   8.218  69.781  1.00  0.00    -0.129 A  
HETATM   18  C   UNL     1      -8.997   7.370  70.825  1.00  0.00    -0.151 A  
HETATM   19  C   UNL     1      -8.366   7.329  72.072  1.00  0.00    -0.114 A  
HETATM   20  C   UNL     1      -7.277   8.145  72.323  1.00  0.00    -0.108 A  
HETATM   21  C   UNL     1      -6.821   8.995  71.321  1.00  0.00    -0.088 A  
ENDBRANCH   2   6
TORSDOF 1
ENDMDL
MODEL      156
REMARK 921   NORMALIZED FREE ENERGY PREDICTED BY IDOCK:   -2.56 KCAL/MOL
REMARK 922        TOTAL FREE ENERGY PREDICTED BY IDOCK:   -2.77 KCAL/MOL
REMARK 923 INTER-LIGAND FREE ENERGY PREDICTED BY IDOCK:   -3.07 KCAL/MOL
REMARK 924 INTRA-LIGAND FREE ENERGY PREDICTED BY IDOCK:    0.30 KCAL/MOL
REMARK 927      BINDING AFFINITY PREDICTED BY RF-SCORE:    0.00 PKD
ROOT
HETATM    1  N   UNL     1      -6.519   5.673  72.179  1.00  0.00    -0.054 N  
HETATM    2  C   UNL     1      -6.604   7.035  72.050  1.00  0.00    -0.056 C  
HETATM    3  H1  UNL     1      -7.239   5.115  71.719  1.00  0.00     0.000 HD 
HETATM    4  H2  UNL     1      -5.769   5.236  72.714  1.00  0.00     0.000 HD 
HETATM    5  O   UNL     1      -5.740   7.706  72.603  1.00  0.00    -0.040 OA 
ENDROOT
BRANCH   2   6
HETATM    6  N   UNL     1      -7.623   7.485  71.192  1.00  0.00    -0.080 N  
HETATM    7  C   UNL     1      -7.442   7.457  69.775  1.00  0.00    -0.092 A  
HETATM    8  C   UNL     1      -7.001   6.280  69.147  1.00  0.00    -0.068 A  
HETATM    9  C   UNL     1      -6.800   6.244  67.767  1.00  0.00    -0.066 A  
HETATM   10  C   UNL     1      -7.023   7.388  67.004  1.00  0.00    -0.082 A  
HETATM   11  C   UNL     1      -7.446   8.564  67.621  1.00  0.00    -0.094 A  
HETATM   12  C   UNL     1      -7.650   8.605  69.007  1.00  0.00    -0.090 A  
HETATM   13  C   UNL     1      -8.095   9.861  69.688  1.00  0.00    -0.171 C  
HETATM   14  C   UNL     1      -9.515   9.726  70.158  1.00  0.00    -0.229 C  
HETATM   15  O   UNL     1     -10.373  10.521  69.768  1.00  0.00    -0.232 OA 
HETATM   16  C   UNL     1      -9.873   8.652  71.137  1.00  0.00    -0.285 A  
HETATM   17  C   UNL     1      -8.984   7.673  71.645  1.00  0.00    -0.127 A  
HETATM   18  C   UNL     1      -9.484   6.818  72.653  1.00  0.00    -0.152 A  
HETATM   19  C   UNL     1     -10.791   6.916  73.141  1.00  0.00    -0.328 A  
HETATM   20  C   UNL     1     -11.649   7.873  72.630  1.00  0.00    -0.435 A  
HETATM   21  C   UNL     1     -11.194   8.732  71.635  1.00  0.00    -0.394 A  
ENDBRANCH   2   6
TORSDOF 1
ENDMDL
MODEL      157
REMARK 921   NORMALIZED FREE ENERGY PREDICTED BY IDOCK:   -2.55 KCAL/MOL
REMARK 922        TOTAL FREE ENERGY PREDICTED BY IDOCK:   -2.77 KCAL/MOL
REMARK 923 INTER-LIGAND FREE ENERGY PREDICTED BY IDOCK:   -3.13 KCAL/MOL
REMARK 924 INTRA-LIGAND FREE ENERGY PREDICTED BY IDOCK:    0.36 KCAL/MOL
REMARK 927      BINDING AFFINITY PREDICTED BY RF-SCORE:    0.00 PKD
ROOT
HETATM    1  N   UNL     1     -11.650   6.490  66.878  1.00  0.00    -0.653 N  
HETATM    2  C   UNL     1     -10.800   6.392  67.950  1.00  0.00    -0.322 C  
HETATM    3  H1  UNL     1     -11.227   6.606  65.957  1.00  0.00     0.000 HD 
HETATM    4  H2  UNL     1     -12.662   6.449  66.997  1.00  0.00     0.000 HD 
HETATM    5  O   UNL     1     -11.309   6.252  69.057  1.00  0.00    -0.390 OA 
ENDROOT
BRANCH   2   6
HETATM    6  N   UNL     1      -9.435   6.352  67.620  1.00  0.00    -0.119 N  
HETATM    7  C   UNL     1      -8.758   5.101  67.489  1.00  0.00    -0.103 A  
HETATM    8  C   UNL     1      -9.304   4.088  66.682  1.00  0.00    -0.197 A  
HETATM    9  C   UNL     1      -8.665   2.854  66.561  1.00  0.00    -0.134 A  
HETATM   10  C   UNL     1      -7.483   2.615  67.256  1.00  0.00    -0.061 A  
HETATM   11  C   UNL     1      -6.941   3.609  68.070  1.00  0.00    -0.051 A  
HETATM   12  C   UNL     1      -7.579   4.850  68.195  1.00  0.00    -0.082 A  
HETATM   13  C   UNL     1      -7.018   5.925  69.071  1.00  0.00    -0.068 C  
HETATM   14  C   UNL     1      -6.466   7.046  68.236  1.00  0.00    -0.044 C  
HETATM   15  O   UNL     1      -5.283   7.374  68.347  1.00  0.00    -0.022 OA 
HETATM   16  C   UNL     1      -7.371   7.791  67.305  1.00  0.00    -0.092 A  
HETATM   17  C   UNL     1      -8.739   7.499  67.079  1.00  0.00    -0.127 A  
HETATM   18  C   UNL     1      -9.454   8.394  66.251  1.00  0.00    -0.292 A  
HETATM   19  C   UNL     1      -8.860   9.520  65.672  1.00  0.00    -0.194 A  
HETATM   20  C   UNL     1      -7.521   9.788  65.897  1.00  0.00    -0.103 A  
HETATM   21  C   UNL     1      -6.784   8.928  66.705  1.00  0.00    -0.072 A  
ENDBRANCH   2   6
TORSDOF 1
ENDMDL
MODEL      158
REMARK 921   NORMALIZED FREE ENERGY PREDICTED BY IDOCK:   -2.55 KCAL/MOL
REMARK 922        TOTAL FREE ENERGY PREDICTED BY IDOCK:   -2.77 KCAL/MOL
REMARK 923 INTER-LIGAND FREE ENERGY PREDICTED BY IDOCK:   -3.10 KCAL/MOL
REMARK 924 INTRA-LIGAND FREE ENERGY PREDICTED BY IDOCK:    0.33 KCAL/MOL
REMARK 927      BINDING AFFINITY PREDICTED BY RF-SCORE:    0.00 PKD
ROOT
HETATM    1  N   UNL     1      -6.249   5.791  70.578  1.00  0.00    -0.030 N  
HETATM    2  C   UNL     1      -7.475   5.536  70.021  1.00  0.00    -0.070 C  
HETATM    3  H1  UNL     1      -6.221   6.434  71.369  1.00  0.00     0.000 HD 
HETATM    4  H2  UNL     1      -5.400   5.355  70.217  1.00  0.00     0.000 HD 
HETATM    5  O   UNL     1      -7.509   4.763  69.070  1.00  0.00    -0.056 OA 
ENDROOT
BRANCH   2   6
HETATM    6  N   UNL     1      -8.563   6.117  70.694  1.00  0.00    -0.133 N  
HETATM    7  C   UNL     1      -8.952   5.644  71.985  1.00  0.00    -0.138 A  
HETATM    8  C   UNL     1      -7.992   5.508  73.002  1.00  0.00    -0.105 A  
HETATM    9  C   UNL     1      -8.353   5.027  74.261  1.00  0.00    -0.105 A  
HETATM   10  C   UNL     1      -9.674   4.665  74.511  1.00  0.00    -0.175 A  
HETATM   11  C   UNL     1     -10.631   4.784  73.504  1.00  0.00    -0.305 A  
HETATM   12  C   UNL     1     -10.273   5.266  72.238  1.00  0.00    -0.250 A  
HETATM   13  C   UNL     1     -11.284   5.391  71.142  1.00  0.00     0.085 C  
HETATM   14  C   UNL     1     -11.584   6.837  70.869  1.00  0.00    -0.353 C  
HETATM   15  O   UNL     1     -12.738   7.258  70.966  1.00  0.00    -0.322 OA 
HETATM   16  C   UNL     1     -10.483   7.753  70.435  1.00  0.00    -0.221 A  
HETATM   17  C   UNL     1      -9.118   7.395  70.303  1.00  0.00    -0.151 A  
HETATM   18  C   UNL     1      -8.250   8.371  69.765  1.00  0.00    -0.119 A  
HETATM   19  C   UNL     1      -8.695   9.638  69.373  1.00  0.00    -0.173 A  
HETATM   20  C   UNL     1     -10.029   9.976  69.515  1.00  0.00    -0.249 A  
HETATM   21  C   UNL     1     -10.914   9.042  70.043  1.00  0.00    -0.230 A  
ENDBRANCH   2   6
TORSDOF 1
ENDMDL
MODEL      159
REMARK 921   NORMALIZED FREE ENERGY PREDICTED BY IDOCK:   -2.54 KCAL/MOL
REMARK 922        TOTAL FREE ENERGY PREDICTED BY IDOCK:   -2.76 KCAL/MOL
REMARK 923 INTER-LIGAND FREE ENERGY PREDICTED BY IDOCK:   -3.28 KCAL/MOL
REMARK 924 INTRA-LIGAND FREE ENERGY PREDICTED BY IDOCK:    0.52 KCAL/MOL
REMARK 927      BINDING AFFINITY PREDICTED BY RF-SCORE:    0.00 PKD
ROOT
HETATM    1  N   UNL     1      -9.889  12.160  68.478  1.00  0.00    -0.312 N  
HETATM    2  C   UNL     1     -10.301  11.086  69.224  1.00  0.00    -0.154 C  
HETATM    3  H1  UNL     1      -9.034  12.047  67.932  1.00  0.00     0.000 HD 
HETATM    4  H2  UNL     1     -10.414  13.034  68.468  1.00  0.00     0.000 HD 
HETATM    5  O   UNL     1     -11.328  11.221  69.880  1.00  0.00    -0.277 OA 
ENDROOT
BRANCH   2   6
HETATM    6  N   UNL     1      -9.540   9.917  69.049  1.00  0.00    -0.177 N  
HETATM    7  C   UNL     1      -8.119   9.990  68.920  1.00  0.00    -0.111 A  
HETATM    8  C   UNL     1      -7.366  10.715  69.859  1.00  0.00    -0.074 A  
HETATM    9  C   UNL     1      -5.980  10.812  69.735  1.00  0.00    -0.071 A  
HETATM   10  C   UNL     1      -5.335  10.198  68.664  1.00  0.00    -0.038 A  
HETATM   11  C   UNL     1      -6.077   9.489  67.719  1.00  0.00    -0.052 A  
HETATM   12  C   UNL     1      -7.469   9.388  67.840  1.00  0.00    -0.084 A  
HETATM   13  C   UNL     1      -8.282   8.639  66.832  1.00  0.00    -0.105 C  
HETATM   14  C   UNL     1      -8.810   7.365  67.427  1.00  0.00    -0.123 C  
HETATM   15  O   UNL     1      -8.537   6.282  66.908  1.00  0.00    -0.112 OA 
HETATM   16  C   UNL     1      -9.706   7.423  68.625  1.00  0.00    -0.152 A  
HETATM   17  C   UNL     1     -10.077   8.602  69.319  1.00  0.00    -0.202 A  
HETATM   18  C   UNL     1     -11.028   8.460  70.354  1.00  0.00    -0.249 A  
HETATM   19  C   UNL     1     -11.590   7.225  70.695  1.00  0.00    -0.322 A  
HETATM   20  C   UNL     1     -11.212   6.082  70.013  1.00  0.00    -0.425 A  
HETATM   21  C   UNL     1     -10.276   6.181  68.989  1.00  0.00    -0.237 A  
ENDBRANCH   2   6
TORSDOF 1
ENDMDL
MODEL      160
REMARK 921   NORMALIZED FREE ENERGY PREDICTED BY IDOCK:   -2.52 KCAL/MOL
REMARK 922        TOTAL FREE ENERGY PREDICTED BY IDOCK:   -2.73 KCAL/MOL
REMARK 923 INTER-LIGAND FREE ENERGY PREDICTED BY IDOCK:   -2.68 KCAL/MOL
REMARK 924 INTRA-LIGAND FREE ENERGY PREDICTED BY IDOCK:   -0.05 KCAL/MOL
REMARK 927      BINDING AFFINITY PREDICTED BY RF-SCORE:    0.00 PKD
ROOT
HETATM    1  N   UNL     1      -5.669   5.254  69.359  1.00  0.00    -0.015 N  
HETATM    2  C   UNL     1      -6.291   6.468  69.225  1.00  0.00    -0.035 C  
HETATM    3  H1  UNL     1      -6.160   4.437  68.997  1.00  0.00     0.000 HD 
HETATM    4  H2  UNL     1      -4.755   5.172  69.803  1.00  0.00     0.000 HD 
HETATM    5  O   UNL     1      -5.701   7.451  69.661  1.00  0.00    -0.023 OA 
ENDROOT
BRANCH   2   6
HETATM    6  N   UNL     1      -7.491   6.440  68.494  1.00  0.00    -0.086 N  
HETATM    7  C   UNL     1      -8.738   6.709  69.138  1.00  0.00    -0.130 A  
HETATM    8  C   UNL     1      -8.883   7.858  69.934  1.00  0.00    -0.141 A  
HETATM    9  C   UNL     1     -10.088   8.124  70.586  1.00  0.00    -0.209 A  
HETATM   10  C   UNL     1     -11.153   7.236  70.460  1.00  0.00    -0.290 A  
HETATM   11  C   UNL     1     -11.014   6.086  69.684  1.00  0.00    -0.470 A  
HETATM   12  C   UNL     1      -9.806   5.815  69.028  1.00  0.00    -0.204 A  
HETATM   13  C   UNL     1      -9.634   4.582  68.198  1.00  0.00    -0.203 C  
HETATM   14  C   UNL     1      -9.574   4.936  66.740  1.00  0.00    -0.161 C  
HETATM   15  O   UNL     1     -10.387   4.450  65.952  1.00  0.00    -0.256 OA 
HETATM   16  C   UNL     1      -8.493   5.845  66.242  1.00  0.00    -0.128 A  
HETATM   17  C   UNL     1      -7.514   6.477  67.048  1.00  0.00    -0.087 A  
HETATM   18  C   UNL     1      -6.505   7.203  66.376  1.00  0.00    -0.051 A  
HETATM   19  C   UNL     1      -6.456   7.307  64.982  1.00  0.00    -0.037 A  
HETATM   20  C   UNL     1      -7.423   6.689  64.209  1.00  0.00    -0.096 A  
HETATM   21  C   UNL     1      -8.434   5.967  64.835  1.00  0.00    -0.060 A  
ENDBRANCH   2   6
TORSDOF 1
ENDMDL
MODEL      161
REMARK 921   NORMALIZED FREE ENERGY PREDICTED BY IDOCK:   -2.48 KCAL/MOL
REMARK 922        TOTAL FREE ENERGY PREDICTED BY IDOCK:   -2.69 KCAL/MOL
REMARK 923 INTER-LIGAND FREE ENERGY PREDICTED BY IDOCK:   -2.99 KCAL/MOL
REMARK 924 INTRA-LIGAND FREE ENERGY PREDICTED BY IDOCK:    0.30 KCAL/MOL
REMARK 927      BINDING AFFINITY PREDICTED BY RF-SCORE:    0.00 PKD
ROOT
HETATM    1  N   UNL     1      -6.709   5.321  64.194  1.00  0.00    -0.045 N  
HETATM    2  C   UNL     1      -8.038   5.646  64.279  1.00  0.00    -0.127 C  
HETATM    3  H1  UNL     1      -6.096   5.673  64.929  1.00  0.00     0.000 HD 
HETATM    4  H2  UNL     1      -6.349   4.752  63.429  1.00  0.00     0.000 HD 
HETATM    5  O   UNL     1      -8.776   5.223  63.395  1.00  0.00    -0.096 OA 
ENDROOT
BRANCH   2   6
HETATM    6  N   UNL     1      -8.405   6.339  65.445  1.00  0.00    -0.148 N  
HETATM    7  C   UNL     1      -8.655   5.629  66.660  1.00  0.00    -0.117 A  
HETATM    8  C   UNL     1      -7.719   4.694  67.133  1.00  0.00    -0.090 A  
HETATM    9  C   UNL     1      -7.959   3.979  68.306  1.00  0.00    -0.076 A  
HETATM   10  C   UNL     1      -9.143   4.181  69.010  1.00  0.00    -0.187 A  
HETATM   11  C   UNL     1     -10.085   5.097  68.541  1.00  0.00    -0.214 A  
HETATM   12  C   UNL     1      -9.848   5.817  67.363  1.00  0.00    -0.154 A  
HETATM   13  C   UNL     1     -10.850   6.796  66.839  1.00  0.00    -0.402 C  
HETATM   14  C   UNL     1     -10.346   8.202  67.006  1.00  0.00    -0.333 C  
HETATM   15  O   UNL     1     -10.999   9.019  67.658  1.00  0.00    -0.152 OA 
HETATM   16  C   UNL     1      -9.071   8.616  66.340  1.00  0.00    -0.218 A  
HETATM   17  C   UNL     1      -8.226   7.768  65.581  1.00  0.00    -0.135 A  
HETATM   18  C   UNL     1      -7.128   8.376  64.932  1.00  0.00    -0.079 A  
HETATM   19  C   UNL     1      -6.869   9.747  65.019  1.00  0.00    -0.115 A  
HETATM   20  C   UNL     1      -7.699  10.561  65.769  1.00  0.00    -0.145 A  
HETATM   21  C   UNL     1      -8.789   9.999  66.425  1.00  0.00    -0.158 A  
ENDBRANCH   2   6
TORSDOF 1
ENDMDL
MODEL      162
REMARK 921   NORMALIZED FREE ENERGY PREDICTED BY IDOCK:   -2.41 KCAL/MOL
REMARK 922        TOTAL FREE ENERGY PREDICTED BY IDOCK:   -2.62 KCAL/MOL
REMARK 923 INTER-LIGAND FREE ENERGY PREDICTED BY IDOCK:   -2.92 KCAL/MOL
REMARK 924 INTRA-LIGAND FREE ENERGY PREDICTED BY IDOCK:    0.30 KCAL/MOL
REMARK 927      BINDING AFFINITY PREDICTED BY RF-SCORE:    0.00 PKD
ROOT
HETATM    1  N   UNL     1      -7.227  11.771  69.307  1.00  0.00    -0.306 N  
HETATM    2  C   UNL     1      -6.841  10.490  69.604  1.00  0.00    -0.117 C  
HETATM    3  H1  UNL     1      -7.999  11.883  68.648  1.00  0.00     0.000 HD 
HETATM    4  H2  UNL     1      -6.764  12.577  69.725  1.00  0.00     0.000 HD 
HETATM    5  O   UNL     1      -5.914  10.354  70.396  1.00  0.00    -0.079 OA 
ENDROOT
BRANCH   2   6
HETATM    6  N   UNL     1      -7.644   9.483  69.041  1.00  0.00    -0.073 N  
HETATM    7  C   UNL     1      -8.866   9.094  69.670  1.00  0.00    -0.151 A  
HETATM    8  C   UNL     1      -9.805  10.071  70.044  1.00  0.00    -0.247 A  
HETATM    9  C   UNL     1     -10.993   9.708  70.678  1.00  0.00    -0.386 A  
HETATM   10  C   UNL     1     -11.248   8.368  70.958  1.00  0.00    -0.304 A  
HETATM   11  C   UNL     1     -10.315   7.393  70.604  1.00  0.00    -0.217 A  
HETATM   12  C   UNL     1      -9.121   7.753  69.967  1.00  0.00    -0.150 A  
HETATM   13  C   UNL     1      -8.104   6.723  69.587  1.00  0.00    -0.126 C  
HETATM   14  C   UNL     1      -8.065   6.550  68.096  1.00  0.00    -0.113 C  
HETATM   15  O   UNL     1      -8.277   5.444  67.596  1.00  0.00    -0.101 OA 
HETATM   16  C   UNL     1      -7.722   7.717  67.224  1.00  0.00    -0.113 A  
HETATM   17  C   UNL     1      -7.475   9.037  67.675  1.00  0.00    -0.085 A  
HETATM   18  C   UNL     1      -7.048   9.974  66.707  1.00  0.00    -0.091 A  
HETATM   19  C   UNL     1      -6.872   9.636  65.361  1.00  0.00    -0.094 A  
HETATM   20  C   UNL     1      -7.124   8.345  64.934  1.00  0.00    -0.079 A  
HETATM   21  C   UNL     1      -7.548   7.395  65.858  1.00  0.00    -0.089 A  
ENDBRANCH   2   6
TORSDOF 1
ENDMDL
MODEL      163
REMARK 921   NORMALIZED FREE ENERGY PREDICTED BY IDOCK:   -2.41 KCAL/MOL
REMARK 922        TOTAL FREE ENERGY PREDICTED BY IDOCK:   -2.61 KCAL/MOL
REMARK 923 INTER-LIGAND FREE ENERGY PREDICTED BY IDOCK:   -3.38 KCAL/MOL
REMARK 924 INTRA-LIGAND FREE ENERGY PREDICTED BY IDOCK:    0.77 KCAL/MOL
REMARK 927      BINDING AFFINITY PREDICTED BY RF-SCORE:    0.00 PKD
ROOT
HETATM    1  N   UNL     1      -9.883   6.428  69.533  1.00  0.00    -0.152 N  
HETATM    2  C   UNL     1      -9.971   7.663  68.947  1.00  0.00    -0.176 C  
HETATM    3  H1  UNL     1      -9.586   5.651  68.942  1.00  0.00     0.000 HD 
HETATM    4  H2  UNL     1     -10.105   6.290  70.519  1.00  0.00     0.000 HD 
HETATM    5  O   UNL     1     -10.328   8.597  69.658  1.00  0.00    -0.204 OA 
ENDROOT
BRANCH   2   6
HETATM    6  N   UNL     1      -9.526   7.719  67.615  1.00  0.00    -0.142 N  
HETATM    7  C   UNL     1      -9.397   6.524  66.844  1.00  0.00    -0.146 A  
HETATM    8  C   UNL     1     -10.464   5.611  66.779  1.00  0.00    -0.353 A  
HETATM    9  C   UNL     1     -10.344   4.429  66.047  1.00  0.00    -0.210 A  
HETATM   10  C   UNL     1      -9.154   4.142  65.385  1.00  0.00    -0.139 A  
HETATM   11  C   UNL     1      -8.085   5.035  65.456  1.00  0.00    -0.115 A  
HETATM   12  C   UNL     1      -8.200   6.223  66.189  1.00  0.00    -0.121 A  
HETATM   13  C   UNL     1      -7.061   7.188  66.284  1.00  0.00    -0.074 C  
HETATM   14  C   UNL     1      -7.362   8.432  65.498  1.00  0.00    -0.083 C  
HETATM   15  O   UNL     1      -6.608   8.785  64.589  1.00  0.00    -0.066 OA 
HETATM   16  C   UNL     1      -8.555   9.263  65.854  1.00  0.00    -0.163 A  
HETATM   17  C   UNL     1      -9.501   8.954  66.862  1.00  0.00    -0.177 A  
HETATM   18  C   UNL     1     -10.492   9.927  67.127  1.00  0.00    -0.305 A  
HETATM   19  C   UNL     1     -10.555  11.143  66.439  1.00  0.00    -0.315 A  
HETATM   20  C   UNL     1      -9.628  11.426  65.452  1.00  0.00    -0.255 A  
HETATM   21  C   UNL     1      -8.638  10.493  65.161  1.00  0.00    -0.187 A  
ENDBRANCH   2   6
TORSDOF 1
ENDMDL
MODEL      164
REMARK 921   NORMALIZED FREE ENERGY PREDICTED BY IDOCK:   -2.36 KCAL/MOL
REMARK 922        TOTAL FREE ENERGY PREDICTED BY IDOCK:   -2.56 KCAL/MOL
REMARK 923 INTER-LIGAND FREE ENERGY PREDICTED BY IDOCK:   -2.88 KCAL/MOL
REMARK 924 INTRA-LIGAND FREE ENERGY PREDICTED BY IDOCK:    0.32 KCAL/MOL
REMARK 927      BINDING AFFINITY PREDICTED BY RF-SCORE:    0.00 PKD
ROOT
HETATM    1  N   UNL     1     -10.392   6.375  67.175  1.00  0.00    -0.199 N  
HETATM    2  C   UNL     1      -9.761   7.592  67.185  1.00  0.00    -0.173 C  
HETATM    3  H1  UNL     1     -10.329   5.811  68.023  1.00  0.00     0.000 HD 
HETATM    4  H2  UNL     1     -10.902   6.048  66.355  1.00  0.00     0.000 HD 
HETATM    5  O   UNL     1      -9.836   8.270  66.166  1.00  0.00    -0.196 OA 
ENDROOT
BRANCH   2   6
HETATM    6  N   UNL     1      -9.196   7.955  68.419  1.00  0.00    -0.135 N  
HETATM    7  C   UNL     1     -10.032   8.318  69.520  1.00  0.00    -0.187 A  
HETATM    8  C   UNL     1     -11.097   7.483  69.897  1.00  0.00    -0.185 A  
HETATM    9  C   UNL     1     -11.935   7.834  70.956  1.00  0.00    -0.281 A  
HETATM   10  C   UNL     1     -11.725   9.030  71.638  1.00  0.00    -0.431 A  
HETATM   11  C   UNL     1     -10.679   9.872  71.261  1.00  0.00    -0.039 A  
HETATM   12  C   UNL     1      -9.835   9.524  70.199  1.00  0.00    -0.288 A  
HETATM   13  C   UNL     1      -8.714  10.418  69.774  1.00  0.00     0.027 C  
HETATM   14  C   UNL     1      -7.391   9.811  70.144  1.00  0.00    -0.155 C  
HETATM   15  O   UNL     1      -6.612  10.426  70.874  1.00  0.00    -0.341 OA 
HETATM   16  C   UNL     1      -7.005   8.478  69.583  1.00  0.00    -0.047 A  
HETATM   17  C   UNL     1      -7.817   7.669  68.750  1.00  0.00    -0.120 A  
HETATM   18  C   UNL     1      -7.227   6.497  68.226  1.00  0.00    -0.085 A  
HETATM   19  C   UNL     1      -5.905   6.133  68.504  1.00  0.00    -0.013 A  
HETATM   20  C   UNL     1      -5.127   6.929  69.326  1.00  0.00    -0.014 A  
HETATM   21  C   UNL     1      -5.674   8.090  69.862  1.00  0.00    -0.023 A  
ENDBRANCH   2   6
TORSDOF 1
ENDMDL
MODEL      165
REMARK 921   NORMALIZED FREE ENERGY PREDICTED BY IDOCK:   -2.35 KCAL/MOL
REMARK 922        TOTAL FREE ENERGY PREDICTED BY IDOCK:   -2.55 KCAL/MOL
REMARK 923 INTER-LIGAND FREE ENERGY PREDICTED BY IDOCK:   -3.44 KCAL/MOL
REMARK 924 INTRA-LIGAND FREE ENERGY PREDICTED BY IDOCK:    0.89 KCAL/MOL
REMARK 927      BINDING AFFINITY PREDICTED BY RF-SCORE:    0.00 PKD
ROOT
HETATM    1  N   UNL     1      -9.402  10.747  69.608  1.00  0.00    -0.384 N  
HETATM    2  C   UNL     1      -8.437   9.994  70.225  1.00  0.00     0.098 C  
HETATM    3  H1  UNL     1     -10.290  10.289  69.403  1.00  0.00     0.000 HD 
HETATM    4  H2  UNL     1      -9.239  11.724  69.366  1.00  0.00     0.000 HD 
HETATM    5  O   UNL     1      -7.369  10.545  70.473  1.00  0.00    -0.168 OA 
ENDROOT
BRANCH   2   6
HETATM    6  N   UNL     1      -8.844   8.702  70.599  1.00  0.00    -0.152 N  
HETATM    7  C   UNL     1      -7.899   7.768  71.124  1.00  0.00    -0.089 A  
HETATM    8  C   UNL     1      -7.051   8.146  72.179  1.00  0.00    -0.095 A  
HETATM    9  C   UNL     1      -6.109   7.252  72.688  1.00  0.00    -0.043 A  
HETATM   10  C   UNL     1      -5.995   5.977  72.138  1.00  0.00    -0.036 A  
HETATM   11  C   UNL     1      -6.823   5.599  71.082  1.00  0.00    -0.061 A  
HETATM   12  C   UNL     1      -7.771   6.493  70.567  1.00  0.00    -0.105 A  
HETATM   13  C   UNL     1      -8.661   6.108  69.429  1.00  0.00    -0.123 C  
HETATM   14  C   UNL     1     -10.074   5.930  69.905  1.00  0.00    -0.198 C  
HETATM   15  O   UNL     1     -10.651   4.853  69.742  1.00  0.00    -0.152 OA 
HETATM   16  C   UNL     1     -10.793   7.081  70.537  1.00  0.00    -0.279 A  
HETATM   17  C   UNL     1     -10.236   8.359  70.793  1.00  0.00    -0.194 A  
HETATM   18  C   UNL     1     -11.113   9.350  71.288  1.00  0.00    -0.446 A  
HETATM   19  C   UNL     1     -12.470   9.105  71.521  1.00  0.00    -0.418 A  
HETATM   20  C   UNL     1     -12.998   7.851  71.273  1.00  0.00    -0.230 A  
HETATM   21  C   UNL     1     -12.165   6.848  70.787  1.00  0.00    -0.364 A  
ENDBRANCH   2   6
TORSDOF 1
ENDMDL
MODEL      166
REMARK 921   NORMALIZED FREE ENERGY PREDICTED BY IDOCK:   -2.34 KCAL/MOL
REMARK 922        TOTAL FREE ENERGY PREDICTED BY IDOCK:   -2.54 KCAL/MOL
REMARK 923 INTER-LIGAND FREE ENERGY PREDICTED BY IDOCK:   -2.89 KCAL/MOL
REMARK 924 INTRA-LIGAND FREE ENERGY PREDICTED BY IDOCK:    0.35 KCAL/MOL
REMARK 927      BINDING AFFINITY PREDICTED BY RF-SCORE:    0.00 PKD
ROOT
HETATM    1  N   UNL     1      -6.885   3.346  71.213  1.00  0.00    -0.031 N  
HETATM    2  C   UNL     1      -8.240   3.553  71.205  1.00  0.00    -0.066 C  
HETATM    3  H1  UNL     1      -6.317   3.956  70.624  1.00  0.00     0.000 HD 
HETATM    4  H2  UNL     1      -6.463   2.613  71.783  1.00  0.00     0.000 HD 
HETATM    5  O   UNL     1      -8.923   2.820  71.912  1.00  0.00    -0.076 OA 
ENDROOT
BRANCH   2   6
HETATM    6  N   UNL     1      -8.663   4.668  70.461  1.00  0.00    -0.099 N  
HETATM    7  C   UNL     1      -8.873   5.928  71.101  1.00  0.00    -0.136 A  
HETATM    8  C   UNL     1      -7.878   6.467  71.933  1.00  0.00    -0.103 A  
HETATM    9  C   UNL     1      -8.077   7.687  72.581  1.00  0.00    -0.148 A  
HETATM   10  C   UNL     1      -9.278   8.371  72.415  1.00  0.00    -0.345 A  
HETATM   11  C   UNL     1     -10.278   7.836  71.603  1.00  0.00    -0.225 A  
HETATM   12  C   UNL     1     -10.082   6.612  70.950  1.00  0.00    -0.208 A  
HETATM   13  C   UNL     1     -11.146   6.019  70.082  1.00  0.00    -0.432 C  
HETATM   14  C   UNL     1     -10.743   6.090  68.637  1.00  0.00    -0.297 C  
HETATM   15  O   UNL     1     -11.457   6.681  67.825  1.00  0.00    -0.127 OA 
HETATM   16  C   UNL     1      -9.495   5.400  68.181  1.00  0.00    -0.142 A  
HETATM   17  C   UNL     1      -8.587   4.705  69.017  1.00  0.00    -0.084 A  
HETATM   18  C   UNL     1      -7.529   4.019  68.379  1.00  0.00    -0.059 A  
HETATM   19  C   UNL     1      -7.367   4.012  66.990  1.00  0.00    -0.072 A  
HETATM   20  C   UNL     1      -8.258   4.701  66.187  1.00  0.00    -0.107 A  
HETATM   21  C   UNL     1      -9.311   5.391  66.779  1.00  0.00    -0.136 A  
ENDBRANCH   2   6
TORSDOF 1
ENDMDL
MODEL      167
REMARK 921   NORMALIZED FREE ENERGY PREDICTED BY IDOCK:   -2.32 KCAL/MOL
REMARK 922        TOTAL FREE ENERGY PREDICTED BY IDOCK:   -2.52 KCAL/MOL
REMARK 923 INTER-LIGAND FREE ENERGY PREDICTED BY IDOCK:   -3.37 KCAL/MOL
REMARK 924 INTRA-LIGAND FREE ENERGY PREDICTED BY IDOCK:    0.85 KCAL/MOL
REMARK 927      BINDING AFFINITY PREDICTED BY RF-SCORE:    0.00 PKD
ROOT
HETATM    1  N   UNL     1      -9.948  14.588  64.826  1.00  0.00    -0.525 N  
HETATM    2  C   UNL     1     -10.658  15.611  65.398  1.00  0.00    -0.415 C  
HETATM    3  H1  UNL     1      -9.085  14.303  65.289  1.00  0.00     0.000 HD 
HETATM    4  H2  UNL     1     -10.270  14.131  63.972  1.00  0.00     0.000 HD 
HETATM    5  O   UNL     1     -11.696  15.954  64.842  1.00  0.00    -0.103 OA 
ENDROOT
BRANCH   2   6
HETATM    6  N   UNL     1     -10.152  16.065  66.629  1.00  0.00    -0.269 N  
HETATM    7  C   UNL     1      -9.293  15.233  67.410  1.00  0.00    -0.199 A  
HETATM    8  C   UNL     1      -8.172  14.628  66.816  1.00  0.00     0.003 A  
HETATM    9  C   UNL     1      -7.336  13.796  67.561  1.00  0.00    -0.176 A  
HETATM   10  C   UNL     1      -7.619  13.550  68.902  1.00  0.00    -0.002 A  
HETATM   11  C   UNL     1      -8.737  14.136  69.496  1.00  0.00     0.658 A  
HETATM   12  C   UNL     1      -9.580  14.971  68.752  1.00  0.00    -0.220 A  
HETATM   13  C   UNL     1     -10.788  15.601  69.369  1.00  0.00    -0.264 C  
HETATM   14  C   UNL     1     -10.581  17.079  69.538  1.00  0.00    -0.168 C  
HETATM   15  O   UNL     1     -10.664  17.591  70.656  1.00  0.00     0.722 OA 
HETATM   16  C   UNL     1     -10.318  17.932  68.336  1.00  0.00    -0.380 A  
HETATM   17  C   UNL     1     -10.184  17.461  67.007  1.00  0.00    -0.323 A  
HETATM   18  C   UNL     1     -10.057  18.438  65.993  1.00  0.00    -0.293 A  
HETATM   19  C   UNL     1     -10.061  19.810  66.267  1.00  0.00    -0.601 A  
HETATM   20  C   UNL     1     -10.186  20.254  67.571  1.00  0.00    -0.486 A  
HETATM   21  C   UNL     1     -10.311  19.322  68.596  1.00  0.00    -0.330 A  
ENDBRANCH   2   6
TORSDOF 1
ENDMDL
MODEL      168
REMARK 921   NORMALIZED FREE ENERGY PREDICTED BY IDOCK:   -2.31 KCAL/MOL
REMARK 922        TOTAL FREE ENERGY PREDICTED BY IDOCK:   -2.51 KCAL/MOL
REMARK 923 INTER-LIGAND FREE ENERGY PREDICTED BY IDOCK:   -2.81 KCAL/MOL
REMARK 924 INTRA-LIGAND FREE ENERGY PREDICTED BY IDOCK:    0.31 KCAL/MOL
REMARK 927      BINDING AFFINITY PREDICTED BY RF-SCORE:    0.00 PKD
ROOT
HETATM    1  N   UNL     1     -11.022   7.990  68.174  1.00  0.00    -0.441 N  
HETATM    2  C   UNL     1     -10.545   8.733  69.223  1.00  0.00    -0.197 C  
HETATM    3  H1  UNL     1     -10.427   7.237  67.828  1.00  0.00     0.000 HD 
HETATM    4  H2  UNL     1     -11.933   8.183  67.758  1.00  0.00     0.000 HD 
HETATM    5  O   UNL     1     -11.260   9.638  69.639  1.00  0.00    -0.220 OA 
ENDROOT
BRANCH   2   6
HETATM    6  N   UNL     1      -9.330   8.279  69.764  1.00  0.00    -0.158 N  
HETATM    7  C   UNL     1      -9.300   7.141  70.626  1.00  0.00    -0.158 A  
HETATM    8  C   UNL     1      -9.933   5.948  70.236  1.00  0.00    -0.247 A  
HETATM    9  C   UNL     1      -9.931   4.835  71.077  1.00  0.00    -0.279 A  
HETATM   10  C   UNL     1      -9.309   4.908  72.321  1.00  0.00    -0.165 A  
HETATM   11  C   UNL     1      -8.691   6.092  72.722  1.00  0.00    -0.124 A  
HETATM   12  C   UNL     1      -8.691   7.212  71.881  1.00  0.00    -0.126 A  
HETATM   13  C   UNL     1      -8.041   8.493  72.298  1.00  0.00    -0.150 C  
HETATM   14  C   UNL     1      -6.790   8.730  71.502  1.00  0.00    -0.084 C  
HETATM   15  O   UNL     1      -5.708   8.863  72.077  1.00  0.00    -0.054 OA 
HETATM   16  C   UNL     1      -6.871   8.849  70.012  1.00  0.00    -0.043 A  
HETATM   17  C   UNL     1      -8.049   8.698  69.238  1.00  0.00    -0.112 A  
HETATM   18  C   UNL     1      -7.941   8.966  67.855  1.00  0.00    -0.102 A  
HETATM   19  C   UNL     1      -6.741   9.362  67.256  1.00  0.00    -0.075 A  
HETATM   20  C   UNL     1      -5.598   9.497  68.025  1.00  0.00    -0.040 A  
HETATM   21  C   UNL     1      -5.663   9.240  69.390  1.00  0.00    -0.034 A  
ENDBRANCH   2   6
TORSDOF 1
ENDMDL
MODEL      169
REMARK 921   NORMALIZED FREE ENERGY PREDICTED BY IDOCK:   -2.30 KCAL/MOL
REMARK 922        TOTAL FREE ENERGY PREDICTED BY IDOCK:   -2.50 KCAL/MOL
REMARK 923 INTER-LIGAND FREE ENERGY PREDICTED BY IDOCK:   -3.02 KCAL/MOL
REMARK 924 INTRA-LIGAND FREE ENERGY PREDICTED BY IDOCK:    0.52 KCAL/MOL
REMARK 927      BINDING AFFINITY PREDICTED BY RF-SCORE:    0.00 PKD
ROOT
HETATM    1  N   UNL     1      -8.949   5.232  64.309  1.00  0.00    -0.357 N  
HETATM    2  C   UNL     1      -8.685   5.317  65.652  1.00  0.00    -0.146 C  
HETATM    3  H1  UNL     1      -9.256   6.085  63.840  1.00  0.00     0.000 HD 
HETATM    4  H2  UNL     1      -8.843   4.354  63.801  1.00  0.00     0.000 HD 
HETATM    5  O   UNL     1      -8.316   4.292  66.216  1.00  0.00    -0.108 OA 
ENDROOT
BRANCH   2   6
HETATM    6  N   UNL     1      -8.767   6.612  66.190  1.00  0.00    -0.145 N  
HETATM    7  C   UNL     1      -9.095   6.805  67.567  1.00  0.00    -0.117 A  
HETATM    8  C   UNL     1      -8.398   6.097  68.561  1.00  0.00    -0.114 A  
HETATM    9  C   UNL     1      -8.721   6.259  69.908  1.00  0.00    -0.141 A  
HETATM   10  C   UNL     1      -9.754   7.119  70.274  1.00  0.00    -0.175 A  
HETATM   11  C   UNL     1     -10.460   7.815  69.294  1.00  0.00    -0.221 A  
HETATM   12  C   UNL     1     -10.139   7.656  67.939  1.00  0.00    -0.231 A  
HETATM   13  C   UNL     1     -10.891   8.387  66.873  1.00  0.00     0.019 C  
HETATM   14  C   UNL     1     -10.030   9.454  66.262  1.00  0.00    -0.283 C  
HETATM   15  O   UNL     1     -10.395  10.631  66.282  1.00  0.00    -0.242 OA 
HETATM   16  C   UNL     1      -8.748   9.075  65.587  1.00  0.00    -0.205 A  
HETATM   17  C   UNL     1      -8.214   7.764  65.512  1.00  0.00    -0.137 A  
HETATM   18  C   UNL     1      -7.051   7.593  64.727  1.00  0.00    -0.064 A  
HETATM   19  C   UNL     1      -6.439   8.652  64.049  1.00  0.00    -0.072 A  
HETATM   20  C   UNL     1      -6.969   9.927  64.138  1.00  0.00    -0.128 A  
HETATM   21  C   UNL     1      -8.112  10.136  64.902  1.00  0.00    -0.153 A  
ENDBRANCH   2   6
TORSDOF 1
ENDMDL
MODEL      170
REMARK 921   NORMALIZED FREE ENERGY PREDICTED BY IDOCK:   -2.30 KCAL/MOL
REMARK 922        TOTAL FREE ENERGY PREDICTED BY IDOCK:   -2.50 KCAL/MOL
REMARK 923 INTER-LIGAND FREE ENERGY PREDICTED BY IDOCK:   -3.59 KCAL/MOL
REMARK 924 INTRA-LIGAND FREE ENERGY PREDICTED BY IDOCK:    1.09 KCAL/MOL
REMARK 927      BINDING AFFINITY PREDICTED BY RF-SCORE:    0.00 PKD
ROOT
HETATM    1  N   UNL     1      -6.130  13.060  67.454  1.00  0.00    -0.139 N  
HETATM    2  C   UNL     1      -7.292  12.557  66.930  1.00  0.00     0.132 C  
HETATM    3  H1  UNL     1      -6.101  14.062  67.647  1.00  0.00     0.000 HD 
HETATM    4  H2  UNL     1      -5.328  12.459  67.643  1.00  0.00     0.000 HD 
HETATM    5  O   UNL     1      -7.327  11.353  66.698  1.00  0.00    -0.144 OA 
ENDROOT
BRANCH   2   6
HETATM    6  N   UNL     1      -8.345  13.482  66.831  1.00  0.00    -0.067 N  
HETATM    7  C   UNL     1      -9.702  13.052  66.958  1.00  0.00    -0.235 A  
HETATM    8  C   UNL     1     -10.086  12.257  68.051  1.00  0.00    -0.206 A  
HETATM    9  C   UNL     1     -11.402  11.812  68.179  1.00  0.00    -0.348 A  
HETATM   10  C   UNL     1     -12.342  12.145  67.207  1.00  0.00     0.715 A  
HETATM   11  C   UNL     1     -11.967  12.922  66.112  1.00  0.00    -0.491 A  
HETATM   12  C   UNL     1     -10.646  13.371  65.980  1.00  0.00    -0.290 A  
HETATM   13  C   UNL     1     -10.223  14.197  64.807  1.00  0.00    -0.311 C  
HETATM   14  C   UNL     1      -9.953  15.612  65.233  1.00  0.00    -0.194 C  
HETATM   15  O   UNL     1     -10.574  16.542  64.714  1.00  0.00    -0.684 OA 
HETATM   16  C   UNL     1      -8.896  15.889  66.256  1.00  0.00    -0.386 A  
HETATM   17  C   UNL     1      -8.130  14.909  66.933  1.00  0.00    -0.084 A  
HETATM   18  C   UNL     1      -7.096  15.377  67.776  1.00  0.00    -0.185 A  
HETATM   19  C   UNL     1      -6.825  16.738  67.949  1.00  0.00    -0.156 A  
HETATM   20  C   UNL     1      -7.587  17.684  67.286  1.00  0.00    -0.217 A  
HETATM   21  C   UNL     1      -8.615  17.262  66.449  1.00  0.00    -0.294 A  
ENDBRANCH   2   6
TORSDOF 1
ENDMDL
MODEL      171
REMARK 921   NORMALIZED FREE ENERGY PREDICTED BY IDOCK:   -2.24 KCAL/MOL
REMARK 922        TOTAL FREE ENERGY PREDICTED BY IDOCK:   -2.44 KCAL/MOL
REMARK 923 INTER-LIGAND FREE ENERGY PREDICTED BY IDOCK:   -3.11 KCAL/MOL
REMARK 924 INTRA-LIGAND FREE ENERGY PREDICTED BY IDOCK:    0.67 KCAL/MOL
REMARK 927      BINDING AFFINITY PREDICTED BY RF-SCORE:    0.00 PKD
ROOT
HETATM    1  N   UNL     1     -11.034   5.998  68.207  1.00  0.00    -0.300 N  
HETATM    2  C   UNL     1      -9.983   5.276  68.711  1.00  0.00    -0.174 C  
HETATM    3  H1  UNL     1     -11.300   6.845  68.710  1.00  0.00     0.000 HD 
HETATM    4  H2  UNL     1     -11.528   5.701  67.366  1.00  0.00     0.000 HD 
HETATM    5  O   UNL     1      -9.662   4.258  68.107  1.00  0.00    -0.155 OA 
ENDROOT
BRANCH   2   6
HETATM    6  N   UNL     1      -9.331   5.867  69.806  1.00  0.00    -0.146 N  
HETATM    7  C   UNL     1      -7.945   6.207  69.727  1.00  0.00    -0.110 A  
HETATM    8  C   UNL     1      -7.467   6.954  68.637  1.00  0.00    -0.099 A  
HETATM    9  C   UNL     1      -6.113   7.276  68.536  1.00  0.00    -0.027 A  
HETATM   10  C   UNL     1      -5.223   6.840  69.514  1.00  0.00    -0.014 A  
HETATM   11  C   UNL     1      -5.686   6.086  70.591  1.00  0.00    -0.018 A  
HETATM   12  C   UNL     1      -7.044   5.760  70.697  1.00  0.00    -0.073 A  
HETATM   13  C   UNL     1      -7.558   4.944  71.840  1.00  0.00    -0.097 C  
HETATM   14  C   UNL     1      -8.378   5.797  72.767  1.00  0.00    -0.119 C  
HETATM   15  O   UNL     1      -8.063   5.898  73.954  1.00  0.00    -0.109 OA 
HETATM   16  C   UNL     1      -9.603   6.485  72.250  1.00  0.00    -0.149 A  
HETATM   17  C   UNL     1     -10.057   6.459  70.908  1.00  0.00    -0.187 A  
HETATM   18  C   UNL     1     -11.302   7.074  70.644  1.00  0.00    -0.349 A  
HETATM   19  C   UNL     1     -12.066   7.684  71.643  1.00  0.00    -0.336 A  
HETATM   20  C   UNL     1     -11.606   7.707  72.948  1.00  0.00    -0.280 A  
HETATM   21  C   UNL     1     -10.383   7.114  73.247  1.00  0.00    -0.369 A  
ENDBRANCH   2   6
TORSDOF 1
ENDMDL
MODEL      172
REMARK 921   NORMALIZED FREE ENERGY PREDICTED BY IDOCK:   -2.19 KCAL/MOL
REMARK 922        TOTAL FREE ENERGY PREDICTED BY IDOCK:   -2.38 KCAL/MOL
REMARK 923 INTER-LIGAND FREE ENERGY PREDICTED BY IDOCK:   -3.09 KCAL/MOL
REMARK 924 INTRA-LIGAND FREE ENERGY PREDICTED BY IDOCK:    0.72 KCAL/MOL
REMARK 927      BINDING AFFINITY PREDICTED BY RF-SCORE:    0.00 PKD
ROOT
HETATM    1  N   UNL     1     -11.631   6.636  68.305  1.00  0.00    -0.442 N  
HETATM    2  C   UNL     1     -11.412   6.422  69.641  1.00  0.00    -0.378 C  
HETATM    3  H1  UNL     1     -10.853   6.453  67.670  1.00  0.00     0.000 HD 
HETATM    4  H2  UNL     1     -12.533   6.963  67.960  1.00  0.00     0.000 HD 
HETATM    5  O   UNL     1     -12.346   6.641  70.404  1.00  0.00    -0.274 OA 
ENDROOT
BRANCH   2   6
HETATM    6  N   UNL     1     -10.160   5.864  69.953  1.00  0.00    -0.183 N  
HETATM    7  C   UNL     1      -9.054   6.023  69.062  1.00  0.00    -0.122 A  
HETATM    8  C   UNL     1      -8.716   7.300  68.584  1.00  0.00    -0.127 A  
HETATM    9  C   UNL     1      -7.652   7.469  67.698  1.00  0.00    -0.113 A  
HETATM   10  C   UNL     1      -6.925   6.361  67.270  1.00  0.00    -0.072 A  
HETATM   11  C   UNL     1      -7.261   5.088  67.729  1.00  0.00    -0.070 A  
HETATM   12  C   UNL     1      -8.329   4.914  68.619  1.00  0.00    -0.083 A  
HETATM   13  C   UNL     1      -8.711   3.555  69.115  1.00  0.00    -0.136 C  
HETATM   14  C   UNL     1      -8.353   3.407  70.566  1.00  0.00    -0.060 C  
HETATM   15  O   UNL     1      -7.594   2.506  70.926  1.00  0.00    -0.036 OA 
HETATM   16  C   UNL     1      -8.959   4.331  71.576  1.00  0.00    -0.161 A  
HETATM   17  C   UNL     1      -9.829   5.411  71.286  1.00  0.00    -0.179 A  
HETATM   18  C   UNL     1     -10.391   6.093  72.389  1.00  0.00    -0.219 A  
HETATM   19  C   UNL     1     -10.116   5.735  73.713  1.00  0.00    -0.220 A  
HETATM   20  C   UNL     1      -9.259   4.682  73.981  1.00  0.00    -0.114 A  
HETATM   21  C   UNL     1      -8.684   3.988  72.921  1.00  0.00    -0.103 A  
ENDBRANCH   2   6
TORSDOF 1
ENDMDL
MODEL      173
REMARK 921   NORMALIZED FREE ENERGY PREDICTED BY IDOCK:   -2.18 KCAL/MOL
REMARK 922        TOTAL FREE ENERGY PREDICTED BY IDOCK:   -2.38 KCAL/MOL
REMARK 923 INTER-LIGAND FREE ENERGY PREDICTED BY IDOCK:   -2.81 KCAL/MOL
REMARK 924 INTRA-LIGAND FREE ENERGY PREDICTED BY IDOCK:    0.44 KCAL/MOL
REMARK 927      BINDING AFFINITY PREDICTED BY RF-SCORE:    0.00 PKD
ROOT
HETATM    1  N   UNL     1      -8.585   5.799  74.475  1.00  0.00    -0.117 N  
HETATM    2  C   UNL     1      -9.240   4.938  73.633  1.00  0.00    -0.122 C  
HETATM    3  H1  UNL     1      -7.967   6.488  74.047  1.00  0.00     0.000 HD 
HETATM    4  H2  UNL     1      -8.710   5.751  75.486  1.00  0.00     0.000 HD 
HETATM    5  O   UNL     1      -9.984   4.109  74.147  1.00  0.00    -0.123 OA 
ENDROOT
BRANCH   2   6
HETATM    6  N   UNL     1      -9.058   5.196  72.264  1.00  0.00    -0.131 N  
HETATM    7  C   UNL     1      -9.378   6.477  71.719  1.00  0.00    -0.149 A  
HETATM    8  C   UNL     1      -8.880   7.643  72.326  1.00  0.00    -0.170 A  
HETATM    9  C   UNL     1      -9.201   8.902  71.818  1.00  0.00    -0.279 A  
HETATM   10  C   UNL     1     -10.035   9.008  70.708  1.00  0.00    -0.307 A  
HETATM   11  C   UNL     1     -10.546   7.858  70.108  1.00  0.00    -0.237 A  
HETATM   12  C   UNL     1     -10.226   6.591  70.614  1.00  0.00    -0.220 A  
HETATM   13  C   UNL     1     -10.772   5.347  69.990  1.00  0.00    -0.296 C  
HETATM   14  C   UNL     1      -9.683   4.598  69.276  1.00  0.00    -0.196 C  
HETATM   15  O   UNL     1      -9.788   4.353  68.073  1.00  0.00    -0.142 OA 
HETATM   16  C   UNL     1      -8.493   4.111  70.043  1.00  0.00    -0.091 A  
HETATM   17  C   UNL     1      -8.251   4.342  71.420  1.00  0.00    -0.091 A  
HETATM   18  C   UNL     1      -7.129   3.697  71.988  1.00  0.00    -0.048 A  
HETATM   19  C   UNL     1      -6.284   2.866  71.245  1.00  0.00    -0.018 A  
HETATM   20  C   UNL     1      -6.529   2.656  69.900  1.00  0.00    -0.029 A  
HETATM   21  C   UNL     1      -7.623   3.275  69.304  1.00  0.00    -0.048 A  
ENDBRANCH   2   6
TORSDOF 1
ENDMDL
MODEL      174
REMARK 921   NORMALIZED FREE ENERGY PREDICTED BY IDOCK:   -2.17 KCAL/MOL
REMARK 922        TOTAL FREE ENERGY PREDICTED BY IDOCK:   -2.36 KCAL/MOL
REMARK 923 INTER-LIGAND FREE ENERGY PREDICTED BY IDOCK:   -2.30 KCAL/MOL
REMARK 924 INTRA-LIGAND FREE ENERGY PREDICTED BY IDOCK:   -0.06 KCAL/MOL
REMARK 927      BINDING AFFINITY PREDICTED BY RF-SCORE:    0.00 PKD
ROOT
HETATM    1  N   UNL     1      -7.154   9.381  66.924  1.00  0.00    -0.085 N  
HETATM    2  C   UNL     1      -8.291   9.213  67.670  1.00  0.00    -0.116 C  
HETATM    3  H1  UNL     1      -6.451   8.643  66.973  1.00  0.00     0.000 HD 
HETATM    4  H2  UNL     1      -7.016  10.209  66.344  1.00  0.00     0.000 HD 
HETATM    5  O   UNL     1      -9.136  10.100  67.612  1.00  0.00    -0.137 OA 
ENDROOT
BRANCH   2   6
HETATM    6  N   UNL     1      -8.389   7.975  68.328  1.00  0.00    -0.123 N  
HETATM    7  C   UNL     1      -8.210   7.889  69.743  1.00  0.00    -0.121 A  
HETATM    8  C   UNL     1      -8.921   8.752  70.593  1.00  0.00    -0.219 A  
HETATM    9  C   UNL     1      -8.742   8.694  71.976  1.00  0.00    -0.235 A  
HETATM   10  C   UNL     1      -7.838   7.785  72.519  1.00  0.00    -0.134 A  
HETATM   11  C   UNL     1      -7.117   6.934  71.681  1.00  0.00    -0.074 A  
HETATM   12  C   UNL     1      -7.295   6.988  70.293  1.00  0.00    -0.084 A  
HETATM   13  C   UNL     1      -6.524   6.091  69.378  1.00  0.00    -0.042 C  
HETATM   14  C   UNL     1      -7.427   5.051  68.780  1.00  0.00    -0.069 C  
HETATM   15  O   UNL     1      -7.184   3.854  68.942  1.00  0.00    -0.053 OA 
HETATM   16  C   UNL     1      -8.597   5.476  67.948  1.00  0.00    -0.104 A  
HETATM   17  C   UNL     1      -8.989   6.816  67.702  1.00  0.00    -0.115 A  
HETATM   18  C   UNL     1     -10.051   7.014  66.792  1.00  0.00    -0.270 A  
HETATM   19  C   UNL     1     -10.700   5.953  66.152  1.00  0.00     0.107 A  
HETATM   20  C   UNL     1     -10.311   4.650  66.407  1.00  0.00    -0.264 A  
HETATM   21  C   UNL     1      -9.270   4.415  67.299  1.00  0.00    -0.160 A  
ENDBRANCH   2   6
TORSDOF 1
ENDMDL
MODEL      175
REMARK 921   NORMALIZED FREE ENERGY PREDICTED BY IDOCK:   -2.14 KCAL/MOL
REMARK 922        TOTAL FREE ENERGY PREDICTED BY IDOCK:   -2.33 KCAL/MOL
REMARK 923 INTER-LIGAND FREE ENERGY PREDICTED BY IDOCK:   -2.85 KCAL/MOL
REMARK 924 INTRA-LIGAND FREE ENERGY PREDICTED BY IDOCK:    0.52 KCAL/MOL
REMARK 927      BINDING AFFINITY PREDICTED BY RF-SCORE:    0.00 PKD
ROOT
HETATM    1  N   UNL     1      -5.751   7.890  70.894  1.00  0.00    -0.033 N  
HETATM    2  C   UNL     1      -6.568   7.923  69.793  1.00  0.00    -0.034 C  
HETATM    3  H1  UNL     1      -6.086   7.374  71.707  1.00  0.00     0.000 HD 
HETATM    4  H2  UNL     1      -4.848   8.363  70.899  1.00  0.00     0.000 HD 
HETATM    5  O   UNL     1      -6.165   8.544  68.815  1.00  0.00    -0.044 OA 
ENDROOT
BRANCH   2   6
HETATM    6  N   UNL     1      -7.727   7.134  69.893  1.00  0.00    -0.105 N  
HETATM    7  C   UNL     1      -7.866   5.949  69.107  1.00  0.00    -0.095 A  
HETATM    8  C   UNL     1      -6.837   4.992  69.091  1.00  0.00    -0.054 A  
HETATM    9  C   UNL     1      -6.950   3.840  68.312  1.00  0.00    -0.051 A  
HETATM   10  C   UNL     1      -8.086   3.641  67.531  1.00  0.00    -0.089 A  
HETATM   11  C   UNL     1      -9.106   4.592  67.530  1.00  0.00    -0.134 A  
HETATM   12  C   UNL     1      -8.997   5.750  68.310  1.00  0.00    -0.115 A  
HETATM   13  C   UNL     1     -10.076   6.786  68.315  1.00  0.00    -0.173 C  
HETATM   14  C   UNL     1     -10.805   6.777  69.628  1.00  0.00    -0.271 C  
HETATM   15  O   UNL     1     -12.022   6.584  69.657  1.00  0.00    -0.216 OA 
HETATM   16  C   UNL     1     -10.054   7.050  70.894  1.00  0.00    -0.204 A  
HETATM   17  C   UNL     1      -8.658   7.269  70.992  1.00  0.00    -0.128 A  
HETATM   18  C   UNL     1      -8.155   7.628  72.263  1.00  0.00    -0.127 A  
HETATM   19  C   UNL     1      -8.979   7.767  73.385  1.00  0.00    -0.314 A  
HETATM   20  C   UNL     1     -10.340   7.543  73.275  1.00  0.00    -0.412 A  
HETATM   21  C   UNL     1     -10.871   7.185  72.040  1.00  0.00    -0.252 A  
ENDBRANCH   2   6
TORSDOF 1
ENDMDL
MODEL      176
REMARK 921   NORMALIZED FREE ENERGY PREDICTED BY IDOCK:   -2.10 KCAL/MOL
REMARK 922        TOTAL FREE ENERGY PREDICTED BY IDOCK:   -2.29 KCAL/MOL
REMARK 923 INTER-LIGAND FREE ENERGY PREDICTED BY IDOCK:   -3.09 KCAL/MOL
REMARK 924 INTRA-LIGAND FREE ENERGY PREDICTED BY IDOCK:    0.79 KCAL/MOL
REMARK 927      BINDING AFFINITY PREDICTED BY RF-SCORE:    0.00 PKD
ROOT
HETATM    1  N   UNL     1      -9.003   6.661  73.370  1.00  0.00    -0.123 N  
HETATM    2  C   UNL     1      -9.264   5.763  72.368  1.00  0.00    -0.143 C  
HETATM    3  H1  UNL     1      -8.665   7.583  73.092  1.00  0.00     0.000 HD 
HETATM    4  H2  UNL     1      -9.140   6.418  74.351  1.00  0.00     0.000 HD 
HETATM    5  O   UNL     1      -9.670   4.654  72.701  1.00  0.00    -0.137 OA 
ENDROOT
BRANCH   2   6
HETATM    6  N   UNL     1      -9.137   6.275  71.066  1.00  0.00    -0.153 N  
HETATM    7  C   UNL     1      -8.448   7.506  70.836  1.00  0.00    -0.125 A  
HETATM    8  C   UNL     1      -7.167   7.705  71.377  1.00  0.00    -0.066 A  
HETATM    9  C   UNL     1      -6.491   8.909  71.178  1.00  0.00    -0.066 A  
HETATM   10  C   UNL     1      -7.095   9.931  70.450  1.00  0.00    -0.146 A  
HETATM   11  C   UNL     1      -8.372   9.747  69.922  1.00  0.00    -0.198 A  
HETATM   12  C   UNL     1      -9.055   8.540  70.118  1.00  0.00    -0.154 A  
HETATM   13  C   UNL     1     -10.429   8.328  69.567  1.00  0.00    -0.228 C  
HETATM   14  C   UNL     1     -10.392   7.348  68.430  1.00  0.00    -0.194 C  
HETATM   15  O   UNL     1     -10.807   7.677  67.317  1.00  0.00    -0.293 OA 
HETATM   16  C   UNL     1      -9.893   5.957  68.667  1.00  0.00    -0.170 A  
HETATM   17  C   UNL     1      -9.378   5.465  69.892  1.00  0.00    -0.140 A  
HETATM   18  C   UNL     1      -9.068   4.088  69.947  1.00  0.00    -0.185 A  
HETATM   19  C   UNL     1      -9.254   3.231  68.857  1.00  0.00    -0.228 A  
HETATM   20  C   UNL     1      -9.752   3.728  67.665  1.00  0.00    -0.136 A  
HETATM   21  C   UNL     1     -10.066   5.079  67.571  1.00  0.00    -0.201 A  
ENDBRANCH   2   6
TORSDOF 1
ENDMDL
MODEL      177
REMARK 921   NORMALIZED FREE ENERGY PREDICTED BY IDOCK:   -2.05 KCAL/MOL
REMARK 922        TOTAL FREE ENERGY PREDICTED BY IDOCK:   -2.24 KCAL/MOL
REMARK 923 INTER-LIGAND FREE ENERGY PREDICTED BY IDOCK:   -2.27 KCAL/MOL
REMARK 924 INTRA-LIGAND FREE ENERGY PREDICTED BY IDOCK:    0.04 KCAL/MOL
REMARK 927      BINDING AFFINITY PREDICTED BY RF-SCORE:    0.00 PKD
ROOT
HETATM    1  N   UNL     1     -11.743   6.366  71.399  1.00  0.00    -0.317 N  
HETATM    2  C   UNL     1     -10.670   6.190  72.234  1.00  0.00    -0.229 C  
HETATM    3  H1  UNL     1     -11.576   6.262  70.398  1.00  0.00     0.000 HD 
HETATM    4  H2  UNL     1     -12.669   6.592  71.763  1.00  0.00     0.000 HD 
HETATM    5  O   UNL     1     -10.871   6.316  73.438  1.00  0.00    -0.258 OA 
ENDROOT
BRANCH   2   6
HETATM    6  N   UNL     1      -9.488   5.773  71.599  1.00  0.00    -0.152 N  
HETATM    7  C   UNL     1      -8.649   6.720  70.936  1.00  0.00    -0.137 A  
HETATM    8  C   UNL     1      -8.249   7.891  71.603  1.00  0.00    -0.132 A  
HETATM    9  C   UNL     1      -7.446   8.835  70.962  1.00  0.00    -0.105 A  
HETATM   10  C   UNL     1      -7.048   8.625  69.644  1.00  0.00    -0.055 A  
HETATM   11  C   UNL     1      -7.452   7.473  68.970  1.00  0.00    -0.096 A  
HETATM   12  C   UNL     1      -8.258   6.522  69.609  1.00  0.00    -0.126 A  
HETATM   13  C   UNL     1      -8.709   5.286  68.900  1.00  0.00    -0.094 C  
HETATM   14  C   UNL     1      -8.007   4.079  69.452  1.00  0.00    -0.055 C  
HETATM   15  O   UNL     1      -7.335   3.360  68.709  1.00  0.00    -0.049 OA 
HETATM   16  C   UNL     1      -8.164   3.728  70.899  1.00  0.00    -0.078 A  
HETATM   17  C   UNL     1      -8.892   4.480  71.854  1.00  0.00    -0.118 A  
HETATM   18  C   UNL     1      -9.022   3.919  73.144  1.00  0.00    -0.114 A  
HETATM   19  C   UNL     1      -8.466   2.682  73.486  1.00  0.00    -0.071 A  
HETATM   20  C   UNL     1      -7.751   1.962  72.544  1.00  0.00    -0.044 A  
HETATM   21  C   UNL     1      -7.600   2.483  71.263  1.00  0.00    -0.040 A  
ENDBRANCH   2   6
TORSDOF 1
ENDMDL
MODEL      178
REMARK 921   NORMALIZED FREE ENERGY PREDICTED BY IDOCK:   -1.95 KCAL/MOL
REMARK 922        TOTAL FREE ENERGY PREDICTED BY IDOCK:   -2.13 KCAL/MOL
REMARK 923 INTER-LIGAND FREE ENERGY PREDICTED BY IDOCK:   -2.15 KCAL/MOL
REMARK 924 INTRA-LIGAND FREE ENERGY PREDICTED BY IDOCK:    0.03 KCAL/MOL
REMARK 927      BINDING AFFINITY PREDICTED BY RF-SCORE:    0.00 PKD
ROOT
HETATM    1  N   UNL     1      -8.542   5.818  74.478  1.00  0.00    -0.117 N  
HETATM    2  C   UNL     1      -9.086   5.009  73.514  1.00  0.00    -0.123 C  
HETATM    3  H1  UNL     1      -7.869   6.521  74.171  1.00  0.00     0.000 HD 
HETATM    4  H2  UNL     1      -8.800   5.722  75.460  1.00  0.00     0.000 HD 
HETATM    5  O   UNL     1      -9.895   4.165  73.883  1.00  0.00    -0.112 OA 
ENDROOT
BRANCH   2   6
HETATM    6  N   UNL     1      -8.722   5.333  72.196  1.00  0.00    -0.129 N  
HETATM    7  C   UNL     1      -8.095   4.360  71.358  1.00  0.00    -0.083 A  
HETATM    8  C   UNL     1      -8.662   3.082  71.221  1.00  0.00    -0.121 A  
HETATM    9  C   UNL     1      -8.050   2.115  70.422  1.00  0.00    -0.055 A  
HETATM   10  C   UNL     1      -6.859   2.412  69.766  1.00  0.00    -0.033 A  
HETATM   11  C   UNL     1      -6.281   3.674  69.907  1.00  0.00    -0.027 A  
HETATM   12  C   UNL     1      -6.892   4.648  70.708  1.00  0.00    -0.036 A  
HETATM   13  C   UNL     1      -6.283   6.003  70.879  1.00  0.00    -0.039 C  
HETATM   14  C   UNL     1      -7.100   7.039  70.163  1.00  0.00    -0.067 C  
HETATM   15  O   UNL     1      -6.583   7.739  69.290  1.00  0.00    -0.038 OA 
HETATM   16  C   UNL     1      -8.532   7.249  70.546  1.00  0.00    -0.138 A  
HETATM   17  C   UNL     1      -9.242   6.501  71.518  1.00  0.00    -0.144 A  
HETATM   18  C   UNL     1     -10.553   6.930  71.823  1.00  0.00    -0.235 A  
HETATM   19  C   UNL     1     -11.143   8.039  71.207  1.00  0.00    -0.279 A  
HETATM   20  C   UNL     1     -10.440   8.755  70.254  1.00  0.00    -0.231 A  
HETATM   21  C   UNL     1      -9.147   8.361  69.926  1.00  0.00    -0.146 A  
ENDBRANCH   2   6
TORSDOF 1
ENDMDL
MODEL      179
REMARK 921   NORMALIZED FREE ENERGY PREDICTED BY IDOCK:   -1.84 KCAL/MOL
REMARK 922        TOTAL FREE ENERGY PREDICTED BY IDOCK:   -2.01 KCAL/MOL
REMARK 923 INTER-LIGAND FREE ENERGY PREDICTED BY IDOCK:   -2.53 KCAL/MOL
REMARK 924 INTRA-LIGAND FREE ENERGY PREDICTED BY IDOCK:    0.51 KCAL/MOL
REMARK 927      BINDING AFFINITY PREDICTED BY RF-SCORE:    0.00 PKD
ROOT
HETATM    1  N   UNL     1      -5.384   9.863  66.888  1.00  0.00    -0.041 N  
HETATM    2  C   UNL     1      -6.031   9.752  68.090  1.00  0.00    -0.046 C  
HETATM    3  H1  UNL     1      -5.791   9.371  66.092  1.00  0.00     0.000 HD 
HETATM    4  H2  UNL     1      -4.530  10.414  66.793  1.00  0.00     0.000 HD 
HETATM    5  O   UNL     1      -5.542  10.343  69.047  1.00  0.00    -0.041 OA 
ENDROOT
BRANCH   2   6
HETATM    6  N   UNL     1      -7.251   9.056  68.043  1.00  0.00    -0.079 N  
HETATM    7  C   UNL     1      -8.239   9.391  67.066  1.00  0.00    -0.116 A  
HETATM    8  C   UNL     1      -7.881   9.488  65.711  1.00  0.00    -0.104 A  
HETATM    9  C   UNL     1      -8.830   9.835  64.748  1.00  0.00    -0.239 A  
HETATM   10  C   UNL     1     -10.141  10.102  65.133  1.00  0.00    -0.329 A  
HETATM   11  C   UNL     1     -10.502  10.023  66.478  1.00  0.00    -0.223 A  
HETATM   12  C   UNL     1      -9.553   9.675  67.448  1.00  0.00    -0.183 A  
HETATM   13  C   UNL     1      -9.919   9.594  68.896  1.00  0.00    -0.186 C  
HETATM   14  C   UNL     1      -9.927   8.164  69.355  1.00  0.00    -0.188 C  
HETATM   15  O   UNL     1     -10.950   7.676  69.838  1.00  0.00    -0.250 OA 
HETATM   16  C   UNL     1      -8.674   7.350  69.266  1.00  0.00    -0.137 A  
HETATM   17  C   UNL     1      -7.444   7.791  68.717  1.00  0.00    -0.096 A  
HETATM   18  C   UNL     1      -6.342   6.913  68.833  1.00  0.00    -0.028 A  
HETATM   19  C   UNL     1      -6.438   5.665  69.455  1.00  0.00    -0.041 A  
HETATM   20  C   UNL     1      -7.648   5.245  69.980  1.00  0.00    -0.068 A  
HETATM   21  C   UNL     1      -8.756   6.080  69.883  1.00  0.00    -0.131 A  
ENDBRANCH   2   6
TORSDOF 1
ENDMDL
MODEL      180
REMARK 921   NORMALIZED FREE ENERGY PREDICTED BY IDOCK:   -1.78 KCAL/MOL
REMARK 922        TOTAL FREE ENERGY PREDICTED BY IDOCK:   -1.95 KCAL/MOL
REMARK 923 INTER-LIGAND FREE ENERGY PREDICTED BY IDOCK:   -2.44 KCAL/MOL
REMARK 924 INTRA-LIGAND FREE ENERGY PREDICTED BY IDOCK:    0.49 KCAL/MOL
REMARK 927      BINDING AFFINITY PREDICTED BY RF-SCORE:    0.00 PKD
ROOT
HETATM    1  N   UNL     1      -9.707  11.231  67.884  1.00  0.00    -0.173 N  
HETATM    2  C   UNL     1     -10.047   9.904  67.856  1.00  0.00    -0.173 C  
HETATM    3  H1  UNL     1      -8.719  11.462  67.773  1.00  0.00     0.000 HD 
HETATM    4  H2  UNL     1     -10.412  11.958  68.011  1.00  0.00     0.000 HD 
HETATM    5  O   UNL     1     -11.234   9.626  67.989  1.00  0.00    -0.129 OA 
ENDROOT
BRANCH   2   6
HETATM    6  N   UNL     1      -8.988   9.028  67.561  1.00  0.00    -0.123 N  
HETATM    7  C   UNL     1      -7.699   9.229  68.143  1.00  0.00    -0.088 A  
HETATM    8  C   UNL     1      -7.576   9.413  69.530  1.00  0.00    -0.086 A  
HETATM    9  C   UNL     1      -6.326   9.631  70.110  1.00  0.00    -0.069 A  
HETATM   10  C   UNL     1      -5.189   9.682  69.307  1.00  0.00    -0.036 A  
HETATM   11  C   UNL     1      -5.304   9.515  67.927  1.00  0.00    -0.037 A  
HETATM   12  C   UNL     1      -6.557   9.296  67.340  1.00  0.00    -0.064 A  
HETATM   13  C   UNL     1      -6.701   9.124  65.862  1.00  0.00    -0.079 C  
HETATM   14  C   UNL     1      -7.042   7.699  65.530  1.00  0.00    -0.063 C  
HETATM   15  O   UNL     1      -6.312   7.047  64.783  1.00  0.00    -0.036 OA 
HETATM   16  C   UNL     1      -8.297   7.093  66.076  1.00  0.00    -0.134 A  
HETATM   17  C   UNL     1      -9.206   7.732  66.955  1.00  0.00    -0.145 A  
HETATM   18  C   UNL     1     -10.395   7.034  67.263  1.00  0.00    -0.331 A  
HETATM   19  C   UNL     1     -10.683   5.771  66.736  1.00  0.00    -0.369 A  
HETATM   20  C   UNL     1      -9.782   5.156  65.885  1.00  0.00    -0.159 A  
HETATM   21  C   UNL     1      -8.599   5.811  65.560  1.00  0.00    -0.151 A  
ENDBRANCH   2   6
TORSDOF 1
ENDMDL
MODEL      181
REMARK 921   NORMALIZED FREE ENERGY PREDICTED BY IDOCK:   -1.77 KCAL/MOL
REMARK 922        TOTAL FREE ENERGY PREDICTED BY IDOCK:   -1.94 KCAL/MOL
REMARK 923 INTER-LIGAND FREE ENERGY PREDICTED BY IDOCK:   -2.32 KCAL/MOL
REMARK 924 INTRA-LIGAND FREE ENERGY PREDICTED BY IDOCK:    0.38 KCAL/MOL
REMARK 927      BINDING AFFINITY PREDICTED BY RF-SCORE:    0.00 PKD
ROOT
HETATM    1  N   UNL     1     -10.522  10.242  70.384  1.00  0.00    -0.430 N  
HETATM    2  C   UNL     1     -10.421  10.670  69.086  1.00  0.00    -0.222 C  
HETATM    3  H1  UNL     1      -9.818   9.581  70.713  1.00  0.00     0.000 HD 
HETATM    4  H2  UNL     1     -11.270  10.570  70.996  1.00  0.00     0.000 HD 
HETATM    5  O   UNL     1     -11.268  11.464  68.691  1.00  0.00    -0.201 OA 
ENDROOT
BRANCH   2   6
HETATM    6  N   UNL     1      -9.278  10.221  68.403  1.00  0.00    -0.132 N  
HETATM    7  C   UNL     1      -8.127  11.060  68.289  1.00  0.00    -0.128 A  
HETATM    8  C   UNL     1      -7.587  11.670  69.434  1.00  0.00     0.213 A  
HETATM    9  C   UNL     1      -6.476  12.508  69.336  1.00  0.00    -0.102 A  
HETATM   10  C   UNL     1      -5.903  12.755  68.091  1.00  0.00    -0.083 A  
HETATM   11  C   UNL     1      -6.440  12.165  66.948  1.00  0.00    -0.007 A  
HETATM   12  C   UNL     1      -7.556  11.323  67.041  1.00  0.00    -0.143 A  
HETATM   13  C   UNL     1      -8.152  10.689  65.825  1.00  0.00    -0.158 C  
HETATM   14  C   UNL     1      -7.877   9.212  65.816  1.00  0.00    -0.098 C  
HETATM   15  O   UNL     1      -7.272   8.702  64.870  1.00  0.00    -0.082 OA 
HETATM   16  C   UNL     1      -8.380   8.358  66.937  1.00  0.00    -0.106 A  
HETATM   17  C   UNL     1      -9.069   8.826  68.083  1.00  0.00    -0.140 A  
HETATM   18  C   UNL     1      -9.568   7.848  68.973  1.00  0.00    -0.155 A  
HETATM   19  C   UNL     1      -9.400   6.477  68.753  1.00  0.00    -0.130 A  
HETATM   20  C   UNL     1      -8.718   6.035  67.633  1.00  0.00    -0.104 A  
HETATM   21  C   UNL     1      -8.211   6.968  66.735  1.00  0.00    -0.111 A  
ENDBRANCH   2   6
TORSDOF 1
ENDMDL
MODEL      182
REMARK 921   NORMALIZED FREE ENERGY PREDICTED BY IDOCK:   -1.76 KCAL/MOL
REMARK 922        TOTAL FREE ENERGY PREDICTED BY IDOCK:   -1.93 KCAL/MOL
REMARK 923 INTER-LIGAND FREE ENERGY PREDICTED BY IDOCK:   -3.00 KCAL/MOL
REMARK 924 INTRA-LIGAND FREE ENERGY PREDICTED BY IDOCK:    1.06 KCAL/MOL
REMARK 927      BINDING AFFINITY PREDICTED BY RF-SCORE:    0.00 PKD
ROOT
HETATM    1  N   UNL     1     -11.051   5.975  68.193  1.00  0.00    -0.261 N  
HETATM    2  C   UNL     1     -10.016   5.255  68.730  1.00  0.00    -0.174 C  
HETATM    3  H1  UNL     1     -11.352   6.808  68.700  1.00  0.00     0.000 HD 
HETATM    4  H2  UNL     1     -11.502   5.690  67.324  1.00  0.00     0.000 HD 
HETATM    5  O   UNL     1      -9.654   4.254  68.120  1.00  0.00    -0.154 OA 
ENDROOT
BRANCH   2   6
HETATM    6  N   UNL     1      -9.422   5.830  69.866  1.00  0.00    -0.147 N  
HETATM    7  C   UNL     1      -8.224   5.278  70.416  1.00  0.00    -0.103 A  
HETATM    8  C   UNL     1      -7.122   5.022  69.582  1.00  0.00    -0.055 A  
HETATM    9  C   UNL     1      -5.954   4.464  70.101  1.00  0.00    -0.018 A  
HETATM   10  C   UNL     1      -5.881   4.142  71.454  1.00  0.00    -0.013 A  
HETATM   11  C   UNL     1      -6.975   4.379  72.286  1.00  0.00    -0.059 A  
HETATM   12  C   UNL     1      -8.151   4.939  71.770  1.00  0.00    -0.113 A  
HETATM   13  C   UNL     1      -9.337   5.192  72.644  1.00  0.00    -0.152 C  
HETATM   14  C   UNL     1      -9.524   6.666  72.861  1.00  0.00    -0.138 C  
HETATM   15  O   UNL     1      -9.522   7.128  74.003  1.00  0.00    -0.231 OA 
HETATM   16  C   UNL     1      -9.759   7.564  71.686  1.00  0.00    -0.184 A  
HETATM   17  C   UNL     1      -9.768   7.157  70.328  1.00  0.00    -0.175 A  
HETATM   18  C   UNL     1     -10.127   8.133  69.371  1.00  0.00    -0.194 A  
HETATM   19  C   UNL     1     -10.461   9.444  69.724  1.00  0.00    -0.243 A  
HETATM   20  C   UNL     1     -10.442   9.828  71.054  1.00  0.00    -0.230 A  
HETATM   21  C   UNL     1     -10.091   8.896  72.025  1.00  0.00    -0.351 A  
ENDBRANCH   2   6
TORSDOF 1
ENDMDL
MODEL      183
REMARK 921   NORMALIZED FREE ENERGY PREDICTED BY IDOCK:   -1.74 KCAL/MOL
REMARK 922        TOTAL FREE ENERGY PREDICTED BY IDOCK:   -1.91 KCAL/MOL
REMARK 923 INTER-LIGAND FREE ENERGY PREDICTED BY IDOCK:   -2.37 KCAL/MOL
REMARK 924 INTRA-LIGAND FREE ENERGY PREDICTED BY IDOCK:    0.46 KCAL/MOL
REMARK 927      BINDING AFFINITY PREDICTED BY RF-SCORE:    0.00 PKD
ROOT
HETATM    1  N   UNL     1      -5.427   9.927  66.813  1.00  0.00    -0.045 N  
HETATM    2  C   UNL     1      -6.602   9.734  67.492  1.00  0.00    -0.069 C  
HETATM    3  H1  UNL     1      -5.449   9.809  65.800  1.00  0.00     0.000 HD 
HETATM    4  H2  UNL     1      -4.567  10.178  67.300  1.00  0.00     0.000 HD 
HETATM    5  O   UNL     1      -6.575   9.876  68.710  1.00  0.00    -0.046 OA 
ENDROOT
BRANCH   2   6
HETATM    6  N   UNL     1      -7.724   9.505  66.678  1.00  0.00    -0.097 N  
HETATM    7  C   UNL     1      -7.641   8.618  65.561  1.00  0.00    -0.087 A  
HETATM    8  C   UNL     1      -7.107   7.328  65.728  1.00  0.00    -0.065 A  
HETATM    9  C   UNL     1      -7.000   6.458  64.643  1.00  0.00    -0.051 A  
HETATM   10  C   UNL     1      -7.410   6.873  63.379  1.00  0.00    -0.080 A  
HETATM   11  C   UNL     1      -7.928   8.156  63.201  1.00  0.00    -0.151 A  
HETATM   12  C   UNL     1      -8.038   9.033  64.288  1.00  0.00    -0.151 A  
HETATM   13  C   UNL     1      -8.581  10.416  64.116  1.00  0.00    -0.186 C  
HETATM   14  C   UNL     1      -9.939  10.528  64.748  1.00  0.00    -0.345 C  
HETATM   15  O   UNL     1     -10.911  10.866  64.070  1.00  0.00    -0.297 OA 
HETATM   16  C   UNL     1     -10.096  10.272  66.214  1.00  0.00    -0.300 A  
HETATM   17  C   UNL     1      -9.063   9.862  67.094  1.00  0.00    -0.138 A  
HETATM   18  C   UNL     1      -9.386   9.788  68.467  1.00  0.00    -0.142 A  
HETATM   19  C   UNL     1     -10.658  10.099  68.959  1.00  0.00    -0.245 A  
HETATM   20  C   UNL     1     -11.658  10.491  68.087  1.00  0.00    -0.145 A  
HETATM   21  C   UNL     1     -11.380  10.573  66.726  1.00  0.00     0.267 A  
ENDBRANCH   2   6
TORSDOF 1
ENDMDL
MODEL      184
REMARK 921   NORMALIZED FREE ENERGY PREDICTED BY IDOCK:   -1.65 KCAL/MOL
REMARK 922        TOTAL FREE ENERGY PREDICTED BY IDOCK:   -1.81 KCAL/MOL
REMARK 923 INTER-LIGAND FREE ENERGY PREDICTED BY IDOCK:   -2.24 KCAL/MOL
REMARK 924 INTRA-LIGAND FREE ENERGY PREDICTED BY IDOCK:    0.42 KCAL/MOL
REMARK 927      BINDING AFFINITY PREDICTED BY RF-SCORE:    0.00 PKD
ROOT
HETATM    1  N   UNL     1      -7.586   5.216  70.040  1.00  0.00    -0.063 N  
HETATM    2  C   UNL     1      -6.856   5.400  68.895  1.00  0.00    -0.055 C  
HETATM    3  H1  UNL     1      -8.592   5.371  69.981  1.00  0.00     0.000 HD 
HETATM    4  H2  UNL     1      -7.141   4.934  70.914  1.00  0.00     0.000 HD 
HETATM    5  O   UNL     1      -5.646   5.213  68.965  1.00  0.00    -0.010 OA 
ENDROOT
BRANCH   2   6
HETATM    6  N   UNL     1      -7.617   5.676  67.746  1.00  0.00    -0.088 N  
HETATM    7  C   UNL     1      -7.861   4.655  66.777  1.00  0.00    -0.099 A  
HETATM    8  C   UNL     1      -8.351   3.403  67.184  1.00  0.00    -0.093 A  
HETATM    9  C   UNL     1      -8.574   2.389  66.251  1.00  0.00    -0.111 A  
HETATM   10  C   UNL     1      -8.296   2.613  64.906  1.00  0.00    -0.089 A  
HETATM   11  C   UNL     1      -7.795   3.848  64.494  1.00  0.00    -0.085 A  
HETATM   12  C   UNL     1      -7.570   4.868  65.427  1.00  0.00    -0.085 A  
HETATM   13  C   UNL     1      -7.025   6.196  65.006  1.00  0.00    -0.055 C  
HETATM   14  C   UNL     1      -8.086   7.254  65.107  1.00  0.00    -0.128 C  
HETATM   15  O   UNL     1      -8.404   7.907  64.111  1.00  0.00    -0.075 OA 
HETATM   16  C   UNL     1      -8.721   7.542  66.431  1.00  0.00    -0.158 A  
HETATM   17  C   UNL     1      -8.454   6.851  67.639  1.00  0.00    -0.122 A  
HETATM   18  C   UNL     1      -9.068   7.351  68.810  1.00  0.00    -0.131 A  
HETATM   19  C   UNL     1      -9.904   8.472  68.800  1.00  0.00    -0.180 A  
HETATM   20  C   UNL     1     -10.161   9.132  67.611  1.00  0.00    -0.293 A  
HETATM   21  C   UNL     1      -9.576   8.668  66.437  1.00  0.00    -0.316 A  
ENDBRANCH   2   6
TORSDOF 1
ENDMDL
MODEL      185
REMARK 921   NORMALIZED FREE ENERGY PREDICTED BY IDOCK:   -1.29 KCAL/MOL
REMARK 922        TOTAL FREE ENERGY PREDICTED BY IDOCK:   -1.43 KCAL/MOL
REMARK 923 INTER-LIGAND FREE ENERGY PREDICTED BY IDOCK:   -1.37 KCAL/MOL
REMARK 924 INTRA-LIGAND FREE ENERGY PREDICTED BY IDOCK:   -0.06 KCAL/MOL
REMARK 927      BINDING AFFINITY PREDICTED BY RF-SCORE:    0.00 PKD
ROOT
HETATM    1  N   UNL     1     -11.287   9.099  67.307  1.00  0.00     0.094 N  
HETATM    2  C   UNL     1     -10.821   9.785  68.398  1.00  0.00    -0.201 C  
HETATM    3  H1  UNL     1     -10.648   8.987  66.519  1.00  0.00     0.000 HD 
HETATM    4  H2  UNL     1     -12.232   8.716  67.284  1.00  0.00     0.000 HD 
HETATM    5  O   UNL     1     -11.589   9.920  69.345  1.00  0.00    -0.098 OA 
ENDROOT
BRANCH   2   6
HETATM    6  N   UNL     1      -9.467  10.153  68.331  1.00  0.00    -0.141 N  
HETATM    7  C   UNL     1      -9.096  11.515  68.105  1.00  0.00    -0.181 A  
HETATM    8  C   UNL     1      -9.659  12.535  68.891  1.00  0.00     0.209 A  
HETATM    9  C   UNL     1      -9.323  13.870  68.668  1.00  0.00    -0.106 A  
HETATM   10  C   UNL     1      -8.433  14.200  67.649  1.00  0.00    -0.189 A  
HETATM   11  C   UNL     1      -7.880  13.195  66.855  1.00  0.00     0.172 A  
HETATM   12  C   UNL     1      -8.215  11.853  67.075  1.00  0.00    -0.170 A  
HETATM   13  C   UNL     1      -7.640  10.762  66.229  1.00  0.00    -0.142 C  
HETATM   14  C   UNL     1      -6.654   9.949  67.019  1.00  0.00    -0.070 C  
HETATM   15  O   UNL     1      -5.489   9.844  66.631  1.00  0.00    -0.044 OA 
HETATM   16  C   UNL     1      -7.106   9.232  68.252  1.00  0.00    -0.076 A  
HETATM   17  C   UNL     1      -8.409   9.288  68.806  1.00  0.00    -0.117 A  
HETATM   18  C   UNL     1      -8.671   8.444  69.909  1.00  0.00    -0.136 A  
HETATM   19  C   UNL     1      -7.705   7.586  70.445  1.00  0.00    -0.091 A  
HETATM   20  C   UNL     1      -6.435   7.548  69.898  1.00  0.00    -0.034 A  
HETATM   21  C   UNL     1      -6.138   8.366  68.813  1.00  0.00    -0.044 A  
ENDBRANCH   2   6
TORSDOF 1
ENDMDL
MODEL      186
REMARK 921   NORMALIZED FREE ENERGY PREDICTED BY IDOCK:   -1.17 KCAL/MOL
REMARK 922        TOTAL FREE ENERGY PREDICTED BY IDOCK:   -1.30 KCAL/MOL
REMARK 923 INTER-LIGAND FREE ENERGY PREDICTED BY IDOCK:   -1.88 KCAL/MOL
REMARK 924 INTRA-LIGAND FREE ENERGY PREDICTED BY IDOCK:    0.58 KCAL/MOL
REMARK 927      BINDING AFFINITY PREDICTED BY RF-SCORE:    0.00 PKD
ROOT
HETATM    1  N   UNL     1     -10.068   6.495  73.135  1.00  0.00    -0.181 N  
HETATM    2  C   UNL     1      -9.651   5.548  72.236  1.00  0.00    -0.152 C  
HETATM    3  H1  UNL     1      -9.534   7.363  73.180  1.00  0.00     0.000 HD 
HETATM    4  H2  UNL     1     -10.879   6.338  73.734  1.00  0.00     0.000 HD 
HETATM    5  O   UNL     1     -10.293   4.505  72.182  1.00  0.00    -0.192 OA 
ENDROOT
BRANCH   2   6
HETATM    6  N   UNL     1      -8.592   5.950  71.403  1.00  0.00    -0.128 N  
HETATM    7  C   UNL     1      -7.567   6.812  71.900  1.00  0.00    -0.095 A  
HETATM    8  C   UNL     1      -6.916   6.506  73.107  1.00  0.00    -0.077 A  
HETATM    9  C   UNL     1      -5.927   7.349  73.615  1.00  0.00    -0.056 A  
HETATM   10  C   UNL     1      -5.591   8.513  72.929  1.00  0.00    -0.065 A  
HETATM   11  C   UNL     1      -6.242   8.833  71.738  1.00  0.00    -0.073 A  
HETATM   12  C   UNL     1      -7.235   7.989  71.224  1.00  0.00    -0.062 A  
HETATM   13  C   UNL     1      -7.950   8.320  69.953  1.00  0.00    -0.108 C  
HETATM   14  C   UNL     1      -7.529   7.384  68.856  1.00  0.00    -0.101 C  
HETATM   15  O   UNL     1      -7.036   7.830  67.819  1.00  0.00    -0.076 OA 
HETATM   16  C   UNL     1      -7.754   5.912  69.011  1.00  0.00    -0.091 A  
HETATM   17  C   UNL     1      -8.295   5.279  70.157  1.00  0.00    -0.098 A  
HETATM   18  C   UNL     1      -8.540   3.890  70.063  1.00  0.00    -0.105 A  
HETATM   19  C   UNL     1      -8.269   3.156  68.904  1.00  0.00    -0.076 A  
HETATM   20  C   UNL     1      -7.735   3.787  67.795  1.00  0.00    -0.070 A  
HETATM   21  C   UNL     1      -7.478   5.153  67.850  1.00  0.00    -0.076 A  
ENDBRANCH   2   6
TORSDOF 1
ENDMDL
MODEL      187
REMARK 921   NORMALIZED FREE ENERGY PREDICTED BY IDOCK:    2.61 KCAL/MOL
REMARK 922        TOTAL FREE ENERGY PREDICTED BY IDOCK:    2.70 KCAL/MOL
REMARK 923 INTER-LIGAND FREE ENERGY PREDICTED BY IDOCK:    1.87 KCAL/MOL
REMARK 924 INTRA-LIGAND FREE ENERGY PREDICTED BY IDOCK:    0.84 KCAL/MOL
REMARK 927      BINDING AFFINITY PREDICTED BY RF-SCORE:    0.00 PKD
ROOT
HETATM    1  N   UNL     1      -8.358  16.697  64.900  1.00  0.00     3.698 N  
HETATM    2  C   UNL     1      -8.126  16.857  66.241  1.00  0.00    -0.316 C  
HETATM    3  H1  UNL     1      -8.872  15.863  64.612  1.00  0.00     0.000 HD 
HETATM    4  H2  UNL     1      -8.031  17.381  64.218  1.00  0.00     0.000 HD 
HETATM    5  O   UNL     1      -7.508  17.859  66.587  1.00  0.00    -0.199 OA 
ENDROOT
BRANCH   2   6
HETATM    6  N   UNL     1      -8.733  15.895  67.066  1.00  0.00    -0.205 N  
HETATM    7  C   UNL     1      -9.870  15.161  66.607  1.00  0.00    -0.252 A  
HETATM    8  C   UNL     1      -9.836  14.524  65.355  1.00  0.00    -0.274 A  
HETATM    9  C   UNL     1     -10.946  13.822  64.885  1.00  0.00    -0.378 A  
HETATM   10  C   UNL     1     -12.105  13.763  65.655  1.00  0.00    -0.444 A  
HETATM   11  C   UNL     1     -12.153  14.404  66.892  1.00  0.00    -0.386 A  
HETATM   12  C   UNL     1     -11.041  15.110  67.369  1.00  0.00    -0.325 A  
HETATM   13  C   UNL     1     -11.076  15.813  68.689  1.00  0.00    -0.327 C  
HETATM   14  C   UNL     1     -10.208  15.098  69.685  1.00  0.00    -0.208 C  
HETATM   15  O   UNL     1     -10.693  14.680  70.738  1.00  0.00     0.115 OA 
HETATM   16  C   UNL     1      -8.745  14.939  69.414  1.00  0.00    -0.048 A  
HETATM   17  C   UNL     1      -8.076  15.360  68.238  1.00  0.00    -0.136 A  
HETATM   18  C   UNL     1      -6.669  15.227  68.222  1.00  0.00    -0.124 A  
HETATM   19  C   UNL     1      -5.950  14.707  69.303  1.00  0.00    -0.103 A  
HETATM   20  C   UNL     1      -6.619  14.293  70.442  1.00  0.00    -0.001 A  
HETATM   21  C   UNL     1      -8.004  14.406  70.495  1.00  0.00     1.781 A  
ENDBRANCH   2   6
TORSDOF 1
ENDMDL
MODEL      188
REMARK 921   NORMALIZED FREE ENERGY PREDICTED BY IDOCK:    6.78 KCAL/MOL
REMARK 922        TOTAL FREE ENERGY PREDICTED BY IDOCK:    7.11 KCAL/MOL
REMARK 923 INTER-LIGAND FREE ENERGY PREDICTED BY IDOCK:    6.74 KCAL/MOL
REMARK 924 INTRA-LIGAND FREE ENERGY PREDICTED BY IDOCK:    0.37 KCAL/MOL
REMARK 927      BINDING AFFINITY PREDICTED BY RF-SCORE:    0.00 PKD
ROOT
HETATM    1  N   UNL     1      -9.051  14.795  70.074  1.00  0.00    -0.136 N  
HETATM    2  C   UNL     1      -9.166  14.665  68.715  1.00  0.00    -0.184 C  
HETATM    3  H1  UNL     1      -9.398  14.026  70.647  1.00  0.00     0.000 HD 
HETATM    4  H2  UNL     1      -8.635  15.626  70.495  1.00  0.00     0.000 HD 
HETATM    5  O   UNL     1      -8.749  15.589  68.026  1.00  0.00    -0.161 OA 
ENDROOT
BRANCH   2   6
HETATM    6  N   UNL     1      -9.654  13.421  68.279  1.00  0.00    -0.222 N  
HETATM    7  C   UNL     1     -10.847  12.873  68.843  1.00  0.00    -0.200 A  
HETATM    8  C   UNL     1     -12.011  13.655  68.919  1.00  0.00    -0.392 A  
HETATM    9  C   UNL     1     -13.178  13.141  69.486  1.00  0.00     1.886 A  
HETATM   10  C   UNL     1     -13.187  11.845  69.995  1.00  0.00     1.182 A  
HETATM   11  C   UNL     1     -12.032  11.065  69.937  1.00  0.00    -0.427 A  
HETATM   12  C   UNL     1     -10.858  11.578  69.368  1.00  0.00    -0.180 A  
HETATM   13  C   UNL     1      -9.607  10.761  69.305  1.00  0.00    -0.121 C  
HETATM   14  C   UNL     1      -9.318  10.353  67.889  1.00  0.00    -0.138 C  
HETATM   15  O   UNL     1      -9.223   9.160  67.596  1.00  0.00    -0.129 OA 
HETATM   16  C   UNL     1      -9.102  11.404  66.845  1.00  0.00    -0.178 A  
HETATM   17  C   UNL     1      -9.201  12.802  67.052  1.00  0.00    -0.221 A  
HETATM   18  C   UNL     1      -8.843  13.636  65.969  1.00  0.00     0.547 A  
HETATM   19  C   UNL     1      -8.408  13.127  64.741  1.00  0.00     4.629 A  
HETATM   20  C   UNL     1      -8.324  11.759  64.551  1.00  0.00     1.375 A  
HETATM   21  C   UNL     1      -8.670  10.906  65.594  1.00  0.00    -0.190 A  
ENDBRANCH   2   6
TORSDOF 1
ENDMDL
MODEL      189
REMARK 921   NORMALIZED FREE ENERGY PREDICTED BY IDOCK:   61.42 KCAL/MOL
REMARK 922        TOTAL FREE ENERGY PREDICTED BY IDOCK:   64.94 KCAL/MOL
REMARK 923 INTER-LIGAND FREE ENERGY PREDICTED BY IDOCK:   64.65 KCAL/MOL
REMARK 924 INTRA-LIGAND FREE ENERGY PREDICTED BY IDOCK:    0.29 KCAL/MOL
REMARK 927      BINDING AFFINITY PREDICTED BY RF-SCORE:    0.00 PKD
ROOT
HETATM    1  N   UNL     1      -7.325  11.402  68.754  1.00  0.00    -0.107 N  
HETATM    2  C   UNL     1      -6.924  12.712  68.728  1.00  0.00    -0.096 C  
HETATM    3  H1  UNL     1      -8.127  11.172  69.341  1.00  0.00     0.000 HD 
HETATM    4  H2  UNL     1      -6.842  10.688  68.209  1.00  0.00     0.000 HD 
HETATM    5  O   UNL     1      -5.961  12.989  68.022  1.00  0.00    -0.086 OA 
ENDROOT
BRANCH   2   6
HETATM    6  N   UNL     1      -7.753  13.599  69.437  1.00  0.00     0.310 N  
HETATM    7  C   UNL     1      -8.022  13.386  70.824  1.00  0.00     5.078 A  
HETATM    8  C   UNL     1      -6.961  13.166  71.719  1.00  0.00     4.893 A  
HETATM    9  C   UNL     1      -7.209  12.936  73.072  1.00  0.00     9.175 A  
HETATM   10  C   UNL     1      -8.520  12.909  73.541  1.00  0.00    17.396 A  
HETATM   11  C   UNL     1      -9.580  13.113  72.658  1.00  0.00    17.410 A  
HETATM   12  C   UNL     1      -9.336  13.344  71.298  1.00  0.00    10.258 A  
HETATM   13  C   UNL     1     -10.459  13.555  70.333  1.00  0.00     2.078 C  
HETATM   14  C   UNL     1     -10.501  14.987  69.882  1.00  0.00    -0.154 C  
HETATM   15  O   UNL     1     -11.517  15.662  70.060  1.00  0.00    -0.288 OA 
HETATM   16  C   UNL     1      -9.319  15.575  69.176  1.00  0.00    -0.250 A  
HETATM   17  C   UNL     1      -8.093  14.910  68.928  1.00  0.00    -0.165 A  
HETATM   18  C   UNL     1      -7.142  15.596  68.140  1.00  0.00    -0.125 A  
HETATM   19  C   UNL     1      -7.378  16.872  67.618  1.00  0.00    -0.170 A  
HETATM   20  C   UNL     1      -8.577  17.512  67.875  1.00  0.00    -0.239 A  
HETATM   21  C   UNL     1      -9.538  16.869  68.649  1.00  0.00    -0.265 A  
ENDBRANCH   2   6
TORSDOF 1
ENDMDL
