MODEL        1
REMARK 921   NORMALIZED FREE ENERGY PREDICTED BY IDOCK:   -7.22 KCAL/MOL
REMARK 922        TOTAL FREE ENERGY PREDICTED BY IDOCK:  -11.40 KCAL/MOL
REMARK 923 INTER-LIGAND FREE ENERGY PREDICTED BY IDOCK:  -10.59 KCAL/MOL
REMARK 924 INTRA-LIGAND FREE ENERGY PREDICTED BY IDOCK:   -0.80 KCAL/MOL
REMARK 927      BINDING AFFINITY PREDICTED BY RF-SCORE:    0.00 PKD
ROOT
HETATM    1  C   UNL     1      -7.786  15.746  69.178  1.00  0.00    -0.220 C  
HETATM    2  N   UNL     1      -8.780  15.267  68.215  1.00  0.00    -0.161 N  
HETATM    3  C   UNL     1      -8.706  13.897  67.928  1.00  0.00    -0.184 C  
HETATM    4  C   UNL     1      -9.837  16.247  67.739  1.00  0.00    -0.237 C  
HETATM    5  C   UNL     1     -11.311  15.766  67.981  1.00  0.00    -0.310 C  
HETATM    6  C   UNL     1      -9.718  17.629  68.452  1.00  0.00    -0.321 C  
HETATM    7  C   UNL     1      -9.612  16.582  66.242  1.00  0.00    -0.333 C  
HETATM    8  O   UNL     1      -7.897  13.176  68.524  1.00  0.00    -0.134 OA 
ENDROOT
BRANCH   3   9
HETATM    9  C   UNL     1      -9.678  13.294  66.900  1.00  0.00    -0.248 C  
BRANCH   9  10
HETATM   10  N   UNL     1     -10.430  12.098  67.336  1.00  0.00    -0.211 NA 
BRANCH  10  11
HETATM   11  C   UNL     1     -11.851  12.181  66.953  1.00  0.00    -0.222 C  
BRANCH  11  12
HETATM   12  C   UNL     1     -12.127  13.079  65.726  1.00  0.00    -0.454 C  
HETATM   13  H   UNL     1     -13.251  13.024  64.106  1.00  0.00     0.000 HD 
HETATM   14  O   UNL     1     -13.081  12.472  64.860  1.00  0.00    -0.833 OA 
ENDBRANCH  11  12
ENDBRANCH  10  11
BRANCH  10  15
HETATM   15  C   UNL     1      -9.798  10.819  66.905  1.00  0.00    -0.187 C  
BRANCH  15  16
HETATM   16  C   UNL     1      -9.408   9.867  68.079  1.00  0.00    -0.130 C  
HETATM   17  C   UNL     1      -9.552   7.574  69.163  1.00  0.00    -0.157 C  
HETATM   18  C   UNL     1     -10.269   7.940  66.741  1.00  0.00    -0.287 C  
HETATM   19  N   UNL     1      -9.782   8.516  67.992  1.00  0.00    -0.150 N  
HETATM   20  C   UNL     1      -9.726   8.210  70.595  1.00  0.00    -0.184 C  
HETATM   21  O   UNL     1      -8.833  10.289  69.085  1.00  0.00    -0.156 OA 
HETATM   22  C   UNL     1     -10.483   6.340  69.117  1.00  0.00    -0.291 C  
HETATM   23  C   UNL     1      -8.106   7.037  69.090  1.00  0.00    -0.121 C  
BRANCH  20  24
HETATM   24  C   UNL     1     -11.051   8.847  70.963  1.00  0.00    -0.340 A  
HETATM   25  C   UNL     1     -11.869   8.193  71.897  1.00  0.00    -0.366 A  
HETATM   26  C   UNL     1     -13.068   8.768  72.325  1.00  0.00    -0.458 A  
HETATM   27  C   UNL     1     -13.455  10.016  71.844  1.00  0.00    -0.449 A  
HETATM   28  C   UNL     1     -12.650  10.687  70.938  1.00  0.00    -0.503 A  
HETATM   29  C   UNL     1     -11.470  10.103  70.491  1.00  0.00    -0.417 A  
ENDBRANCH  20  24
ENDBRANCH  15  16
ENDBRANCH  10  15
ENDBRANCH   9  10
ENDBRANCH   3   9
BRANCH   5  30
HETATM   30  C   UNL     1     -11.669  15.401  69.411  1.00  0.00    -0.369 A  
HETATM   31  C   UNL     1     -12.569  13.868  71.081  1.00  0.00    -0.446 A  
HETATM   32  C   UNL     1     -11.392  16.303  70.446  1.00  0.00    -0.313 A  
HETATM   33  C   UNL     1     -12.278  14.187  69.755  1.00  0.00    -0.397 A  
HETATM   34  C   UNL     1     -12.324  14.790  72.087  1.00  0.00    -0.408 A  
HETATM   35  C   UNL     1     -11.728  16.005  71.770  1.00  0.00    -0.593 A  
ENDBRANCH   5  30
TORSDOF 8
ENDMDL
MODEL        2
REMARK 921   NORMALIZED FREE ENERGY PREDICTED BY IDOCK:   -6.88 KCAL/MOL
REMARK 922        TOTAL FREE ENERGY PREDICTED BY IDOCK:  -10.91 KCAL/MOL
REMARK 923 INTER-LIGAND FREE ENERGY PREDICTED BY IDOCK:  -10.34 KCAL/MOL
REMARK 924 INTRA-LIGAND FREE ENERGY PREDICTED BY IDOCK:   -0.57 KCAL/MOL
REMARK 927      BINDING AFFINITY PREDICTED BY RF-SCORE:    0.00 PKD
ROOT
HETATM    1  C   UNL     1     -11.120  19.026  66.273  1.00  0.00     0.235 C  
HETATM    2  N   UNL     1     -10.302  17.960  66.857  1.00  0.00    -0.354 N  
HETATM    3  C   UNL     1     -10.126  16.839  66.034  1.00  0.00    -0.332 C  
HETATM    4  C   UNL     1      -9.645  18.223  68.200  1.00  0.00    -0.304 C  
HETATM    5  C   UNL     1      -8.086  18.044  68.195  1.00  0.00    -0.276 C  
HETATM    6  C   UNL     1      -9.904  19.676  68.703  1.00  0.00    -0.519 C  
HETATM    7  C   UNL     1     -10.294  17.332  69.290  1.00  0.00    -0.237 C  
HETATM    8  O   UNL     1     -10.580  16.830  64.883  1.00  0.00    -0.702 OA 
ENDROOT
BRANCH   3   9
HETATM    9  C   UNL     1      -9.317  15.643  66.562  1.00  0.00    -0.276 C  
BRANCH   9  10
HETATM   10  N   UNL     1     -10.094  14.437  66.922  1.00  0.00    -0.255 NA 
BRANCH  10  11
HETATM   11  C   UNL     1     -11.542  14.712  66.951  1.00  0.00    -0.362 C  
BRANCH  11  12
HETATM   12  C   UNL     1     -12.410  13.617  66.292  1.00  0.00    -0.412 C  
HETATM   13  H   UNL     1     -13.702  13.482  64.806  1.00  0.00     0.000 HD 
HETATM   14  O   UNL     1     -13.168  14.155  65.212  1.00  0.00    -0.760 OA 
ENDBRANCH  11  12
ENDBRANCH  10  11
BRANCH  10  15
HETATM   15  C   UNL     1      -9.758  13.252  66.085  1.00  0.00    -0.250 C  
BRANCH  15  16
HETATM   16  C   UNL     1      -9.250  12.016  66.895  1.00  0.00    -0.197 C  
HETATM   17  C   UNL     1      -9.336   9.516  67.334  1.00  0.00    -0.130 C  
HETATM   18  C   UNL     1     -10.356  10.524  65.222  1.00  0.00    -0.229 C  
HETATM   19  N   UNL     1      -9.684  10.740  66.501  1.00  0.00    -0.190 N  
HETATM   20  C   UNL     1      -9.293   9.740  68.893  1.00  0.00    -0.158 C  
HETATM   21  O   UNL     1      -8.531  12.149  67.888  1.00  0.00    -0.145 OA 
HETATM   22  C   UNL     1     -10.311   8.340  67.087  1.00  0.00    -0.387 C  
HETATM   23  C   UNL     1      -7.935   9.018  66.919  1.00  0.00    -0.105 C  
BRANCH  20  24
HETATM   24  C   UNL     1     -10.532  10.253  69.599  1.00  0.00    -0.286 A  
HETATM   25  C   UNL     1     -11.093   9.470  70.619  1.00  0.00    -0.364 A  
HETATM   26  C   UNL     1     -12.192   9.926  71.349  1.00  0.00    -0.499 A  
HETATM   27  C   UNL     1     -12.733  11.182  71.088  1.00  0.00    -0.510 A  
HETATM   28  C   UNL     1     -12.179  11.980  70.099  1.00  0.00    -0.309 A  
HETATM   29  C   UNL     1     -11.101  11.515  69.354  1.00  0.00    -0.287 A  
ENDBRANCH  20  24
ENDBRANCH  15  16
ENDBRANCH  10  15
ENDBRANCH   9  10
ENDBRANCH   3   9
BRANCH   5  30
HETATM   30  C   UNL     1      -7.322  18.861  67.168  1.00  0.00    -0.222 A  
HETATM   31  C   UNL     1      -6.214  19.115  65.011  1.00  0.00    -0.317 A  
HETATM   32  C   UNL     1      -7.021  20.202  67.437  1.00  0.00    -0.288 A  
HETATM   33  C   UNL     1      -6.890  18.331  65.945  1.00  0.00    -0.325 A  
HETATM   34  C   UNL     1      -5.890  20.429  65.310  1.00  0.00    -0.244 A  
HETATM   35  C   UNL     1      -6.301  20.975  66.520  1.00  0.00    -0.338 A  
ENDBRANCH   5  30
TORSDOF 8
ENDMDL
MODEL        3
REMARK 921   NORMALIZED FREE ENERGY PREDICTED BY IDOCK:   -6.76 KCAL/MOL
REMARK 922        TOTAL FREE ENERGY PREDICTED BY IDOCK:  -10.73 KCAL/MOL
REMARK 923 INTER-LIGAND FREE ENERGY PREDICTED BY IDOCK:   -9.76 KCAL/MOL
REMARK 924 INTRA-LIGAND FREE ENERGY PREDICTED BY IDOCK:   -0.96 KCAL/MOL
REMARK 927      BINDING AFFINITY PREDICTED BY RF-SCORE:    0.00 PKD
ROOT
HETATM    1  C   UNL     1     -10.124  15.862  69.780  1.00  0.00    -0.247 C  
HETATM    2  N   UNL     1      -9.660  15.281  68.518  1.00  0.00    -0.205 N  
HETATM    3  C   UNL     1     -10.651  14.621  67.778  1.00  0.00    -0.251 C  
HETATM    4  C   UNL     1      -8.229  15.554  68.093  1.00  0.00    -0.144 C  
HETATM    5  C   UNL     1      -8.097  16.217  66.677  1.00  0.00    -0.323 C  
HETATM    6  C   UNL     1      -7.498  16.514  69.082  1.00  0.00    -0.218 C  
HETATM    7  C   UNL     1      -7.398  14.247  68.163  1.00  0.00    -0.128 C  
HETATM    8  O   UNL     1     -11.826  14.623  68.165  1.00  0.00    -0.325 OA 
ENDROOT
BRANCH   3   9
HETATM    9  C   UNL     1     -10.267  13.940  66.455  1.00  0.00    -0.292 C  
BRANCH   9  10
HETATM   10  N   UNL     1     -10.518  12.485  66.372  1.00  0.00    -0.244 NA 
BRANCH  10  11
HETATM   11  C   UNL     1     -11.514  12.163  65.334  1.00  0.00    -0.336 C  
BRANCH  11  12
HETATM   12  C   UNL     1     -11.458  13.083  64.093  1.00  0.00    -0.402 C  
HETATM   13  H   UNL     1     -12.613  14.425  63.223  1.00  0.00     0.000 HD 
HETATM   14  O   UNL     1     -12.648  13.860  63.986  1.00  0.00    -0.689 OA 
ENDBRANCH  11  12
ENDBRANCH  10  11
BRANCH  10  15
HETATM   15  C   UNL     1      -9.271  11.682  66.231  1.00  0.00    -0.217 C  
BRANCH  15  16
HETATM   16  C   UNL     1      -8.977  10.735  67.438  1.00  0.00    -0.139 C  
HETATM   17  C   UNL     1      -9.341   8.503  68.594  1.00  0.00    -0.142 C  
HETATM   18  C   UNL     1     -10.012   8.856  66.156  1.00  0.00    -0.220 C  
HETATM   19  N   UNL     1      -9.476   9.423  67.391  1.00  0.00    -0.130 N  
HETATM   20  C   UNL     1      -9.459   9.198  70.004  1.00  0.00    -0.218 C  
HETATM   21  O   UNL     1      -8.368  11.133  68.434  1.00  0.00    -0.134 OA 
HETATM   22  C   UNL     1     -10.384   7.361  68.581  1.00  0.00    -0.215 C  
HETATM   23  C   UNL     1      -7.952   7.829  68.547  1.00  0.00    -0.122 C  
BRANCH  20  24
HETATM   24  C   UNL     1     -10.719   9.968  70.343  1.00  0.00    -0.369 A  
HETATM   25  C   UNL     1     -11.575   9.449  71.325  1.00  0.00    -0.434 A  
HETATM   26  C   UNL     1     -12.714  10.151  71.726  1.00  0.00    -0.534 A  
HETATM   27  C   UNL     1     -13.001  11.395  71.169  1.00  0.00    -0.349 A  
HETATM   28  C   UNL     1     -12.155  11.934  70.214  1.00  0.00    -0.409 A  
HETATM   29  C   UNL     1     -11.036  11.224  69.794  1.00  0.00    -0.238 A  
ENDBRANCH  20  24
ENDBRANCH  15  16
ENDBRANCH  10  15
ENDBRANCH   9  10
ENDBRANCH   3   9
BRANCH   5  30
HETATM   30  C   UNL     1      -8.867  17.509  66.470  1.00  0.00    -0.291 A  
HETATM   31  C   UNL     1     -10.862  18.744  65.807  1.00  0.00    -0.142 A  
HETATM   32  C   UNL     1      -8.265  18.733  66.791  1.00  0.00    -0.286 A  
HETATM   33  C   UNL     1     -10.171  17.543  65.960  1.00  0.00    -0.306 A  
HETATM   34  C   UNL     1     -10.237  19.948  66.092  1.00  0.00    -0.611 A  
HETATM   35  C   UNL     1      -8.940  19.941  66.591  1.00  0.00    -0.452 A  
ENDBRANCH   5  30
TORSDOF 8
ENDMDL
MODEL        4
REMARK 921   NORMALIZED FREE ENERGY PREDICTED BY IDOCK:   -6.66 KCAL/MOL
REMARK 922        TOTAL FREE ENERGY PREDICTED BY IDOCK:  -10.57 KCAL/MOL
REMARK 923 INTER-LIGAND FREE ENERGY PREDICTED BY IDOCK:   -9.47 KCAL/MOL
REMARK 924 INTRA-LIGAND FREE ENERGY PREDICTED BY IDOCK:   -1.11 KCAL/MOL
REMARK 927      BINDING AFFINITY PREDICTED BY RF-SCORE:    0.00 PKD
ROOT
HETATM    1  C   UNL     1     -11.145   5.974  69.005  1.00  0.00    -0.307 C  
HETATM    2  N   UNL     1     -10.063   6.942  69.200  1.00  0.00    -0.169 N  
HETATM    3  C   UNL     1      -9.835   7.794  68.110  1.00  0.00    -0.167 C  
HETATM    4  C   UNL     1      -9.405   7.006  70.566  1.00  0.00    -0.159 C  
HETATM    5  C   UNL     1      -9.445   8.428  71.229  1.00  0.00    -0.240 C  
HETATM    6  C   UNL     1     -10.082   6.041  71.588  1.00  0.00    -0.227 C  
HETATM    7  C   UNL     1      -7.948   6.486  70.476  1.00  0.00    -0.112 C  
HETATM    8  O   UNL     1     -10.567   7.745  67.114  1.00  0.00    -0.321 OA 
ENDROOT
BRANCH   3   9
HETATM    9  C   UNL     1      -8.697   8.823  68.191  1.00  0.00    -0.134 C  
BRANCH   9  10
HETATM   10  N   UNL     1      -9.073  10.234  67.953  1.00  0.00    -0.131 NA 
BRANCH  10  11
HETATM   11  C   UNL     1      -8.069  11.163  68.501  1.00  0.00    -0.146 C  
BRANCH  11  12
HETATM   12  C   UNL     1      -6.823  10.473  69.099  1.00  0.00    -0.074 C  
HETATM   13  H   UNL     1      -6.012  10.222  70.880  1.00  0.00     0.000 HD 
HETATM   14  O   UNL     1      -6.778  10.646  70.512  1.00  0.00    -0.312 OA 
ENDBRANCH  11  12
ENDBRANCH  10  11
BRANCH  10  15
HETATM   15  C   UNL     1      -9.395  10.521  66.527  1.00  0.00    -0.163 C  
BRANCH  15  16
HETATM   16  C   UNL     1     -10.706  11.344  66.318  1.00  0.00    -0.270 C  
HETATM   17  C   UNL     1     -11.936  13.212  65.114  1.00  0.00    -0.394 C  
HETATM   18  C   UNL     1      -9.708  12.318  64.244  1.00  0.00    -0.018 C  
HETATM   19  N   UNL     1     -10.741  12.286  65.277  1.00  0.00    -0.282 N  
HETATM   20  C   UNL     1     -12.619  13.689  66.452  1.00  0.00    -0.289 C  
HETATM   21  O   UNL     1     -11.673  11.215  67.072  1.00  0.00    -0.460 OA 
HETATM   22  C   UNL     1     -11.584  14.493  64.322  1.00  0.00    -0.253 C  
HETATM   23  C   UNL     1     -13.022  12.476  64.299  1.00  0.00    -0.253 C  
BRANCH  20  24
HETATM   24  C   UNL     1     -11.790  14.432  67.479  1.00  0.00    -0.418 A  
HETATM   25  C   UNL     1     -11.000  15.508  67.048  1.00  0.00    -0.283 A  
HETATM   26  C   UNL     1     -10.270  16.271  67.961  1.00  0.00    -0.256 A  
HETATM   27  C   UNL     1     -10.337  15.986  69.322  1.00  0.00    -0.251 A  
HETATM   28  C   UNL     1     -11.129  14.941  69.770  1.00  0.00    -0.300 A  
HETATM   29  C   UNL     1     -11.835  14.164  68.859  1.00  0.00    -0.382 A  
ENDBRANCH  20  24
ENDBRANCH  15  16
ENDBRANCH  10  15
ENDBRANCH   9  10
ENDBRANCH   3   9
BRANCH   5  30
HETATM   30  C   UNL     1     -10.818   9.058  71.377  1.00  0.00    -0.400 A  
HETATM   31  C   UNL     1     -12.481  10.751  70.816  1.00  0.00    -0.481 A  
HETATM   32  C   UNL     1     -11.754   8.483  72.245  1.00  0.00    -0.443 A  
HETATM   33  C   UNL     1     -11.203  10.211  70.680  1.00  0.00    -0.418 A  
HETATM   34  C   UNL     1     -13.381  10.192  71.710  1.00  0.00    -0.485 A  
HETATM   35  C   UNL     1     -13.019   9.053  72.419  1.00  0.00    -0.471 A  
ENDBRANCH   5  30
TORSDOF 8
ENDMDL
MODEL        5
REMARK 921   NORMALIZED FREE ENERGY PREDICTED BY IDOCK:   -6.62 KCAL/MOL
REMARK 922        TOTAL FREE ENERGY PREDICTED BY IDOCK:  -10.52 KCAL/MOL
REMARK 923 INTER-LIGAND FREE ENERGY PREDICTED BY IDOCK:   -9.50 KCAL/MOL
REMARK 924 INTRA-LIGAND FREE ENERGY PREDICTED BY IDOCK:   -1.02 KCAL/MOL
REMARK 927      BINDING AFFINITY PREDICTED BY RF-SCORE:    0.00 PKD
ROOT
HETATM    1  C   UNL     1     -10.911   8.991  67.594  1.00  0.00    -0.063 C  
HETATM    2  N   UNL     1     -10.643   9.884  68.724  1.00  0.00    -0.214 N  
HETATM    3  C   UNL     1     -11.367  11.084  68.708  1.00  0.00    -0.283 C  
HETATM    4  C   UNL     1      -9.733   9.378  69.829  1.00  0.00    -0.199 C  
HETATM    5  C   UNL     1     -10.384   9.405  71.257  1.00  0.00    -0.363 C  
HETATM    6  C   UNL     1      -9.289   7.902  69.592  1.00  0.00    -0.153 C  
HETATM    7  C   UNL     1      -8.401  10.171  69.822  1.00  0.00    -0.154 C  
HETATM    8  O   UNL     1     -12.211  11.294  67.827  1.00  0.00    -0.504 OA 
ENDROOT
BRANCH   3   9
HETATM    9  C   UNL     1     -11.135  12.113  69.825  1.00  0.00     0.113 C  
BRANCH   9  10
HETATM   10  N   UNL     1     -11.616  13.486  69.559  1.00  0.00    -0.293 NA 
BRANCH  10  11
HETATM   11  C   UNL     1     -12.790  13.821  70.385  1.00  0.00    -0.096 C  
BRANCH  11  12
HETATM   12  C   UNL     1     -12.991  12.897  71.608  1.00  0.00    -0.313 C  
HETATM   13  H   UNL     1     -13.949  12.952  73.332  1.00  0.00     0.000 HD 
HETATM   14  O   UNL     1     -13.825  13.519  72.580  1.00  0.00    -0.724 OA 
ENDBRANCH  11  12
ENDBRANCH  10  11
BRANCH  10  15
HETATM   15  C   UNL     1     -10.541  14.513  69.658  1.00  0.00    -0.052 C  
BRANCH  15  16
HETATM   16  C   UNL     1      -9.824  14.825  68.306  1.00  0.00    -0.222 C  
HETATM   17  C   UNL     1      -9.592  16.306  66.255  1.00  0.00    -0.308 C  
HETATM   18  C   UNL     1     -10.919  17.072  68.297  1.00  0.00    -0.269 C  
HETATM   19  N   UNL     1     -10.152  16.017  67.639  1.00  0.00    -0.241 N  
HETATM   20  C   UNL     1      -9.419  15.055  65.312  1.00  0.00     0.201 C  
HETATM   21  O   UNL     1      -9.028  14.029  67.801  1.00  0.00    -0.170 OA 
HETATM   22  C   UNL     1     -10.452  17.327  65.474  1.00  0.00    -0.135 C  
HETATM   23  C   UNL     1      -8.192  16.940  66.411  1.00  0.00    -0.342 C  
BRANCH  20  24
HETATM   24  C   UNL     1     -10.631  14.206  64.985  1.00  0.00    -0.436 A  
HETATM   25  C   UNL     1     -10.466  13.110  64.124  1.00  0.00    -0.348 A  
HETATM   26  C   UNL     1     -11.533  12.254  63.844  1.00  0.00    -0.512 A  
HETATM   27  C   UNL     1     -12.774  12.464  64.439  1.00  0.00    -0.434 A  
HETATM   28  C   UNL     1     -12.950  13.527  65.310  1.00  0.00    -0.290 A  
HETATM   29  C   UNL     1     -11.896  14.396  65.568  1.00  0.00    -0.357 A  
ENDBRANCH  20  24
ENDBRANCH  15  16
ENDBRANCH  10  15
ENDBRANCH   9  10
ENDBRANCH   3   9
BRANCH   5  30
HETATM   30  C   UNL     1     -11.702   8.666  71.404  1.00  0.00    -0.355 A  
HETATM   31  C   UNL     1     -13.012   6.617  71.581  1.00  0.00    -0.186 A  
HETATM   32  C   UNL     1     -12.893   9.392  71.531  1.00  0.00    -0.442 A  
HETATM   33  C   UNL     1     -11.790   7.267  71.416  1.00  0.00    -0.338 A  
HETATM   34  C   UNL     1     -14.186   7.350  71.664  1.00  0.00    -0.583 A  
HETATM   35  C   UNL     1     -14.124   8.739  71.647  1.00  0.00    -0.437 A  
ENDBRANCH   5  30
TORSDOF 8
ENDMDL
MODEL        6
REMARK 921   NORMALIZED FREE ENERGY PREDICTED BY IDOCK:   -6.60 KCAL/MOL
REMARK 922        TOTAL FREE ENERGY PREDICTED BY IDOCK:  -10.49 KCAL/MOL
REMARK 923 INTER-LIGAND FREE ENERGY PREDICTED BY IDOCK:   -9.28 KCAL/MOL
REMARK 924 INTRA-LIGAND FREE ENERGY PREDICTED BY IDOCK:   -1.21 KCAL/MOL
REMARK 927      BINDING AFFINITY PREDICTED BY RF-SCORE:    0.00 PKD
ROOT
HETATM    1  C   UNL     1      -8.285  14.551  67.213  1.00  0.00    -0.208 C  
HETATM    2  N   UNL     1      -9.060  13.345  66.911  1.00  0.00    -0.238 N  
HETATM    3  C   UNL     1      -8.554  12.166  67.476  1.00  0.00    -0.171 C  
HETATM    4  C   UNL     1     -10.361  13.509  66.146  1.00  0.00    -0.296 C  
HETATM    5  C   UNL     1     -11.614  12.916  66.881  1.00  0.00    -0.425 C  
HETATM    6  C   UNL     1     -10.696  15.008  65.876  1.00  0.00    -0.337 C  
HETATM    7  C   UNL     1     -10.222  12.900  64.728  1.00  0.00    -0.307 C  
HETATM    8  O   UNL     1      -7.572  12.204  68.227  1.00  0.00    -0.115 OA 
ENDROOT
BRANCH   3   9
HETATM    9  C   UNL     1      -9.266  10.834  67.190  1.00  0.00    -0.147 C  
BRANCH   9  10
HETATM   10  N   UNL     1      -9.609  10.011  68.370  1.00  0.00    -0.143 NA 
BRANCH  10  11
HETATM   11  C   UNL     1     -10.781   9.155  68.113  1.00  0.00    -0.131 C  
BRANCH  11  12
HETATM   12  C   UNL     1     -10.641   8.240  66.876  1.00  0.00    -0.232 C  
HETATM   13  H   UNL     1     -11.084   6.381  66.382  1.00  0.00     0.000 HD 
HETATM   14  O   UNL     1     -11.170   6.944  67.143  1.00  0.00    -0.352 OA 
ENDBRANCH  11  12
ENDBRANCH  10  11
BRANCH  10  15
HETATM   15  C   UNL     1      -8.450   9.242  68.905  1.00  0.00    -0.129 C  
BRANCH  15  16
HETATM   16  C   UNL     1      -8.678   8.646  70.331  1.00  0.00    -0.155 C  
HETATM   17  C   UNL     1      -9.226   6.639  71.789  1.00  0.00    -0.148 C  
HETATM   18  C   UNL     1      -8.579   6.355  69.336  1.00  0.00    -0.130 C  
HETATM   19  N   UNL     1      -8.862   7.258  70.449  1.00  0.00    -0.149 N  
HETATM   20  C   UNL     1     -10.169   7.505  72.709  1.00  0.00    -0.307 C  
HETATM   21  O   UNL     1      -8.749   9.369  71.327  1.00  0.00    -0.295 OA 
HETATM   22  C   UNL     1      -9.911   5.261  71.635  1.00  0.00    -0.223 C  
HETATM   23  C   UNL     1      -7.927   6.397  72.590  1.00  0.00    -0.104 C  
BRANCH  20  24
HETATM   24  C   UNL     1     -11.526   7.927  72.183  1.00  0.00    -0.377 A  
HETATM   25  C   UNL     1     -12.462   6.928  71.873  1.00  0.00    -0.350 A  
HETATM   26  C   UNL     1     -13.750   7.261  71.451  1.00  0.00    -0.404 A  
HETATM   27  C   UNL     1     -14.132   8.597  71.357  1.00  0.00    -0.337 A  
HETATM   28  C   UNL     1     -13.229   9.597  71.680  1.00  0.00    -0.499 A  
HETATM   29  C   UNL     1     -11.938   9.267  72.074  1.00  0.00    -0.391 A  
ENDBRANCH  20  24
ENDBRANCH  15  16
ENDBRANCH  10  15
ENDBRANCH   9  10
ENDBRANCH   3   9
BRANCH   5  30
HETATM   30  C   UNL     1     -11.868  13.428  68.288  1.00  0.00    -0.393 A  
HETATM   31  C   UNL     1     -12.233  15.230  69.890  1.00  0.00    -0.357 A  
HETATM   32  C   UNL     1     -12.002  12.516  69.342  1.00  0.00    -0.315 A  
HETATM   33  C   UNL     1     -11.972  14.792  68.593  1.00  0.00    -0.292 A  
HETATM   34  C   UNL     1     -12.323  14.315  70.928  1.00  0.00    -0.429 A  
HETATM   35  C   UNL     1     -12.215  12.957  70.652  1.00  0.00    -0.386 A  
ENDBRANCH   5  30
TORSDOF 8
ENDMDL
MODEL        7
REMARK 921   NORMALIZED FREE ENERGY PREDICTED BY IDOCK:   -6.59 KCAL/MOL
REMARK 922        TOTAL FREE ENERGY PREDICTED BY IDOCK:  -10.47 KCAL/MOL
REMARK 923 INTER-LIGAND FREE ENERGY PREDICTED BY IDOCK:  -10.19 KCAL/MOL
REMARK 924 INTRA-LIGAND FREE ENERGY PREDICTED BY IDOCK:   -0.28 KCAL/MOL
REMARK 927      BINDING AFFINITY PREDICTED BY RF-SCORE:    0.00 PKD
ROOT
HETATM    1  C   UNL     1      -8.837   8.457  71.949  1.00  0.00    -0.203 C  
HETATM    2  N   UNL     1     -10.134   8.650  71.299  1.00  0.00    -0.220 N  
HETATM    3  C   UNL     1     -10.120   9.538  70.213  1.00  0.00    -0.262 C  
HETATM    4  C   UNL     1     -11.300   7.800  71.771  1.00  0.00    -0.261 C  
HETATM    5  C   UNL     1     -11.982   6.961  70.633  1.00  0.00    -0.400 C  
HETATM    6  C   UNL     1     -10.869   6.769  72.859  1.00  0.00    -0.304 C  
HETATM    7  C   UNL     1     -12.344   8.687  72.494  1.00  0.00    -0.378 C  
HETATM    8  O   UNL     1      -9.055  10.034  69.826  1.00  0.00    -0.215 OA 
ENDROOT
BRANCH   3   9
HETATM    9  C   UNL     1     -11.436   9.845  69.481  1.00  0.00    -0.068 C  
BRANCH   9  10
HETATM   10  N   UNL     1     -11.921  11.239  69.568  1.00  0.00    -0.338 NA 
BRANCH  10  11
HETATM   11  C   UNL     1     -12.352  11.580  70.936  1.00  0.00    -0.359 C  
BRANCH  11  12
HETATM   12  C   UNL     1     -12.579  13.090  71.173  1.00  0.00    -0.297 C  
HETATM   13  H   UNL     1     -13.488  14.235  72.499  1.00  0.00     0.000 HD 
HETATM   14  O   UNL     1     -13.348  13.307  72.353  1.00  0.00    -0.525 OA 
ENDBRANCH  11  12
ENDBRANCH  10  11
BRANCH  10  15
HETATM   15  C   UNL     1     -10.958  12.231  69.011  1.00  0.00    -0.201 C  
BRANCH  15  16
HETATM   16  C   UNL     1     -11.440  12.927  67.699  1.00  0.00    -0.334 C  
HETATM   17  C   UNL     1     -11.247  13.199  65.181  1.00  0.00    -0.294 C  
HETATM   18  C   UNL     1     -10.179  11.217  66.384  1.00  0.00    -0.233 C  
HETATM   19  N   UNL     1     -10.923  12.471  66.475  1.00  0.00    -0.257 N  
HETATM   20  C   UNL     1     -11.378  14.766  65.292  1.00  0.00    -0.363 C  
HETATM   21  O   UNL     1     -12.214  13.887  67.727  1.00  0.00    -0.338 OA 
HETATM   22  C   UNL     1     -10.202  12.925  64.074  1.00  0.00    -0.256 C  
HETATM   23  C   UNL     1     -12.599  12.678  64.646  1.00  0.00    -0.517 C  
BRANCH  20  24
HETATM   24  C   UNL     1     -10.204  15.569  65.814  1.00  0.00    -0.390 A  
HETATM   25  C   UNL     1     -10.251  16.967  65.708  1.00  0.00    -0.287 A  
HETATM   26  C   UNL     1      -9.229  17.759  66.234  1.00  0.00    -0.203 A  
HETATM   27  C   UNL     1      -8.156  17.168  66.896  1.00  0.00    -0.247 A  
HETATM   28  C   UNL     1      -8.103  15.790  67.031  1.00  0.00    -0.272 A  
HETATM   29  C   UNL     1      -9.107  14.999  66.483  1.00  0.00    -0.319 A  
ENDBRANCH  20  24
ENDBRANCH  15  16
ENDBRANCH  10  15
ENDBRANCH   9  10
ENDBRANCH   3   9
BRANCH   5  30
HETATM   30  C   UNL     1     -11.068   6.045  69.838  1.00  0.00    -0.469 A  
HETATM   31  C   UNL     1      -9.553   4.143  69.659  1.00  0.00    -0.277 A  
HETATM   32  C   UNL     1     -10.903   6.256  68.463  1.00  0.00    -0.394 A  
HETATM   33  C   UNL     1     -10.363   4.984  70.421  1.00  0.00    -0.297 A  
HETATM   34  C   UNL     1      -9.369   4.390  68.307  1.00  0.00    -0.199 A  
HETATM   35  C   UNL     1     -10.051   5.443  67.708  1.00  0.00    -0.215 A  
ENDBRANCH   5  30
TORSDOF 8
ENDMDL
MODEL        8
REMARK 921   NORMALIZED FREE ENERGY PREDICTED BY IDOCK:   -6.53 KCAL/MOL
REMARK 922        TOTAL FREE ENERGY PREDICTED BY IDOCK:  -10.39 KCAL/MOL
REMARK 923 INTER-LIGAND FREE ENERGY PREDICTED BY IDOCK:   -9.36 KCAL/MOL
REMARK 924 INTRA-LIGAND FREE ENERGY PREDICTED BY IDOCK:   -1.03 KCAL/MOL
REMARK 927      BINDING AFFINITY PREDICTED BY RF-SCORE:    0.00 PKD
ROOT
HETATM    1  C   UNL     1     -12.532  14.316  66.127  1.00  0.00    -0.336 C  
HETATM    2  N   UNL     1     -11.467  13.576  66.807  1.00  0.00    -0.331 N  
HETATM    3  C   UNL     1     -10.649  12.815  65.959  1.00  0.00    -0.268 C  
HETATM    4  C   UNL     1     -11.284  13.801  68.297  1.00  0.00    -0.273 C  
HETATM    5  C   UNL     1      -9.842  14.270  68.700  1.00  0.00    -0.228 C  
HETATM    6  C   UNL     1     -12.256  14.889  68.848  1.00  0.00    -0.143 C  
HETATM    7  C   UNL     1     -11.680  12.522  69.078  1.00  0.00    -0.368 C  
HETATM    8  O   UNL     1     -10.807  12.859  64.733  1.00  0.00    -0.298 OA 
ENDROOT
BRANCH   3   9
HETATM    9  C   UNL     1      -9.523  11.967  66.571  1.00  0.00    -0.217 C  
BRANCH   9  10
HETATM   10  N   UNL     1      -9.567  10.517  66.283  1.00  0.00    -0.180 NA 
BRANCH  10  11
HETATM   11  C   UNL     1      -8.244   9.889  66.449  1.00  0.00    -0.117 C  
BRANCH  11  12
HETATM   12  C   UNL     1      -7.873   8.885  65.334  1.00  0.00    -0.102 C  
HETATM   13  H   UNL     1      -8.325   8.584  63.437  1.00  0.00     0.000 HD 
HETATM   14  O   UNL     1      -8.553   9.201  64.123  1.00  0.00    -0.191 OA 
ENDBRANCH  11  12
ENDBRANCH  10  11
BRANCH  10  15
HETATM   15  C   UNL     1     -10.635   9.803  67.038  1.00  0.00    -0.199 C  
BRANCH  15  16
HETATM   16  C   UNL     1     -10.135   9.084  68.332  1.00  0.00    -0.191 C  
HETATM   17  C   UNL     1      -9.934   6.953  69.699  1.00  0.00    -0.171 C  
HETATM   18  C   UNL     1     -10.610   6.887  67.239  1.00  0.00    -0.322 C  
HETATM   19  N   UNL     1     -10.274   7.688  68.413  1.00  0.00    -0.194 N  
HETATM   20  C   UNL     1     -10.265   7.722  71.035  1.00  0.00    -0.210 C  
HETATM   21  O   UNL     1      -9.677   9.719  69.284  1.00  0.00    -0.175 OA 
HETATM   22  C   UNL     1     -10.642   5.581  69.798  1.00  0.00    -0.388 C  
HETATM   23  C   UNL     1      -8.417   6.665  69.719  1.00  0.00    -0.132 C  
BRANCH  20  24
HETATM   24  C   UNL     1     -11.691   8.164  71.297  1.00  0.00    -0.310 A  
HETATM   25  C   UNL     1     -12.706   7.196  71.266  1.00  0.00    -0.412 A  
HETATM   26  C   UNL     1     -14.027   7.534  71.568  1.00  0.00    -0.522 A  
HETATM   27  C   UNL     1     -14.349   8.839  71.930  1.00  0.00    -0.441 A  
HETATM   28  C   UNL     1     -13.356   9.805  71.987  1.00  0.00    -0.547 A  
HETATM   29  C   UNL     1     -12.046   9.475  71.660  1.00  0.00    -0.474 A  
ENDBRANCH  20  24
ENDBRANCH  15  16
ENDBRANCH  10  15
ENDBRANCH   9  10
ENDBRANCH   3   9
BRANCH   5  30
HETATM   30  C   UNL     1      -9.326  15.517  68.005  1.00  0.00    -0.193 A  
HETATM   31  C   UNL     1      -8.118  16.635  66.205  1.00  0.00    -0.361 A  
HETATM   32  C   UNL     1      -9.617  16.779  68.540  1.00  0.00    -0.245 A  
HETATM   33  C   UNL     1      -8.554  15.471  66.836  1.00  0.00    -0.289 A  
HETATM   34  C   UNL     1      -8.381  17.873  66.770  1.00  0.00    -0.273 A  
HETATM   35  C   UNL     1      -9.138  17.945  67.934  1.00  0.00    -0.260 A  
ENDBRANCH   5  30
TORSDOF 8
ENDMDL
MODEL        9
REMARK 921   NORMALIZED FREE ENERGY PREDICTED BY IDOCK:   -6.50 KCAL/MOL
REMARK 922        TOTAL FREE ENERGY PREDICTED BY IDOCK:  -10.34 KCAL/MOL
REMARK 923 INTER-LIGAND FREE ENERGY PREDICTED BY IDOCK:   -9.65 KCAL/MOL
REMARK 924 INTRA-LIGAND FREE ENERGY PREDICTED BY IDOCK:   -0.69 KCAL/MOL
REMARK 927      BINDING AFFINITY PREDICTED BY RF-SCORE:    0.00 PKD
ROOT
HETATM    1  C   UNL     1     -10.951   8.939  67.675  1.00  0.00     0.112 C  
HETATM    2  N   UNL     1     -10.705   9.810  68.827  1.00  0.00    -0.221 N  
HETATM    3  C   UNL     1     -11.417  11.017  68.813  1.00  0.00    -0.305 C  
HETATM    4  C   UNL     1      -9.828   9.277  69.946  1.00  0.00    -0.199 C  
HETATM    5  C   UNL     1     -10.516   9.285  71.357  1.00  0.00    -0.408 C  
HETATM    6  C   UNL     1      -9.391   7.801  69.695  1.00  0.00    -0.153 C  
HETATM    7  C   UNL     1      -8.490  10.057  69.987  1.00  0.00    -0.126 C  
HETATM    8  O   UNL     1     -12.236  11.249  67.914  1.00  0.00    -0.570 OA 
ENDROOT
BRANCH   3   9
HETATM    9  C   UNL     1     -11.206  12.024  69.954  1.00  0.00     0.060 C  
BRANCH   9  10
HETATM   10  N   UNL     1     -12.144  13.167  69.999  1.00  0.00    -0.326 NA 
BRANCH  10  11
HETATM   11  C   UNL     1     -12.972  13.141  71.218  1.00  0.00    -0.254 C  
BRANCH  11  12
HETATM   12  C   UNL     1     -12.899  14.432  72.064  1.00  0.00    -0.343 C  
HETATM   13  H   UNL     1     -13.222  14.965  73.936  1.00  0.00     0.000 HD 
HETATM   14  O   UNL     1     -13.268  14.172  73.415  1.00  0.00    -0.495 OA 
ENDBRANCH  11  12
ENDBRANCH  10  11
BRANCH  10  15
HETATM   15  C   UNL     1     -11.475  14.482  69.794  1.00  0.00    -0.279 C  
BRANCH  15  16
HETATM   16  C   UNL     1     -11.153  14.814  68.302  1.00  0.00    -0.274 C  
HETATM   17  C   UNL     1      -9.426  15.157  66.471  1.00  0.00    -0.283 C  
HETATM   18  C   UNL     1      -8.802  14.060  68.690  1.00  0.00    -0.104 C  
HETATM   19  N   UNL     1      -9.820  14.714  67.871  1.00  0.00    -0.215 N  
HETATM   20  C   UNL     1     -10.205  16.405  65.905  1.00  0.00    -0.379 C  
HETATM   21  O   UNL     1     -12.029  15.205  67.527  1.00  0.00    -0.217 OA 
HETATM   22  C   UNL     1      -7.921  15.495  66.363  1.00  0.00     0.159 C  
HETATM   23  C   UNL     1      -9.686  13.991  65.493  1.00  0.00    -0.141 C  
BRANCH  20  24
HETATM   24  C   UNL     1     -10.158  17.713  66.669  1.00  0.00    -0.335 A  
HETATM   25  C   UNL     1     -10.423  18.902  65.974  1.00  0.00    -0.507 A  
HETATM   26  C   UNL     1     -10.461  20.128  66.642  1.00  0.00    -0.435 A  
HETATM   27  C   UNL     1     -10.260  20.180  68.019  1.00  0.00    -0.493 A  
HETATM   28  C   UNL     1     -10.019  19.014  68.726  1.00  0.00    -0.475 A  
HETATM   29  C   UNL     1      -9.954  17.796  68.058  1.00  0.00    -0.333 A  
ENDBRANCH  20  24
ENDBRANCH  15  16
ENDBRANCH  10  15
ENDBRANCH   9  10
ENDBRANCH   3   9
BRANCH   5  30
HETATM   30  C   UNL     1     -11.844   8.555  71.457  1.00  0.00    -0.353 A  
HETATM   31  C   UNL     1     -13.179   6.516  71.529  1.00  0.00     0.106 A  
HETATM   32  C   UNL     1     -13.028   9.289  71.602  1.00  0.00    -0.447 A  
HETATM   33  C   UNL     1     -11.948   7.159  71.406  1.00  0.00    -0.364 A  
HETATM   34  C   UNL     1     -14.345   7.259  71.632  1.00  0.00    -0.583 A  
HETATM   35  C   UNL     1     -14.268   8.646  71.676  1.00  0.00    -0.463 A  
ENDBRANCH   5  30
TORSDOF 8
ENDMDL
MODEL       10
REMARK 921   NORMALIZED FREE ENERGY PREDICTED BY IDOCK:   -6.46 KCAL/MOL
REMARK 922        TOTAL FREE ENERGY PREDICTED BY IDOCK:  -10.29 KCAL/MOL
REMARK 923 INTER-LIGAND FREE ENERGY PREDICTED BY IDOCK:   -9.70 KCAL/MOL
REMARK 924 INTRA-LIGAND FREE ENERGY PREDICTED BY IDOCK:   -0.59 KCAL/MOL
REMARK 927      BINDING AFFINITY PREDICTED BY RF-SCORE:    0.00 PKD
ROOT
HETATM    1  C   UNL     1     -12.150  14.044  68.699  1.00  0.00    -0.297 C  
HETATM    2  N   UNL     1     -10.897  13.333  68.437  1.00  0.00    -0.250 N  
HETATM    3  C   UNL     1     -10.930  11.961  68.723  1.00  0.00    -0.235 C  
HETATM    4  C   UNL     1      -9.765  14.105  67.783  1.00  0.00    -0.223 C  
HETATM    5  C   UNL     1      -9.241  13.464  66.450  1.00  0.00    -0.131 C  
HETATM    6  C   UNL     1     -10.185  15.562  67.418  1.00  0.00    -0.255 C  
HETATM    7  C   UNL     1      -8.603  14.296  68.790  1.00  0.00    -0.101 C  
HETATM    8  O   UNL     1     -11.982  11.425  69.094  1.00  0.00    -0.321 OA 
ENDROOT
BRANCH   3   9
HETATM    9  C   UNL     1      -9.658  11.124  68.522  1.00  0.00    -0.193 C  
BRANCH   9  10
HETATM   10  N   UNL     1      -9.849   9.662  68.406  1.00  0.00    -0.150 NA 
BRANCH  10  11
HETATM   11  C   UNL     1     -10.162   9.264  67.022  1.00  0.00    -0.262 C  
BRANCH  11  12
HETATM   12  C   UNL     1      -9.940   7.763  66.726  1.00  0.00    -0.261 C  
HETATM   13  H   UNL     1     -11.016   6.109  66.709  1.00  0.00     0.000 HD 
HETATM   14  O   UNL     1     -11.152   7.031  66.890  1.00  0.00    -0.359 OA 
ENDBRANCH  11  12
ENDBRANCH  10  11
BRANCH  10  15
HETATM   15  C   UNL     1      -8.722   8.876  68.982  1.00  0.00    -0.136 C  
BRANCH  15  16
HETATM   16  C   UNL     1      -8.926   8.458  70.473  1.00  0.00    -0.150 C  
HETATM   17  C   UNL     1      -9.422   6.640  72.177  1.00  0.00    -0.144 C  
HETATM   18  C   UNL     1      -8.789   6.063  69.772  1.00  0.00    -0.134 C  
HETATM   19  N   UNL     1      -9.082   7.093  70.766  1.00  0.00    -0.153 N  
HETATM   20  C   UNL     1     -10.375   7.596  72.990  1.00  0.00    -0.393 C  
HETATM   21  O   UNL     1      -9.004   9.299  71.372  1.00  0.00    -0.311 OA 
HETATM   22  C   UNL     1     -10.080   5.241  72.203  1.00  0.00    -0.241 C  
HETATM   23  C   UNL     1      -8.113   6.525  72.988  1.00  0.00    -0.107 C  
BRANCH  20  24
HETATM   24  C   UNL     1     -11.745   7.923  72.430  1.00  0.00    -0.423 A  
HETATM   25  C   UNL     1     -12.527   6.874  71.925  1.00  0.00    -0.350 A  
HETATM   26  C   UNL     1     -13.823   7.107  71.461  1.00  0.00    -0.421 A  
HETATM   27  C   UNL     1     -14.366   8.387  71.517  1.00  0.00    -0.499 A  
HETATM   28  C   UNL     1     -13.617   9.432  72.034  1.00  0.00    -0.505 A  
HETATM   29  C   UNL     1     -12.317   9.206  72.471  1.00  0.00    -0.216 A  
ENDBRANCH  20  24
ENDBRANCH  15  16
ENDBRANCH  10  15
ENDBRANCH   9  10
ENDBRANCH   3   9
BRANCH   5  30
HETATM   30  C   UNL     1     -10.281  13.218  65.372  1.00  0.00    -0.304 A  
HETATM   31  C   UNL     1     -11.330  11.822  63.669  1.00  0.00    -0.525 A  
HETATM   32  C   UNL     1     -11.225  14.212  65.081  1.00  0.00    -0.337 A  
HETATM   33  C   UNL     1     -10.345  12.028  64.634  1.00  0.00    -0.325 A  
HETATM   34  C   UNL     1     -12.230  12.831  63.367  1.00  0.00    -0.594 A  
HETATM   35  C   UNL     1     -12.182  14.024  64.079  1.00  0.00    -0.395 A  
ENDBRANCH   5  30
TORSDOF 8
ENDMDL
MODEL       11
REMARK 921   NORMALIZED FREE ENERGY PREDICTED BY IDOCK:   -6.46 KCAL/MOL
REMARK 922        TOTAL FREE ENERGY PREDICTED BY IDOCK:  -10.28 KCAL/MOL
REMARK 923 INTER-LIGAND FREE ENERGY PREDICTED BY IDOCK:   -9.64 KCAL/MOL
REMARK 924 INTRA-LIGAND FREE ENERGY PREDICTED BY IDOCK:   -0.64 KCAL/MOL
REMARK 927      BINDING AFFINITY PREDICTED BY RF-SCORE:    0.00 PKD
ROOT
HETATM    1  C   UNL     1      -8.851   7.463  72.229  1.00  0.00    -0.124 C  
HETATM    2  N   UNL     1      -9.860   7.676  71.188  1.00  0.00    -0.173 N  
HETATM    3  C   UNL     1      -9.596   8.750  70.326  1.00  0.00    -0.177 C  
HETATM    4  C   UNL     1     -10.987   6.666  71.073  1.00  0.00    -0.259 C  
HETATM    5  C   UNL     1     -11.112   6.006  69.655  1.00  0.00    -0.474 C  
HETATM    6  C   UNL     1     -10.818   5.484  72.078  1.00  0.00    -0.287 C  
HETATM    7  C   UNL     1     -12.328   7.319  71.492  1.00  0.00    -0.397 C  
HETATM    8  O   UNL     1      -8.542   9.390  70.430  1.00  0.00    -0.199 OA 
ENDROOT
BRANCH   3   9
HETATM    9  C   UNL     1     -10.608   9.089  69.221  1.00  0.00    -0.213 C  
BRANCH   9  10
HETATM   10  N   UNL     1     -11.157  10.461  69.236  1.00  0.00    -0.238 NA 
BRANCH  10  11
HETATM   11  C   UNL     1     -11.639  10.839  70.577  1.00  0.00    -0.330 C  
BRANCH  11  12
HETATM   12  C   UNL     1     -13.136  10.542  70.822  1.00  0.00    -0.257 C  
HETATM   13  H   UNL     1     -14.376  10.483  72.356  1.00  0.00     0.000 HD 
HETATM   14  O   UNL     1     -13.456  10.665  72.205  1.00  0.00    -0.373 OA 
ENDBRANCH  11  12
ENDBRANCH  10  11
BRANCH  10  15
HETATM   15  C   UNL     1     -10.225  11.472  68.662  1.00  0.00    -0.208 C  
BRANCH  15  16
HETATM   16  C   UNL     1     -10.875  12.866  68.392  1.00  0.00    -0.254 C  
HETATM   17  C   UNL     1     -10.667  15.398  68.367  1.00  0.00    -0.256 C  
HETATM   18  C   UNL     1      -8.606  13.902  68.547  1.00  0.00    -0.137 C  
HETATM   19  N   UNL     1     -10.062  14.008  68.482  1.00  0.00    -0.235 N  
HETATM   20  C   UNL     1     -12.106  15.570  68.987  1.00  0.00    -0.246 C  
HETATM   21  O   UNL     1     -12.081  12.979  68.158  1.00  0.00    -0.307 OA 
HETATM   22  C   UNL     1      -9.777  16.482  69.019  1.00  0.00    -0.258 C  
HETATM   23  C   UNL     1     -10.782  15.765  66.872  1.00  0.00    -0.299 C  
BRANCH  20  24
HETATM   24  C   UNL     1     -12.319  15.258  70.455  1.00  0.00    -0.422 A  
HETATM   25  C   UNL     1     -11.685  16.070  71.408  1.00  0.00    -0.536 A  
HETATM   26  C   UNL     1     -11.901  15.872  72.773  1.00  0.00    -0.583 A  
HETATM   27  C   UNL     1     -12.773  14.876  73.206  1.00  0.00    -0.624 A  
HETATM   28  C   UNL     1     -13.425  14.079  72.279  1.00  0.00    -0.597 A  
HETATM   29  C   UNL     1     -13.190  14.258  70.921  1.00  0.00    -0.320 A  
ENDBRANCH  20  24
ENDBRANCH  15  16
ENDBRANCH  10  15
ENDBRANCH   9  10
ENDBRANCH   3   9
BRANCH   5  30
HETATM   30  C   UNL     1      -9.864   5.328  69.120  1.00  0.00    -0.257 A  
HETATM   31  C   UNL     1      -8.251   3.499  69.090  1.00  0.00    -0.075 A  
HETATM   32  C   UNL     1      -9.139   5.932  68.084  1.00  0.00    -0.117 A  
HETATM   33  C   UNL     1      -9.386   4.110  69.621  1.00  0.00    -0.241 A  
HETATM   34  C   UNL     1      -7.524   4.130  68.092  1.00  0.00    -0.067 A  
HETATM   35  C   UNL     1      -7.973   5.343  67.584  1.00  0.00    -0.100 A  
ENDBRANCH   5  30
TORSDOF 8
ENDMDL
MODEL       12
REMARK 921   NORMALIZED FREE ENERGY PREDICTED BY IDOCK:   -6.44 KCAL/MOL
REMARK 922        TOTAL FREE ENERGY PREDICTED BY IDOCK:  -10.26 KCAL/MOL
REMARK 923 INTER-LIGAND FREE ENERGY PREDICTED BY IDOCK:   -9.58 KCAL/MOL
REMARK 924 INTRA-LIGAND FREE ENERGY PREDICTED BY IDOCK:   -0.68 KCAL/MOL
REMARK 927      BINDING AFFINITY PREDICTED BY RF-SCORE:    0.00 PKD
ROOT
HETATM    1  C   UNL     1      -8.214  15.549  69.138  1.00  0.00    -0.247 C  
HETATM    2  N   UNL     1      -9.022  14.999  68.047  1.00  0.00    -0.171 N  
HETATM    3  C   UNL     1      -8.661  13.706  67.644  1.00  0.00    -0.185 C  
HETATM    4  C   UNL     1     -10.213  15.808  67.567  1.00  0.00    -0.265 C  
HETATM    5  C   UNL     1     -11.578  15.036  67.628  1.00  0.00    -0.327 C  
HETATM    6  C   UNL     1     -10.420  17.103  68.412  1.00  0.00    -0.376 C  
HETATM    7  C   UNL     1      -9.950  16.339  66.135  1.00  0.00    -0.355 C  
HETATM    8  O   UNL     1      -7.771  13.089  68.243  1.00  0.00    -0.125 OA 
ENDROOT
BRANCH   3   9
HETATM    9  C   UNL     1      -9.417  13.046  66.480  1.00  0.00    -0.245 C  
BRANCH   9  10
HETATM   10  N   UNL     1     -10.248  11.872  66.823  1.00  0.00    -0.204 NA 
BRANCH  10  11
HETATM   11  C   UNL     1     -11.139  11.493  65.711  1.00  0.00    -0.210 C  
BRANCH  11  12
HETATM   12  C   UNL     1     -11.751  12.691  64.951  1.00  0.00    -0.353 C  
HETATM   13  H   UNL     1     -13.530  13.250  64.305  1.00  0.00     0.000 HD 
HETATM   14  O   UNL     1     -13.153  12.514  64.773  1.00  0.00    -0.853 OA 
ENDBRANCH  11  12
ENDBRANCH  10  11
BRANCH  10  15
HETATM   15  C   UNL     1      -9.453  10.720  67.332  1.00  0.00    -0.154 C  
BRANCH  15  16
HETATM   16  C   UNL     1     -10.191   9.850  68.399  1.00  0.00    -0.178 C  
HETATM   17  C   UNL     1     -10.081   8.404  70.484  1.00  0.00    -0.190 C  
HETATM   18  C   UNL     1      -8.113   9.873  69.787  1.00  0.00    -0.176 C  
HETATM   19  N   UNL     1      -9.451   9.367  69.491  1.00  0.00    -0.170 N  
HETATM   20  C   UNL     1     -11.104   7.369  69.878  1.00  0.00    -0.208 C  
HETATM   21  O   UNL     1     -11.379   9.546  68.270  1.00  0.00     0.025 OA 
HETATM   22  C   UNL     1      -9.023   7.574  71.251  1.00  0.00    -0.142 C  
HETATM   23  C   UNL     1     -10.851   9.220  71.544  1.00  0.00    -0.442 C  
BRANCH  20  24
HETATM   24  C   UNL     1     -10.642   6.429  68.784  1.00  0.00    -0.295 A  
HETATM   25  C   UNL     1      -9.884   5.305  69.146  1.00  0.00    -0.257 A  
HETATM   26  C   UNL     1      -9.491   4.368  68.188  1.00  0.00    -0.207 A  
HETATM   27  C   UNL     1      -9.869   4.528  66.857  1.00  0.00    -0.238 A  
HETATM   28  C   UNL     1     -10.636   5.620  66.484  1.00  0.00    -0.320 A  
HETATM   29  C   UNL     1     -11.005   6.567  67.432  1.00  0.00    -0.458 A  
ENDBRANCH  20  24
ENDBRANCH  15  16
ENDBRANCH  10  15
ENDBRANCH   9  10
ENDBRANCH   3   9
BRANCH   5  30
HETATM   30  C   UNL     1     -11.960  14.458  68.979  1.00  0.00    -0.342 A  
HETATM   31  C   UNL     1     -12.224  12.591  70.525  1.00  0.00    -0.382 A  
HETATM   32  C   UNL     1     -12.407  15.312  69.995  1.00  0.00    -0.366 A  
HETATM   33  C   UNL     1     -11.893  13.088  69.265  1.00  0.00    -0.370 A  
HETATM   34  C   UNL     1     -12.703  13.445  71.506  1.00  0.00    -0.386 A  
HETATM   35  C   UNL     1     -12.786  14.807  71.243  1.00  0.00    -0.408 A  
ENDBRANCH   5  30
TORSDOF 8
ENDMDL
MODEL       13
REMARK 921   NORMALIZED FREE ENERGY PREDICTED BY IDOCK:   -6.41 KCAL/MOL
REMARK 922        TOTAL FREE ENERGY PREDICTED BY IDOCK:  -10.21 KCAL/MOL
REMARK 923 INTER-LIGAND FREE ENERGY PREDICTED BY IDOCK:   -9.34 KCAL/MOL
REMARK 924 INTRA-LIGAND FREE ENERGY PREDICTED BY IDOCK:   -0.86 KCAL/MOL
REMARK 927      BINDING AFFINITY PREDICTED BY RF-SCORE:    0.00 PKD
ROOT
HETATM    1  C   UNL     1      -9.167  14.513  66.895  1.00  0.00    -0.250 C  
HETATM    2  N   UNL     1      -9.811  13.301  67.405  1.00  0.00    -0.223 N  
HETATM    3  C   UNL     1      -8.974  12.464  68.157  1.00  0.00    -0.196 C  
HETATM    4  C   UNL     1     -11.304  13.142  67.183  1.00  0.00    -0.316 C  
HETATM    5  C   UNL     1     -12.128  12.928  68.501  1.00  0.00    -0.158 C  
HETATM    6  C   UNL     1     -11.929  14.391  66.489  1.00  0.00    -0.406 C  
HETATM    7  C   UNL     1     -11.570  11.990  66.180  1.00  0.00    -0.371 C  
HETATM    8  O   UNL     1      -7.811  12.804  68.407  1.00  0.00    -0.133 OA 
ENDROOT
BRANCH   3   9
HETATM    9  C   UNL     1      -9.536  11.144  68.708  1.00  0.00    -0.165 C  
BRANCH   9  10
HETATM   10  N   UNL     1      -8.935   9.904  68.172  1.00  0.00    -0.119 NA 
BRANCH  10  11
HETATM   11  C   UNL     1      -8.577  10.045  66.749  1.00  0.00    -0.125 C  
BRANCH  11  12
HETATM   12  C   UNL     1      -9.242   9.003  65.820  1.00  0.00    -0.232 C  
HETATM   13  H   UNL     1     -10.763   7.748  65.894  1.00  0.00     0.000 HD 
HETATM   14  O   UNL     1     -10.354   8.389  66.465  1.00  0.00    -0.285 OA 
ENDBRANCH  11  12
ENDBRANCH  10  11
BRANCH  10  15
HETATM   15  C   UNL     1      -7.801   9.398  68.996  1.00  0.00    -0.079 C  
BRANCH  15  16
HETATM   16  C   UNL     1      -8.236   8.606  70.269  1.00  0.00    -0.119 C  
HETATM   17  C   UNL     1      -9.288   6.530  71.289  1.00  0.00    -0.155 C  
HETATM   18  C   UNL     1      -8.574   6.584  68.839  1.00  0.00    -0.125 C  
HETATM   19  N   UNL     1      -8.721   7.298  70.105  1.00  0.00    -0.140 N  
HETATM   20  C   UNL     1     -10.075   7.392  72.349  1.00  0.00    -0.228 C  
HETATM   21  O   UNL     1      -8.207   9.122  71.389  1.00  0.00    -0.316 OA 
HETATM   22  C   UNL     1     -10.243   5.395  70.852  1.00  0.00    -0.303 C  
HETATM   23  C   UNL     1      -8.122   5.856  72.045  1.00  0.00    -0.108 C  
BRANCH  20  24
HETATM   24  C   UNL     1     -11.276   8.198  71.898  1.00  0.00    -0.351 A  
HETATM   25  C   UNL     1     -12.540   7.591  71.936  1.00  0.00    -0.324 A  
HETATM   26  C   UNL     1     -13.689   8.309  71.598  1.00  0.00    -0.404 A  
HETATM   27  C   UNL     1     -13.596   9.651  71.240  1.00  0.00    -0.294 A  
HETATM   28  C   UNL     1     -12.358  10.274  71.218  1.00  0.00    -0.506 A  
HETATM   29  C   UNL     1     -11.211   9.553  71.528  1.00  0.00    -0.437 A  
ENDBRANCH  20  24
ENDBRANCH  15  16
ENDBRANCH  10  15
ENDBRANCH   9  10
ENDBRANCH   3   9
BRANCH   5  30
HETATM   30  C   UNL     1     -11.958  13.987  69.575  1.00  0.00    -0.390 A  
HETATM   31  C   UNL     1     -11.265  16.202  70.323  1.00  0.00    -0.389 A  
HETATM   32  C   UNL     1     -12.382  13.721  70.883  1.00  0.00    -0.456 A  
HETATM   33  C   UNL     1     -11.383  15.239  69.322  1.00  0.00    -0.308 A  
HETATM   34  C   UNL     1     -11.653  15.908  71.621  1.00  0.00    -0.541 A  
HETATM   35  C   UNL     1     -12.219  14.669  71.899  1.00  0.00    -0.390 A  
ENDBRANCH   5  30
TORSDOF 8
ENDMDL
MODEL       14
REMARK 921   NORMALIZED FREE ENERGY PREDICTED BY IDOCK:   -6.36 KCAL/MOL
REMARK 922        TOTAL FREE ENERGY PREDICTED BY IDOCK:  -10.15 KCAL/MOL
REMARK 923 INTER-LIGAND FREE ENERGY PREDICTED BY IDOCK:   -9.22 KCAL/MOL
REMARK 924 INTRA-LIGAND FREE ENERGY PREDICTED BY IDOCK:   -0.93 KCAL/MOL
REMARK 927      BINDING AFFINITY PREDICTED BY RF-SCORE:    0.00 PKD
ROOT
HETATM    1  C   UNL     1     -10.765   9.553  67.295  1.00  0.00    -0.199 C  
HETATM    2  N   UNL     1     -10.467  10.343  68.492  1.00  0.00    -0.175 N  
HETATM    3  C   UNL     1     -11.311  11.445  68.693  1.00  0.00    -0.265 C  
HETATM    4  C   UNL     1      -9.390   9.830  69.431  1.00  0.00    -0.202 C  
HETATM    5  C   UNL     1      -9.876   9.625  70.910  1.00  0.00    -0.168 C  
HETATM    6  C   UNL     1      -8.823   8.451  68.975  1.00  0.00    -0.146 C  
HETATM    7  C   UNL     1      -8.159  10.770  69.387  1.00  0.00    -0.053 C  
HETATM    8  O   UNL     1     -12.265  11.648  67.933  1.00  0.00    -0.560 OA 
ENDROOT
BRANCH   3   9
HETATM    9  C   UNL     1     -11.064  12.366  69.898  1.00  0.00     0.293 C  
BRANCH   9  10
HETATM   10  N   UNL     1     -11.505  13.769  69.749  1.00  0.00    -0.233 NA 
BRANCH  10  11
HETATM   11  C   UNL     1     -12.619  14.088  70.661  1.00  0.00    -0.344 C  
BRANCH  11  12
HETATM   12  C   UNL     1     -13.042  12.920  71.580  1.00  0.00    -0.335 C  
HETATM   13  H   UNL     1     -14.245  12.642  73.120  1.00  0.00     0.000 HD 
HETATM   14  O   UNL     1     -13.985  13.360  72.554  1.00  0.00    -0.707 OA 
ENDBRANCH  11  12
ENDBRANCH  10  11
BRANCH  10  15
HETATM   15  C   UNL     1     -10.388  14.749  69.853  1.00  0.00     0.043 C  
BRANCH  15  16
HETATM   16  C   UNL     1      -9.742  15.134  68.484  1.00  0.00    -0.214 C  
HETATM   17  C   UNL     1      -9.746  16.602  66.410  1.00  0.00    -0.286 C  
HETATM   18  C   UNL     1     -11.131  17.212  68.466  1.00  0.00    -0.092 C  
HETATM   19  N   UNL     1     -10.239  16.261  67.808  1.00  0.00    -0.263 N  
HETATM   20  C   UNL     1      -9.422  15.371  65.480  1.00  0.00    -0.160 C  
HETATM   21  O   UNL     1      -8.855  14.445  67.975  1.00  0.00    -0.165 OA 
HETATM   22  C   UNL     1     -10.749  17.486  65.632  1.00  0.00    -0.089 C  
HETATM   23  C   UNL     1      -8.442  17.421  66.532  1.00  0.00    -0.298 C  
BRANCH  20  24
HETATM   24  C   UNL     1     -10.513  14.361  65.187  1.00  0.00    -0.437 A  
HETATM   25  C   UNL     1     -11.803  14.610  65.680  1.00  0.00    -0.273 A  
HETATM   26  C   UNL     1     -12.861  13.749  65.381  1.00  0.00    -0.455 A  
HETATM   27  C   UNL     1     -12.652  12.641  64.565  1.00  0.00    -0.491 A  
HETATM   28  C   UNL     1     -11.390  12.391  64.050  1.00  0.00    -0.465 A  
HETATM   29  C   UNL     1     -10.330  13.232  64.369  1.00  0.00    -0.372 A  
ENDBRANCH  20  24
ENDBRANCH  15  16
ENDBRANCH  10  15
ENDBRANCH   9  10
ENDBRANCH   3   9
BRANCH   5  30
HETATM   30  C   UNL     1     -11.083   8.724  71.098  1.00  0.00    -0.340 A  
HETATM   31  C   UNL     1     -12.142   6.528  71.159  1.00  0.00    -0.318 A  
HETATM   32  C   UNL     1     -12.323   9.287  71.425  1.00  0.00    -0.421 A  
HETATM   33  C   UNL     1     -11.021   7.332  70.953  1.00  0.00    -0.275 A  
HETATM   34  C   UNL     1     -13.370   7.105  71.443  1.00  0.00    -0.380 A  
HETATM   35  C   UNL     1     -13.458   8.485  71.583  1.00  0.00    -0.375 A  
ENDBRANCH   5  30
TORSDOF 8
ENDMDL
MODEL       15
REMARK 921   NORMALIZED FREE ENERGY PREDICTED BY IDOCK:   -6.34 KCAL/MOL
REMARK 922        TOTAL FREE ENERGY PREDICTED BY IDOCK:  -10.11 KCAL/MOL
REMARK 923 INTER-LIGAND FREE ENERGY PREDICTED BY IDOCK:   -9.95 KCAL/MOL
REMARK 924 INTRA-LIGAND FREE ENERGY PREDICTED BY IDOCK:   -0.15 KCAL/MOL
REMARK 927      BINDING AFFINITY PREDICTED BY RF-SCORE:    0.00 PKD
ROOT
HETATM    1  C   UNL     1      -8.292  14.741  67.032  1.00  0.00    -0.198 C  
HETATM    2  N   UNL     1      -9.405  13.800  66.881  1.00  0.00    -0.253 N  
HETATM    3  C   UNL     1      -9.166  12.520  67.400  1.00  0.00    -0.186 C  
HETATM    4  C   UNL     1     -10.708  14.327  66.308  1.00  0.00    -0.297 C  
HETATM    5  C   UNL     1     -11.954  14.096  67.234  1.00  0.00    -0.449 C  
HETATM    6  C   UNL     1     -10.653  15.864  66.046  1.00  0.00    -0.331 C  
HETATM    7  C   UNL     1     -10.953  13.721  64.903  1.00  0.00    -0.378 C  
HETATM    8  O   UNL     1      -8.111  12.275  67.999  1.00  0.00    -0.137 OA 
ENDROOT
BRANCH   3   9
HETATM    9  C   UNL     1     -10.251  11.441  67.260  1.00  0.00    -0.199 C  
BRANCH   9  10
HETATM   10  N   UNL     1     -10.123  10.532  66.101  1.00  0.00    -0.237 NA 
BRANCH  10  11
HETATM   11  C   UNL     1      -8.784  10.616  65.491  1.00  0.00    -0.188 C  
BRANCH  11  12
HETATM   12  C   UNL     1      -8.688   9.991  64.081  1.00  0.00    -0.205 C  
HETATM   13  H   UNL     1      -9.627  10.148  62.352  1.00  0.00     0.000 HD 
HETATM   14  O   UNL     1      -9.686  10.532  63.219  1.00  0.00    -0.314 OA 
ENDBRANCH  11  12
ENDBRANCH  10  11
BRANCH  10  15
HETATM   15  C   UNL     1     -10.520   9.129  66.410  1.00  0.00    -0.071 C  
BRANCH  15  16
HETATM   16  C   UNL     1      -9.926   8.573  67.743  1.00  0.00    -0.190 C  
HETATM   17  C   UNL     1      -9.880   6.751  69.514  1.00  0.00    -0.157 C  
HETATM   18  C   UNL     1     -11.025   6.380  67.262  1.00  0.00    -0.392 C  
HETATM   19  N   UNL     1     -10.315   7.289  68.159  1.00  0.00    -0.187 N  
HETATM   20  C   UNL     1      -9.788   7.815  70.673  1.00  0.00    -0.182 C  
HETATM   21  O   UNL     1      -9.176   9.253  68.447  1.00  0.00    -0.132 OA 
HETATM   22  C   UNL     1     -10.809   5.625  70.026  1.00  0.00    -0.366 C  
HETATM   23  C   UNL     1      -8.474   6.129  69.370  1.00  0.00    -0.120 C  
BRANCH  20  24
HETATM   24  C   UNL     1     -11.021   8.617  71.039  1.00  0.00    -0.314 A  
HETATM   25  C   UNL     1     -12.029   7.988  71.784  1.00  0.00    -0.342 A  
HETATM   26  C   UNL     1     -13.154   8.698  72.208  1.00  0.00    -0.415 A  
HETATM   27  C   UNL     1     -13.278  10.053  71.914  1.00  0.00    -0.557 A  
HETATM   28  C   UNL     1     -12.281  10.697  71.197  1.00  0.00    -0.479 A  
HETATM   29  C   UNL     1     -11.174   9.985  70.752  1.00  0.00    -0.428 A  
ENDBRANCH  20  24
ENDBRANCH  15  16
ENDBRANCH  10  15
ENDBRANCH   9  10
ENDBRANCH   3   9
BRANCH   5  30
HETATM   30  C   UNL     1     -11.846  14.640  68.648  1.00  0.00    -0.346 A  
HETATM   31  C   UNL     1     -11.285  16.400  70.240  1.00  0.00    -0.259 A  
HETATM   32  C   UNL     1     -12.254  13.847  69.728  1.00  0.00    -0.388 A  
HETATM   33  C   UNL     1     -11.345  15.917  68.934  1.00  0.00    -0.377 A  
HETATM   34  C   UNL     1     -11.655  15.587  71.300  1.00  0.00    -0.462 A  
HETATM   35  C   UNL     1     -12.147  14.313  71.042  1.00  0.00    -0.416 A  
ENDBRANCH   5  30
TORSDOF 8
ENDMDL
MODEL       16
REMARK 921   NORMALIZED FREE ENERGY PREDICTED BY IDOCK:   -6.32 KCAL/MOL
REMARK 922        TOTAL FREE ENERGY PREDICTED BY IDOCK:  -10.08 KCAL/MOL
REMARK 923 INTER-LIGAND FREE ENERGY PREDICTED BY IDOCK:  -10.29 KCAL/MOL
REMARK 924 INTRA-LIGAND FREE ENERGY PREDICTED BY IDOCK:    0.22 KCAL/MOL
REMARK 927      BINDING AFFINITY PREDICTED BY RF-SCORE:    0.00 PKD
ROOT
HETATM    1  C   UNL     1     -10.811   6.339  68.700  1.00  0.00    -0.333 C  
HETATM    2  N   UNL     1      -9.947   7.520  68.774  1.00  0.00    -0.167 N  
HETATM    3  C   UNL     1     -10.114   8.435  67.725  1.00  0.00    -0.207 C  
HETATM    4  C   UNL     1      -9.078   7.688  70.007  1.00  0.00    -0.151 C  
HETATM    5  C   UNL     1      -9.302   9.043  70.767  1.00  0.00    -0.305 C  
HETATM    6  C   UNL     1      -9.330   6.565  71.059  1.00  0.00    -0.164 C  
HETATM    7  C   UNL     1      -7.585   7.515  69.630  1.00  0.00    -0.094 C  
HETATM    8  O   UNL     1     -10.989   8.253  66.870  1.00  0.00    -0.107 OA 
ENDROOT
BRANCH   3   9
HETATM    9  C   UNL     1      -9.231   9.692  67.682  1.00  0.00    -0.130 C  
BRANCH   9  10
HETATM   10  N   UNL     1      -9.854  10.908  67.116  1.00  0.00    -0.181 NA 
BRANCH  10  11
HETATM   11  C   UNL     1     -10.210  10.727  65.698  1.00  0.00    -0.257 C  
BRANCH  11  12
HETATM   12  C   UNL     1      -9.727  11.865  64.770  1.00  0.00    -0.120 C  
HETATM   13  H   UNL     1     -10.522  13.391  63.805  1.00  0.00     0.000 HD 
HETATM   14  O   UNL     1     -10.819  12.692  64.375  1.00  0.00    -0.312 OA 
ENDBRANCH  11  12
ENDBRANCH  10  11
BRANCH  10  15
HETATM   15  C   UNL     1     -10.996  11.414  67.929  1.00  0.00    -0.240 C  
BRANCH  15  16
HETATM   16  C   UNL     1     -11.188  12.963  67.872  1.00  0.00    -0.269 C  
HETATM   17  C   UNL     1     -10.249  15.290  68.266  1.00  0.00    -0.226 C  
HETATM   18  C   UNL     1      -8.734  13.235  68.258  1.00  0.00    -0.168 C  
HETATM   19  N   UNL     1     -10.086  13.782  68.170  1.00  0.00    -0.238 N  
HETATM   20  C   UNL     1     -11.618  15.793  68.864  1.00  0.00    -0.400 C  
HETATM   21  O   UNL     1     -12.287  13.466  67.625  1.00  0.00    -0.228 OA 
HETATM   22  C   UNL     1      -9.134  15.949  69.112  1.00  0.00    -0.255 C  
HETATM   23  C   UNL     1     -10.138  15.891  66.848  1.00  0.00    -0.267 C  
BRANCH  20  24
HETATM   24  C   UNL     1     -12.023  15.347  70.255  1.00  0.00    -0.386 A  
HETATM   25  C   UNL     1     -11.425  15.975  71.358  1.00  0.00    -0.464 A  
HETATM   26  C   UNL     1     -11.811  15.653  72.660  1.00  0.00    -0.590 A  
HETATM   27  C   UNL     1     -12.817  14.717  72.880  1.00  0.00    -0.556 A  
HETATM   28  C   UNL     1     -13.435  14.102  71.803  1.00  0.00    -0.471 A  
HETATM   29  C   UNL     1     -13.033  14.402  70.507  1.00  0.00    -0.283 A  
ENDBRANCH  20  24
ENDBRANCH  15  16
ENDBRANCH  10  15
ENDBRANCH   9  10
ENDBRANCH   3   9
BRANCH   5  30
HETATM   30  C   UNL     1     -10.728   9.342  71.195  1.00  0.00    -0.417 A  
HETATM   31  C   UNL     1     -12.779  10.656  71.080  1.00  0.00    -0.522 A  
HETATM   32  C   UNL     1     -11.355   8.518  72.138  1.00  0.00    -0.442 A  
HETATM   33  C   UNL     1     -11.462  10.423  70.689  1.00  0.00    -0.438 A  
HETATM   34  C   UNL     1     -13.370   9.854  72.045  1.00  0.00    -0.532 A  
HETATM   35  C   UNL     1     -12.659   8.780  72.568  1.00  0.00    -0.375 A  
ENDBRANCH   5  30
TORSDOF 8
ENDMDL
MODEL       17
REMARK 921   NORMALIZED FREE ENERGY PREDICTED BY IDOCK:   -6.25 KCAL/MOL
REMARK 922        TOTAL FREE ENERGY PREDICTED BY IDOCK:   -9.98 KCAL/MOL
REMARK 923 INTER-LIGAND FREE ENERGY PREDICTED BY IDOCK:   -9.30 KCAL/MOL
REMARK 924 INTRA-LIGAND FREE ENERGY PREDICTED BY IDOCK:   -0.68 KCAL/MOL
REMARK 927      BINDING AFFINITY PREDICTED BY RF-SCORE:    0.00 PKD
ROOT
HETATM    1  C   UNL     1     -10.658   9.114  67.184  1.00  0.00    -0.216 C  
HETATM    2  N   UNL     1     -10.379  10.101  68.228  1.00  0.00    -0.176 N  
HETATM    3  C   UNL     1     -11.143  11.274  68.147  1.00  0.00    -0.259 C  
HETATM    4  C   UNL     1      -9.411   9.714  69.332  1.00  0.00    -0.193 C  
HETATM    5  C   UNL     1     -10.008   9.835  70.778  1.00  0.00    -0.151 C  
HETATM    6  C   UNL     1      -8.926   8.238  69.194  1.00  0.00    -0.147 C  
HETATM    7  C   UNL     1      -8.108  10.544  69.209  1.00  0.00    -0.152 C  
HETATM    8  O   UNL     1     -12.026  11.386  67.288  1.00  0.00    -0.580 OA 
ENDROOT
BRANCH   3   9
HETATM    9  C   UNL     1     -10.904  12.395  69.170  1.00  0.00    -0.097 C  
BRANCH   9  10
HETATM   10  N   UNL     1     -12.034  13.321  69.400  1.00  0.00    -0.313 NA 
BRANCH  10  11
HETATM   11  C   UNL     1     -12.586  13.178  70.759  1.00  0.00    -0.260 C  
BRANCH  11  12
HETATM   12  C   UNL     1     -12.461  14.446  71.633  1.00  0.00    -0.352 C  
HETATM   13  H   UNL     1     -13.006  15.030  73.438  1.00  0.00     0.000 HD 
HETATM   14  O   UNL     1     -13.082  14.250  72.900  1.00  0.00    -0.499 OA 
ENDBRANCH  11  12
ENDBRANCH  10  11
BRANCH  10  15
HETATM   15  C   UNL     1     -11.710  14.736  69.065  1.00  0.00    -0.312 C  
BRANCH  15  16
HETATM   16  C   UNL     1     -10.469  14.907  68.131  1.00  0.00    -0.242 C  
HETATM   17  C   UNL     1      -8.015  15.501  67.858  1.00  0.00    -0.136 C  
HETATM   18  C   UNL     1      -9.019  15.054  70.162  1.00  0.00     0.619 C  
HETATM   19  N   UNL     1      -9.226  15.188  68.722  1.00  0.00    -0.192 N  
HETATM   20  C   UNL     1      -8.308  16.307  66.535  1.00  0.00    -0.343 C  
HETATM   21  O   UNL     1     -10.576  14.850  66.904  1.00  0.00    -0.289 OA 
HETATM   22  C   UNL     1      -6.935  16.298  68.626  1.00  0.00    -0.148 C  
HETATM   23  C   UNL     1      -7.356  14.171  67.429  1.00  0.00    -0.143 C  
BRANCH  20  24
HETATM   24  C   UNL     1      -8.979  17.662  66.631  1.00  0.00    -0.283 A  
HETATM   25  C   UNL     1      -8.262  18.724  67.202  1.00  0.00    -0.275 A  
HETATM   26  C   UNL     1      -8.805  20.009  67.253  1.00  0.00    -0.428 A  
HETATM   27  C   UNL     1     -10.063  20.258  66.712  1.00  0.00    -0.556 A  
HETATM   28  C   UNL     1     -10.778  19.227  66.124  1.00  0.00    -0.478 A  
HETATM   29  C   UNL     1     -10.250  17.942  66.097  1.00  0.00    -0.343 A  
ENDBRANCH  20  24
ENDBRANCH  15  16
ENDBRANCH  10  15
ENDBRANCH   9  10
ENDBRANCH   3   9
BRANCH   5  30
HETATM   30  C   UNL     1     -11.293   9.068  71.036  1.00  0.00    -0.362 A  
HETATM   31  C   UNL     1     -12.549   6.993  71.286  1.00  0.00    -0.418 A  
HETATM   32  C   UNL     1     -12.476   9.770  71.302  1.00  0.00    -0.461 A  
HETATM   33  C   UNL     1     -11.360   7.669  71.017  1.00  0.00    -0.289 A  
HETATM   34  C   UNL     1     -13.719   7.704  71.507  1.00  0.00    -0.440 A  
HETATM   35  C   UNL     1     -13.680   9.093  71.523  1.00  0.00    -0.389 A  
ENDBRANCH   5  30
TORSDOF 8
ENDMDL
MODEL       18
REMARK 921   NORMALIZED FREE ENERGY PREDICTED BY IDOCK:   -6.25 KCAL/MOL
REMARK 922        TOTAL FREE ENERGY PREDICTED BY IDOCK:   -9.97 KCAL/MOL
REMARK 923 INTER-LIGAND FREE ENERGY PREDICTED BY IDOCK:   -8.94 KCAL/MOL
REMARK 924 INTRA-LIGAND FREE ENERGY PREDICTED BY IDOCK:   -1.03 KCAL/MOL
REMARK 927      BINDING AFFINITY PREDICTED BY RF-SCORE:    0.00 PKD
ROOT
HETATM    1  C   UNL     1     -12.220  14.409  68.441  1.00  0.00    -0.143 C  
HETATM    2  N   UNL     1     -10.859  13.941  68.167  1.00  0.00    -0.243 N  
HETATM    3  C   UNL     1     -10.577  12.652  68.640  1.00  0.00    -0.222 C  
HETATM    4  C   UNL     1      -9.963  14.820  67.314  1.00  0.00    -0.231 C  
HETATM    5  C   UNL     1      -9.391  14.105  66.039  1.00  0.00    -0.108 C  
HETATM    6  C   UNL     1     -10.711  16.086  66.792  1.00  0.00    -0.259 C  
HETATM    7  C   UNL     1      -8.813  15.399  68.177  1.00  0.00    -0.170 C  
HETATM    8  O   UNL     1     -11.463  11.973  69.173  1.00  0.00    -0.256 OA 
ENDROOT
BRANCH   3   9
HETATM    9  C   UNL     1      -9.166  12.075  68.442  1.00  0.00    -0.160 C  
BRANCH   9  10
HETATM   10  N   UNL     1      -9.070  10.602  68.352  1.00  0.00    -0.149 NA 
BRANCH  10  11
HETATM   11  C   UNL     1      -8.176  10.181  67.258  1.00  0.00    -0.117 C  
BRANCH  11  12
HETATM   12  C   UNL     1      -8.762   9.080  66.346  1.00  0.00    -0.132 C  
HETATM   13  H   UNL     1     -10.548   8.429  65.813  1.00  0.00     0.000 HD 
HETATM   14  O   UNL     1     -10.187   9.106  66.374  1.00  0.00    -0.281 OA 
ENDBRANCH  11  12
ENDBRANCH  10  11
BRANCH  10  15
HETATM   15  C   UNL     1      -8.721   9.957  69.649  1.00  0.00    -0.204 C  
BRANCH  15  16
HETATM   16  C   UNL     1      -9.823   9.002  70.209  1.00  0.00    -0.194 C  
HETATM   17  C   UNL     1     -10.464   7.078  71.739  1.00  0.00    -0.202 C  
HETATM   18  C   UNL     1      -8.223   8.275  71.986  1.00  0.00    -0.160 C  
HETATM   19  N   UNL     1      -9.476   8.125  71.250  1.00  0.00    -0.153 N  
HETATM   20  C   UNL     1     -11.393   6.446  70.633  1.00  0.00    -0.419 C  
HETATM   21  O   UNL     1     -10.955   8.972  69.723  1.00  0.00    -0.231 OA 
HETATM   22  C   UNL     1      -9.766   5.896  72.451  1.00  0.00    -0.175 C  
HETATM   23  C   UNL     1     -11.398   7.729  72.782  1.00  0.00    -0.446 C  
BRANCH  20  24
HETATM   24  C   UNL     1     -10.758   5.745  69.449  1.00  0.00    -0.397 A  
HETATM   25  C   UNL     1      -9.949   4.625  69.692  1.00  0.00    -0.281 A  
HETATM   26  C   UNL     1      -9.395   3.900  68.635  1.00  0.00    -0.227 A  
HETATM   27  C   UNL     1      -9.662   4.267  67.319  1.00  0.00    -0.216 A  
HETATM   28  C   UNL     1     -10.477   5.357  67.059  1.00  0.00    -0.319 A  
HETATM   29  C   UNL     1     -11.007   6.096  68.110  1.00  0.00    -0.398 A  
ENDBRANCH  20  24
ENDBRANCH  15  16
ENDBRANCH  10  15
ENDBRANCH   9  10
ENDBRANCH   3   9
BRANCH   5  30
HETATM   30  C   UNL     1     -10.415  13.488  65.103  1.00  0.00    -0.375 A  
HETATM   31  C   UNL     1     -12.380  13.630  63.666  1.00  0.00    -0.328 A  
HETATM   32  C   UNL     1     -10.321  12.129  64.774  1.00  0.00    -0.320 A  
HETATM   33  C   UNL     1     -11.471  14.219  64.545  1.00  0.00    -0.363 A  
HETATM   34  C   UNL     1     -12.296  12.275  63.383  1.00  0.00    -0.624 A  
HETATM   35  C   UNL     1     -11.261  11.527  63.932  1.00  0.00    -0.439 A  
ENDBRANCH   5  30
TORSDOF 8
ENDMDL
MODEL       19
REMARK 921   NORMALIZED FREE ENERGY PREDICTED BY IDOCK:   -6.22 KCAL/MOL
REMARK 922        TOTAL FREE ENERGY PREDICTED BY IDOCK:   -9.94 KCAL/MOL
REMARK 923 INTER-LIGAND FREE ENERGY PREDICTED BY IDOCK:   -9.10 KCAL/MOL
REMARK 924 INTRA-LIGAND FREE ENERGY PREDICTED BY IDOCK:   -0.84 KCAL/MOL
REMARK 927      BINDING AFFINITY PREDICTED BY RF-SCORE:    0.00 PKD
ROOT
HETATM    1  C   UNL     1      -8.097  14.768  67.097  1.00  0.00    -0.197 C  
HETATM    2  N   UNL     1      -9.242  13.905  66.797  1.00  0.00    -0.260 N  
HETATM    3  C   UNL     1      -9.097  12.573  67.213  1.00  0.00    -0.189 C  
HETATM    4  C   UNL     1     -10.480  14.548  66.201  1.00  0.00    -0.298 C  
HETATM    5  C   UNL     1     -11.791  14.304  67.029  1.00  0.00    -0.455 C  
HETATM    6  C   UNL     1     -10.336  16.097  66.082  1.00  0.00    -0.350 C  
HETATM    7  C   UNL     1     -10.666  14.080  64.735  1.00  0.00    -0.442 C  
HETATM    8  O   UNL     1      -8.095  12.222  67.847  1.00  0.00    -0.134 OA 
ENDROOT
BRANCH   3   9
HETATM    9  C   UNL     1     -10.222  11.570  66.914  1.00  0.00    -0.217 C  
BRANCH   9  10
HETATM   10  N   UNL     1     -10.352  10.435  67.853  1.00  0.00    -0.179 NA 
BRANCH  10  11
HETATM   11  C   UNL     1     -11.511  10.602  68.749  1.00  0.00    -0.262 C  
BRANCH  11  12
HETATM   12  C   UNL     1     -11.208  10.322  70.238  1.00  0.00    -0.323 C  
HETATM   13  H   UNL     1     -12.185  10.353  71.953  1.00  0.00     0.000 HD 
HETATM   14  O   UNL     1     -12.371  10.525  71.037  1.00  0.00    -0.328 OA 
ENDBRANCH  11  12
ENDBRANCH  10  11
BRANCH  10  15
HETATM   15  C   UNL     1     -10.344   9.109  67.175  1.00  0.00    -0.267 C  
BRANCH  15  16
HETATM   16  C   UNL     1      -9.398   8.056  67.834  1.00  0.00    -0.138 C  
HETATM   17  C   UNL     1      -8.950   5.645  68.497  1.00  0.00    -0.115 C  
HETATM   18  C   UNL     1     -10.818   6.242  66.863  1.00  0.00    -0.354 C  
HETATM   19  N   UNL     1      -9.756   6.700  67.757  1.00  0.00    -0.122 N  
HETATM   20  C   UNL     1      -8.361   6.089  69.891  1.00  0.00    -0.123 C  
HETATM   21  O   UNL     1      -8.387   8.397  68.453  1.00  0.00    -0.128 OA 
HETATM   22  C   UNL     1      -9.764   4.356  68.757  1.00  0.00    -0.200 C  
HETATM   23  C   UNL     1      -7.747   5.235  67.619  1.00  0.00    -0.092 C  
BRANCH  20  24
HETATM   24  C   UNL     1      -9.308   6.571  70.972  1.00  0.00    -0.164 A  
HETATM   25  C   UNL     1      -8.847   7.534  71.882  1.00  0.00    -0.134 A  
HETATM   26  C   UNL     1      -9.697   8.064  72.854  1.00  0.00    -0.353 A  
HETATM   27  C   UNL     1     -11.028   7.658  72.916  1.00  0.00    -0.456 A  
HETATM   28  C   UNL     1     -11.507   6.724  72.011  1.00  0.00    -0.317 A  
HETATM   29  C   UNL     1     -10.654   6.176  71.060  1.00  0.00    -0.301 A  
ENDBRANCH  20  24
ENDBRANCH  15  16
ENDBRANCH  10  15
ENDBRANCH   9  10
ENDBRANCH   3   9
BRANCH   5  30
HETATM   30  C   UNL     1     -11.745  14.717  68.489  1.00  0.00    -0.348 A  
HETATM   31  C   UNL     1     -12.191  14.320  70.853  1.00  0.00    -0.425 A  
HETATM   32  C   UNL     1     -11.161  15.939  68.845  1.00  0.00    -0.343 A  
HETATM   33  C   UNL     1     -12.272  13.926  69.519  1.00  0.00    -0.356 A  
HETATM   34  C   UNL     1     -11.645  15.551  71.184  1.00  0.00    -0.446 A  
HETATM   35  C   UNL     1     -11.124  16.357  70.179  1.00  0.00    -0.285 A  
ENDBRANCH   5  30
TORSDOF 8
ENDMDL
MODEL       20
REMARK 921   NORMALIZED FREE ENERGY PREDICTED BY IDOCK:   -6.21 KCAL/MOL
REMARK 922        TOTAL FREE ENERGY PREDICTED BY IDOCK:   -9.92 KCAL/MOL
REMARK 923 INTER-LIGAND FREE ENERGY PREDICTED BY IDOCK:   -8.68 KCAL/MOL
REMARK 924 INTRA-LIGAND FREE ENERGY PREDICTED BY IDOCK:   -1.23 KCAL/MOL
REMARK 927      BINDING AFFINITY PREDICTED BY RF-SCORE:    0.00 PKD
ROOT
HETATM    1  C   UNL     1     -10.934   6.240  66.877  1.00  0.00    -0.329 C  
HETATM    2  N   UNL     1      -9.739   6.880  67.433  1.00  0.00    -0.133 N  
HETATM    3  C   UNL     1      -9.551   8.212  67.039  1.00  0.00    -0.196 C  
HETATM    4  C   UNL     1      -8.922   6.101  68.448  1.00  0.00    -0.115 C  
HETATM    5  C   UNL     1      -8.732   6.840  69.819  1.00  0.00    -0.141 C  
HETATM    6  C   UNL     1      -9.574   4.727  68.793  1.00  0.00    -0.227 C  
HETATM    7  C   UNL     1      -7.549   5.717  67.840  1.00  0.00    -0.085 C  
HETATM    8  O   UNL     1     -10.395   8.782  66.337  1.00  0.00    -0.271 OA 
ENDROOT
BRANCH   3   9
HETATM    9  C   UNL     1      -8.307   8.969  67.531  1.00  0.00    -0.116 C  
BRANCH   9  10
HETATM   10  N   UNL     1      -8.529  10.355  67.998  1.00  0.00    -0.118 NA 
BRANCH  10  11
HETATM   11  C   UNL     1      -7.812  10.625  69.257  1.00  0.00    -0.138 C  
BRANCH  11  12
HETATM   12  C   UNL     1      -6.506   9.817  69.431  1.00  0.00    -0.048 C  
HETATM   13  H   UNL     1      -4.576  10.087  69.121  1.00  0.00     0.000 HD 
HETATM   14  O   UNL     1      -5.379  10.583  69.015  1.00  0.00    -0.042 OA 
ENDBRANCH  11  12
ENDBRANCH  10  11
BRANCH  10  15
HETATM   15  C   UNL     1      -8.245  11.378  66.952  1.00  0.00    -0.157 C  
BRANCH  15  16
HETATM   16  C   UNL     1      -9.396  12.412  66.736  1.00  0.00    -0.220 C  
HETATM   17  C   UNL     1     -10.294  14.767  67.052  1.00  0.00    -0.255 C  
HETATM   18  C   UNL     1      -7.826  14.231  67.425  1.00  0.00    -0.187 C  
HETATM   19  N   UNL     1      -9.168  13.747  67.108  1.00  0.00    -0.234 N  
HETATM   20  C   UNL     1     -11.728  14.222  67.414  1.00  0.00    -0.422 C  
HETATM   21  O   UNL     1     -10.497  12.067  66.301  1.00  0.00    -0.228 OA 
HETATM   22  C   UNL     1     -10.039  15.978  67.980  1.00  0.00    -0.240 C  
HETATM   23  C   UNL     1     -10.382  15.326  65.615  1.00  0.00    -0.389 C  
BRANCH  20  24
HETATM   24  C   UNL     1     -11.954  13.585  68.770  1.00  0.00    -0.374 A  
HETATM   25  C   UNL     1     -12.342  14.409  69.838  1.00  0.00    -0.365 A  
HETATM   26  C   UNL     1     -12.631  13.866  71.092  1.00  0.00    -0.446 A  
HETATM   27  C   UNL     1     -12.560  12.490  71.291  1.00  0.00    -0.332 A  
HETATM   28  C   UNL     1     -12.200  11.658  70.243  1.00  0.00    -0.401 A  
HETATM   29  C   UNL     1     -11.886  12.200  69.002  1.00  0.00    -0.361 A  
ENDBRANCH  20  24
ENDBRANCH  15  16
ENDBRANCH  10  15
ENDBRANCH   9  10
ENDBRANCH   3   9
BRANCH   5  30
HETATM   30  C   UNL     1     -10.003   7.277  70.525  1.00  0.00    -0.191 A  
HETATM   31  C   UNL     1     -12.319   6.926  71.201  1.00  0.00    -0.419 A  
HETATM   32  C   UNL     1     -10.029   8.497  71.213  1.00  0.00    -0.284 A  
HETATM   33  C   UNL     1     -11.176   6.511  70.520  1.00  0.00    -0.401 A  
HETATM   34  C   UNL     1     -12.340   8.154  71.843  1.00  0.00    -0.371 A  
HETATM   35  C   UNL     1     -11.191   8.936  71.855  1.00  0.00    -0.447 A  
ENDBRANCH   5  30
TORSDOF 8
ENDMDL
MODEL       21
REMARK 921   NORMALIZED FREE ENERGY PREDICTED BY IDOCK:   -6.20 KCAL/MOL
REMARK 922        TOTAL FREE ENERGY PREDICTED BY IDOCK:   -9.91 KCAL/MOL
REMARK 923 INTER-LIGAND FREE ENERGY PREDICTED BY IDOCK:  -10.00 KCAL/MOL
REMARK 924 INTRA-LIGAND FREE ENERGY PREDICTED BY IDOCK:    0.09 KCAL/MOL
REMARK 927      BINDING AFFINITY PREDICTED BY RF-SCORE:    0.00 PKD
ROOT
HETATM    1  C   UNL     1      -7.298   9.059  68.124  1.00  0.00    -0.083 C  
HETATM    2  N   UNL     1      -8.605   9.294  67.507  1.00  0.00    -0.116 N  
HETATM    3  C   UNL     1      -8.557   9.911  66.248  1.00  0.00    -0.128 C  
HETATM    4  C   UNL     1      -9.833   8.747  68.212  1.00  0.00    -0.165 C  
HETATM    5  C   UNL     1     -10.706   7.788  67.327  1.00  0.00    -0.326 C  
HETATM    6  C   UNL     1      -9.460   7.927  69.485  1.00  0.00    -0.160 C  
HETATM    7  C   UNL     1     -10.692   9.914  68.761  1.00  0.00    -0.247 C  
HETATM    8  O   UNL     1      -7.469  10.149  65.710  1.00  0.00    -0.118 OA 
ENDROOT
BRANCH   3   9
HETATM    9  C   UNL     1      -9.873  10.240  65.526  1.00  0.00    -0.282 C  
BRANCH   9  10
HETATM   10  N   UNL     1     -10.280  11.661  65.526  1.00  0.00    -0.249 NA 
BRANCH  10  11
HETATM   11  C   UNL     1     -10.509  12.161  64.158  1.00  0.00    -0.362 C  
BRANCH  11  12
HETATM   12  C   UNL     1     -11.965  12.011  63.662  1.00  0.00    -0.515 C  
HETATM   13  H   UNL     1     -13.415  13.189  63.026  1.00  0.00     0.000 HD 
HETATM   14  O   UNL     1     -12.520  13.281  63.331  1.00  0.00    -0.741 OA 
ENDBRANCH  11  12
ENDBRANCH  10  11
BRANCH  10  15
HETATM   15  C   UNL     1     -11.429  11.942  66.433  1.00  0.00    -0.304 C  
BRANCH  15  16
HETATM   16  C   UNL     1     -11.480  13.407  66.971  1.00  0.00    -0.337 C  
HETATM   17  C   UNL     1     -10.372  15.292  68.263  1.00  0.00    -0.234 C  
HETATM   18  C   UNL     1      -9.046  13.242  67.516  1.00  0.00    -0.208 C  
HETATM   19  N   UNL     1     -10.335  13.925  67.598  1.00  0.00    -0.240 N  
HETATM   20  C   UNL     1     -11.732  15.677  68.961  1.00  0.00    -0.408 C  
HETATM   21  O   UNL     1     -12.509  14.083  66.898  1.00  0.00    -0.364 OA 
HETATM   22  C   UNL     1      -9.268  15.455  69.335  1.00  0.00    -0.268 C  
HETATM   23  C   UNL     1     -10.104  16.371  67.190  1.00  0.00    -0.271 C  
BRANCH  20  24
HETATM   24  C   UNL     1     -12.276  14.784  70.058  1.00  0.00    -0.383 A  
HETATM   25  C   UNL     1     -13.126  15.350  71.019  1.00  0.00    -0.565 A  
HETATM   26  C   UNL     1     -13.711  14.559  72.011  1.00  0.00    -0.528 A  
HETATM   27  C   UNL     1     -13.474  13.188  72.042  1.00  0.00    -0.598 A  
HETATM   28  C   UNL     1     -12.655  12.607  71.088  1.00  0.00    -0.354 A  
HETATM   29  C   UNL     1     -12.051  13.397  70.117  1.00  0.00    -0.415 A  
ENDBRANCH  20  24
ENDBRANCH  15  16
ENDBRANCH  10  15
ENDBRANCH   9  10
ENDBRANCH   3   9
BRANCH   5  30
HETATM   30  C   UNL     1      -9.985   6.598  66.720  1.00  0.00    -0.238 A  
HETATM   31  C   UNL     1      -9.568   4.203  66.528  1.00  0.00    -0.220 A  
HETATM   32  C   UNL     1      -9.030   6.805  65.717  1.00  0.00    -0.043 A  
HETATM   33  C   UNL     1     -10.226   5.278  67.124  1.00  0.00    -0.264 A  
HETATM   34  C   UNL     1      -8.597   4.429  65.564  1.00  0.00    -0.121 A  
HETATM   35  C   UNL     1      -8.334   5.730  65.154  1.00  0.00    -0.146 A  
ENDBRANCH   5  30
TORSDOF 8
ENDMDL
MODEL       22
REMARK 921   NORMALIZED FREE ENERGY PREDICTED BY IDOCK:   -6.19 KCAL/MOL
REMARK 922        TOTAL FREE ENERGY PREDICTED BY IDOCK:   -9.88 KCAL/MOL
REMARK 923 INTER-LIGAND FREE ENERGY PREDICTED BY IDOCK:   -9.80 KCAL/MOL
REMARK 924 INTRA-LIGAND FREE ENERGY PREDICTED BY IDOCK:   -0.08 KCAL/MOL
REMARK 927      BINDING AFFINITY PREDICTED BY RF-SCORE:    0.00 PKD
ROOT
HETATM    1  C   UNL     1      -8.534   8.623  72.166  1.00  0.00    -0.101 C  
HETATM    2  N   UNL     1      -9.443   8.732  71.023  1.00  0.00    -0.205 N  
HETATM    3  C   UNL     1      -8.813   8.969  69.793  1.00  0.00    -0.153 C  
HETATM    4  C   UNL     1     -10.918   8.460  71.260  1.00  0.00    -0.252 C  
HETATM    5  C   UNL     1     -11.514   7.332  70.347  1.00  0.00    -0.279 C  
HETATM    6  C   UNL     1     -11.202   8.014  72.727  1.00  0.00    -0.448 C  
HETATM    7  C   UNL     1     -11.729   9.771  71.107  1.00  0.00    -0.465 C  
HETATM    8  O   UNL     1      -7.579   8.999  69.718  1.00  0.00    -0.067 OA 
ENDROOT
BRANCH   3   9
HETATM    9  C   UNL     1      -9.675   9.140  68.532  1.00  0.00    -0.155 C  
BRANCH   9  10
HETATM   10  N   UNL     1      -9.689  10.491  67.930  1.00  0.00    -0.152 NA 
BRANCH  10  11
HETATM   11  C   UNL     1     -10.780  10.637  66.949  1.00  0.00    -0.237 C  
BRANCH  11  12
HETATM   12  C   UNL     1     -10.307  10.967  65.516  1.00  0.00    -0.260 C  
HETATM   13  H   UNL     1      -9.478  10.013  64.001  1.00  0.00     0.000 HD 
HETATM   14  O   UNL     1      -9.769   9.810  64.882  1.00  0.00    -0.296 OA 
ENDBRANCH  11  12
ENDBRANCH  10  11
BRANCH  10  15
HETATM   15  C   UNL     1      -9.684  11.584  68.942  1.00  0.00    -0.054 C  
BRANCH  15  16
HETATM   16  C   UNL     1     -10.561  12.818  68.558  1.00  0.00    -0.252 C  
HETATM   17  C   UNL     1     -10.782  15.336  68.297  1.00  0.00    -0.254 C  
HETATM   18  C   UNL     1      -8.498  14.229  68.573  1.00  0.00    -0.164 C  
HETATM   19  N   UNL     1      -9.951  14.083  68.527  1.00  0.00    -0.231 N  
HETATM   20  C   UNL     1     -12.227  15.322  68.926  1.00  0.00    -0.132 C  
HETATM   21  O   UNL     1     -11.769  12.706  68.338  1.00  0.00    -0.298 OA 
HETATM   22  C   UNL     1     -10.085  16.610  68.829  1.00  0.00    -0.270 C  
HETATM   23  C   UNL     1     -10.963  15.537  66.777  1.00  0.00    -0.257 C  
BRANCH  20  24
HETATM   24  C   UNL     1     -12.379  15.118  70.420  1.00  0.00    -0.411 A  
HETATM   25  C   UNL     1     -11.830  16.078  71.284  1.00  0.00    -0.502 A  
HETATM   26  C   UNL     1     -11.999  15.977  72.666  1.00  0.00    -0.646 A  
HETATM   27  C   UNL     1     -12.741  14.929  73.205  1.00  0.00    -0.624 A  
HETATM   28  C   UNL     1     -13.310  13.984  72.367  1.00  0.00    -0.617 A  
HETATM   29  C   UNL     1     -13.119  14.068  70.992  1.00  0.00    -0.342 A  
ENDBRANCH  20  24
ENDBRANCH  15  16
ENDBRANCH  10  15
ENDBRANCH   9  10
ENDBRANCH   3   9
BRANCH   5  30
HETATM   30  C   UNL     1     -10.809   5.988  70.398  1.00  0.00    -0.386 A  
HETATM   31  C   UNL     1      -9.947   4.054  71.606  1.00  0.00    -0.232 A  
HETATM   32  C   UNL     1     -10.363   5.395  69.210  1.00  0.00    -0.322 A  
HETATM   33  C   UNL     1     -10.573   5.299  71.595  1.00  0.00    -0.261 A  
HETATM   34  C   UNL     1      -9.476   3.500  70.426  1.00  0.00    -0.254 A  
HETATM   35  C   UNL     1      -9.691   4.169  69.226  1.00  0.00    -0.219 A  
ENDBRANCH   5  30
TORSDOF 8
ENDMDL
MODEL       23
REMARK 921   NORMALIZED FREE ENERGY PREDICTED BY IDOCK:   -6.18 KCAL/MOL
REMARK 922        TOTAL FREE ENERGY PREDICTED BY IDOCK:   -9.87 KCAL/MOL
REMARK 923 INTER-LIGAND FREE ENERGY PREDICTED BY IDOCK:   -9.02 KCAL/MOL
REMARK 924 INTRA-LIGAND FREE ENERGY PREDICTED BY IDOCK:   -0.84 KCAL/MOL
REMARK 927      BINDING AFFINITY PREDICTED BY RF-SCORE:    0.00 PKD
ROOT
HETATM    1  C   UNL     1      -8.288  14.528  67.206  1.00  0.00    -0.212 C  
HETATM    2  N   UNL     1      -9.253  13.486  66.848  1.00  0.00    -0.245 N  
HETATM    3  C   UNL     1      -8.916  12.198  67.287  1.00  0.00    -0.184 C  
HETATM    4  C   UNL     1     -10.542  13.915  66.170  1.00  0.00    -0.291 C  
HETATM    5  C   UNL     1     -11.842  13.457  66.920  1.00  0.00    -0.453 C  
HETATM    6  C   UNL     1     -10.649  15.465  66.042  1.00  0.00    -0.330 C  
HETATM    7  C   UNL     1     -10.557  13.420  64.701  1.00  0.00    -0.431 C  
HETATM    8  O   UNL     1      -7.910  12.019  67.985  1.00  0.00    -0.126 OA 
ENDROOT
BRANCH   3   9
HETATM    9  C   UNL     1      -9.839  11.022  66.932  1.00  0.00    -0.191 C  
BRANCH   9  10
HETATM   10  N   UNL     1      -9.178   9.813  66.393  1.00  0.00    -0.154 NA 
BRANCH  10  11
HETATM   11  C   UNL     1      -8.037  10.159  65.527  1.00  0.00    -0.147 C  
BRANCH  11  12
HETATM   12  C   UNL     1      -8.179   9.678  64.065  1.00  0.00    -0.159 C  
HETATM   13  H   UNL     1      -9.468   9.883  62.585  1.00  0.00     0.000 HD 
HETATM   14  O   UNL     1      -9.380  10.179  63.483  1.00  0.00    -0.268 OA 
ENDBRANCH  11  12
ENDBRANCH  10  11
BRANCH  10  15
HETATM   15  C   UNL     1      -8.814   8.825  67.446  1.00  0.00    -0.133 C  
BRANCH  15  16
HETATM   16  C   UNL     1      -9.974   8.483  68.434  1.00  0.00    -0.187 C  
HETATM   17  C   UNL     1     -10.835   8.353  70.821  1.00  0.00    -0.224 C  
HETATM   18  C   UNL     1      -8.708   9.645  70.250  1.00  0.00    -0.208 C  
HETATM   19  N   UNL     1      -9.801   8.789  69.795  1.00  0.00    -0.183 N  
HETATM   20  C   UNL     1     -11.529   6.965  70.546  1.00  0.00    -0.390 C  
HETATM   21  O   UNL     1     -10.998   7.912  68.052  1.00  0.00    -0.021 OA 
HETATM   22  C   UNL     1     -10.248   8.273  72.250  1.00  0.00    -0.375 C  
HETATM   23  C   UNL     1     -11.960   9.410  70.868  1.00  0.00    -0.351 C  
BRANCH  20  24
HETATM   24  C   UNL     1     -10.670   5.723  70.424  1.00  0.00    -0.372 A  
HETATM   25  C   UNL     1     -10.329   5.029  71.595  1.00  0.00    -0.262 A  
HETATM   26  C   UNL     1      -9.599   3.841  71.536  1.00  0.00    -0.232 A  
HETATM   27  C   UNL     1      -9.219   3.314  70.304  1.00  0.00    -0.227 A  
HETATM   28  C   UNL     1      -9.566   3.972  69.136  1.00  0.00    -0.233 A  
HETATM   29  C   UNL     1     -10.270   5.170  69.195  1.00  0.00    -0.259 A  
ENDBRANCH  20  24
ENDBRANCH  15  16
ENDBRANCH  10  15
ENDBRANCH   9  10
ENDBRANCH   3   9
BRANCH   5  30
HETATM   30  C   UNL     1     -11.956  13.874  68.375  1.00  0.00    -0.391 A  
HETATM   31  C   UNL     1     -12.045  15.566  70.129  1.00  0.00    -0.404 A  
HETATM   32  C   UNL     1     -12.109  12.896  69.366  1.00  0.00    -0.254 A  
HETATM   33  C   UNL     1     -11.910  15.212  68.788  1.00  0.00    -0.329 A  
HETATM   34  C   UNL     1     -12.155  14.582  71.101  1.00  0.00    -0.408 A  
HETATM   35  C   UNL     1     -12.194  13.247  70.717  1.00  0.00    -0.390 A  
ENDBRANCH   5  30
TORSDOF 8
ENDMDL
MODEL       24
REMARK 921   NORMALIZED FREE ENERGY PREDICTED BY IDOCK:   -6.16 KCAL/MOL
REMARK 922        TOTAL FREE ENERGY PREDICTED BY IDOCK:   -9.84 KCAL/MOL
REMARK 923 INTER-LIGAND FREE ENERGY PREDICTED BY IDOCK:   -9.03 KCAL/MOL
REMARK 924 INTRA-LIGAND FREE ENERGY PREDICTED BY IDOCK:   -0.81 KCAL/MOL
REMARK 927      BINDING AFFINITY PREDICTED BY RF-SCORE:    0.00 PKD
ROOT
HETATM    1  C   UNL     1      -8.763   8.449  72.776  1.00  0.00    -0.186 C  
HETATM    2  N   UNL     1      -9.329   8.769  71.463  1.00  0.00    -0.246 N  
HETATM    3  C   UNL     1      -8.382   9.063  70.472  1.00  0.00    -0.183 C  
HETATM    4  C   UNL     1     -10.830   8.629  71.284  1.00  0.00    -0.260 C  
HETATM    5  C   UNL     1     -11.247   7.668  70.115  1.00  0.00    -0.193 C  
HETATM    6  C   UNL     1     -11.522   8.067  72.563  1.00  0.00    -0.471 C  
HETATM    7  C   UNL     1     -11.473  10.026  71.097  1.00  0.00    -0.432 C  
HETATM    8  O   UNL     1      -7.173   8.972  70.716  1.00  0.00    -0.074 OA 
ENDROOT
BRANCH   3   9
HETATM    9  C   UNL     1      -8.867   9.451  69.066  1.00  0.00    -0.141 C  
BRANCH   9  10
HETATM   10  N   UNL     1      -7.994  10.371  68.305  1.00  0.00    -0.108 NA 
BRANCH  10  11
HETATM   11  C   UNL     1      -8.092  10.137  66.853  1.00  0.00    -0.121 C  
BRANCH  11  12
HETATM   12  C   UNL     1      -9.138   9.072  66.451  1.00  0.00    -0.170 C  
HETATM   13  H   UNL     1     -10.734   8.965  65.295  1.00  0.00     0.000 HD 
HETATM   14  O   UNL     1     -10.091   9.619  65.543  1.00  0.00    -0.290 OA 
ENDBRANCH  11  12
ENDBRANCH  10  11
BRANCH  10  15
HETATM   15  C   UNL     1      -8.198  11.803  68.665  1.00  0.00    -0.091 C  
BRANCH  15  16
HETATM   16  C   UNL     1      -9.427  12.471  67.972  1.00  0.00    -0.209 C  
HETATM   17  C   UNL     1     -10.459  14.509  66.860  1.00  0.00    -0.269 C  
HETATM   18  C   UNL     1      -7.941  14.345  67.246  1.00  0.00    -0.180 C  
HETATM   19  N   UNL     1      -9.265  13.754  67.423  1.00  0.00    -0.212 N  
HETATM   20  C   UNL     1     -11.825  14.288  67.616  1.00  0.00    -0.420 C  
HETATM   21  O   UNL     1     -10.530  11.919  67.946  1.00  0.00    -0.195 OA 
HETATM   22  C   UNL     1     -10.224  16.037  66.821  1.00  0.00    -0.275 C  
HETATM   23  C   UNL     1     -10.683  14.062  65.399  1.00  0.00    -0.344 C  
BRANCH  20  24
HETATM   24  C   UNL     1     -11.914  14.621  69.091  1.00  0.00    -0.329 A  
HETATM   25  C   UNL     1     -12.410  13.644  69.967  1.00  0.00    -0.342 A  
HETATM   26  C   UNL     1     -12.450  13.871  71.344  1.00  0.00    -0.424 A  
HETATM   27  C   UNL     1     -11.971  15.068  71.869  1.00  0.00    -0.454 A  
HETATM   28  C   UNL     1     -11.456  16.036  71.022  1.00  0.00    -0.460 A  
HETATM   29  C   UNL     1     -11.442  15.822  69.649  1.00  0.00    -0.348 A  
ENDBRANCH  20  24
ENDBRANCH  15  16
ENDBRANCH  10  15
ENDBRANCH   9  10
ENDBRANCH   3   9
BRANCH   5  30
HETATM   30  C   UNL     1     -10.682   6.260  70.173  1.00  0.00    -0.346 A  
HETATM   31  C   UNL     1     -10.118   4.214  71.374  1.00  0.00    -0.168 A  
HETATM   32  C   UNL     1     -10.192   5.662  69.004  1.00  0.00    -0.291 A  
HETATM   33  C   UNL     1     -10.618   5.515  71.358  1.00  0.00    -0.310 A  
HETATM   34  C   UNL     1      -9.601   3.653  70.216  1.00  0.00    -0.246 A  
HETATM   35  C   UNL     1      -9.645   4.375  69.030  1.00  0.00    -0.244 A  
ENDBRANCH   5  30
TORSDOF 8
ENDMDL
MODEL       25
REMARK 921   NORMALIZED FREE ENERGY PREDICTED BY IDOCK:   -6.15 KCAL/MOL
REMARK 922        TOTAL FREE ENERGY PREDICTED BY IDOCK:   -9.83 KCAL/MOL
REMARK 923 INTER-LIGAND FREE ENERGY PREDICTED BY IDOCK:   -9.37 KCAL/MOL
REMARK 924 INTRA-LIGAND FREE ENERGY PREDICTED BY IDOCK:   -0.46 KCAL/MOL
REMARK 927      BINDING AFFINITY PREDICTED BY RF-SCORE:    0.00 PKD
ROOT
HETATM    1  C   UNL     1      -8.609   7.027  68.630  1.00  0.00    -0.120 C  
HETATM    2  N   UNL     1      -8.868   8.254  69.386  1.00  0.00    -0.145 N  
HETATM    3  C   UNL     1      -9.949   9.015  68.917  1.00  0.00    -0.189 C  
HETATM    4  C   UNL     1      -8.047   8.504  70.638  1.00  0.00    -0.117 C  
HETATM    5  C   UNL     1      -8.905   8.716  71.935  1.00  0.00    -0.275 C  
HETATM    6  C   UNL     1      -7.086   7.317  70.954  1.00  0.00    -0.068 C  
HETATM    7  C   UNL     1      -7.093   9.704  70.414  1.00  0.00    -0.138 C  
HETATM    8  O   UNL     1     -10.645   8.602  67.982  1.00  0.00    -0.212 OA 
ENDROOT
BRANCH   3   9
HETATM    9  C   UNL     1     -10.286  10.344  69.613  1.00  0.00    -0.209 C  
BRANCH   9  10
HETATM   10  N   UNL     1     -11.530  11.013  69.175  1.00  0.00    -0.273 NA 
BRANCH  10  11
HETATM   11  C   UNL     1     -12.043  11.933  70.205  1.00  0.00    -0.325 C  
BRANCH  11  12
HETATM   12  C   UNL     1     -12.824  11.240  71.344  1.00  0.00    -0.410 C  
HETATM   13  H   UNL     1     -13.985   9.659  71.560  1.00  0.00     0.000 HD 
HETATM   14  O   UNL     1     -13.505  10.085  70.860  1.00  0.00    -0.352 OA 
ENDBRANCH  11  12
ENDBRANCH  10  11
BRANCH  10  15
HETATM   15  C   UNL     1     -11.406  11.665  67.841  1.00  0.00    -0.299 C  
BRANCH  15  16
HETATM   16  C   UNL     1     -11.461  13.225  67.881  1.00  0.00    -0.306 C  
HETATM   17  C   UNL     1     -10.343  15.429  68.468  1.00  0.00    -0.226 C  
HETATM   18  C   UNL     1      -9.012  13.252  68.381  1.00  0.00    -0.124 C  
HETATM   19  N   UNL     1     -10.307  13.921  68.277  1.00  0.00    -0.242 N  
HETATM   20  C   UNL     1     -11.689  16.013  69.045  1.00  0.00    -0.322 C  
HETATM   21  O   UNL     1     -12.499  13.839  67.625  1.00  0.00    -0.148 OA 
HETATM   22  C   UNL     1      -9.214  15.931  69.399  1.00  0.00    -0.235 C  
HETATM   23  C   UNL     1     -10.116  16.107  67.099  1.00  0.00    -0.269 C  
BRANCH  20  24
HETATM   24  C   UNL     1     -12.193  15.518  70.385  1.00  0.00    -0.443 A  
HETATM   25  C   UNL     1     -11.299  15.491  71.466  1.00  0.00    -0.466 A  
HETATM   26  C   UNL     1     -11.728  15.110  72.739  1.00  0.00    -0.442 A  
HETATM   27  C   UNL     1     -13.061  14.773  72.957  1.00  0.00    -0.614 A  
HETATM   28  C   UNL     1     -13.963  14.815  71.906  1.00  0.00    -0.577 A  
HETATM   29  C   UNL     1     -13.532  15.168  70.633  1.00  0.00    -0.243 A  
ENDBRANCH  20  24
ENDBRANCH  15  16
ENDBRANCH  10  15
ENDBRANCH   9  10
ENDBRANCH   3   9
BRANCH   5  30
HETATM   30  C   UNL     1      -9.890   7.610  72.273  1.00  0.00    -0.229 A  
HETATM   31  C   UNL     1     -10.548   5.622  73.521  1.00  0.00    -0.300 A  
HETATM   32  C   UNL     1     -11.131   7.567  71.626  1.00  0.00    -0.270 A  
HETATM   33  C   UNL     1      -9.613   6.609  73.212  1.00  0.00    -0.175 A  
HETATM   34  C   UNL     1     -11.756   5.571  72.843  1.00  0.00    -0.216 A  
HETATM   35  C   UNL     1     -12.050   6.549  71.900  1.00  0.00    -0.388 A  
ENDBRANCH   5  30
TORSDOF 8
ENDMDL
MODEL       26
REMARK 921   NORMALIZED FREE ENERGY PREDICTED BY IDOCK:   -6.14 KCAL/MOL
REMARK 922        TOTAL FREE ENERGY PREDICTED BY IDOCK:   -9.81 KCAL/MOL
REMARK 923 INTER-LIGAND FREE ENERGY PREDICTED BY IDOCK:   -9.66 KCAL/MOL
REMARK 924 INTRA-LIGAND FREE ENERGY PREDICTED BY IDOCK:   -0.15 KCAL/MOL
REMARK 927      BINDING AFFINITY PREDICTED BY RF-SCORE:    0.00 PKD
ROOT
HETATM    1  C   UNL     1     -11.145  19.601  66.790  1.00  0.00    -0.093 C  
HETATM    2  N   UNL     1     -10.336  18.396  66.987  1.00  0.00    -0.376 N  
HETATM    3  C   UNL     1     -10.219  17.576  65.856  1.00  0.00    -0.242 C  
HETATM    4  C   UNL     1      -9.624  18.228  68.317  1.00  0.00    -0.318 C  
HETATM    5  C   UNL     1      -8.071  18.037  68.191  1.00  0.00    -0.276 C  
HETATM    6  C   UNL     1      -9.825  19.463  69.248  1.00  0.00    -0.330 C  
HETATM    7  C   UNL     1     -10.255  17.057  69.112  1.00  0.00    -0.288 C  
HETATM    8  O   UNL     1     -10.715  17.924  64.777  1.00  0.00    -0.400 OA 
ENDROOT
BRANCH   3   9
HETATM    9  C   UNL     1      -9.424  16.265  65.961  1.00  0.00    -0.334 C  
BRANCH   9  10
HETATM   10  N   UNL     1     -10.209  15.048  66.261  1.00  0.00    -0.281 NA 
BRANCH  10  11
HETATM   11  C   UNL     1     -10.455  14.247  65.049  1.00  0.00    -0.435 C  
BRANCH  11  12
HETATM   12  C   UNL     1     -11.759  14.608  64.303  1.00  0.00    -0.275 C  
HETATM   13  H   UNL     1     -13.702  14.436  64.602  1.00  0.00     0.000 HD 
HETATM   14  O   UNL     1     -12.900  14.214  65.060  1.00  0.00    -0.687 OA 
ENDBRANCH  11  12
ENDBRANCH  10  11
BRANCH  10  15
HETATM   15  C   UNL     1      -9.631  14.237  67.370  1.00  0.00    -0.214 C  
BRANCH  15  16
HETATM   16  C   UNL     1     -10.046  12.732  67.349  1.00  0.00    -0.219 C  
HETATM   17  C   UNL     1      -9.410  10.293  67.668  1.00  0.00    -0.144 C  
HETATM   18  C   UNL     1      -7.906  12.174  68.514  1.00  0.00    -0.122 C  
HETATM   19  N   UNL     1      -9.115  11.779  67.795  1.00  0.00    -0.171 N  
HETATM   20  C   UNL     1     -10.223   9.865  66.387  1.00  0.00    -0.292 C  
HETATM   21  O   UNL     1     -11.140  12.372  66.908  1.00  0.00    -0.260 OA 
HETATM   22  C   UNL     1      -8.124   9.434  67.677  1.00  0.00    -0.106 C  
HETATM   23  C   UNL     1     -10.243   9.849  68.890  1.00  0.00    -0.209 C  
BRANCH  20  24
HETATM   24  C   UNL     1      -9.663  10.188  65.016  1.00  0.00    -0.384 A  
HETATM   25  C   UNL     1     -10.485  10.865  64.102  1.00  0.00    -0.397 A  
HETATM   26  C   UNL     1      -9.998  11.249  62.851  1.00  0.00    -0.282 A  
HETATM   27  C   UNL     1      -8.676  10.985  62.504  1.00  0.00    -0.332 A  
HETATM   28  C   UNL     1      -7.843  10.338  63.402  1.00  0.00    -0.136 A  
HETATM   29  C   UNL     1      -8.334   9.931  64.637  1.00  0.00    -0.166 A  
ENDBRANCH  20  24
ENDBRANCH  15  16
ENDBRANCH  10  15
ENDBRANCH   9  10
ENDBRANCH   3   9
BRANCH   5  30
HETATM   30  C   UNL     1      -7.324  19.117  67.430  1.00  0.00    -0.248 A  
HETATM   31  C   UNL     1      -6.424  20.071  65.374  1.00  0.00    -0.298 A  
HETATM   32  C   UNL     1      -6.833  20.235  68.116  1.00  0.00    -0.324 A  
HETATM   33  C   UNL     1      -7.090  19.049  66.050  1.00  0.00    -0.292 A  
HETATM   34  C   UNL     1      -5.910  21.150  66.075  1.00  0.00    -0.297 A  
HETATM   35  C   UNL     1      -6.122  21.235  67.446  1.00  0.00    -0.434 A  
ENDBRANCH   5  30
TORSDOF 8
ENDMDL
MODEL       27
REMARK 921   NORMALIZED FREE ENERGY PREDICTED BY IDOCK:   -6.14 KCAL/MOL
REMARK 922        TOTAL FREE ENERGY PREDICTED BY IDOCK:   -9.81 KCAL/MOL
REMARK 923 INTER-LIGAND FREE ENERGY PREDICTED BY IDOCK:   -8.74 KCAL/MOL
REMARK 924 INTRA-LIGAND FREE ENERGY PREDICTED BY IDOCK:   -1.06 KCAL/MOL
REMARK 927      BINDING AFFINITY PREDICTED BY RF-SCORE:    0.00 PKD
ROOT
HETATM    1  C   UNL     1     -12.264  14.132  66.442  1.00  0.00    -0.446 C  
HETATM    2  N   UNL     1     -11.189  13.605  67.286  1.00  0.00    -0.300 N  
HETATM    3  C   UNL     1     -10.289  12.756  66.627  1.00  0.00    -0.242 C  
HETATM    4  C   UNL     1     -11.089  14.117  68.712  1.00  0.00    -0.262 C  
HETATM    5  C   UNL     1      -9.697  14.749  69.068  1.00  0.00    -0.190 C  
HETATM    6  C   UNL     1     -12.147  15.222  69.013  1.00  0.00    -0.244 C  
HETATM    7  C   UNL     1     -11.443  12.983  69.707  1.00  0.00    -0.213 C  
HETATM    8  O   UNL     1     -10.392  12.559  65.410  1.00  0.00    -0.272 OA 
ENDROOT
BRANCH   3   9
HETATM    9  C   UNL     1      -9.144  12.114  67.426  1.00  0.00    -0.181 C  
BRANCH   9  10
HETATM   10  N   UNL     1      -9.282  10.671  67.720  1.00  0.00    -0.145 NA 
BRANCH  10  11
HETATM   11  C   UNL     1      -8.530   9.846  66.758  1.00  0.00    -0.125 C  
BRANCH  11  12
HETATM   12  C   UNL     1      -9.416   9.075  65.753  1.00  0.00    -0.236 C  
HETATM   13  H   UNL     1      -9.890   9.193  63.842  1.00  0.00     0.000 HD 
HETATM   14  O   UNL     1      -9.345   9.667  64.459  1.00  0.00    -0.261 OA 
ENDBRANCH  11  12
ENDBRANCH  10  11
BRANCH  10  15
HETATM   15  C   UNL     1      -8.961  10.329  69.135  1.00  0.00    -0.180 C  
BRANCH  15  16
HETATM   16  C   UNL     1      -9.955   9.320  69.793  1.00  0.00    -0.199 C  
HETATM   17  C   UNL     1     -10.355   7.384  71.388  1.00  0.00    -0.194 C  
HETATM   18  C   UNL     1      -8.174   8.709  71.436  1.00  0.00    -0.160 C  
HETATM   19  N   UNL     1      -9.473   8.478  70.809  1.00  0.00    -0.168 N  
HETATM   20  C   UNL     1     -11.335   6.685  70.369  1.00  0.00    -0.421 C  
HETATM   21  O   UNL     1     -11.121   9.219  69.404  1.00  0.00    -0.170 OA 
HETATM   22  C   UNL     1      -9.533   6.253  72.049  1.00  0.00    -0.158 C  
HETATM   23  C   UNL     1     -11.234   7.995  72.500  1.00  0.00    -0.452 C  
BRANCH  20  24
HETATM   24  C   UNL     1     -10.761   6.005  69.143  1.00  0.00    -0.399 A  
HETATM   25  C   UNL     1     -10.015   4.830  69.318  1.00  0.00    -0.254 A  
HETATM   26  C   UNL     1      -9.522   4.125  68.219  1.00  0.00    -0.213 A  
HETATM   27  C   UNL     1      -9.788   4.569  66.926  1.00  0.00    -0.238 A  
HETATM   28  C   UNL     1     -10.543   5.715  66.732  1.00  0.00    -0.372 A  
HETATM   29  C   UNL     1     -11.011   6.433  67.827  1.00  0.00    -0.425 A  
ENDBRANCH  20  24
ENDBRANCH  15  16
ENDBRANCH  10  15
ENDBRANCH   9  10
ENDBRANCH   3   9
BRANCH   5  30
HETATM   30  C   UNL     1      -9.224  15.875  68.166  1.00  0.00    -0.190 A  
HETATM   31  C   UNL     1      -7.933  16.726  66.281  1.00  0.00    -0.352 A  
HETATM   32  C   UNL     1      -9.687  17.179  68.386  1.00  0.00    -0.284 A  
HETATM   33  C   UNL     1      -8.327  15.676  67.109  1.00  0.00    -0.237 A  
HETATM   34  C   UNL     1      -8.370  18.016  66.537  1.00  0.00    -0.293 A  
HETATM   35  C   UNL     1      -9.253  18.241  67.587  1.00  0.00    -0.271 A  
ENDBRANCH   5  30
TORSDOF 8
ENDMDL
MODEL       28
REMARK 921   NORMALIZED FREE ENERGY PREDICTED BY IDOCK:   -6.07 KCAL/MOL
REMARK 922        TOTAL FREE ENERGY PREDICTED BY IDOCK:   -9.72 KCAL/MOL
REMARK 923 INTER-LIGAND FREE ENERGY PREDICTED BY IDOCK:   -8.89 KCAL/MOL
REMARK 924 INTRA-LIGAND FREE ENERGY PREDICTED BY IDOCK:   -0.82 KCAL/MOL
REMARK 927      BINDING AFFINITY PREDICTED BY RF-SCORE:    0.00 PKD
ROOT
HETATM    1  C   UNL     1      -9.051   8.526  72.882  1.00  0.00    -0.107 C  
HETATM    2  N   UNL     1      -9.522   8.530  71.496  1.00  0.00    -0.198 N  
HETATM    3  C   UNL     1      -8.510   8.645  70.532  1.00  0.00    -0.150 C  
HETATM    4  C   UNL     1     -11.000   8.289  71.247  1.00  0.00    -0.243 C  
HETATM    5  C   UNL     1     -11.299   7.082  70.290  1.00  0.00    -0.339 C  
HETATM    6  C   UNL     1     -11.774   7.988  72.567  1.00  0.00    -0.446 C  
HETATM    7  C   UNL     1     -11.665   9.584  70.715  1.00  0.00    -0.370 C  
HETATM    8  O   UNL     1      -7.321   8.661  70.874  1.00  0.00    -0.059 OA 
ENDROOT
BRANCH   3   9
HETATM    9  C   UNL     1      -8.895   8.699  69.045  1.00  0.00    -0.138 C  
BRANCH   9  10
HETATM   10  N   UNL     1      -9.380  10.003  68.544  1.00  0.00    -0.141 NA 
BRANCH  10  11
HETATM   11  C   UNL     1      -8.328  11.033  68.603  1.00  0.00    -0.153 C  
BRANCH  11  12
HETATM   12  C   UNL     1      -7.318  10.978  67.435  1.00  0.00    -0.105 C  
HETATM   13  H   UNL     1      -5.895  12.122  66.686  1.00  0.00     0.000 HD 
HETATM   14  O   UNL     1      -6.517  12.156  67.404  1.00  0.00    -0.118 OA 
ENDBRANCH  11  12
ENDBRANCH  10  11
BRANCH  10  15
HETATM   15  C   UNL     1     -10.013   9.913  67.198  1.00  0.00    -0.200 C  
BRANCH  15  16
HETATM   16  C   UNL     1     -10.998  11.081  66.872  1.00  0.00    -0.249 C  
HETATM   17  C   UNL     1     -11.603  13.080  65.426  1.00  0.00    -0.341 C  
HETATM   18  C   UNL     1      -9.808  11.416  64.700  1.00  0.00    -0.259 C  
HETATM   19  N   UNL     1     -10.762  11.847  65.718  1.00  0.00    -0.274 N  
HETATM   20  C   UNL     1     -12.054  13.914  66.685  1.00  0.00    -0.485 C  
HETATM   21  O   UNL     1     -11.930  11.365  67.627  1.00  0.00    -0.630 OA 
HETATM   22  C   UNL     1     -10.885  14.070  64.479  1.00  0.00    -0.362 C  
HETATM   23  C   UNL     1     -12.893  12.637  64.702  1.00  0.00    -0.361 C  
BRANCH  20  24
HETATM   24  C   UNL     1     -10.998  14.473  67.616  1.00  0.00    -0.293 A  
HETATM   25  C   UNL     1     -11.389  14.889  68.897  1.00  0.00    -0.301 A  
HETATM   26  C   UNL     1     -10.447  15.347  69.820  1.00  0.00    -0.303 A  
HETATM   27  C   UNL     1      -9.096  15.373  69.486  1.00  0.00    -0.231 A  
HETATM   28  C   UNL     1      -8.687  14.945  68.233  1.00  0.00    -0.166 A  
HETATM   29  C   UNL     1      -9.627  14.515  67.304  1.00  0.00    -0.226 A  
ENDBRANCH  20  24
ENDBRANCH  15  16
ENDBRANCH  10  15
ENDBRANCH   9  10
ENDBRANCH   3   9
BRANCH   5  30
HETATM   30  C   UNL     1     -10.702   5.746  70.693  1.00  0.00    -0.351 A  
HETATM   31  C   UNL     1     -10.149   4.048  72.354  1.00  0.00    -0.242 A  
HETATM   32  C   UNL     1     -10.137   4.916  69.715  1.00  0.00    -0.319 A  
HETATM   33  C   UNL     1     -10.680   5.292  72.019  1.00  0.00    -0.261 A  
HETATM   34  C   UNL     1      -9.558   3.258  71.379  1.00  0.00    -0.230 A  
HETATM   35  C   UNL     1      -9.560   3.690  70.058  1.00  0.00    -0.244 A  
ENDBRANCH   5  30
TORSDOF 8
ENDMDL
MODEL       29
REMARK 921   NORMALIZED FREE ENERGY PREDICTED BY IDOCK:   -6.06 KCAL/MOL
REMARK 922        TOTAL FREE ENERGY PREDICTED BY IDOCK:   -9.70 KCAL/MOL
REMARK 923 INTER-LIGAND FREE ENERGY PREDICTED BY IDOCK:   -9.56 KCAL/MOL
REMARK 924 INTRA-LIGAND FREE ENERGY PREDICTED BY IDOCK:   -0.14 KCAL/MOL
REMARK 927      BINDING AFFINITY PREDICTED BY RF-SCORE:    0.00 PKD
ROOT
HETATM    1  C   UNL     1      -9.879   7.490  73.406  1.00  0.00    -0.310 C  
HETATM    2  N   UNL     1     -10.324   7.485  72.011  1.00  0.00    -0.195 N  
HETATM    3  C   UNL     1      -9.712   8.448  71.196  1.00  0.00    -0.186 C  
HETATM    4  C   UNL     1     -11.281   6.390  71.574  1.00  0.00    -0.284 C  
HETATM    5  C   UNL     1     -10.764   5.535  70.363  1.00  0.00    -0.321 C  
HETATM    6  C   UNL     1     -11.568   5.373  72.721  1.00  0.00    -0.293 C  
HETATM    7  C   UNL     1     -12.672   6.996  71.260  1.00  0.00    -0.400 C  
HETATM    8  O   UNL     1      -8.815   9.170  71.648  1.00  0.00    -0.339 OA 
ENDROOT
BRANCH   3   9
HETATM    9  C   UNL     1     -10.133   8.558  69.722  1.00  0.00    -0.197 C  
BRANCH   9  10
HETATM   10  N   UNL     1     -10.893   9.770  69.349  1.00  0.00    -0.231 NA 
BRANCH  10  11
HETATM   11  C   UNL     1     -11.363  10.504  70.538  1.00  0.00    -0.314 C  
BRANCH  11  12
HETATM   12  C   UNL     1     -12.890  10.435  70.766  1.00  0.00    -0.364 C  
HETATM   13  H   UNL     1     -14.218  11.247  71.978  1.00  0.00     0.000 HD 
HETATM   14  O   UNL     1     -13.280  11.289  71.838  1.00  0.00    -0.482 OA 
ENDBRANCH  11  12
ENDBRANCH  10  11
BRANCH  10  15
HETATM   15  C   UNL     1     -10.164  10.648  68.391  1.00  0.00    -0.173 C  
BRANCH  15  16
HETATM   16  C   UNL     1     -11.085  11.592  67.555  1.00  0.00    -0.272 C  
HETATM   17  C   UNL     1     -11.370  13.173  65.587  1.00  0.00    -0.303 C  
HETATM   18  C   UNL     1      -9.333  11.645  65.773  1.00  0.00    -0.205 C  
HETATM   19  N   UNL     1     -10.572  12.141  66.368  1.00  0.00    -0.235 N  
HETATM   20  C   UNL     1     -12.227  14.173  66.454  1.00  0.00    -0.473 C  
HETATM   21  O   UNL     1     -12.215  11.896  67.942  1.00  0.00    -0.508 OA 
HETATM   22  C   UNL     1     -10.473  14.043  64.675  1.00  0.00    -0.398 C  
HETATM   23  C   UNL     1     -12.357  12.435  64.657  1.00  0.00    -0.518 C  
BRANCH  20  24
HETATM   24  C   UNL     1     -11.531  15.035  67.488  1.00  0.00    -0.339 A  
HETATM   25  C   UNL     1     -10.666  16.046  67.042  1.00  0.00    -0.277 A  
HETATM   26  C   UNL     1     -10.053  16.914  67.948  1.00  0.00    -0.288 A  
HETATM   27  C   UNL     1     -10.315  16.801  69.311  1.00  0.00    -0.309 A  
HETATM   28  C   UNL     1     -11.184  15.824  69.768  1.00  0.00    -0.330 A  
HETATM   29  C   UNL     1     -11.773  14.942  68.870  1.00  0.00    -0.343 A  
ENDBRANCH  20  24
ENDBRANCH  15  16
ENDBRANCH  10  15
ENDBRANCH   9  10
ENDBRANCH   3   9
BRANCH   5  30
HETATM   30  C   UNL     1      -9.404   4.883  70.538  1.00  0.00    -0.216 A  
HETATM   31  C   UNL     1      -6.984   4.838  70.242  1.00  0.00    -0.048 A  
HETATM   32  C   UNL     1      -9.305   3.661  71.215  1.00  0.00    -0.214 A  
HETATM   33  C   UNL     1      -8.222   5.448  70.042  1.00  0.00    -0.095 A  
HETATM   34  C   UNL     1      -6.909   3.609  70.880  1.00  0.00    -0.033 A  
HETATM   35  C   UNL     1      -8.069   3.025  71.373  1.00  0.00    -0.062 A  
ENDBRANCH   5  30
TORSDOF 8
ENDMDL
MODEL       30
REMARK 921   NORMALIZED FREE ENERGY PREDICTED BY IDOCK:   -6.05 KCAL/MOL
REMARK 922        TOTAL FREE ENERGY PREDICTED BY IDOCK:   -9.69 KCAL/MOL
REMARK 923 INTER-LIGAND FREE ENERGY PREDICTED BY IDOCK:   -9.33 KCAL/MOL
REMARK 924 INTRA-LIGAND FREE ENERGY PREDICTED BY IDOCK:   -0.36 KCAL/MOL
REMARK 927      BINDING AFFINITY PREDICTED BY RF-SCORE:    0.00 PKD
ROOT
HETATM    1  C   UNL     1     -10.774   8.350  67.264  1.00  0.00    -0.160 C  
HETATM    2  N   UNL     1     -10.042   9.455  67.886  1.00  0.00    -0.183 N  
HETATM    3  C   UNL     1     -10.577  10.727  67.637  1.00  0.00    -0.231 C  
HETATM    4  C   UNL     1      -8.891   9.112  68.814  1.00  0.00    -0.132 C  
HETATM    5  C   UNL     1      -9.029   9.714  70.256  1.00  0.00    -0.263 C  
HETATM    6  C   UNL     1      -8.736   7.572  69.009  1.00  0.00    -0.136 C  
HETATM    7  C   UNL     1      -7.547   9.540  68.170  1.00  0.00    -0.079 C  
HETATM    8  O   UNL     1     -11.629  10.848  66.998  1.00  0.00    -0.383 OA 
ENDROOT
BRANCH   3   9
HETATM    9  C   UNL     1      -9.865  11.963  68.209  1.00  0.00    -0.199 C  
BRANCH   9  10
HETATM   10  N   UNL     1      -9.254  12.880  67.223  1.00  0.00    -0.200 NA 
BRANCH  10  11
HETATM   11  C   UNL     1      -9.513  12.442  65.840  1.00  0.00    -0.129 C  
BRANCH  11  12
HETATM   12  C   UNL     1     -10.383  13.418  65.016  1.00  0.00    -0.347 C  
HETATM   13  H   UNL     1     -11.865  13.305  63.718  1.00  0.00     0.000 HD 
HETATM   14  O   UNL     1     -11.330  12.705  64.225  1.00  0.00    -0.321 OA 
ENDBRANCH  11  12
ENDBRANCH  10  11
BRANCH  10  15
HETATM   15  C   UNL     1      -9.620  14.307  67.445  1.00  0.00    -0.214 C  
BRANCH  15  16
HETATM   16  C   UNL     1      -8.448  15.314  67.218  1.00  0.00    -0.193 C  
HETATM   17  C   UNL     1      -6.619  16.782  68.194  1.00  0.00    -0.144 C  
HETATM   18  C   UNL     1      -7.775  14.996  69.604  1.00  0.00    -0.115 C  
HETATM   19  N   UNL     1      -7.681  15.702  68.329  1.00  0.00    -0.128 N  
HETATM   20  C   UNL     1      -6.957  17.951  67.191  1.00  0.00    -0.202 C  
HETATM   21  O   UNL     1      -8.225  15.802  66.108  1.00  0.00    -0.179 OA 
HETATM   22  C   UNL     1      -6.285  17.451  69.548  1.00  0.00    -0.249 C  
HETATM   23  C   UNL     1      -5.312  16.131  67.691  1.00  0.00    -0.159 C  
BRANCH  20  24
HETATM   24  C   UNL     1      -8.210  18.773  67.412  1.00  0.00    -0.278 A  
HETATM   25  C   UNL     1      -8.823  19.368  66.299  1.00  0.00    -0.372 A  
HETATM   26  C   UNL     1     -10.018  20.078  66.435  1.00  0.00    -0.601 A  
HETATM   27  C   UNL     1     -10.631  20.184  67.680  1.00  0.00    -0.332 A  
HETATM   28  C   UNL     1     -10.052  19.585  68.787  1.00  0.00    -0.519 A  
HETATM   29  C   UNL     1      -8.849  18.900  68.658  1.00  0.00    -0.374 A  
ENDBRANCH  20  24
ENDBRANCH  15  16
ENDBRANCH  10  15
ENDBRANCH   9  10
ENDBRANCH   3   9
BRANCH   5  30
HETATM   30  C   UNL     1     -10.307   9.374  71.003  1.00  0.00    -0.382 A  
HETATM   31  C   UNL     1     -12.688   9.667  71.440  1.00  0.00    -0.466 A  
HETATM   32  C   UNL     1     -10.289   8.378  71.987  1.00  0.00    -0.374 A  
HETATM   33  C   UNL     1     -11.525  10.021  70.757  1.00  0.00    -0.438 A  
HETATM   34  C   UNL     1     -12.643   8.706  72.439  1.00  0.00    -0.426 A  
HETATM   35  C   UNL     1     -11.444   8.057  72.707  1.00  0.00    -0.420 A  
ENDBRANCH   5  30
TORSDOF 8
ENDMDL
MODEL       31
REMARK 921   NORMALIZED FREE ENERGY PREDICTED BY IDOCK:   -6.05 KCAL/MOL
REMARK 922        TOTAL FREE ENERGY PREDICTED BY IDOCK:   -9.69 KCAL/MOL
REMARK 923 INTER-LIGAND FREE ENERGY PREDICTED BY IDOCK:   -9.12 KCAL/MOL
REMARK 924 INTRA-LIGAND FREE ENERGY PREDICTED BY IDOCK:   -0.56 KCAL/MOL
REMARK 927      BINDING AFFINITY PREDICTED BY RF-SCORE:    0.00 PKD
ROOT
HETATM    1  C   UNL     1      -9.727   4.742  68.606  1.00  0.00    -0.157 C  
HETATM    2  N   UNL     1      -9.616   5.829  69.582  1.00  0.00    -0.148 N  
HETATM    3  C   UNL     1     -10.750   6.647  69.680  1.00  0.00    -0.260 C  
HETATM    4  C   UNL     1      -8.372   5.879  70.450  1.00  0.00    -0.123 C  
HETATM    5  C   UNL     1      -8.667   5.872  71.991  1.00  0.00    -0.137 C  
HETATM    6  C   UNL     1      -7.428   4.665  70.192  1.00  0.00    -0.054 C  
HETATM    7  C   UNL     1      -7.508   7.107  70.066  1.00  0.00    -0.086 C  
HETATM    8  O   UNL     1     -11.768   6.385  69.029  1.00  0.00    -0.156 OA 
ENDROOT
BRANCH   3   9
HETATM    9  C   UNL     1     -10.728   7.843  70.645  1.00  0.00    -0.228 C  
BRANCH   9  10
HETATM   10  N   UNL     1     -11.230   9.126  70.107  1.00  0.00    -0.224 NA 
BRANCH  10  11
HETATM   11  C   UNL     1     -11.645  10.042  71.184  1.00  0.00    -0.378 C  
BRANCH  11  12
HETATM   12  C   UNL     1     -13.171  10.100  71.416  1.00  0.00    -0.380 C  
HETATM   13  H   UNL     1     -14.484   9.314  72.663  1.00  0.00     0.000 HD 
HETATM   14  O   UNL     1     -13.546   9.279  72.520  1.00  0.00    -0.467 OA 
ENDBRANCH  11  12
ENDBRANCH  10  11
BRANCH  10  15
HETATM   15  C   UNL     1     -10.287   9.767  69.147  1.00  0.00    -0.211 C  
BRANCH  15  16
HETATM   16  C   UNL     1     -10.933  10.876  68.256  1.00  0.00    -0.239 C  
HETATM   17  C   UNL     1     -10.649  12.931  66.791  1.00  0.00    -0.257 C  
HETATM   18  C   UNL     1      -8.650  11.480  67.436  1.00  0.00    -0.145 C  
HETATM   19  N   UNL     1     -10.081  11.750  67.560  1.00  0.00    -0.190 N  
HETATM   20  C   UNL     1     -11.911  13.622  67.433  1.00  0.00    -0.413 C  
HETATM   21  O   UNL     1     -12.155  11.023  68.198  1.00  0.00    -0.610 OA 
HETATM   22  C   UNL     1      -9.602  14.049  66.572  1.00  0.00    -0.307 C  
HETATM   23  C   UNL     1     -11.074  12.448  65.387  1.00  0.00    -0.344 C  
BRANCH  20  24
HETATM   24  C   UNL     1     -11.809  14.186  68.836  1.00  0.00    -0.382 A  
HETATM   25  C   UNL     1     -11.304  15.484  68.999  1.00  0.00    -0.331 A  
HETATM   26  C   UNL     1     -11.253  16.079  70.262  1.00  0.00    -0.397 A  
HETATM   27  C   UNL     1     -11.728  15.394  71.377  1.00  0.00    -0.453 A  
HETATM   28  C   UNL     1     -12.252  14.120  71.233  1.00  0.00    -0.419 A  
HETATM   29  C   UNL     1     -12.278  13.516  69.981  1.00  0.00    -0.381 A  
ENDBRANCH  20  24
ENDBRANCH  15  16
ENDBRANCH  10  15
ENDBRANCH   9  10
ENDBRANCH   3   9
BRANCH   5  30
HETATM   30  C   UNL     1      -9.510   4.719  72.505  1.00  0.00    -0.165 A  
HETATM   31  C   UNL     1     -11.525   3.822  73.546  1.00  0.00    -0.180 A  
HETATM   32  C   UNL     1      -9.035   3.407  72.386  1.00  0.00    -0.123 A  
HETATM   33  C   UNL     1     -10.761   4.903  73.109  1.00  0.00    -0.315 A  
HETATM   34  C   UNL     1     -11.022   2.533  73.456  1.00  0.00    -0.303 A  
HETATM   35  C   UNL     1      -9.779   2.326  72.869  1.00  0.00    -0.160 A  
ENDBRANCH   5  30
TORSDOF 8
ENDMDL
MODEL       32
REMARK 921   NORMALIZED FREE ENERGY PREDICTED BY IDOCK:   -6.05 KCAL/MOL
REMARK 922        TOTAL FREE ENERGY PREDICTED BY IDOCK:   -9.68 KCAL/MOL
REMARK 923 INTER-LIGAND FREE ENERGY PREDICTED BY IDOCK:   -9.09 KCAL/MOL
REMARK 924 INTRA-LIGAND FREE ENERGY PREDICTED BY IDOCK:   -0.59 KCAL/MOL
REMARK 927      BINDING AFFINITY PREDICTED BY RF-SCORE:    0.00 PKD
ROOT
HETATM    1  C   UNL     1      -7.741   7.400  72.568  1.00  0.00    -0.092 C  
HETATM    2  N   UNL     1      -8.876   7.483  71.646  1.00  0.00    -0.116 N  
HETATM    3  C   UNL     1      -8.526   7.572  70.291  1.00  0.00    -0.138 C  
HETATM    4  C   UNL     1     -10.272   7.340  72.223  1.00  0.00    -0.196 C  
HETATM    5  C   UNL     1     -11.118   6.189  71.574  1.00  0.00    -0.342 C  
HETATM    6  C   UNL     1     -10.245   7.037  73.753  1.00  0.00    -0.401 C  
HETATM    7  C   UNL     1     -11.026   8.691  72.127  1.00  0.00    -0.434 C  
HETATM    8  O   UNL     1      -7.339   7.504  69.946  1.00  0.00    -0.078 OA 
ENDROOT
BRANCH   3   9
HETATM    9  C   UNL     1      -9.637   7.704  69.238  1.00  0.00    -0.159 C  
BRANCH   9  10
HETATM   10  N   UNL     1      -9.612   8.930  68.412  1.00  0.00    -0.144 NA 
BRANCH  10  11
HETATM   11  C   UNL     1     -10.401   8.769  67.177  1.00  0.00    -0.293 C  
BRANCH  11  12
HETATM   12  C   UNL     1      -9.552   8.612  65.896  1.00  0.00    -0.139 C  
HETATM   13  H   UNL     1      -9.203   9.638  64.246  1.00  0.00     0.000 HD 
HETATM   14  O   UNL     1      -9.725   9.734  65.034  1.00  0.00    -0.298 OA 
ENDBRANCH  11  12
ENDBRANCH  10  11
BRANCH  10  15
HETATM   15  C   UNL     1      -9.987  10.156  69.171  1.00  0.00    -0.210 C  
BRANCH  15  16
HETATM   16  C   UNL     1     -10.747  11.227  68.326  1.00  0.00    -0.194 C  
HETATM   17  C   UNL     1     -10.675  13.328  66.899  1.00  0.00    -0.271 C  
HETATM   18  C   UNL     1      -8.548  12.028  67.449  1.00  0.00    -0.171 C  
HETATM   19  N   UNL     1      -9.990  12.180  67.624  1.00  0.00    -0.194 N  
HETATM   20  C   UNL     1     -11.967  13.902  67.596  1.00  0.00    -0.403 C  
HETATM   21  O   UNL     1     -11.979  11.277  68.309  1.00  0.00    -0.582 OA 
HETATM   22  C   UNL     1      -9.728  14.530  66.674  1.00  0.00    -0.285 C  
HETATM   23  C   UNL     1     -11.107  12.841  65.499  1.00  0.00    -0.318 C  
BRANCH  20  24
HETATM   24  C   UNL     1     -11.864  14.444  69.008  1.00  0.00    -0.358 A  
HETATM   25  C   UNL     1     -11.370  15.744  69.190  1.00  0.00    -0.349 A  
HETATM   26  C   UNL     1     -11.318  16.318  70.462  1.00  0.00    -0.318 A  
HETATM   27  C   UNL     1     -11.783  15.611  71.568  1.00  0.00    -0.504 A  
HETATM   28  C   UNL     1     -12.296  14.334  71.405  1.00  0.00    -0.431 A  
HETATM   29  C   UNL     1     -12.322  13.751  70.143  1.00  0.00    -0.390 A  
ENDBRANCH  20  24
ENDBRANCH  15  16
ENDBRANCH  10  15
ENDBRANCH   9  10
ENDBRANCH   3   9
BRANCH   5  30
HETATM   30  C   UNL     1     -10.493   4.805  71.598  1.00  0.00    -0.163 A  
HETATM   31  C   UNL     1      -9.189   3.014  70.579  1.00  0.00    -0.210 A  
HETATM   32  C   UNL     1     -10.632   4.002  72.737  1.00  0.00    -0.218 A  
HETATM   33  C   UNL     1      -9.775   4.277  70.516  1.00  0.00    -0.282 A  
HETATM   34  C   UNL     1      -9.371   2.217  71.699  1.00  0.00    -0.183 A  
HETATM   35  C   UNL     1     -10.087   2.715  72.781  1.00  0.00    -0.225 A  
ENDBRANCH   5  30
TORSDOF 8
ENDMDL
MODEL       33
REMARK 921   NORMALIZED FREE ENERGY PREDICTED BY IDOCK:   -6.02 KCAL/MOL
REMARK 922        TOTAL FREE ENERGY PREDICTED BY IDOCK:   -9.64 KCAL/MOL
REMARK 923 INTER-LIGAND FREE ENERGY PREDICTED BY IDOCK:   -9.18 KCAL/MOL
REMARK 924 INTRA-LIGAND FREE ENERGY PREDICTED BY IDOCK:   -0.46 KCAL/MOL
REMARK 927      BINDING AFFINITY PREDICTED BY RF-SCORE:    0.00 PKD
ROOT
HETATM    1  C   UNL     1      -7.597   7.352  70.106  1.00  0.00    -0.089 C  
HETATM    2  N   UNL     1      -8.851   7.859  69.544  1.00  0.00    -0.141 N  
HETATM    3  C   UNL     1      -8.696   8.722  68.449  1.00  0.00    -0.135 C  
HETATM    4  C   UNL     1     -10.152   7.315  70.105  1.00  0.00    -0.189 C  
HETATM    5  C   UNL     1     -11.095   6.673  69.026  1.00  0.00    -0.318 C  
HETATM    6  C   UNL     1      -9.910   6.205  71.173  1.00  0.00    -0.210 C  
HETATM    7  C   UNL     1     -10.897   8.426  70.887  1.00  0.00    -0.267 C  
HETATM    8  O   UNL     1      -7.572   8.946  67.984  1.00  0.00    -0.091 OA 
ENDROOT
BRANCH   3   9
HETATM    9  C   UNL     1      -9.945   9.344  67.805  1.00  0.00    -0.184 C  
BRANCH   9  10
HETATM   10  N   UNL     1      -9.927  10.812  67.630  1.00  0.00    -0.170 NA 
BRANCH  10  11
HETATM   11  C   UNL     1     -10.570  11.216  66.367  1.00  0.00    -0.261 C  
BRANCH  11  12
HETATM   12  C   UNL     1     -10.045  10.470  65.119  1.00  0.00    -0.314 C  
HETATM   13  H   UNL     1     -10.395  10.456  63.177  1.00  0.00     0.000 HD 
HETATM   14  O   UNL     1     -10.717  10.914  63.944  1.00  0.00    -0.339 OA 
ENDBRANCH  11  12
ENDBRANCH  10  11
BRANCH  10  15
HETATM   15  C   UNL     1     -10.471  11.549  68.805  1.00  0.00    -0.204 C  
BRANCH  15  16
HETATM   16  C   UNL     1     -11.011  12.976  68.475  1.00  0.00    -0.263 C  
HETATM   17  C   UNL     1     -10.626  15.486  68.399  1.00  0.00    -0.252 C  
HETATM   18  C   UNL     1      -8.684  13.859  68.703  1.00  0.00    -0.075 C  
HETATM   19  N   UNL     1     -10.124  14.062  68.573  1.00  0.00    -0.235 N  
HETATM   20  C   UNL     1     -12.075  15.773  68.952  1.00  0.00    -0.139 C  
HETATM   21  O   UNL     1     -12.195  13.165  68.186  1.00  0.00    -0.247 OA 
HETATM   22  C   UNL     1      -9.692  16.525  69.063  1.00  0.00    -0.258 C  
HETATM   23  C   UNL     1     -10.653  15.821  66.892  1.00  0.00    -0.317 C  
BRANCH  20  24
HETATM   24  C   UNL     1     -12.370  15.516  70.416  1.00  0.00    -0.451 A  
HETATM   25  C   UNL     1     -13.617  14.974  70.761  1.00  0.00    -0.266 A  
HETATM   26  C   UNL     1     -13.915  14.653  72.086  1.00  0.00    -0.591 A  
HETATM   27  C   UNL     1     -12.963  14.845  73.084  1.00  0.00    -0.627 A  
HETATM   28  C   UNL     1     -11.718  15.358  72.759  1.00  0.00    -0.535 A  
HETATM   29  C   UNL     1     -11.429  15.704  71.444  1.00  0.00    -0.488 A  
ENDBRANCH  20  24
ENDBRANCH  15  16
ENDBRANCH  10  15
ENDBRANCH   9  10
ENDBRANCH   3   9
BRANCH   5  30
HETATM   30  C   UNL     1     -10.488   5.567  68.182  1.00  0.00    -0.231 A  
HETATM   31  C   UNL     1      -9.259   3.475  67.934  1.00  0.00    -0.230 A  
HETATM   32  C   UNL     1     -10.623   5.606  66.788  1.00  0.00    -0.372 A  
HETATM   33  C   UNL     1      -9.781   4.490  68.734  1.00  0.00    -0.213 A  
HETATM   34  C   UNL     1      -9.368   3.551  66.554  1.00  0.00    -0.189 A  
HETATM   35  C   UNL     1     -10.057   4.614  65.982  1.00  0.00    -0.287 A  
ENDBRANCH   5  30
TORSDOF 8
ENDMDL
MODEL       34
REMARK 921   NORMALIZED FREE ENERGY PREDICTED BY IDOCK:   -6.01 KCAL/MOL
REMARK 922        TOTAL FREE ENERGY PREDICTED BY IDOCK:   -9.62 KCAL/MOL
REMARK 923 INTER-LIGAND FREE ENERGY PREDICTED BY IDOCK:   -9.18 KCAL/MOL
REMARK 924 INTRA-LIGAND FREE ENERGY PREDICTED BY IDOCK:   -0.44 KCAL/MOL
REMARK 927      BINDING AFFINITY PREDICTED BY RF-SCORE:    0.00 PKD
ROOT
HETATM    1  C   UNL     1     -10.636   7.991  67.465  1.00  0.00    -0.232 C  
HETATM    2  N   UNL     1      -9.830   8.969  68.198  1.00  0.00    -0.160 N  
HETATM    3  C   UNL     1      -9.986  10.296  67.772  1.00  0.00    -0.173 C  
HETATM    4  C   UNL     1      -9.030   8.479  69.391  1.00  0.00    -0.149 C  
HETATM    5  C   UNL     1      -9.349   9.234  70.730  1.00  0.00    -0.322 C  
HETATM    6  C   UNL     1      -9.283   6.968  69.685  1.00  0.00    -0.146 C  
HETATM    7  C   UNL     1      -7.514   8.547  69.076  1.00  0.00    -0.089 C  
HETATM    8  O   UNL     1     -10.809  10.576  66.892  1.00  0.00    -0.250 OA 
ENDROOT
BRANCH   3   9
HETATM    9  C   UNL     1      -9.158  11.401  68.446  1.00  0.00    -0.179 C  
BRANCH   9  10
HETATM   10  N   UNL     1      -7.836  11.685  67.846  1.00  0.00    -0.121 NA 
BRANCH  10  11
HETATM   11  C   UNL     1      -7.752  11.192  66.460  1.00  0.00    -0.146 C  
BRANCH  11  12
HETATM   12  C   UNL     1      -6.416  10.496  66.113  1.00  0.00    -0.122 C  
HETATM   13  H   UNL     1      -4.710  10.972  65.243  1.00  0.00     0.000 HD 
HETATM   14  O   UNL     1      -5.531  11.399  65.456  1.00  0.00    -0.190 OA 
ENDBRANCH  11  12
ENDBRANCH  10  11
BRANCH  10  15
HETATM   15  C   UNL     1      -7.434  13.115  67.967  1.00  0.00    -0.132 C  
BRANCH  15  16
HETATM   16  C   UNL     1      -8.536  14.131  67.529  1.00  0.00    -0.191 C  
HETATM   17  C   UNL     1      -9.459  16.497  67.581  1.00  0.00    -0.225 C  
HETATM   18  C   UNL     1      -7.075  15.991  68.338  1.00  0.00    -0.125 C  
HETATM   19  N   UNL     1      -8.358  15.486  67.857  1.00  0.00    -0.141 N  
HETATM   20  C   UNL     1     -10.934  15.968  67.760  1.00  0.00    -0.307 C  
HETATM   21  O   UNL     1      -9.563  13.760  66.958  1.00  0.00    -0.235 OA 
HETATM   22  C   UNL     1      -9.336  17.758  68.468  1.00  0.00    -0.295 C  
HETATM   23  C   UNL     1      -9.335  16.976  66.118  1.00  0.00    -0.245 C  
BRANCH  20  24
HETATM   24  C   UNL     1     -11.357  15.407  69.102  1.00  0.00    -0.323 A  
HETATM   25  C   UNL     1     -11.197  16.208  70.242  1.00  0.00    -0.389 A  
HETATM   26  C   UNL     1     -11.634  15.769  71.493  1.00  0.00    -0.531 A  
HETATM   27  C   UNL     1     -12.260  14.531  71.620  1.00  0.00    -0.403 A  
HETATM   28  C   UNL     1     -12.447  13.735  70.502  1.00  0.00    -0.409 A  
HETATM   29  C   UNL     1     -11.988  14.160  69.261  1.00  0.00    -0.382 A  
ENDBRANCH  20  24
ENDBRANCH  15  16
ENDBRANCH  10  15
ENDBRANCH   9  10
ENDBRANCH   3   9
BRANCH   5  30
HETATM   30  C   UNL     1     -10.806   9.248  71.158  1.00  0.00    -0.407 A  
HETATM   31  C   UNL     1     -12.683   8.361  72.437  1.00  0.00    -0.346 A  
HETATM   32  C   UNL     1     -11.666  10.234  70.655  1.00  0.00    -0.438 A  
HETATM   33  C   UNL     1     -11.347   8.305  72.041  1.00  0.00    -0.390 A  
HETATM   34  C   UNL     1     -13.529   9.319  71.900  1.00  0.00    -0.497 A  
HETATM   35  C   UNL     1     -13.017  10.260  71.014  1.00  0.00    -0.488 A  
ENDBRANCH   5  30
TORSDOF 8
ENDMDL
MODEL       35
REMARK 921   NORMALIZED FREE ENERGY PREDICTED BY IDOCK:   -6.00 KCAL/MOL
REMARK 922        TOTAL FREE ENERGY PREDICTED BY IDOCK:   -9.61 KCAL/MOL
REMARK 923 INTER-LIGAND FREE ENERGY PREDICTED BY IDOCK:   -8.65 KCAL/MOL
REMARK 924 INTRA-LIGAND FREE ENERGY PREDICTED BY IDOCK:   -0.95 KCAL/MOL
REMARK 927      BINDING AFFINITY PREDICTED BY RF-SCORE:    0.00 PKD
ROOT
HETATM    1  C   UNL     1      -7.563  11.505  67.765  1.00  0.00    -0.111 C  
HETATM    2  N   UNL     1      -8.661  10.576  68.043  1.00  0.00    -0.119 N  
HETATM    3  C   UNL     1      -8.700  10.090  69.357  1.00  0.00    -0.186 C  
HETATM    4  C   UNL     1      -9.685  10.339  66.948  1.00  0.00    -0.186 C  
HETATM    5  C   UNL     1     -11.164  10.640  67.379  1.00  0.00    -0.280 C  
HETATM    6  C   UNL     1      -9.419  11.229  65.695  1.00  0.00    -0.254 C  
HETATM    7  C   UNL     1      -9.559   8.892  66.408  1.00  0.00    -0.304 C  
HETATM    8  O   UNL     1      -7.895  10.504  70.201  1.00  0.00    -0.053 OA 
ENDROOT
BRANCH   3   9
HETATM    9  C   UNL     1      -9.788   9.078  69.748  1.00  0.00    -0.180 C  
BRANCH   9  10
HETATM   10  N   UNL     1     -10.529   9.364  70.996  1.00  0.00    -0.307 NA 
BRANCH  10  11
HETATM   11  C   UNL     1     -11.967   9.074  70.853  1.00  0.00    -0.225 C  
BRANCH  11  12
HETATM   12  C   UNL     1     -12.862   9.768  71.904  1.00  0.00    -0.427 C  
HETATM   13  H   UNL     1     -14.345   9.273  73.108  1.00  0.00     0.000 HD 
HETATM   14  O   UNL     1     -13.794   8.846  72.462  1.00  0.00    -0.456 OA 
ENDBRANCH  11  12
ENDBRANCH  10  11
BRANCH  10  15
HETATM   15  C   UNL     1      -9.933   8.707  72.194  1.00  0.00    -0.316 C  
BRANCH  15  16
HETATM   16  C   UNL     1      -9.968   7.146  72.156  1.00  0.00    -0.165 C  
HETATM   17  C   UNL     1      -8.733   4.947  71.855  1.00  0.00    -0.128 C  
HETATM   18  C   UNL     1      -7.470   7.135  72.222  1.00  0.00    -0.084 C  
HETATM   19  N   UNL     1      -8.750   6.457  72.037  1.00  0.00    -0.134 N  
HETATM   20  C   UNL     1      -9.911   4.349  70.995  1.00  0.00    -0.260 C  
HETATM   21  O   UNL     1     -11.034   6.527  72.176  1.00  0.00    -0.231 OA 
HETATM   22  C   UNL     1      -7.420   4.448  71.207  1.00  0.00    -0.060 C  
HETATM   23  C   UNL     1      -8.818   4.281  73.246  1.00  0.00    -0.098 C  
BRANCH  20  24
HETATM   24  C   UNL     1     -10.102   4.831  69.571  1.00  0.00    -0.260 A  
HETATM   25  C   UNL     1      -9.504   4.101  68.533  1.00  0.00    -0.216 A  
HETATM   26  C   UNL     1      -9.705   4.460  67.198  1.00  0.00    -0.230 A  
HETATM   27  C   UNL     1     -10.526   5.538  66.880  1.00  0.00    -0.348 A  
HETATM   28  C   UNL     1     -11.144   6.257  67.890  1.00  0.00    -0.360 A  
HETATM   29  C   UNL     1     -10.923   5.918  69.220  1.00  0.00    -0.397 A  
ENDBRANCH  20  24
ENDBRANCH  15  16
ENDBRANCH  10  15
ENDBRANCH   9  10
ENDBRANCH   3   9
BRANCH   5  30
HETATM   30  C   UNL     1     -11.429  12.029  67.932  1.00  0.00    -0.396 A  
HETATM   31  C   UNL     1     -11.798  13.577  69.780  1.00  0.00    -0.395 A  
HETATM   32  C   UNL     1     -11.534  13.115  67.054  1.00  0.00    -0.379 A  
HETATM   33  C   UNL     1     -11.583  12.285  69.301  1.00  0.00    -0.383 A  
HETATM   34  C   UNL     1     -11.939  14.634  68.894  1.00  0.00    -0.309 A  
HETATM   35  C   UNL     1     -11.799  14.403  67.530  1.00  0.00    -0.418 A  
ENDBRANCH   5  30
TORSDOF 8
ENDMDL
MODEL       36
REMARK 921   NORMALIZED FREE ENERGY PREDICTED BY IDOCK:   -5.99 KCAL/MOL
REMARK 922        TOTAL FREE ENERGY PREDICTED BY IDOCK:   -9.60 KCAL/MOL
REMARK 923 INTER-LIGAND FREE ENERGY PREDICTED BY IDOCK:   -8.35 KCAL/MOL
REMARK 924 INTRA-LIGAND FREE ENERGY PREDICTED BY IDOCK:   -1.25 KCAL/MOL
REMARK 927      BINDING AFFINITY PREDICTED BY RF-SCORE:    0.00 PKD
ROOT
HETATM    1  C   UNL     1     -10.747   8.417  66.872  1.00  0.00    -0.093 C  
HETATM    2  N   UNL     1     -10.136   9.706  66.540  1.00  0.00    -0.242 N  
HETATM    3  C   UNL     1     -10.759  10.818  67.123  1.00  0.00    -0.272 C  
HETATM    4  C   UNL     1      -8.855   9.696  65.726  1.00  0.00    -0.157 C  
HETATM    5  C   UNL     1      -7.655  10.439  66.413  1.00  0.00    -0.123 C  
HETATM    6  C   UNL     1      -8.351   8.246  65.445  1.00  0.00    -0.170 C  
HETATM    7  C   UNL     1      -9.120  10.276  64.314  1.00  0.00    -0.278 C  
HETATM    8  O   UNL     1     -11.701  10.666  67.911  1.00  0.00    -0.506 OA 
ENDROOT
BRANCH   3   9
HETATM    9  C   UNL     1     -10.225  12.224  66.810  1.00  0.00    -0.211 C  
BRANCH   9  10
HETATM   10  N   UNL     1     -11.147  13.129  66.090  1.00  0.00    -0.280 NA 
BRANCH  10  11
HETATM   11  C   UNL     1     -11.981  12.395  65.121  1.00  0.00    -0.400 C  
BRANCH  11  12
HETATM   12  C   UNL     1     -11.813  12.861  63.657  1.00  0.00    -0.532 C  
HETATM   13  H   UNL     1     -12.619  14.203  62.455  1.00  0.00     0.000 HD 
HETATM   14  O   UNL     1     -12.722  13.916  63.355  1.00  0.00    -0.806 OA 
ENDBRANCH  11  12
ENDBRANCH  10  11
BRANCH  10  15
HETATM   15  C   UNL     1     -11.956  13.987  67.001  1.00  0.00    -0.438 C  
BRANCH  15  16
HETATM   16  C   UNL     1     -11.157  15.157  67.658  1.00  0.00    -0.318 C  
HETATM   17  C   UNL     1      -9.516  17.081  67.413  1.00  0.00    -0.242 C  
HETATM   18  C   UNL     1     -10.603  16.000  65.371  1.00  0.00    -0.408 C  
HETATM   19  N   UNL     1     -10.422  16.012  66.821  1.00  0.00    -0.307 N  
HETATM   20  C   UNL     1      -8.787  16.691  68.755  1.00  0.00    -0.264 C  
HETATM   21  O   UNL     1     -11.124  15.305  68.882  1.00  0.00    -0.240 OA 
HETATM   22  C   UNL     1      -8.411  17.528  66.428  1.00  0.00    -0.297 C  
HETATM   23  C   UNL     1     -10.365  18.334  67.719  1.00  0.00    -0.419 C  
BRANCH  20  24
HETATM   24  C   UNL     1      -7.885  15.473  68.777  1.00  0.00    -0.160 A  
HETATM   25  C   UNL     1      -7.578  14.847  67.560  1.00  0.00    -0.218 A  
HETATM   26  C   UNL     1      -6.698  13.765  67.514  1.00  0.00    -0.131 A  
HETATM   27  C   UNL     1      -6.092  13.306  68.680  1.00  0.00    -0.085 A  
HETATM   28  C   UNL     1      -6.365  13.926  69.889  1.00  0.00    -0.115 A  
HETATM   29  C   UNL     1      -7.262  14.986  69.940  1.00  0.00    -0.088 A  
ENDBRANCH  20  24
ENDBRANCH  15  16
ENDBRANCH  10  15
ENDBRANCH   9  10
ENDBRANCH   3   9
BRANCH   5  30
HETATM   30  C   UNL     1      -7.289   9.969  67.810  1.00  0.00    -0.089 A  
HETATM   31  C   UNL     1      -5.794   8.860  69.385  1.00  0.00    -0.034 A  
HETATM   32  C   UNL     1      -8.148  10.247  68.881  1.00  0.00    -0.123 A  
HETATM   33  C   UNL     1      -6.116   9.254  68.087  1.00  0.00    -0.053 A  
HETATM   34  C   UNL     1      -6.675   9.108  70.427  1.00  0.00    -0.058 A  
HETATM   35  C   UNL     1      -7.849   9.808  70.175  1.00  0.00    -0.196 A  
ENDBRANCH   5  30
TORSDOF 8
ENDMDL
MODEL       37
REMARK 921   NORMALIZED FREE ENERGY PREDICTED BY IDOCK:   -5.99 KCAL/MOL
REMARK 922        TOTAL FREE ENERGY PREDICTED BY IDOCK:   -9.60 KCAL/MOL
REMARK 923 INTER-LIGAND FREE ENERGY PREDICTED BY IDOCK:   -8.68 KCAL/MOL
REMARK 924 INTRA-LIGAND FREE ENERGY PREDICTED BY IDOCK:   -0.92 KCAL/MOL
REMARK 927      BINDING AFFINITY PREDICTED BY RF-SCORE:    0.00 PKD
ROOT
HETATM    1  C   UNL     1      -8.184   7.914  72.459  1.00  0.00    -0.139 C  
HETATM    2  N   UNL     1      -9.302   7.985  71.516  1.00  0.00    -0.146 N  
HETATM    3  C   UNL     1      -8.937   8.286  70.196  1.00  0.00    -0.142 C  
HETATM    4  C   UNL     1     -10.683   7.611  72.021  1.00  0.00    -0.227 C  
HETATM    5  C   UNL     1     -11.375   6.463  71.204  1.00  0.00    -0.376 C  
HETATM    6  C   UNL     1     -10.652   7.119  73.501  1.00  0.00    -0.416 C  
HETATM    7  C   UNL     1     -11.588   8.868  72.068  1.00  0.00    -0.435 C  
HETATM    8  O   UNL     1      -7.744   8.399  69.887  1.00  0.00    -0.087 OA 
ENDROOT
BRANCH   3   9
HETATM    9  C   UNL     1     -10.035   8.424  69.129  1.00  0.00    -0.196 C  
BRANCH   9  10
HETATM   10  N   UNL     1      -9.981   9.640  68.290  1.00  0.00    -0.150 NA 
BRANCH  10  11
HETATM   11  C   UNL     1     -10.595   9.416  66.969  1.00  0.00    -0.201 C  
BRANCH  11  12
HETATM   12  C   UNL     1      -9.579   9.185  65.827  1.00  0.00    -0.253 C  
HETATM   13  H   UNL     1      -7.622   9.258  65.583  1.00  0.00     0.000 HD 
HETATM   14  O   UNL     1      -8.247   9.400  66.285  1.00  0.00    -0.109 OA 
ENDBRANCH  11  12
ENDBRANCH  10  11
BRANCH  10  15
HETATM   15  C   UNL     1     -10.526  10.847  68.973  1.00  0.00    -0.219 C  
BRANCH  15  16
HETATM   16  C   UNL     1      -9.982  12.201  68.415  1.00  0.00    -0.206 C  
HETATM   17  C   UNL     1     -10.313  14.692  68.041  1.00  0.00    -0.235 C  
HETATM   18  C   UNL     1     -11.799  13.388  69.655  1.00  0.00    -0.331 C  
HETATM   19  N   UNL     1     -10.718  13.370  68.673  1.00  0.00    -0.253 N  
HETATM   20  C   UNL     1      -9.721  14.599  66.583  1.00  0.00    -0.283 C  
HETATM   21  O   UNL     1      -8.963  12.249  67.722  1.00  0.00    -0.162 OA 
HETATM   22  C   UNL     1     -11.487  15.697  67.974  1.00  0.00    -0.294 C  
HETATM   23  C   UNL     1      -9.224  15.347  68.919  1.00  0.00    -0.216 C  
BRANCH  20  24
HETATM   24  C   UNL     1     -10.560  13.974  65.486  1.00  0.00    -0.327 A  
HETATM   25  C   UNL     1     -11.704  14.658  65.048  1.00  0.00    -0.385 A  
HETATM   26  C   UNL     1     -12.473  14.163  63.994  1.00  0.00    -0.206 A  
HETATM   27  C   UNL     1     -12.098  12.990  63.344  1.00  0.00    -0.591 A  
HETATM   28  C   UNL     1     -10.959  12.313  63.747  1.00  0.00    -0.495 A  
HETATM   29  C   UNL     1     -10.207  12.790  64.815  1.00  0.00    -0.304 A  
ENDBRANCH  20  24
ENDBRANCH  15  16
ENDBRANCH  10  15
ENDBRANCH   9  10
ENDBRANCH   3   9
BRANCH   5  30
HETATM   30  C   UNL     1     -10.592   5.168  71.077  1.00  0.00    -0.201 A  
HETATM   31  C   UNL     1      -9.240   3.586  69.806  1.00  0.00    -0.219 A  
HETATM   32  C   UNL     1     -10.472   4.320  72.185  1.00  0.00    -0.133 A  
HETATM   33  C   UNL     1      -9.976   4.767  69.884  1.00  0.00    -0.306 A  
HETATM   34  C   UNL     1      -9.165   2.739  70.901  1.00  0.00    -0.206 A  
HETATM   35  C   UNL     1      -9.775   3.111  72.093  1.00  0.00    -0.230 A  
ENDBRANCH   5  30
TORSDOF 8
ENDMDL
MODEL       38
REMARK 921   NORMALIZED FREE ENERGY PREDICTED BY IDOCK:   -5.97 KCAL/MOL
REMARK 922        TOTAL FREE ENERGY PREDICTED BY IDOCK:   -9.56 KCAL/MOL
REMARK 923 INTER-LIGAND FREE ENERGY PREDICTED BY IDOCK:   -8.34 KCAL/MOL
REMARK 924 INTRA-LIGAND FREE ENERGY PREDICTED BY IDOCK:   -1.22 KCAL/MOL
REMARK 927      BINDING AFFINITY PREDICTED BY RF-SCORE:    0.00 PKD
ROOT
HETATM    1  C   UNL     1     -11.038  12.850  69.281  1.00  0.00    -0.133 C  
HETATM    2  N   UNL     1     -10.336  11.914  68.400  1.00  0.00    -0.204 N  
HETATM    3  C   UNL     1     -10.993  10.692  68.200  1.00  0.00    -0.269 C  
HETATM    4  C   UNL     1      -9.071  12.397  67.714  1.00  0.00    -0.193 C  
HETATM    5  C   UNL     1      -9.107  12.279  66.149  1.00  0.00    -0.076 C  
HETATM    6  C   UNL     1      -8.774  13.897  68.021  1.00  0.00    -0.183 C  
HETATM    7  C   UNL     1      -7.840  11.651  68.288  1.00  0.00    -0.136 C  
HETATM    8  O   UNL     1     -12.113  10.497  68.690  1.00  0.00    -0.324 OA 
ENDROOT
BRANCH   3   9
HETATM    9  C   UNL     1     -10.328   9.619  67.324  1.00  0.00    -0.249 C  
BRANCH   9  10
HETATM   10  N   UNL     1      -9.929   8.371  68.010  1.00  0.00    -0.174 NA 
BRANCH  10  11
HETATM   11  C   UNL     1      -9.916   7.223  67.086  1.00  0.00    -0.215 C  
BRANCH  11  12
HETATM   12  C   UNL     1     -11.120   6.268  67.241  1.00  0.00    -0.296 C  
HETATM   13  H   UNL     1     -12.183   5.493  68.712  1.00  0.00     0.000 HD 
HETATM   14  O   UNL     1     -11.442   6.080  68.616  1.00  0.00    -0.133 OA 
ENDBRANCH  11  12
ENDBRANCH  10  11
BRANCH  10  15
HETATM   15  C   UNL     1      -8.655   8.502  68.771  1.00  0.00    -0.131 C  
BRANCH  15  16
HETATM   16  C   UNL     1      -8.828   8.482  70.323  1.00  0.00    -0.148 C  
HETATM   17  C   UNL     1      -9.099   7.145  72.466  1.00  0.00    -0.127 C  
HETATM   18  C   UNL     1      -8.344   6.030  70.298  1.00  0.00    -0.124 C  
HETATM   19  N   UNL     1      -8.797   7.240  70.979  1.00  0.00    -0.143 N  
HETATM   20  C   UNL     1     -10.192   8.143  73.007  1.00  0.00    -0.273 C  
HETATM   21  O   UNL     1      -9.040   9.516  70.961  1.00  0.00    -0.224 OA 
HETATM   22  C   UNL     1      -9.556   5.727  72.885  1.00  0.00    -0.163 C  
HETATM   23  C   UNL     1      -7.803   7.438  73.253  1.00  0.00    -0.126 C  
BRANCH  20  24
HETATM   24  C   UNL     1     -11.583   8.110  72.406  1.00  0.00    -0.463 A  
HETATM   25  C   UNL     1     -12.296   9.315  72.307  1.00  0.00    -0.344 A  
HETATM   26  C   UNL     1     -13.552   9.354  71.699  1.00  0.00    -0.437 A  
HETATM   27  C   UNL     1     -14.104   8.196  71.158  1.00  0.00    -0.202 A  
HETATM   28  C   UNL     1     -13.405   7.002  71.225  1.00  0.00    -0.282 A  
HETATM   29  C   UNL     1     -12.166   6.956  71.855  1.00  0.00    -0.370 A  
ENDBRANCH  20  24
ENDBRANCH  15  16
ENDBRANCH  10  15
ENDBRANCH   9  10
ENDBRANCH   3   9
BRANCH   5  30
HETATM   30  C   UNL     1     -10.269  12.966  65.454  1.00  0.00    -0.301 A  
HETATM   31  C   UNL     1     -11.522  14.958  64.814  1.00  0.00    -0.410 A  
HETATM   32  C   UNL     1     -11.206  12.199  64.750  1.00  0.00    -0.373 A  
HETATM   33  C   UNL     1     -10.460  14.354  65.486  1.00  0.00    -0.366 A  
HETATM   34  C   UNL     1     -12.462  14.180  64.156  1.00  0.00    -0.267 A  
HETATM   35  C   UNL     1     -12.299  12.800  64.118  1.00  0.00    -0.485 A  
ENDBRANCH   5  30
TORSDOF 8
ENDMDL
MODEL       39
REMARK 921   NORMALIZED FREE ENERGY PREDICTED BY IDOCK:   -5.96 KCAL/MOL
REMARK 922        TOTAL FREE ENERGY PREDICTED BY IDOCK:   -9.55 KCAL/MOL
REMARK 923 INTER-LIGAND FREE ENERGY PREDICTED BY IDOCK:   -8.90 KCAL/MOL
REMARK 924 INTRA-LIGAND FREE ENERGY PREDICTED BY IDOCK:   -0.65 KCAL/MOL
REMARK 927      BINDING AFFINITY PREDICTED BY RF-SCORE:    0.00 PKD
ROOT
HETATM    1  C   UNL     1     -11.224  19.467  66.622  1.00  0.00     0.132 C  
HETATM    2  N   UNL     1     -10.488  18.232  66.900  1.00  0.00    -0.382 N  
HETATM    3  C   UNL     1     -10.468  17.310  65.844  1.00  0.00    -0.262 C  
HETATM    4  C   UNL     1      -9.737  18.133  68.216  1.00  0.00    -0.337 C  
HETATM    5  C   UNL     1      -8.207  17.826  68.058  1.00  0.00    -0.248 C  
HETATM    6  C   UNL     1      -9.822  19.456  69.039  1.00  0.00    -0.487 C  
HETATM    7  C   UNL     1     -10.413  17.082  69.133  1.00  0.00    -0.323 C  
HETATM    8  O   UNL     1     -10.982  17.596  64.756  1.00  0.00    -0.917 OA 
ENDROOT
BRANCH   3   9
HETATM    9  C   UNL     1      -9.757  15.962  66.041  1.00  0.00    -0.343 C  
BRANCH   9  10
HETATM   10  N   UNL     1     -10.629  14.796  66.302  1.00  0.00    -0.297 NA 
BRANCH  10  11
HETATM   11  C   UNL     1     -10.899  14.034  65.070  1.00  0.00    -0.392 C  
BRANCH  11  12
HETATM   12  C   UNL     1     -12.335  14.198  64.524  1.00  0.00    -0.392 C  
HETATM   13  H   UNL     1     -13.530  13.259  63.265  1.00  0.00     0.000 HD 
HETATM   14  O   UNL     1     -12.647  13.158  63.601  1.00  0.00    -0.705 OA 
ENDBRANCH  11  12
ENDBRANCH  10  11
BRANCH  10  15
HETATM   15  C   UNL     1     -10.132  13.931  67.409  1.00  0.00    -0.244 C  
BRANCH  15  16
HETATM   16  C   UNL     1      -9.505  12.581  66.937  1.00  0.00    -0.219 C  
HETATM   17  C   UNL     1      -9.490  10.041  67.014  1.00  0.00    -0.164 C  
HETATM   18  C   UNL     1     -11.470  11.381  67.910  1.00  0.00    -0.291 C  
HETATM   19  N   UNL     1     -10.131  11.384  67.325  1.00  0.00    -0.190 N  
HETATM   20  C   UNL     1      -7.915  10.005  67.074  1.00  0.00    -0.106 C  
HETATM   21  O   UNL     1      -8.459  12.551  66.285  1.00  0.00     0.095 OA 
HETATM   22  C   UNL     1      -9.989   8.919  67.953  1.00  0.00    -0.223 C  
HETATM   23  C   UNL     1      -9.888   9.624  65.581  1.00  0.00    -0.369 C  
BRANCH  20  24
HETATM   24  C   UNL     1      -7.218  10.391  68.363  1.00  0.00    -0.080 A  
HETATM   25  C   UNL     1      -7.173   9.452  69.405  1.00  0.00    -0.066 A  
HETATM   26  C   UNL     1      -6.484   9.728  70.588  1.00  0.00    -0.109 A  
HETATM   27  C   UNL     1      -5.809  10.936  70.739  1.00  0.00    -0.073 A  
HETATM   28  C   UNL     1      -5.824  11.867  69.712  1.00  0.00    -0.120 A  
HETATM   29  C   UNL     1      -6.531  11.604  68.545  1.00  0.00    -0.055 A  
ENDBRANCH  20  24
ENDBRANCH  15  16
ENDBRANCH  10  15
ENDBRANCH   9  10
ENDBRANCH   3   9
BRANCH   5  30
HETATM   30  C   UNL     1      -7.420  18.781  67.178  1.00  0.00    -0.234 A  
HETATM   31  C   UNL     1      -6.409  19.411  65.051  1.00  0.00    -0.305 A  
HETATM   32  C   UNL     1      -6.971  19.998  67.707  1.00  0.00    -0.305 A  
HETATM   33  C   UNL     1      -7.109  18.501  65.841  1.00  0.00    -0.287 A  
HETATM   34  C   UNL     1      -5.938  20.593  65.601  1.00  0.00    -0.258 A  
HETATM   35  C   UNL     1      -6.226  20.889  66.928  1.00  0.00    -0.341 A  
ENDBRANCH   5  30
TORSDOF 8
ENDMDL
MODEL       40
REMARK 921   NORMALIZED FREE ENERGY PREDICTED BY IDOCK:   -5.94 KCAL/MOL
REMARK 922        TOTAL FREE ENERGY PREDICTED BY IDOCK:   -9.52 KCAL/MOL
REMARK 923 INTER-LIGAND FREE ENERGY PREDICTED BY IDOCK:   -9.26 KCAL/MOL
REMARK 924 INTRA-LIGAND FREE ENERGY PREDICTED BY IDOCK:   -0.26 KCAL/MOL
REMARK 927      BINDING AFFINITY PREDICTED BY RF-SCORE:    0.00 PKD
ROOT
HETATM    1  C   UNL     1     -10.655   6.109  68.940  1.00  0.00    -0.276 C  
HETATM    2  N   UNL     1      -9.822   7.312  69.008  1.00  0.00    -0.162 N  
HETATM    3  C   UNL     1      -9.941   8.172  67.907  1.00  0.00    -0.182 C  
HETATM    4  C   UNL     1      -9.034   7.559  70.282  1.00  0.00    -0.147 C  
HETATM    5  C   UNL     1      -9.332   8.943  70.959  1.00  0.00    -0.313 C  
HETATM    6  C   UNL     1      -9.329   6.481  71.370  1.00  0.00    -0.154 C  
HETATM    7  C   UNL     1      -7.518   7.402  70.005  1.00  0.00    -0.084 C  
HETATM    8  O   UNL     1     -10.758   7.928  67.010  1.00  0.00    -0.339 OA 
ENDROOT
BRANCH   3   9
HETATM    9  C   UNL     1      -9.083   9.445  67.856  1.00  0.00    -0.129 C  
BRANCH   9  10
HETATM   10  N   UNL     1      -8.942  10.085  66.530  1.00  0.00    -0.142 NA 
BRANCH  10  11
HETATM   11  C   UNL     1      -7.950   9.387  65.692  1.00  0.00    -0.103 C  
BRANCH  11  12
HETATM   12  C   UNL     1      -8.405   9.150  64.234  1.00  0.00    -0.173 C  
HETATM   13  H   UNL     1      -8.456   7.650  62.952  1.00  0.00     0.000 HD 
HETATM   14  O   UNL     1      -8.177   7.797  63.848  1.00  0.00    -0.100 OA 
ENDBRANCH  11  12
ENDBRANCH  10  11
BRANCH  10  15
HETATM   15  C   UNL     1     -10.244  10.275  65.831  1.00  0.00    -0.223 C  
BRANCH  15  16
HETATM   16  C   UNL     1     -10.988  11.596  66.207  1.00  0.00    -0.289 C  
HETATM   17  C   UNL     1     -11.521  14.022  65.675  1.00  0.00    -0.319 C  
HETATM   18  C   UNL     1     -10.447  12.492  63.937  1.00  0.00    -0.434 C  
HETATM   19  N   UNL     1     -10.935  12.670  65.302  1.00  0.00    -0.280 N  
HETATM   20  C   UNL     1     -11.380  14.434  67.190  1.00  0.00    -0.356 C  
HETATM   21  O   UNL     1     -11.567  11.722  67.288  1.00  0.00    -0.461 OA 
HETATM   22  C   UNL     1     -10.908  15.177  64.848  1.00  0.00    -0.437 C  
HETATM   23  C   UNL     1     -13.032  14.010  65.358  1.00  0.00    -0.346 C  
BRANCH  20  24
HETATM   24  C   UNL     1      -9.997  14.515  67.806  1.00  0.00    -0.225 A  
HETATM   25  C   UNL     1      -9.650  15.672  68.519  1.00  0.00    -0.199 A  
HETATM   26  C   UNL     1      -8.417  15.771  69.166  1.00  0.00    -0.251 A  
HETATM   27  C   UNL     1      -7.521  14.706  69.131  1.00  0.00    -0.139 A  
HETATM   28  C   UNL     1      -7.855  13.546  68.450  1.00  0.00    -0.143 A  
HETATM   29  C   UNL     1      -9.072  13.456  67.784  1.00  0.00    -0.202 A  
ENDBRANCH  20  24
ENDBRANCH  15  16
ENDBRANCH  10  15
ENDBRANCH   9  10
ENDBRANCH   3   9
BRANCH   5  30
HETATM   30  C   UNL     1     -10.787   9.230  71.284  1.00  0.00    -0.417 A  
HETATM   31  C   UNL     1     -12.862   8.752  72.472  1.00  0.00    -0.380 A  
HETATM   32  C   UNL     1     -11.432  10.314  70.675  1.00  0.00    -0.435 A  
HETATM   33  C   UNL     1     -11.535   8.447  72.173  1.00  0.00    -0.442 A  
HETATM   34  C   UNL     1     -13.496   9.805  71.830  1.00  0.00    -0.485 A  
HETATM   35  C   UNL     1     -12.777  10.591  70.937  1.00  0.00    -0.495 A  
ENDBRANCH   5  30
TORSDOF 8
ENDMDL
MODEL       41
REMARK 921   NORMALIZED FREE ENERGY PREDICTED BY IDOCK:   -5.94 KCAL/MOL
REMARK 922        TOTAL FREE ENERGY PREDICTED BY IDOCK:   -9.52 KCAL/MOL
REMARK 923 INTER-LIGAND FREE ENERGY PREDICTED BY IDOCK:   -8.77 KCAL/MOL
REMARK 924 INTRA-LIGAND FREE ENERGY PREDICTED BY IDOCK:   -0.75 KCAL/MOL
REMARK 927      BINDING AFFINITY PREDICTED BY RF-SCORE:    0.00 PKD
ROOT
HETATM    1  C   UNL     1      -9.866   7.588  73.220  1.00  0.00    -0.288 C  
HETATM    2  N   UNL     1     -10.611   7.753  71.970  1.00  0.00    -0.217 N  
HETATM    3  C   UNL     1     -10.238   8.870  71.209  1.00  0.00    -0.291 C  
HETATM    4  C   UNL     1     -11.590   6.662  71.577  1.00  0.00    -0.309 C  
HETATM    5  C   UNL     1     -11.319   6.038  70.163  1.00  0.00    -0.351 C  
HETATM    6  C   UNL     1     -11.570   5.468  72.580  1.00  0.00    -0.272 C  
HETATM    7  C   UNL     1     -13.042   7.197  71.668  1.00  0.00    -0.410 C  
HETATM    8  O   UNL     1      -9.296   9.586  71.569  1.00  0.00    -0.200 OA 
ENDROOT
BRANCH   3   9
HETATM    9  C   UNL     1     -10.982   9.162  69.896  1.00  0.00    -0.204 C  
BRANCH   9  10
HETATM   10  N   UNL     1     -10.137   9.406  68.707  1.00  0.00    -0.186 NA 
BRANCH  10  11
HETATM   11  C   UNL     1     -10.709   8.787  67.498  1.00  0.00    -0.143 C  
BRANCH  11  12
HETATM   12  C   UNL     1      -9.838   7.669  66.883  1.00  0.00    -0.234 C  
HETATM   13  H   UNL     1      -7.973   7.443  66.280  1.00  0.00     0.000 HD 
HETATM   14  O   UNL     1      -8.509   8.130  66.658  1.00  0.00    -0.121 OA 
ENDBRANCH  11  12
ENDBRANCH  10  11
BRANCH  10  15
HETATM   15  C   UNL     1      -9.808  10.845  68.508  1.00  0.00    -0.184 C  
BRANCH  15  16
HETATM   16  C   UNL     1     -10.859  11.634  67.664  1.00  0.00    -0.225 C  
HETATM   17  C   UNL     1     -11.400  13.029  65.611  1.00  0.00    -0.301 C  
HETATM   18  C   UNL     1      -9.217  11.716  65.781  1.00  0.00    -0.173 C  
HETATM   19  N   UNL     1     -10.465  12.137  66.413  1.00  0.00    -0.226 N  
HETATM   20  C   UNL     1     -12.303  14.007  66.455  1.00  0.00    -0.468 C  
HETATM   21  O   UNL     1     -11.992  11.860  68.096  1.00  0.00    -0.496 OA 
HETATM   22  C   UNL     1     -10.641  13.908  64.588  1.00  0.00    -0.432 C  
HETATM   23  C   UNL     1     -12.358  12.134  64.795  1.00  0.00    -0.310 C  
BRANCH  20  24
HETATM   24  C   UNL     1     -11.641  15.006  67.383  1.00  0.00    -0.304 A  
HETATM   25  C   UNL     1     -12.006  15.002  68.738  1.00  0.00    -0.282 A  
HETATM   26  C   UNL     1     -11.378  15.852  69.650  1.00  0.00    -0.342 A  
HETATM   27  C   UNL     1     -10.360  16.702  69.227  1.00  0.00    -0.318 A  
HETATM   28  C   UNL     1      -9.971  16.705  67.898  1.00  0.00    -0.254 A  
HETATM   29  C   UNL     1     -10.613  15.878  66.983  1.00  0.00    -0.306 A  
ENDBRANCH  20  24
ENDBRANCH  15  16
ENDBRANCH  10  15
ENDBRANCH   9  10
ENDBRANCH   3   9
BRANCH   5  30
HETATM   30  C   UNL     1      -9.927   5.476  69.936  1.00  0.00    -0.282 A  
HETATM   31  C   UNL     1      -7.509   5.727  69.740  1.00  0.00    -0.075 A  
HETATM   32  C   UNL     1      -9.761   4.101  69.723  1.00  0.00    -0.278 A  
HETATM   33  C   UNL     1      -8.777   6.277  69.923  1.00  0.00    -0.141 A  
HETATM   34  C   UNL     1      -7.368   4.371  69.491  1.00  0.00    -0.051 A  
HETATM   35  C   UNL     1      -8.495   3.557  69.490  1.00  0.00    -0.095 A  
ENDBRANCH   5  30
TORSDOF 8
ENDMDL
MODEL       42
REMARK 921   NORMALIZED FREE ENERGY PREDICTED BY IDOCK:   -5.91 KCAL/MOL
REMARK 922        TOTAL FREE ENERGY PREDICTED BY IDOCK:   -9.47 KCAL/MOL
REMARK 923 INTER-LIGAND FREE ENERGY PREDICTED BY IDOCK:   -8.49 KCAL/MOL
REMARK 924 INTRA-LIGAND FREE ENERGY PREDICTED BY IDOCK:   -0.99 KCAL/MOL
REMARK 927      BINDING AFFINITY PREDICTED BY RF-SCORE:    0.00 PKD
ROOT
HETATM    1  C   UNL     1      -8.191  13.073  67.210  1.00  0.00    -0.172 C  
HETATM    2  N   UNL     1      -9.471  12.364  67.288  1.00  0.00    -0.187 N  
HETATM    3  C   UNL     1      -9.515  11.335  68.239  1.00  0.00    -0.190 C  
HETATM    4  C   UNL     1     -10.623  12.884  66.447  1.00  0.00    -0.271 C  
HETATM    5  C   UNL     1     -11.910  13.236  67.273  1.00  0.00    -0.421 C  
HETATM    6  C   UNL     1     -10.244  14.185  65.676  1.00  0.00    -0.357 C  
HETATM    7  C   UNL     1     -10.956  11.871  65.323  1.00  0.00    -0.354 C  
HETATM    8  O   UNL     1      -8.548  11.130  68.983  1.00  0.00    -0.125 OA 
ENDROOT
BRANCH   3   9
HETATM    9  C   UNL     1     -10.797  10.500  68.379  1.00  0.00    -0.240 C  
BRANCH   9  10
HETATM   10  N   UNL     1     -11.166  10.095  69.752  1.00  0.00    -0.259 NA 
BRANCH  10  11
HETATM   11  C   UNL     1     -12.534  10.522  70.095  1.00  0.00    -0.226 C  
BRANCH  11  12
HETATM   12  C   UNL     1     -12.895  10.360  71.589  1.00  0.00    -0.474 C  
HETATM   13  H   UNL     1     -13.607  11.487  73.045  1.00  0.00     0.000 HD 
HETATM   14  O   UNL     1     -13.385  11.586  72.126  1.00  0.00    -0.477 OA 
ENDBRANCH  11  12
ENDBRANCH  10  11
BRANCH  10  15
HETATM   15  C   UNL     1     -10.940   8.646  70.017  1.00  0.00    -0.203 C  
BRANCH  15  16
HETATM   16  C   UNL     1      -9.771   8.349  71.009  1.00  0.00    -0.174 C  
HETATM   17  C   UNL     1      -7.508   7.282  71.450  1.00  0.00    -0.082 C  
HETATM   18  C   UNL     1      -8.383   7.592  69.072  1.00  0.00    -0.128 C  
HETATM   19  N   UNL     1      -8.618   7.720  70.508  1.00  0.00    -0.131 N  
HETATM   20  C   UNL     1      -7.976   6.762  72.863  1.00  0.00    -0.107 C  
HETATM   21  O   UNL     1      -9.866   8.607  72.210  1.00  0.00    -0.305 OA 
HETATM   22  C   UNL     1      -6.629   6.164  70.843  1.00  0.00    -0.053 C  
HETATM   23  C   UNL     1      -6.574   8.484  71.708  1.00  0.00    -0.072 C  
BRANCH  20  24
HETATM   24  C   UNL     1      -8.930   5.587  72.938  1.00  0.00    -0.123 A  
HETATM   25  C   UNL     1      -9.816   5.513  74.023  1.00  0.00    -0.191 A  
HETATM   26  C   UNL     1     -10.762   4.490  74.106  1.00  0.00    -0.319 A  
HETATM   27  C   UNL     1     -10.854   3.539  73.094  1.00  0.00    -0.248 A  
HETATM   28  C   UNL     1     -10.003   3.608  72.003  1.00  0.00    -0.232 A  
HETATM   29  C   UNL     1      -9.043   4.610  71.932  1.00  0.00    -0.162 A  
ENDBRANCH  20  24
ENDBRANCH  15  16
ENDBRANCH  10  15
ENDBRANCH   9  10
ENDBRANCH   3   9
BRANCH   5  30
HETATM   30  C   UNL     1     -11.724  14.220  68.414  1.00  0.00    -0.373 A  
HETATM   31  C   UNL     1     -11.872  14.842  70.767  1.00  0.00    -0.368 A  
HETATM   32  C   UNL     1     -11.180  15.485  68.155  1.00  0.00    -0.343 A  
HETATM   33  C   UNL     1     -12.080  13.927  69.736  1.00  0.00    -0.404 A  
HETATM   34  C   UNL     1     -11.369  16.103  70.486  1.00  0.00    -0.392 A  
HETATM   35  C   UNL     1     -11.016  16.421  69.180  1.00  0.00    -0.324 A  
ENDBRANCH   5  30
TORSDOF 8
ENDMDL
MODEL       43
REMARK 921   NORMALIZED FREE ENERGY PREDICTED BY IDOCK:   -5.90 KCAL/MOL
REMARK 922        TOTAL FREE ENERGY PREDICTED BY IDOCK:   -9.47 KCAL/MOL
REMARK 923 INTER-LIGAND FREE ENERGY PREDICTED BY IDOCK:   -8.56 KCAL/MOL
REMARK 924 INTRA-LIGAND FREE ENERGY PREDICTED BY IDOCK:   -0.91 KCAL/MOL
REMARK 927      BINDING AFFINITY PREDICTED BY RF-SCORE:    0.00 PKD
ROOT
HETATM    1  C   UNL     1      -9.069  15.494  69.530  1.00  0.00    -0.260 C  
HETATM    2  N   UNL     1      -9.313  14.684  68.334  1.00  0.00    -0.195 N  
HETATM    3  C   UNL     1      -8.351  13.694  68.090  1.00  0.00    -0.166 C  
HETATM    4  C   UNL     1     -10.608  14.910  67.575  1.00  0.00    -0.266 C  
HETATM    5  C   UNL     1     -11.482  13.617  67.404  1.00  0.00    -0.365 C  
HETATM    6  C   UNL     1     -11.526  15.954  68.281  1.00  0.00    -0.320 C  
HETATM    7  C   UNL     1     -10.309  15.552  66.197  1.00  0.00    -0.327 C  
HETATM    8  O   UNL     1      -7.428  13.507  68.893  1.00  0.00    -0.094 OA 
ENDROOT
BRANCH   3   9
HETATM    9  C   UNL     1      -8.486  12.811  66.839  1.00  0.00    -0.102 C  
BRANCH   9  10
HETATM   10  N   UNL     1      -8.198  11.372  67.020  1.00  0.00    -0.153 NA 
BRANCH  10  11
HETATM   11  C   UNL     1      -6.776  11.068  66.781  1.00  0.00    -0.128 C  
BRANCH  11  12
HETATM   12  C   UNL     1      -6.511  10.228  65.512  1.00  0.00    -0.121 C  
HETATM   13  H   UNL     1      -6.009   8.370  65.075  1.00  0.00     0.000 HD 
HETATM   14  O   UNL     1      -6.172   8.887  65.855  1.00  0.00    -0.054 OA 
ENDBRANCH  11  12
ENDBRANCH  10  11
BRANCH  10  15
HETATM   15  C   UNL     1      -8.682  10.838  68.325  1.00  0.00    -0.136 C  
BRANCH  15  16
HETATM   16  C   UNL     1      -8.611   9.283  68.448  1.00  0.00    -0.124 C  
HETATM   17  C   UNL     1      -9.568   7.005  67.857  1.00  0.00    -0.123 C  
HETATM   18  C   UNL     1     -10.269   9.106  66.587  1.00  0.00    -0.258 C  
HETATM   19  N   UNL     1      -9.496   8.513  67.676  1.00  0.00    -0.143 N  
HETATM   20  C   UNL     1      -9.361   6.484  69.330  1.00  0.00    -0.141 C  
HETATM   21  O   UNL     1      -7.838   8.736  69.238  1.00  0.00    -0.096 OA 
HETATM   22  C   UNL     1     -10.913   6.417  67.369  1.00  0.00    -0.463 C  
HETATM   23  C   UNL     1      -8.465   6.351  66.996  1.00  0.00    -0.112 C  
BRANCH  20  24
HETATM   24  C   UNL     1     -10.291   6.972  70.422  1.00  0.00    -0.219 A  
HETATM   25  C   UNL     1      -9.743   7.699  71.490  1.00  0.00    -0.191 A  
HETATM   26  C   UNL     1     -10.562   8.232  72.487  1.00  0.00    -0.407 A  
HETATM   27  C   UNL     1     -11.943   8.069  72.420  1.00  0.00    -0.405 A  
HETATM   28  C   UNL     1     -12.505   7.374  71.361  1.00  0.00    -0.402 A  
HETATM   29  C   UNL     1     -11.688   6.819  70.382  1.00  0.00    -0.418 A  
ENDBRANCH  20  24
ENDBRANCH  15  16
ENDBRANCH  10  15
ENDBRANCH   9  10
ENDBRANCH   3   9
BRANCH   5  30
HETATM   30  C   UNL     1     -11.848  12.884  68.682  1.00  0.00    -0.347 A  
HETATM   31  C   UNL     1     -12.573  12.845  71.010  1.00  0.00    -0.376 A  
HETATM   32  C   UNL     1     -11.816  11.484  68.710  1.00  0.00    -0.394 A  
HETATM   33  C   UNL     1     -12.216  13.548  69.860  1.00  0.00    -0.356 A  
HETATM   34  C   UNL     1     -12.498  11.461  71.032  1.00  0.00    -0.486 A  
HETATM   35  C   UNL     1     -12.126  10.780  69.878  1.00  0.00    -0.410 A  
ENDBRANCH   5  30
TORSDOF 8
ENDMDL
MODEL       44
REMARK 921   NORMALIZED FREE ENERGY PREDICTED BY IDOCK:   -5.88 KCAL/MOL
REMARK 922        TOTAL FREE ENERGY PREDICTED BY IDOCK:   -9.44 KCAL/MOL
REMARK 923 INTER-LIGAND FREE ENERGY PREDICTED BY IDOCK:   -8.35 KCAL/MOL
REMARK 924 INTRA-LIGAND FREE ENERGY PREDICTED BY IDOCK:   -1.09 KCAL/MOL
REMARK 927      BINDING AFFINITY PREDICTED BY RF-SCORE:    0.00 PKD
ROOT
HETATM    1  C   UNL     1      -7.553  10.925  69.556  1.00  0.00    -0.050 C  
HETATM    2  N   UNL     1      -8.688  11.059  68.640  1.00  0.00    -0.158 N  
HETATM    3  C   UNL     1      -8.389  11.682  67.421  1.00  0.00    -0.152 C  
HETATM    4  C   UNL     1     -10.004  10.416  69.041  1.00  0.00    -0.214 C  
HETATM    5  C   UNL     1     -10.564   9.396  67.988  1.00  0.00    -0.278 C  
HETATM    6  C   UNL     1      -9.884   9.623  70.379  1.00  0.00    -0.315 C  
HETATM    7  C   UNL     1     -11.055  11.511  69.352  1.00  0.00    -0.287 C  
HETATM    8  O   UNL     1      -7.225  12.007  67.154  1.00  0.00    -0.139 OA 
ENDROOT
BRANCH   3   9
HETATM    9  C   UNL     1      -9.515  11.911  66.401  1.00  0.00    -0.228 C  
BRANCH   9  10
HETATM   10  N   UNL     1      -9.700  13.301  65.932  1.00  0.00    -0.223 NA 
BRANCH  10  11
HETATM   11  C   UNL     1     -10.905  13.436  65.093  1.00  0.00    -0.313 C  
BRANCH  11  12
HETATM   12  C   UNL     1     -12.228  13.122  65.827  1.00  0.00    -0.456 C  
HETATM   13  H   UNL     1     -14.060  13.852  65.901  1.00  0.00     0.000 HD 
HETATM   14  O   UNL     1     -13.246  14.045  65.450  1.00  0.00    -0.761 OA 
ENDBRANCH  11  12
ENDBRANCH  10  11
BRANCH  10  15
HETATM   15  C   UNL     1      -9.660  14.301  67.035  1.00  0.00    -0.257 C  
BRANCH  15  16
HETATM   16  C   UNL     1      -8.520  15.360  66.902  1.00  0.00    -0.252 C  
HETATM   17  C   UNL     1      -6.756  16.811  68.014  1.00  0.00    -0.143 C  
HETATM   18  C   UNL     1      -7.872  14.890  69.270  1.00  0.00    -0.158 C  
HETATM   19  N   UNL     1      -7.782  15.690  68.052  1.00  0.00    -0.123 N  
HETATM   20  C   UNL     1      -7.117  18.038  67.092  1.00  0.00    -0.212 C  
HETATM   21  O   UNL     1      -8.297  15.934  65.834  1.00  0.00    -0.064 OA 
HETATM   22  C   UNL     1      -6.465  17.390  69.418  1.00  0.00    -0.233 C  
HETATM   23  C   UNL     1      -5.420  16.241  67.488  1.00  0.00    -0.168 C  
BRANCH  20  24
HETATM   24  C   UNL     1      -8.401  18.801  67.350  1.00  0.00    -0.280 A  
HETATM   25  C   UNL     1      -9.244  19.077  66.263  1.00  0.00    -0.307 A  
HETATM   26  C   UNL     1     -10.471  19.715  66.453  1.00  0.00    -0.618 A  
HETATM   27  C   UNL     1     -10.886  20.066  67.735  1.00  0.00    -0.168 A  
HETATM   28  C   UNL     1     -10.077  19.782  68.823  1.00  0.00    -0.523 A  
HETATM   29  C   UNL     1      -8.843  19.171  68.633  1.00  0.00    -0.404 A  
ENDBRANCH  20  24
ENDBRANCH  15  16
ENDBRANCH  10  15
ENDBRANCH   9  10
ENDBRANCH   3   9
BRANCH   5  30
HETATM   30  C   UNL     1      -9.630   8.267  67.589  1.00  0.00    -0.187 A  
HETATM   31  C   UNL     1      -8.509   6.145  68.023  1.00  0.00    -0.116 A  
HETATM   32  C   UNL     1      -9.007   8.294  66.335  1.00  0.00    -0.202 A  
HETATM   33  C   UNL     1      -9.349   7.181  68.429  1.00  0.00    -0.135 A  
HETATM   34  C   UNL     1      -7.870   6.209  66.794  1.00  0.00    -0.104 A  
HETATM   35  C   UNL     1      -8.126   7.281  65.947  1.00  0.00    -0.125 A  
ENDBRANCH   5  30
TORSDOF 8
ENDMDL
MODEL       45
REMARK 921   NORMALIZED FREE ENERGY PREDICTED BY IDOCK:   -5.87 KCAL/MOL
REMARK 922        TOTAL FREE ENERGY PREDICTED BY IDOCK:   -9.42 KCAL/MOL
REMARK 923 INTER-LIGAND FREE ENERGY PREDICTED BY IDOCK:   -9.56 KCAL/MOL
REMARK 924 INTRA-LIGAND FREE ENERGY PREDICTED BY IDOCK:    0.13 KCAL/MOL
REMARK 927      BINDING AFFINITY PREDICTED BY RF-SCORE:    0.00 PKD
ROOT
HETATM    1  C   UNL     1      -9.849   4.999  71.842  1.00  0.00    -0.181 C  
HETATM    2  N   UNL     1      -9.296   6.315  71.518  1.00  0.00    -0.149 N  
HETATM    3  C   UNL     1      -9.037   6.524  70.155  1.00  0.00    -0.155 C  
HETATM    4  C   UNL     1      -9.182   7.334  72.637  1.00  0.00    -0.140 C  
HETATM    5  C   UNL     1      -9.925   8.686  72.350  1.00  0.00    -0.320 C  
HETATM    6  C   UNL     1      -9.776   6.800  73.977  1.00  0.00    -0.308 C  
HETATM    7  C   UNL     1      -7.691   7.591  72.970  1.00  0.00    -0.117 C  
HETATM    8  O   UNL     1      -9.340   5.661  69.323  1.00  0.00    -0.117 OA 
ENDROOT
BRANCH   3   9
HETATM    9  C   UNL     1      -8.418   7.857  69.707  1.00  0.00    -0.132 C  
BRANCH   9  10
HETATM   10  N   UNL     1      -9.238   8.683  68.795  1.00  0.00    -0.142 NA 
BRANCH  10  11
HETATM   11  C   UNL     1     -10.506   8.016  68.450  1.00  0.00    -0.163 C  
BRANCH  11  12
HETATM   12  C   UNL     1     -10.642   7.642  66.956  1.00  0.00    -0.336 C  
HETATM   13  H   UNL     1      -9.812   8.165  65.244  1.00  0.00     0.000 HD 
HETATM   14  O   UNL     1      -9.728   8.395  66.162  1.00  0.00    -0.224 OA 
ENDBRANCH  11  12
ENDBRANCH  10  11
BRANCH  10  15
HETATM   15  C   UNL     1      -9.442  10.074  69.289  1.00  0.00    -0.217 C  
BRANCH  15  16
HETATM   16  C   UNL     1     -10.428  10.924  68.426  1.00  0.00    -0.183 C  
HETATM   17  C   UNL     1     -10.799  12.818  66.775  1.00  0.00    -0.264 C  
HETATM   18  C   UNL     1      -8.465  11.878  67.208  1.00  0.00    -0.172 C  
HETATM   19  N   UNL     1      -9.889  11.868  67.536  1.00  0.00    -0.186 N  
HETATM   20  C   UNL     1     -12.080  13.308  67.552  1.00  0.00    -0.312 C  
HETATM   21  O   UNL     1     -11.650  10.815  68.551  1.00  0.00    -0.295 OA 
HETATM   22  C   UNL     1     -10.058  14.092  66.304  1.00  0.00    -0.307 C  
HETATM   23  C   UNL     1     -11.301  12.106  65.499  1.00  0.00    -0.393 C  
BRANCH  20  24
HETATM   24  C   UNL     1     -11.908  14.034  68.872  1.00  0.00    -0.390 A  
HETATM   25  C   UNL     1     -11.427  15.351  68.852  1.00  0.00    -0.354 A  
HETATM   26  C   UNL     1     -11.315  16.090  70.031  1.00  0.00    -0.353 A  
HETATM   27  C   UNL     1     -11.706  15.532  71.246  1.00  0.00    -0.457 A  
HETATM   28  C   UNL     1     -12.204  14.240  71.282  1.00  0.00    -0.426 A  
HETATM   29  C   UNL     1     -12.290  13.494  70.113  1.00  0.00    -0.345 A  
ENDBRANCH  20  24
ENDBRANCH  15  16
ENDBRANCH  10  15
ENDBRANCH   9  10
ENDBRANCH   3   9
BRANCH   5  30
HETATM   30  C   UNL     1     -11.400   8.579  72.006  1.00  0.00    -0.425 A  
HETATM   31  C   UNL     1     -13.420   7.285  71.569  1.00  0.00    -0.439 A  
HETATM   32  C   UNL     1     -12.154   9.745  71.821  1.00  0.00    -0.425 A  
HETATM   33  C   UNL     1     -12.058   7.351  71.857  1.00  0.00    -0.341 A  
HETATM   34  C   UNL     1     -14.142   8.448  71.349  1.00  0.00    -0.363 A  
HETATM   35  C   UNL     1     -13.509   9.678  71.482  1.00  0.00    -0.430 A  
ENDBRANCH   5  30
TORSDOF 8
ENDMDL
MODEL       46
REMARK 921   NORMALIZED FREE ENERGY PREDICTED BY IDOCK:   -5.87 KCAL/MOL
REMARK 922        TOTAL FREE ENERGY PREDICTED BY IDOCK:   -9.42 KCAL/MOL
REMARK 923 INTER-LIGAND FREE ENERGY PREDICTED BY IDOCK:   -8.42 KCAL/MOL
REMARK 924 INTRA-LIGAND FREE ENERGY PREDICTED BY IDOCK:   -1.00 KCAL/MOL
REMARK 927      BINDING AFFINITY PREDICTED BY RF-SCORE:    0.00 PKD
ROOT
HETATM    1  C   UNL     1      -9.355   6.832  68.566  1.00  0.00    -0.126 C  
HETATM    2  N   UNL     1      -9.410   8.286  68.393  1.00  0.00    -0.135 N  
HETATM    3  C   UNL     1     -10.290   8.725  67.394  1.00  0.00    -0.280 C  
HETATM    4  C   UNL     1      -8.629   9.147  69.368  1.00  0.00    -0.138 C  
HETATM    5  C   UNL     1      -9.502  10.211  70.123  1.00  0.00     0.006 C  
HETATM    6  C   UNL     1      -7.940   8.297  70.479  1.00  0.00    -0.099 C  
HETATM    7  C   UNL     1      -7.445   9.832  68.639  1.00  0.00    -0.075 C  
HETATM    8  O   UNL     1     -10.999   7.914  66.785  1.00  0.00    -0.115 OA 
ENDROOT
BRANCH   3   9
HETATM    9  C   UNL     1     -10.398  10.229  67.100  1.00  0.00    -0.238 C  
BRANCH   9  10
HETATM   10  N   UNL     1      -9.417  10.779  66.139  1.00  0.00    -0.181 NA 
BRANCH  10  11
HETATM   11  C   UNL     1      -9.469  10.074  64.846  1.00  0.00    -0.293 C  
BRANCH  11  12
HETATM   12  C   UNL     1     -10.071  10.906  63.692  1.00  0.00    -0.355 C  
HETATM   13  H   UNL     1     -10.024  10.907  61.719  1.00  0.00     0.000 HD 
HETATM   14  O   UNL     1      -9.654  10.396  62.429  1.00  0.00    -0.265 OA 
ENDBRANCH  11  12
ENDBRANCH  10  11
BRANCH  10  15
HETATM   15  C   UNL     1      -9.514  12.258  65.985  1.00  0.00    -0.189 C  
BRANCH  15  16
HETATM   16  C   UNL     1      -9.644  13.037  67.332  1.00  0.00    -0.211 C  
HETATM   17  C   UNL     1     -10.938  14.667  68.789  1.00  0.00    -0.258 C  
HETATM   18  C   UNL     1     -11.995  13.619  66.715  1.00  0.00    -0.414 C  
HETATM   19  N   UNL     1     -10.815  13.779  67.561  1.00  0.00    -0.263 N  
HETATM   20  C   UNL     1      -9.610  15.380  69.253  1.00  0.00    -0.268 C  
HETATM   21  O   UNL     1      -8.728  13.052  68.157  1.00  0.00    -0.180 OA 
HETATM   22  C   UNL     1     -11.992  15.783  68.605  1.00  0.00    -0.165 C  
HETATM   23  C   UNL     1     -11.415  13.804  69.977  1.00  0.00    -0.188 C  
BRANCH  20  24
HETATM   24  C   UNL     1      -8.885  16.290  68.282  1.00  0.00    -0.188 A  
HETATM   25  C   UNL     1      -9.513  17.481  67.887  1.00  0.00    -0.277 A  
HETATM   26  C   UNL     1      -8.862  18.389  67.050  1.00  0.00    -0.271 A  
HETATM   27  C   UNL     1      -7.564  18.134  66.616  1.00  0.00    -0.259 A  
HETATM   28  C   UNL     1      -6.919  16.974  67.013  1.00  0.00    -0.228 A  
HETATM   29  C   UNL     1      -7.576  16.056  67.824  1.00  0.00    -0.157 A  
ENDBRANCH  20  24
ENDBRANCH  15  16
ENDBRANCH  10  15
ENDBRANCH   9  10
ENDBRANCH   3   9
BRANCH   5  30
HETATM   30  C   UNL     1     -10.702   9.673  70.881  1.00  0.00    -0.402 A  
HETATM   31  C   UNL     1     -11.730   8.153  72.488  1.00  0.00    -0.457 A  
HETATM   32  C   UNL     1     -11.963  10.249  70.680  1.00  0.00    -0.436 A  
HETATM   33  C   UNL     1     -10.614   8.607  71.786  1.00  0.00    -0.395 A  
HETATM   34  C   UNL     1     -12.977   8.709  72.246  1.00  0.00    -0.430 A  
HETATM   35  C   UNL     1     -13.092   9.762  71.347  1.00  0.00    -0.489 A  
ENDBRANCH   5  30
TORSDOF 8
ENDMDL
MODEL       47
REMARK 921   NORMALIZED FREE ENERGY PREDICTED BY IDOCK:   -5.87 KCAL/MOL
REMARK 922        TOTAL FREE ENERGY PREDICTED BY IDOCK:   -9.42 KCAL/MOL
REMARK 923 INTER-LIGAND FREE ENERGY PREDICTED BY IDOCK:   -8.87 KCAL/MOL
REMARK 924 INTRA-LIGAND FREE ENERGY PREDICTED BY IDOCK:   -0.55 KCAL/MOL
REMARK 927      BINDING AFFINITY PREDICTED BY RF-SCORE:    0.00 PKD
ROOT
HETATM    1  C   UNL     1     -10.643   9.382  66.614  1.00  0.00    -0.100 C  
HETATM    2  N   UNL     1      -9.993  10.502  67.297  1.00  0.00    -0.179 N  
HETATM    3  C   UNL     1     -10.795  11.643  67.447  1.00  0.00    -0.250 C  
HETATM    4  C   UNL     1      -8.605  10.278  67.869  1.00  0.00    -0.118 C  
HETATM    5  C   UNL     1      -8.489  10.579  69.404  1.00  0.00    -0.106 C  
HETATM    6  C   UNL     1      -8.129   8.803  67.687  1.00  0.00    -0.106 C  
HETATM    7  C   UNL     1      -7.564  11.104  67.071  1.00  0.00    -0.135 C  
HETATM    8  O   UNL     1     -11.977  11.628  67.083  1.00  0.00    -0.614 OA 
ENDROOT
BRANCH   3   9
HETATM    9  C   UNL     1     -10.201  12.892  68.116  1.00  0.00    -0.239 C  
BRANCH   9  10
HETATM   10  N   UNL     1      -9.976  14.059  67.236  1.00  0.00    -0.239 NA 
BRANCH  10  11
HETATM   11  C   UNL     1      -9.789  13.653  65.832  1.00  0.00    -0.246 C  
BRANCH  11  12
HETATM   12  C   UNL     1     -10.753  14.338  64.838  1.00  0.00    -0.432 C  
HETATM   13  H   UNL     1     -12.192  13.799  63.600  1.00  0.00     0.000 HD 
HETATM   14  O   UNL     1     -11.599  13.378  64.211  1.00  0.00    -0.372 OA 
ENDBRANCH  11  12
ENDBRANCH  10  11
BRANCH  10  15
HETATM   15  C   UNL     1     -11.015  15.116  67.388  1.00  0.00    -0.314 C  
BRANCH  15  16
HETATM   16  C   UNL     1     -10.475  16.472  67.945  1.00  0.00    -0.313 C  
HETATM   17  C   UNL     1      -9.610  18.819  67.500  1.00  0.00    -0.301 C  
HETATM   18  C   UNL     1     -10.782  17.473  65.675  1.00  0.00    -0.089 C  
HETATM   19  N   UNL     1     -10.263  17.525  67.039  1.00  0.00    -0.317 N  
HETATM   20  C   UNL     1      -8.491  18.666  68.599  1.00  0.00    -0.337 C  
HETATM   21  O   UNL     1     -10.189  16.610  69.136  1.00  0.00    -0.278 OA 
HETATM   22  C   UNL     1      -8.970  19.603  66.330  1.00  0.00    -0.427 C  
HETATM   23  C   UNL     1     -10.698  19.736  68.100  1.00  0.00    -0.232 C  
BRANCH  20  24
HETATM   24  C   UNL     1      -7.285  17.796  68.308  1.00  0.00    -0.237 A  
HETATM   25  C   UNL     1      -6.920  16.822  69.250  1.00  0.00    -0.216 A  
HETATM   26  C   UNL     1      -5.861  15.947  69.001  1.00  0.00    -0.111 A  
HETATM   27  C   UNL     1      -5.166  16.015  67.797  1.00  0.00    -0.148 A  
HETATM   28  C   UNL     1      -5.525  16.955  66.845  1.00  0.00    -0.182 A  
HETATM   29  C   UNL     1      -6.562  17.844  67.102  1.00  0.00    -0.196 A  
ENDBRANCH  20  24
ENDBRANCH  15  16
ENDBRANCH  10  15
ENDBRANCH   9  10
ENDBRANCH   3   9
BRANCH   5  30
HETATM   30  C   UNL     1      -9.457   9.834  70.307  1.00  0.00    -0.250 A  
HETATM   31  C   UNL     1      -9.972   8.121  71.964  1.00  0.00    -0.299 A  
HETATM   32  C   UNL     1     -10.806  10.210  70.333  1.00  0.00    -0.365 A  
HETATM   33  C   UNL     1      -9.065   8.767  71.125  1.00  0.00    -0.285 A  
HETATM   34  C   UNL     1     -11.311   8.480  71.948  1.00  0.00    -0.399 A  
HETATM   35  C   UNL     1     -11.726   9.530  71.138  1.00  0.00    -0.438 A  
ENDBRANCH   5  30
TORSDOF 8
ENDMDL
MODEL       48
REMARK 921   NORMALIZED FREE ENERGY PREDICTED BY IDOCK:   -5.84 KCAL/MOL
REMARK 922        TOTAL FREE ENERGY PREDICTED BY IDOCK:   -9.37 KCAL/MOL
REMARK 923 INTER-LIGAND FREE ENERGY PREDICTED BY IDOCK:   -8.76 KCAL/MOL
REMARK 924 INTRA-LIGAND FREE ENERGY PREDICTED BY IDOCK:   -0.60 KCAL/MOL
REMARK 927      BINDING AFFINITY PREDICTED BY RF-SCORE:    0.00 PKD
ROOT
HETATM    1  C   UNL     1      -9.727  14.982  66.293  1.00  0.00    -0.291 C  
HETATM    2  N   UNL     1      -9.895  13.641  66.858  1.00  0.00    -0.254 N  
HETATM    3  C   UNL     1      -8.759  13.129  67.500  1.00  0.00    -0.201 C  
HETATM    4  C   UNL     1     -11.276  13.015  66.802  1.00  0.00    -0.298 C  
HETATM    5  C   UNL     1     -11.840  12.584  68.201  1.00  0.00    -0.371 C  
HETATM    6  C   UNL     1     -12.336  13.987  66.198  1.00  0.00    -0.491 C  
HETATM    7  C   UNL     1     -11.274  11.815  65.821  1.00  0.00    -0.337 C  
HETATM    8  O   UNL     1      -7.743  13.824  67.623  1.00  0.00    -0.150 OA 
ENDROOT
BRANCH   3   9
HETATM    9  C   UNL     1      -8.811  11.713  68.095  1.00  0.00    -0.164 C  
BRANCH   9  10
HETATM   10  N   UNL     1      -7.507  11.068  68.361  1.00  0.00    -0.094 NA 
BRANCH  10  11
HETATM   11  C   UNL     1      -7.398  10.621  69.762  1.00  0.00    -0.108 C  
BRANCH  11  12
HETATM   12  C   UNL     1      -6.037  10.933  70.424  1.00  0.00    -0.129 C  
HETATM   13  H   UNL     1      -5.086  10.462  72.088  1.00  0.00     0.000 HD 
HETATM   14  O   UNL     1      -5.923  10.271  71.681  1.00  0.00    -0.306 OA 
ENDBRANCH  11  12
ENDBRANCH  10  11
BRANCH  10  15
HETATM   15  C   UNL     1      -7.181   9.984  67.392  1.00  0.00    -0.085 C  
BRANCH  15  16
HETATM   16  C   UNL     1      -7.753   8.583  67.779  1.00  0.00    -0.103 C  
HETATM   17  C   UNL     1      -9.537   6.801  67.476  1.00  0.00    -0.127 C  
HETATM   18  C   UNL     1      -9.287   8.718  65.810  1.00  0.00    -0.191 C  
HETATM   19  N   UNL     1      -8.853   8.092  67.056  1.00  0.00    -0.130 N  
HETATM   20  C   UNL     1      -9.603   6.536  69.029  1.00  0.00    -0.135 C  
HETATM   21  O   UNL     1      -7.292   7.939  68.724  1.00  0.00    -0.082 OA 
HETATM   22  C   UNL     1     -10.991   6.709  66.956  1.00  0.00    -0.463 C  
HETATM   23  C   UNL     1      -8.773   5.611  66.855  1.00  0.00    -0.113 C  
BRANCH  20  24
HETATM   24  C   UNL     1     -10.283   7.553  69.923  1.00  0.00    -0.210 A  
HETATM   25  C   UNL     1     -10.360   7.287  71.298  1.00  0.00    -0.204 A  
HETATM   26  C   UNL     1     -10.914   8.221  72.177  1.00  0.00    -0.396 A  
HETATM   27  C   UNL     1     -11.376   9.444  71.698  1.00  0.00    -0.452 A  
HETATM   28  C   UNL     1     -11.287   9.733  70.346  1.00  0.00    -0.362 A  
HETATM   29  C   UNL     1     -10.761   8.794  69.467  1.00  0.00    -0.196 A  
ENDBRANCH  20  24
ENDBRANCH  15  16
ENDBRANCH  10  15
ENDBRANCH   9  10
ENDBRANCH   3   9
BRANCH   5  30
HETATM   30  C   UNL     1     -11.896  13.668  69.263  1.00  0.00    -0.395 A  
HETATM   31  C   UNL     1     -11.665  15.985  69.987  1.00  0.00    -0.284 A  
HETATM   32  C   UNL     1     -12.273  13.338  70.571  1.00  0.00    -0.416 A  
HETATM   33  C   UNL     1     -11.578  15.007  68.998  1.00  0.00    -0.342 A  
HETATM   34  C   UNL     1     -12.002  15.634  71.286  1.00  0.00    -0.467 A  
HETATM   35  C   UNL     1     -12.313  14.310  71.575  1.00  0.00    -0.417 A  
ENDBRANCH   5  30
TORSDOF 8
ENDMDL
MODEL       49
REMARK 921   NORMALIZED FREE ENERGY PREDICTED BY IDOCK:   -5.77 KCAL/MOL
REMARK 922        TOTAL FREE ENERGY PREDICTED BY IDOCK:   -9.27 KCAL/MOL
REMARK 923 INTER-LIGAND FREE ENERGY PREDICTED BY IDOCK:   -8.41 KCAL/MOL
REMARK 924 INTRA-LIGAND FREE ENERGY PREDICTED BY IDOCK:   -0.86 KCAL/MOL
REMARK 927      BINDING AFFINITY PREDICTED BY RF-SCORE:    0.00 PKD
ROOT
HETATM    1  C   UNL     1      -8.911  13.346  67.165  1.00  0.00    -0.222 C  
HETATM    2  N   UNL     1      -9.252  11.933  67.351  1.00  0.00    -0.173 N  
HETATM    3  C   UNL     1      -8.376  11.223  68.185  1.00  0.00    -0.143 C  
HETATM    4  C   UNL     1     -10.549  11.430  66.744  1.00  0.00    -0.255 C  
HETATM    5  C   UNL     1     -11.524  10.765  67.779  1.00  0.00    -0.283 C  
HETATM    6  C   UNL     1     -11.362  12.576  66.068  1.00  0.00    -0.386 C  
HETATM    7  C   UNL     1     -10.244  10.455  65.579  1.00  0.00    -0.316 C  
HETATM    8  O   UNL     1      -7.447  11.807  68.756  1.00  0.00    -0.116 OA 
ENDROOT
BRANCH   3   9
HETATM    9  C   UNL     1      -8.616   9.724  68.418  1.00  0.00    -0.119 C  
BRANCH   9  10
HETATM   10  N   UNL     1      -7.489   8.964  69.001  1.00  0.00    -0.073 NA 
BRANCH  10  11
HETATM   11  C   UNL     1      -7.893   8.240  70.219  1.00  0.00    -0.092 C  
BRANCH  11  12
HETATM   12  C   UNL     1      -8.878   9.017  71.122  1.00  0.00    -0.215 C  
HETATM   13  H   UNL     1      -9.196   9.263  73.054  1.00  0.00     0.000 HD 
HETATM   14  O   UNL     1      -8.591   8.785  72.499  1.00  0.00    -0.403 OA 
ENDBRANCH  11  12
ENDBRANCH  10  11
BRANCH  10  15
HETATM   15  C   UNL     1      -6.807   8.080  68.014  1.00  0.00    -0.072 C  
BRANCH  15  16
HETATM   16  C   UNL     1      -7.366   6.623  67.963  1.00  0.00    -0.097 C  
HETATM   17  C   UNL     1      -9.039   4.965  67.011  1.00  0.00    -0.118 C  
HETATM   18  C   UNL     1      -8.673   7.246  65.926  1.00  0.00    -0.131 C  
HETATM   19  N   UNL     1      -8.359   6.325  67.015  1.00  0.00    -0.109 N  
HETATM   20  C   UNL     1      -9.268   4.311  68.427  1.00  0.00    -0.190 C  
HETATM   21  O   UNL     1      -6.992   5.762  68.762  1.00  0.00    -0.063 OA 
HETATM   22  C   UNL     1     -10.420   4.999  66.316  1.00  0.00    -0.352 C  
HETATM   23  C   UNL     1      -8.166   3.979  66.204  1.00  0.00    -0.105 C  
BRANCH  20  24
HETATM   24  C   UNL     1     -10.082   5.061  69.462  1.00  0.00    -0.301 A  
HETATM   25  C   UNL     1      -9.840   4.799  70.819  1.00  0.00    -0.280 A  
HETATM   26  C   UNL     1     -10.511   5.511  71.816  1.00  0.00    -0.287 A  
HETATM   27  C   UNL     1     -11.415   6.513  71.472  1.00  0.00    -0.351 A  
HETATM   28  C   UNL     1     -11.650   6.801  70.137  1.00  0.00    -0.397 A  
HETATM   29  C   UNL     1     -11.003   6.075  69.144  1.00  0.00    -0.429 A  
ENDBRANCH  20  24
ENDBRANCH  15  16
ENDBRANCH  10  15
ENDBRANCH   9  10
ENDBRANCH   3   9
BRANCH   5  30
HETATM   30  C   UNL     1     -11.905  11.615  68.978  1.00  0.00    -0.391 A  
HETATM   31  C   UNL     1     -12.249  13.768  70.069  1.00  0.00    -0.407 A  
HETATM   32  C   UNL     1     -12.310  10.992  70.166  1.00  0.00    -0.389 A  
HETATM   33  C   UNL     1     -11.867  13.015  68.960  1.00  0.00    -0.362 A  
HETATM   34  C   UNL     1     -12.609  13.135  71.250  1.00  0.00    -0.382 A  
HETATM   35  C   UNL     1     -12.646  11.747  71.295  1.00  0.00    -0.401 A  
ENDBRANCH   5  30
TORSDOF 8
ENDMDL
MODEL       50
REMARK 921   NORMALIZED FREE ENERGY PREDICTED BY IDOCK:   -5.76 KCAL/MOL
REMARK 922        TOTAL FREE ENERGY PREDICTED BY IDOCK:   -9.26 KCAL/MOL
REMARK 923 INTER-LIGAND FREE ENERGY PREDICTED BY IDOCK:   -8.49 KCAL/MOL
REMARK 924 INTRA-LIGAND FREE ENERGY PREDICTED BY IDOCK:   -0.77 KCAL/MOL
REMARK 927      BINDING AFFINITY PREDICTED BY RF-SCORE:    0.00 PKD
ROOT
HETATM    1  C   UNL     1      -9.869   4.491  68.004  1.00  0.00    -0.092 C  
HETATM    2  N   UNL     1      -9.202   5.577  68.725  1.00  0.00    -0.120 N  
HETATM    3  C   UNL     1      -9.897   6.794  68.728  1.00  0.00    -0.143 C  
HETATM    4  C   UNL     1      -7.926   5.249  69.481  1.00  0.00    -0.088 C  
HETATM    5  C   UNL     1      -7.975   5.613  71.007  1.00  0.00    -0.111 C  
HETATM    6  C   UNL     1      -7.582   3.730  69.416  1.00  0.00    -0.052 C  
HETATM    7  C   UNL     1      -6.715   5.933  68.796  1.00  0.00    -0.064 C  
HETATM    8  O   UNL     1     -11.019   6.874  68.213  1.00  0.00    -0.202 OA 
ENDROOT
BRANCH   3   9
HETATM    9  C   UNL     1      -9.270   8.013  69.423  1.00  0.00    -0.152 C  
BRANCH   9  10
HETATM   10  N   UNL     1     -10.158   9.177  69.627  1.00  0.00    -0.190 NA 
BRANCH  10  11
HETATM   11  C   UNL     1     -10.592   9.290  71.031  1.00  0.00    -0.316 C  
BRANCH  11  12
HETATM   12  C   UNL     1     -12.126   9.314  71.222  1.00  0.00    -0.337 C  
HETATM   13  H   UNL     1     -13.510  10.632  71.713  1.00  0.00     0.000 HD 
HETATM   14  O   UNL     1     -12.568  10.616  71.595  1.00  0.00    -0.395 OA 
ENDBRANCH  11  12
ENDBRANCH  10  11
BRANCH  10  15
HETATM   15  C   UNL     1      -9.584  10.450  69.106  1.00  0.00    -0.213 C  
BRANCH  15  16
HETATM   16  C   UNL     1     -10.574  11.294  68.241  1.00  0.00    -0.197 C  
HETATM   17  C   UNL     1     -10.946  13.138  66.534  1.00  0.00    -0.286 C  
HETATM   18  C   UNL     1      -8.624  12.156  66.936  1.00  0.00    -0.191 C  
HETATM   19  N   UNL     1     -10.037  12.192  67.304  1.00  0.00    -0.202 N  
HETATM   20  C   UNL     1     -12.191  13.688  67.329  1.00  0.00    -0.317 C  
HETATM   21  O   UNL     1     -11.794  11.221  68.404  1.00  0.00    -0.482 OA 
HETATM   22  C   UNL     1     -10.188  14.376  65.998  1.00  0.00    -0.328 C  
HETATM   23  C   UNL     1     -11.501  12.395  65.300  1.00  0.00    -0.389 C  
BRANCH  20  24
HETATM   24  C   UNL     1     -11.964  14.454  68.617  1.00  0.00    -0.332 A  
HETATM   25  C   UNL     1     -12.377  13.869  69.823  1.00  0.00    -0.330 A  
HETATM   26  C   UNL     1     -12.131  14.499  71.045  1.00  0.00    -0.409 A  
HETATM   27  C   UNL     1     -11.446  15.711  71.081  1.00  0.00    -0.463 A  
HETATM   28  C   UNL     1     -11.011  16.293  69.902  1.00  0.00    -0.365 A  
HETATM   29  C   UNL     1     -11.279  15.680  68.683  1.00  0.00    -0.338 A  
ENDBRANCH  20  24
ENDBRANCH  15  16
ENDBRANCH  10  15
ENDBRANCH   9  10
ENDBRANCH   3   9
BRANCH   5  30
HETATM   30  C   UNL     1      -9.120   5.009  71.801  1.00  0.00    -0.160 A  
HETATM   31  C   UNL     1     -11.254   5.176  72.968  1.00  0.00    -0.390 A  
HETATM   32  C   UNL     1      -9.109   3.640  72.099  1.00  0.00    -0.151 A  
HETATM   33  C   UNL     1     -10.204   5.765  72.265  1.00  0.00    -0.233 A  
HETATM   34  C   UNL     1     -11.207   3.828  73.289  1.00  0.00    -0.230 A  
HETATM   35  C   UNL     1     -10.137   3.059  72.847  1.00  0.00    -0.220 A  
ENDBRANCH   5  30
TORSDOF 8
ENDMDL
MODEL       51
REMARK 921   NORMALIZED FREE ENERGY PREDICTED BY IDOCK:   -5.75 KCAL/MOL
REMARK 922        TOTAL FREE ENERGY PREDICTED BY IDOCK:   -9.25 KCAL/MOL
REMARK 923 INTER-LIGAND FREE ENERGY PREDICTED BY IDOCK:   -8.32 KCAL/MOL
REMARK 924 INTRA-LIGAND FREE ENERGY PREDICTED BY IDOCK:   -0.93 KCAL/MOL
REMARK 927      BINDING AFFINITY PREDICTED BY RF-SCORE:    0.00 PKD
ROOT
HETATM    1  C   UNL     1     -10.571  12.486  65.147  1.00  0.00    -0.293 C  
HETATM    2  N   UNL     1     -10.192  12.386  66.558  1.00  0.00    -0.224 N  
HETATM    3  C   UNL     1      -8.988  11.708  66.796  1.00  0.00    -0.189 C  
HETATM    4  C   UNL     1     -11.050  13.113  67.577  1.00  0.00    -0.271 C  
HETATM    5  C   UNL     1     -10.257  14.128  68.473  1.00  0.00    -0.247 C  
HETATM    6  C   UNL     1     -12.187  13.940  66.902  1.00  0.00    -0.415 C  
HETATM    7  C   UNL     1     -11.810  12.088  68.457  1.00  0.00    -0.369 C  
HETATM    8  O   UNL     1      -8.296  11.312  65.849  1.00  0.00    -0.130 OA 
ENDROOT
BRANCH   3   9
HETATM    9  C   UNL     1      -8.514  11.510  68.244  1.00  0.00    -0.159 C  
BRANCH   9  10
HETATM   10  N   UNL     1      -8.129  10.133  68.622  1.00  0.00    -0.104 NA 
BRANCH  10  11
HETATM   11  C   UNL     1      -6.748   9.823  68.213  1.00  0.00    -0.060 C  
BRANCH  11  12
HETATM   12  C   UNL     1      -6.622   8.601  67.276  1.00  0.00    -0.058 C  
HETATM   13  H   UNL     1      -7.820   7.256  66.469  1.00  0.00     0.000 HD 
HETATM   14  O   UNL     1      -7.897   8.008  67.045  1.00  0.00    -0.101 OA 
ENDBRANCH  11  12
ENDBRANCH  10  11
BRANCH  10  15
HETATM   15  C   UNL     1      -8.378   9.830  70.060  1.00  0.00    -0.192 C  
BRANCH  15  16
HETATM   16  C   UNL     1      -9.733   9.106  70.339  1.00  0.00    -0.221 C  
HETATM   17  C   UNL     1     -11.067   7.435  71.711  1.00  0.00    -0.238 C  
HETATM   18  C   UNL     1      -8.795   8.285  72.506  1.00  0.00    -0.229 C  
HETATM   19  N   UNL     1      -9.822   8.272  71.467  1.00  0.00    -0.175 N  
HETATM   20  C   UNL     1     -11.773   6.868  70.421  1.00  0.00    -0.377 C  
HETATM   21  O   UNL     1     -10.690   9.213  69.569  1.00  0.00    -0.228 OA 
HETATM   22  C   UNL     1     -10.788   6.220  72.627  1.00  0.00    -0.273 C  
HETATM   23  C   UNL     1     -12.112   8.306  72.442  1.00  0.00    -0.430 C  
BRANCH  20  24
HETATM   24  C   UNL     1     -10.984   5.983  69.477  1.00  0.00    -0.467 A  
HETATM   25  C   UNL     1     -11.101   6.207  68.097  1.00  0.00    -0.328 A  
HETATM   26  C   UNL     1     -10.345   5.468  67.186  1.00  0.00    -0.301 A  
HETATM   27  C   UNL     1      -9.442   4.510  67.640  1.00  0.00    -0.196 A  
HETATM   28  C   UNL     1      -9.296   4.290  69.001  1.00  0.00    -0.226 A  
HETATM   29  C   UNL     1     -10.068   5.007  69.908  1.00  0.00    -0.344 A  
ENDBRANCH  20  24
ENDBRANCH  15  16
ENDBRANCH  10  15
ENDBRANCH   9  10
ENDBRANCH   3   9
BRANCH   5  30
HETATM   30  C   UNL     1      -9.461  15.191  67.736  1.00  0.00    -0.194 A  
HETATM   31  C   UNL     1      -9.308  17.167  66.315  1.00  0.00    -0.260 A  
HETATM   32  C   UNL     1      -8.063  15.190  67.818  1.00  0.00    -0.157 A  
HETATM   33  C   UNL     1     -10.064  16.188  66.959  1.00  0.00    -0.270 A  
HETATM   34  C   UNL     1      -7.923  17.127  66.374  1.00  0.00    -0.346 A  
HETATM   35  C   UNL     1      -7.302  16.142  67.132  1.00  0.00    -0.250 A  
ENDBRANCH   5  30
TORSDOF 8
ENDMDL
MODEL       52
REMARK 921   NORMALIZED FREE ENERGY PREDICTED BY IDOCK:   -5.75 KCAL/MOL
REMARK 922        TOTAL FREE ENERGY PREDICTED BY IDOCK:   -9.24 KCAL/MOL
REMARK 923 INTER-LIGAND FREE ENERGY PREDICTED BY IDOCK:   -9.36 KCAL/MOL
REMARK 924 INTRA-LIGAND FREE ENERGY PREDICTED BY IDOCK:    0.12 KCAL/MOL
REMARK 927      BINDING AFFINITY PREDICTED BY RF-SCORE:    0.00 PKD
ROOT
HETATM    1  C   UNL     1      -9.847  15.132  65.935  1.00  0.00    -0.341 C  
HETATM    2  N   UNL     1      -9.903  13.825  66.593  1.00  0.00    -0.276 N  
HETATM    3  C   UNL     1      -8.693  13.401  67.160  1.00  0.00    -0.215 C  
HETATM    4  C   UNL     1     -11.253  13.141  66.700  1.00  0.00    -0.304 C  
HETATM    5  C   UNL     1     -11.672  12.778  68.168  1.00  0.00    -0.392 C  
HETATM    6  C   UNL     1     -12.405  14.028  66.136  1.00  0.00    -0.491 C  
HETATM    7  C   UNL     1     -11.281  11.880  65.798  1.00  0.00    -0.365 C  
HETATM    8  O   UNL     1      -7.703  14.144  67.148  1.00  0.00    -0.147 OA 
ENDROOT
BRANCH   3   9
HETATM    9  C   UNL     1      -8.627  12.026  67.842  1.00  0.00    -0.165 C  
BRANCH   9  10
HETATM   10  N   UNL     1      -8.391  10.867  66.954  1.00  0.00    -0.129 NA 
BRANCH  10  11
HETATM   11  C   UNL     1      -7.009  10.369  67.066  1.00  0.00    -0.090 C  
BRANCH  11  12
HETATM   12  C   UNL     1      -6.141  11.129  68.095  1.00  0.00    -0.049 C  
HETATM   13  H   UNL     1      -4.907  10.685  69.569  1.00  0.00     0.000 HD 
HETATM   14  O   UNL     1      -5.441  10.218  68.937  1.00  0.00    -0.038 OA 
ENDBRANCH  11  12
ENDBRANCH  10  11
BRANCH  10  15
HETATM   15  C   UNL     1      -9.401   9.785  67.122  1.00  0.00    -0.142 C  
BRANCH  15  16
HETATM   16  C   UNL     1      -9.270   8.986  68.458  1.00  0.00    -0.136 C  
HETATM   17  C   UNL     1      -9.892   6.954  69.850  1.00  0.00    -0.165 C  
HETATM   18  C   UNL     1     -10.356   7.031  67.341  1.00  0.00    -0.244 C  
HETATM   19  N   UNL     1      -9.867   7.717  68.535  1.00  0.00    -0.162 N  
HETATM   20  C   UNL     1     -10.055   7.835  71.148  1.00  0.00    -0.206 C  
HETATM   21  O   UNL     1      -8.704   9.467  69.442  1.00  0.00    -0.143 OA 
HETATM   22  C   UNL     1     -11.019   5.896  69.896  1.00  0.00    -0.444 C  
HETATM   23  C   UNL     1      -8.561   6.186  70.001  1.00  0.00    -0.136 C  
BRANCH  20  24
HETATM   24  C   UNL     1     -11.272   8.728  71.284  1.00  0.00    -0.352 A  
HETATM   25  C   UNL     1     -12.429   8.196  71.871  1.00  0.00    -0.368 A  
HETATM   26  C   UNL     1     -13.555   8.994  72.085  1.00  0.00    -0.523 A  
HETATM   27  C   UNL     1     -13.533  10.342  71.738  1.00  0.00    -0.387 A  
HETATM   28  C   UNL     1     -12.391  10.891  71.177  1.00  0.00    -0.479 A  
HETATM   29  C   UNL     1     -11.279  10.092  70.939  1.00  0.00    -0.415 A  
ENDBRANCH  20  24
ENDBRANCH  15  16
ENDBRANCH  10  15
ENDBRANCH   9  10
ENDBRANCH   3   9
BRANCH   5  30
HETATM   30  C   UNL     1     -11.685  13.926  69.162  1.00  0.00    -0.382 A  
HETATM   31  C   UNL     1     -12.744  15.236  70.925  1.00  0.00    -0.496 A  
HETATM   32  C   UNL     1     -10.572  14.772  69.256  1.00  0.00    -0.248 A  
HETATM   33  C   UNL     1     -12.774  14.191  70.003  1.00  0.00    -0.155 A  
HETATM   34  C   UNL     1     -11.652  16.088  70.977  1.00  0.00    -0.472 A  
HETATM   35  C   UNL     1     -10.563  15.850  70.147  1.00  0.00    -0.302 A  
ENDBRANCH   5  30
TORSDOF 8
ENDMDL
MODEL       53
REMARK 921   NORMALIZED FREE ENERGY PREDICTED BY IDOCK:   -5.74 KCAL/MOL
REMARK 922        TOTAL FREE ENERGY PREDICTED BY IDOCK:   -9.23 KCAL/MOL
REMARK 923 INTER-LIGAND FREE ENERGY PREDICTED BY IDOCK:   -8.21 KCAL/MOL
REMARK 924 INTRA-LIGAND FREE ENERGY PREDICTED BY IDOCK:   -1.02 KCAL/MOL
REMARK 927      BINDING AFFINITY PREDICTED BY RF-SCORE:    0.00 PKD
ROOT
HETATM    1  C   UNL     1     -11.657   6.429  69.980  1.00  0.00    -0.377 C  
HETATM    2  N   UNL     1     -10.427   7.207  69.815  1.00  0.00    -0.218 N  
HETATM    3  C   UNL     1     -10.538   8.560  70.163  1.00  0.00    -0.232 C  
HETATM    4  C   UNL     1      -9.164   6.463  69.419  1.00  0.00    -0.143 C  
HETATM    5  C   UNL     1      -7.967   6.661  70.414  1.00  0.00    -0.115 C  
HETATM    6  C   UNL     1      -9.395   4.923  69.331  1.00  0.00    -0.186 C  
HETATM    7  C   UNL     1      -8.748   6.858  67.979  1.00  0.00    -0.125 C  
HETATM    8  O   UNL     1     -11.592   8.999  70.639  1.00  0.00    -0.269 OA 
ENDROOT
BRANCH   3   9
HETATM    9  C   UNL     1      -9.318   9.479  69.992  1.00  0.00    -0.234 C  
BRANCH   9  10
HETATM   10  N   UNL     1      -9.436  10.538  68.967  1.00  0.00    -0.196 NA 
BRANCH  10  11
HETATM   11  C   UNL     1      -8.139  11.186  68.702  1.00  0.00    -0.150 C  
BRANCH  11  12
HETATM   12  C   UNL     1      -7.119  10.288  67.967  1.00  0.00    -0.083 C  
HETATM   13  H   UNL     1      -5.885  10.440  66.435  1.00  0.00     0.000 HD 
HETATM   14  O   UNL     1      -6.512  10.992  66.887  1.00  0.00    -0.087 OA 
ENDBRANCH  11  12
ENDBRANCH  10  11
BRANCH  10  15
HETATM   15  C   UNL     1     -10.105  10.074  67.719  1.00  0.00    -0.183 C  
BRANCH  15  16
HETATM   16  C   UNL     1     -11.083  11.115  67.088  1.00  0.00    -0.287 C  
HETATM   17  C   UNL     1     -11.537  12.884  65.322  1.00  0.00    -0.340 C  
HETATM   18  C   UNL     1      -9.546  11.298  65.125  1.00  0.00    -0.235 C  
HETATM   19  N   UNL     1     -10.691  11.763  65.905  1.00  0.00    -0.273 N  
HETATM   20  C   UNL     1     -12.253  13.816  66.373  1.00  0.00    -0.480 C  
HETATM   21  O   UNL     1     -12.150  11.408  67.632  1.00  0.00    -0.630 OA 
HETATM   22  C   UNL     1     -10.721  13.816  64.395  1.00  0.00    -0.333 C  
HETATM   23  C   UNL     1     -12.649  12.262  64.451  1.00  0.00    -0.447 C  
BRANCH  20  24
HETATM   24  C   UNL     1     -11.414  14.559  67.393  1.00  0.00    -0.385 A  
HETATM   25  C   UNL     1     -11.766  14.459  68.747  1.00  0.00    -0.372 A  
HETATM   26  C   UNL     1     -10.988  15.065  69.736  1.00  0.00    -0.291 A  
HETATM   27  C   UNL     1      -9.832  15.759  69.388  1.00  0.00    -0.286 A  
HETATM   28  C   UNL     1      -9.456  15.850  68.058  1.00  0.00    -0.206 A  
HETATM   29  C   UNL     1     -10.245  15.270  67.071  1.00  0.00    -0.260 A  
ENDBRANCH  20  24
ENDBRANCH  15  16
ENDBRANCH  10  15
ENDBRANCH   9  10
ENDBRANCH   3   9
BRANCH   5  30
HETATM   30  C   UNL     1      -8.240   6.312  71.866  1.00  0.00    -0.110 A  
HETATM   31  C   UNL     1      -8.793   6.926  74.160  1.00  0.00    -0.203 A  
HETATM   32  C   UNL     1      -8.212   4.972  72.273  1.00  0.00    -0.120 A  
HETATM   33  C   UNL     1      -8.519   7.280  72.840  1.00  0.00    -0.134 A  
HETATM   34  C   UNL     1      -8.722   5.599  74.554  1.00  0.00    -0.114 A  
HETATM   35  C   UNL     1      -8.438   4.621  73.608  1.00  0.00    -0.105 A  
ENDBRANCH   5  30
TORSDOF 8
ENDMDL
MODEL       54
REMARK 921   NORMALIZED FREE ENERGY PREDICTED BY IDOCK:   -5.74 KCAL/MOL
REMARK 922        TOTAL FREE ENERGY PREDICTED BY IDOCK:   -9.23 KCAL/MOL
REMARK 923 INTER-LIGAND FREE ENERGY PREDICTED BY IDOCK:   -8.34 KCAL/MOL
REMARK 924 INTRA-LIGAND FREE ENERGY PREDICTED BY IDOCK:   -0.90 KCAL/MOL
REMARK 927      BINDING AFFINITY PREDICTED BY RF-SCORE:    0.00 PKD
ROOT
HETATM    1  C   UNL     1      -9.705   4.896  69.223  1.00  0.00    -0.188 C  
HETATM    2  N   UNL     1      -9.590   6.106  70.040  1.00  0.00    -0.159 N  
HETATM    3  C   UNL     1     -10.771   6.853  70.153  1.00  0.00    -0.237 C  
HETATM    4  C   UNL     1      -8.278   6.352  70.764  1.00  0.00    -0.125 C  
HETATM    5  C   UNL     1      -8.427   6.527  72.316  1.00  0.00    -0.112 C  
HETATM    6  C   UNL     1      -7.270   5.180  70.563  1.00  0.00    -0.061 C  
HETATM    7  C   UNL     1      -7.554   7.574  70.144  1.00  0.00    -0.088 C  
HETATM    8  O   UNL     1     -11.822   6.440  69.646  1.00  0.00    -0.323 OA 
ENDROOT
BRANCH   3   9
HETATM    9  C   UNL     1     -10.754   8.163  70.955  1.00  0.00    -0.221 C  
BRANCH   9  10
HETATM   10  N   UNL     1     -11.634   9.244  70.459  1.00  0.00    -0.250 NA 
BRANCH  10  11
HETATM   11  C   UNL     1     -12.477   9.795  71.535  1.00  0.00    -0.403 C  
BRANCH  11  12
HETATM   12  C   UNL     1     -13.250   8.730  72.345  1.00  0.00    -0.394 C  
HETATM   13  H   UNL     1     -14.819   7.562  72.087  1.00  0.00     0.000 HD 
HETATM   14  O   UNL     1     -14.344   8.217  71.590  1.00  0.00    -0.426 OA 
ENDBRANCH  11  12
ENDBRANCH  10  11
BRANCH  10  15
HETATM   15  C   UNL     1     -10.896  10.304  69.715  1.00  0.00    -0.287 C  
BRANCH  15  16
HETATM   16  C   UNL     1     -10.361   9.854  68.318  1.00  0.00    -0.201 C  
HETATM   17  C   UNL     1      -8.601  10.044  66.497  1.00  0.00    -0.125 C  
HETATM   18  C   UNL     1      -8.200  11.002  68.829  1.00  0.00    -0.146 C  
HETATM   19  N   UNL     1      -9.109  10.335  67.900  1.00  0.00    -0.131 N  
HETATM   20  C   UNL     1      -9.698  10.007  65.366  1.00  0.00    -0.368 C  
HETATM   21  O   UNL     1     -11.033   9.139  67.572  1.00  0.00    -0.176 OA 
HETATM   22  C   UNL     1      -7.532  11.063  66.036  1.00  0.00    -0.032 C  
HETATM   23  C   UNL     1      -7.917   8.659  66.496  1.00  0.00    -0.099 C  
BRANCH  20  24
HETATM   24  C   UNL     1     -10.562  11.231  65.136  1.00  0.00    -0.343 A  
HETATM   25  C   UNL     1     -11.053  11.468  63.844  1.00  0.00    -0.458 A  
HETATM   26  C   UNL     1     -11.909  12.542  63.590  1.00  0.00    -0.610 A  
HETATM   27  C   UNL     1     -12.307  13.380  64.628  1.00  0.00    -0.433 A  
HETATM   28  C   UNL     1     -11.850  13.148  65.916  1.00  0.00    -0.453 A  
HETATM   29  C   UNL     1     -10.976  12.096  66.165  1.00  0.00    -0.335 A  
ENDBRANCH  20  24
ENDBRANCH  15  16
ENDBRANCH  10  15
ENDBRANCH   9  10
ENDBRANCH   3   9
BRANCH   5  30
HETATM   30  C   UNL     1      -9.125   5.397  73.052  1.00  0.00    -0.128 A  
HETATM   31  C   UNL     1     -11.125   4.162  73.700  1.00  0.00    -0.337 A  
HETATM   32  C   UNL     1      -8.367   4.479  73.790  1.00  0.00    -0.104 A  
HETATM   33  C   UNL     1     -10.516   5.225  73.036  1.00  0.00    -0.250 A  
HETATM   34  C   UNL     1     -10.363   3.285  74.457  1.00  0.00    -0.233 A  
HETATM   35  C   UNL     1      -8.982   3.441  74.496  1.00  0.00    -0.097 A  
ENDBRANCH   5  30
TORSDOF 8
ENDMDL
MODEL       55
REMARK 921   NORMALIZED FREE ENERGY PREDICTED BY IDOCK:   -5.73 KCAL/MOL
REMARK 922        TOTAL FREE ENERGY PREDICTED BY IDOCK:   -9.21 KCAL/MOL
REMARK 923 INTER-LIGAND FREE ENERGY PREDICTED BY IDOCK:   -8.31 KCAL/MOL
REMARK 924 INTRA-LIGAND FREE ENERGY PREDICTED BY IDOCK:   -0.90 KCAL/MOL
REMARK 927      BINDING AFFINITY PREDICTED BY RF-SCORE:    0.00 PKD
ROOT
HETATM    1  C   UNL     1      -8.210   7.438  66.193  1.00  0.00    -0.130 C  
HETATM    2  N   UNL     1      -8.509   7.466  67.626  1.00  0.00    -0.120 N  
HETATM    3  C   UNL     1      -9.872   7.570  67.939  1.00  0.00    -0.154 C  
HETATM    4  C   UNL     1      -7.361   7.258  68.596  1.00  0.00    -0.100 C  
HETATM    5  C   UNL     1      -7.575   6.067  69.596  1.00  0.00    -0.089 C  
HETATM    6  C   UNL     1      -6.019   6.958  67.860  1.00  0.00    -0.032 C  
HETATM    7  C   UNL     1      -7.074   8.571  69.367  1.00  0.00    -0.054 C  
HETATM    8  O   UNL     1     -10.722   7.558  67.040  1.00  0.00    -0.346 OA 
ENDROOT
BRANCH   3   9
HETATM    9  C   UNL     1     -10.298   7.648  69.414  1.00  0.00    -0.214 C  
BRANCH   9  10
HETATM   10  N   UNL     1     -10.850   8.942  69.867  1.00  0.00    -0.228 NA 
BRANCH  10  11
HETATM   11  C   UNL     1     -11.035   8.972  71.329  1.00  0.00    -0.313 C  
BRANCH  11  12
HETATM   12  C   UNL     1     -12.500   9.174  71.780  1.00  0.00    -0.372 C  
HETATM   13  H   UNL     1     -13.713  10.685  72.150  1.00  0.00     0.000 HD 
HETATM   14  O   UNL     1     -12.813  10.561  71.873  1.00  0.00    -0.444 OA 
ENDBRANCH  11  12
ENDBRANCH  10  11
BRANCH  10  15
HETATM   15  C   UNL     1     -10.079  10.115  69.368  1.00  0.00    -0.231 C  
BRANCH  15  16
HETATM   16  C   UNL     1     -10.899  11.082  68.456  1.00  0.00    -0.213 C  
HETATM   17  C   UNL     1     -10.928  12.948  66.732  1.00  0.00    -0.272 C  
HETATM   18  C   UNL     1      -8.788  11.654  67.245  1.00  0.00    -0.164 C  
HETATM   19  N   UNL     1     -10.199  11.890  67.544  1.00  0.00    -0.195 N  
HETATM   20  C   UNL     1     -12.121  13.671  67.466  1.00  0.00    -0.352 C  
HETATM   21  O   UNL     1     -12.123  11.181  68.560  1.00  0.00    -0.586 OA 
HETATM   22  C   UNL     1      -9.981  14.064  66.232  1.00  0.00    -0.317 C  
HETATM   23  C   UNL     1     -11.523  12.280  65.473  1.00  0.00    -0.408 C  
BRANCH  20  24
HETATM   24  C   UNL     1     -11.851  14.408  68.762  1.00  0.00    -0.360 A  
HETATM   25  C   UNL     1     -11.248  15.673  68.698  1.00  0.00    -0.338 A  
HETATM   26  C   UNL     1     -11.039  16.426  69.855  1.00  0.00    -0.313 A  
HETATM   27  C   UNL     1     -11.451  15.936  71.092  1.00  0.00    -0.471 A  
HETATM   28  C   UNL     1     -12.069  14.699  71.173  1.00  0.00    -0.403 A  
HETATM   29  C   UNL     1     -12.253  13.937  70.024  1.00  0.00    -0.408 A  
ENDBRANCH  20  24
ENDBRANCH  15  16
ENDBRANCH  10  15
ENDBRANCH   9  10
ENDBRANCH   3   9
BRANCH   5  30
HETATM   30  C   UNL     1      -7.868   4.714  68.970  1.00  0.00    -0.071 A  
HETATM   31  C   UNL     1      -7.161   2.619  67.942  1.00  0.00    -0.049 A  
HETATM   32  C   UNL     1      -9.194   4.277  68.857  1.00  0.00    -0.205 A  
HETATM   33  C   UNL     1      -6.862   3.867  68.486  1.00  0.00    -0.047 A  
HETATM   34  C   UNL     1      -8.481   2.219  67.802  1.00  0.00    -0.094 A  
HETATM   35  C   UNL     1      -9.497   3.046  68.267  1.00  0.00    -0.216 A  
ENDBRANCH   5  30
TORSDOF 8
ENDMDL
MODEL       56
REMARK 921   NORMALIZED FREE ENERGY PREDICTED BY IDOCK:   -5.67 KCAL/MOL
REMARK 922        TOTAL FREE ENERGY PREDICTED BY IDOCK:   -9.12 KCAL/MOL
REMARK 923 INTER-LIGAND FREE ENERGY PREDICTED BY IDOCK:   -8.75 KCAL/MOL
REMARK 924 INTRA-LIGAND FREE ENERGY PREDICTED BY IDOCK:   -0.37 KCAL/MOL
REMARK 927      BINDING AFFINITY PREDICTED BY RF-SCORE:    0.00 PKD
ROOT
HETATM    1  C   UNL     1      -8.259  15.067  67.300  1.00  0.00    -0.211 C  
HETATM    2  N   UNL     1      -9.022  13.887  66.885  1.00  0.00    -0.237 N  
HETATM    3  C   UNL     1      -8.494  12.664  67.321  1.00  0.00    -0.193 C  
HETATM    4  C   UNL     1     -10.335  14.110  66.156  1.00  0.00    -0.300 C  
HETATM    5  C   UNL     1     -11.571  13.428  66.841  1.00  0.00    -0.404 C  
HETATM    6  C   UNL     1     -10.692  15.624  66.044  1.00  0.00    -0.322 C  
HETATM    7  C   UNL     1     -10.206  13.650  64.681  1.00  0.00    -0.338 C  
HETATM    8  O   UNL     1      -7.503  12.639  68.060  1.00  0.00    -0.097 OA 
ENDROOT
BRANCH   3   9
HETATM    9  C   UNL     1      -9.193  11.358  66.909  1.00  0.00    -0.176 C  
BRANCH   9  10
HETATM   10  N   UNL     1      -8.867  10.161  67.714  1.00  0.00    -0.125 NA 
BRANCH  10  11
HETATM   11  C   UNL     1      -7.523   9.644  67.398  1.00  0.00    -0.091 C  
BRANCH  11  12
HETATM   12  C   UNL     1      -7.199   9.598  65.888  1.00  0.00    -0.099 C  
HETATM   13  H   UNL     1      -5.909  10.434  64.650  1.00  0.00     0.000 HD 
HETATM   14  O   UNL     1      -6.109  10.462  65.579  1.00  0.00    -0.102 OA 
ENDBRANCH  11  12
ENDBRANCH  10  11
BRANCH  10  15
HETATM   15  C   UNL     1      -9.067  10.366  69.176  1.00  0.00    -0.187 C  
BRANCH  15  16
HETATM   16  C   UNL     1     -10.058   9.355  69.836  1.00  0.00    -0.218 C  
HETATM   17  C   UNL     1     -10.446   7.398  71.409  1.00  0.00    -0.202 C  
HETATM   18  C   UNL     1      -8.253   8.704  71.438  1.00  0.00    -0.160 C  
HETATM   19  N   UNL     1      -9.565   8.494  70.831  1.00  0.00    -0.175 N  
HETATM   20  C   UNL     1     -11.450   6.723  70.397  1.00  0.00    -0.419 C  
HETATM   21  O   UNL     1     -11.231   9.270  69.467  1.00  0.00    -0.141 OA 
HETATM   22  C   UNL     1      -9.622   6.251  72.038  1.00  0.00    -0.161 C  
HETATM   23  C   UNL     1     -11.301   7.999  72.546  1.00  0.00    -0.469 C  
BRANCH  20  24
HETATM   24  C   UNL     1     -10.904   6.058  69.151  1.00  0.00    -0.422 A  
HETATM   25  C   UNL     1     -11.267   6.581  67.901  1.00  0.00    -0.257 A  
HETATM   26  C   UNL     1     -10.739   6.050  66.722  1.00  0.00    -0.374 A  
HETATM   27  C   UNL     1      -9.820   5.006  66.775  1.00  0.00    -0.212 A  
HETATM   28  C   UNL     1      -9.432   4.490  68.002  1.00  0.00    -0.197 A  
HETATM   29  C   UNL     1      -9.978   5.000  69.174  1.00  0.00    -0.267 A  
ENDBRANCH  20  24
ENDBRANCH  15  16
ENDBRANCH  10  15
ENDBRANCH   9  10
ENDBRANCH   3   9
BRANCH   5  30
HETATM   30  C   UNL     1     -11.813  13.790  68.295  1.00  0.00    -0.413 A  
HETATM   31  C   UNL     1     -12.159  15.415  70.080  1.00  0.00    -0.400 A  
HETATM   32  C   UNL     1     -11.944  12.773  69.250  1.00  0.00    -0.300 A  
HETATM   33  C   UNL     1     -11.909  15.115  68.742  1.00  0.00    -0.329 A  
HETATM   34  C   UNL     1     -12.246  14.397  71.018  1.00  0.00    -0.422 A  
HETATM   35  C   UNL     1     -12.146  13.076  70.600  1.00  0.00    -0.333 A  
ENDBRANCH   5  30
TORSDOF 8
ENDMDL
MODEL       57
REMARK 921   NORMALIZED FREE ENERGY PREDICTED BY IDOCK:   -5.66 KCAL/MOL
REMARK 922        TOTAL FREE ENERGY PREDICTED BY IDOCK:   -9.11 KCAL/MOL
REMARK 923 INTER-LIGAND FREE ENERGY PREDICTED BY IDOCK:   -8.36 KCAL/MOL
REMARK 924 INTRA-LIGAND FREE ENERGY PREDICTED BY IDOCK:   -0.75 KCAL/MOL
REMARK 927      BINDING AFFINITY PREDICTED BY RF-SCORE:    0.00 PKD
ROOT
HETATM    1  C   UNL     1      -7.350  11.387  68.032  1.00  0.00    -0.090 C  
HETATM    2  N   UNL     1      -8.724  11.860  67.848  1.00  0.00    -0.159 N  
HETATM    3  C   UNL     1      -8.838  13.217  67.514  1.00  0.00    -0.199 C  
HETATM    4  C   UNL     1      -9.843  10.836  67.912  1.00  0.00    -0.167 C  
HETATM    5  C   UNL     1     -10.750  10.798  66.631  1.00  0.00    -0.268 C  
HETATM    6  C   UNL     1      -9.299   9.385  68.090  1.00  0.00    -0.142 C  
HETATM    7  C   UNL     1     -10.701  11.068  69.181  1.00  0.00    -0.274 C  
HETATM    8  O   UNL     1      -7.824  13.901  67.324  1.00  0.00    -0.175 OA 
ENDROOT
BRANCH   3   9
HETATM    9  C   UNL     1     -10.236  13.829  67.336  1.00  0.00    -0.252 C  
BRANCH   9  10
HETATM   10  N   UNL     1     -10.287  15.172  66.719  1.00  0.00    -0.267 NA 
BRANCH  10  11
HETATM   11  C   UNL     1     -10.615  15.098  65.284  1.00  0.00    -0.411 C  
BRANCH  11  12
HETATM   12  C   UNL     1     -12.050  14.609  64.984  1.00  0.00    -0.349 C  
HETATM   13  H   UNL     1     -13.097  14.052  63.407  1.00  0.00     0.000 HD 
HETATM   14  O   UNL     1     -12.215  14.353  63.592  1.00  0.00    -0.593 OA 
ENDBRANCH  11  12
ENDBRANCH  10  11
BRANCH  10  15
HETATM   15  C   UNL     1     -11.169  16.121  67.455  1.00  0.00    -0.094 C  
BRANCH  15  16
HETATM   16  C   UNL     1     -10.445  17.411  67.959  1.00  0.00    -0.383 C  
HETATM   17  C   UNL     1      -9.290  19.609  67.424  1.00  0.00    -0.326 C  
HETATM   18  C   UNL     1     -10.666  18.375  65.663  1.00  0.00    -0.038 C  
HETATM   19  N   UNL     1     -10.116  18.400  67.017  1.00  0.00    -0.344 N  
HETATM   20  C   UNL     1      -8.178  19.344  68.509  1.00  0.00    -0.392 C  
HETATM   21  O   UNL     1     -10.119  17.545  69.140  1.00  0.00    -0.307 OA 
HETATM   22  C   UNL     1      -8.578  20.268  66.220  1.00  0.00    -0.186 C  
HETATM   23  C   UNL     1     -10.237  20.678  68.013  1.00  0.00    -0.099 C  
BRANCH  20  24
HETATM   24  C   UNL     1      -7.102  18.314  68.226  1.00  0.00    -0.254 A  
HETATM   25  C   UNL     1      -6.624  17.537  69.291  1.00  0.00    -0.235 A  
HETATM   26  C   UNL     1      -5.684  16.528  69.075  1.00  0.00    -0.138 A  
HETATM   27  C   UNL     1      -5.226  16.263  67.787  1.00  0.00    -0.142 A  
HETATM   28  C   UNL     1      -5.704  17.004  66.719  1.00  0.00    -0.210 A  
HETATM   29  C   UNL     1      -6.619  18.028  66.937  1.00  0.00    -0.210 A  
ENDBRANCH  20  24
ENDBRANCH  15  16
ENDBRANCH  10  15
ENDBRANCH   9  10
ENDBRANCH   3   9
BRANCH   5  30
HETATM   30  C   UNL     1     -10.033  10.579  65.311  1.00  0.00    -0.364 A  
HETATM   31  C   UNL     1      -9.343  11.309  63.089  1.00  0.00    -0.325 A  
HETATM   32  C   UNL     1      -9.338   9.383  65.091  1.00  0.00    -0.288 A  
HETATM   33  C   UNL     1     -10.034  11.527  64.279  1.00  0.00    -0.312 A  
HETATM   34  C   UNL     1      -8.695  10.103  62.872  1.00  0.00    -0.209 A  
HETATM   35  C   UNL     1      -8.686   9.143  63.877  1.00  0.00    -0.154 A  
ENDBRANCH   5  30
TORSDOF 8
ENDMDL
MODEL       58
REMARK 921   NORMALIZED FREE ENERGY PREDICTED BY IDOCK:   -5.62 KCAL/MOL
REMARK 922        TOTAL FREE ENERGY PREDICTED BY IDOCK:   -9.06 KCAL/MOL
REMARK 923 INTER-LIGAND FREE ENERGY PREDICTED BY IDOCK:   -8.12 KCAL/MOL
REMARK 924 INTRA-LIGAND FREE ENERGY PREDICTED BY IDOCK:   -0.94 KCAL/MOL
REMARK 927      BINDING AFFINITY PREDICTED BY RF-SCORE:    0.00 PKD
ROOT
HETATM    1  C   UNL     1     -12.059   8.488  72.160  1.00  0.00    -0.383 C  
HETATM    2  N   UNL     1     -11.154   8.154  71.058  1.00  0.00    -0.249 N  
HETATM    3  C   UNL     1     -10.661   9.258  70.349  1.00  0.00    -0.248 C  
HETATM    4  C   UNL     1     -10.755   6.700  70.883  1.00  0.00    -0.235 C  
HETATM    5  C   UNL     1      -9.205   6.455  70.903  1.00  0.00    -0.161 C  
HETATM    6  C   UNL     1     -11.344   5.792  72.007  1.00  0.00    -0.289 C  
HETATM    7  C   UNL     1     -11.380   6.132  69.583  1.00  0.00    -0.442 C  
HETATM    8  O   UNL     1     -10.936  10.408  70.711  1.00  0.00    -0.262 OA 
ENDROOT
BRANCH   3   9
HETATM    9  C   UNL     1      -9.733   9.020  69.147  1.00  0.00    -0.167 C  
BRANCH   9  10
HETATM   10  N   UNL     1      -9.298  10.226  68.409  1.00  0.00    -0.139 NA 
BRANCH  10  11
HETATM   11  C   UNL     1      -7.858  10.484  68.590  1.00  0.00    -0.116 C  
BRANCH  11  12
HETATM   12  C   UNL     1      -7.190  11.215  67.404  1.00  0.00    -0.107 C  
HETATM   13  H   UNL     1      -7.172  13.034  66.639  1.00  0.00     0.000 HD 
HETATM   14  O   UNL     1      -7.583  12.585  67.368  1.00  0.00    -0.143 OA 
ENDBRANCH  11  12
ENDBRANCH  10  11
BRANCH  10  15
HETATM   15  C   UNL     1      -9.697  10.209  66.973  1.00  0.00    -0.180 C  
BRANCH  15  16
HETATM   16  C   UNL     1     -10.852  11.197  66.616  1.00  0.00    -0.253 C  
HETATM   17  C   UNL     1     -11.727  13.093  65.168  1.00  0.00    -0.336 C  
HETATM   18  C   UNL     1      -9.640  11.778  64.508  1.00  0.00    -0.070 C  
HETATM   19  N   UNL     1     -10.700  12.017  65.485  1.00  0.00    -0.267 N  
HETATM   20  C   UNL     1     -12.372  13.810  66.415  1.00  0.00    -0.460 C  
HETATM   21  O   UNL     1     -11.853  11.301  67.328  1.00  0.00    -0.562 OA 
HETATM   22  C   UNL     1     -11.148  14.212  64.270  1.00  0.00    -0.146 C  
HETATM   23  C   UNL     1     -12.887  12.451  64.377  1.00  0.00    -0.344 C  
BRANCH  20  24
HETATM   24  C   UNL     1     -11.471  14.522  67.403  1.00  0.00    -0.385 A  
HETATM   25  C   UNL     1     -11.769  14.423  68.771  1.00  0.00    -0.372 A  
HETATM   26  C   UNL     1     -10.934  15.001  69.729  1.00  0.00    -0.291 A  
HETATM   27  C   UNL     1      -9.775  15.665  69.338  1.00  0.00    -0.292 A  
HETATM   28  C   UNL     1      -9.452  15.755  67.993  1.00  0.00    -0.202 A  
HETATM   29  C   UNL     1     -10.297  15.204  67.037  1.00  0.00    -0.271 A  
ENDBRANCH  20  24
ENDBRANCH  15  16
ENDBRANCH  10  15
ENDBRANCH   9  10
ENDBRANCH   3   9
BRANCH   5  30
HETATM   30  C   UNL     1      -8.464   6.966  72.126  1.00  0.00    -0.114 A  
HETATM   31  C   UNL     1      -7.987   6.951  74.517  1.00  0.00    -0.151 A  
HETATM   32  C   UNL     1      -7.498   7.970  71.980  1.00  0.00    -0.102 A  
HETATM   33  C   UNL     1      -8.704   6.481  73.418  1.00  0.00    -0.132 A  
HETATM   34  C   UNL     1      -7.063   7.973  74.360  1.00  0.00    -0.184 A  
HETATM   35  C   UNL     1      -6.813   8.477  73.089  1.00  0.00    -0.066 A  
ENDBRANCH   5  30
TORSDOF 8
ENDMDL
MODEL       59
REMARK 921   NORMALIZED FREE ENERGY PREDICTED BY IDOCK:   -5.61 KCAL/MOL
REMARK 922        TOTAL FREE ENERGY PREDICTED BY IDOCK:   -9.04 KCAL/MOL
REMARK 923 INTER-LIGAND FREE ENERGY PREDICTED BY IDOCK:   -8.37 KCAL/MOL
REMARK 924 INTRA-LIGAND FREE ENERGY PREDICTED BY IDOCK:   -0.68 KCAL/MOL
REMARK 927      BINDING AFFINITY PREDICTED BY RF-SCORE:    0.00 PKD
ROOT
HETATM    1  C   UNL     1     -11.095   6.221  67.654  1.00  0.00    -0.266 C  
HETATM    2  N   UNL     1     -10.099   7.080  68.298  1.00  0.00    -0.160 N  
HETATM    3  C   UNL     1      -9.925   8.333  67.694  1.00  0.00    -0.190 C  
HETATM    4  C   UNL     1      -9.468   6.591  69.590  1.00  0.00    -0.145 C  
HETATM    5  C   UNL     1      -9.633   7.580  70.797  1.00  0.00    -0.166 C  
HETATM    6  C   UNL     1     -10.078   5.237  70.063  1.00  0.00    -0.336 C  
HETATM    7  C   UNL     1      -7.972   6.261  69.356  1.00  0.00    -0.109 C  
HETATM    8  O   UNL     1     -10.637   8.670  66.739  1.00  0.00    -0.269 OA 
ENDROOT
BRANCH   3   9
HETATM    9  C   UNL     1      -8.876   9.300  68.264  1.00  0.00    -0.129 C  
BRANCH   9  10
HETATM   10  N   UNL     1      -7.824   9.749  67.327  1.00  0.00    -0.099 NA 
BRANCH  10  11
HETATM   11  C   UNL     1      -7.468   8.692  66.363  1.00  0.00    -0.087 C  
BRANCH  11  12
HETATM   12  C   UNL     1      -7.602   9.111  64.882  1.00  0.00    -0.107 C  
HETATM   13  H   UNL     1      -7.450   8.258  63.109  1.00  0.00     0.000 HD 
HETATM   14  O   UNL     1      -7.367   8.001  64.020  1.00  0.00    -0.086 OA 
ENDBRANCH  11  12
ENDBRANCH  10  11
BRANCH  10  15
HETATM   15  C   UNL     1      -8.147  11.042  66.659  1.00  0.00    -0.155 C  
BRANCH  15  16
HETATM   16  C   UNL     1      -9.000  12.019  67.530  1.00  0.00    -0.174 C  
HETATM   17  C   UNL     1     -11.052  13.498  67.766  1.00  0.00    -0.268 C  
HETATM   18  C   UNL     1     -10.861  11.792  65.876  1.00  0.00    -0.291 C  
HETATM   19  N   UNL     1     -10.243  12.442  67.030  1.00  0.00    -0.219 N  
HETATM   20  C   UNL     1     -10.214  14.627  68.478  1.00  0.00    -0.240 C  
HETATM   21  O   UNL     1      -8.581  12.455  68.604  1.00  0.00    -0.095 OA 
HETATM   22  C   UNL     1     -12.059  14.219  66.840  1.00  0.00    -0.440 C  
HETATM   23  C   UNL     1     -11.885  12.804  68.866  1.00  0.00    -0.351 C  
BRANCH  20  24
HETATM   24  C   UNL     1      -9.272  15.479  67.651  1.00  0.00    -0.190 A  
HETATM   25  C   UNL     1      -9.792  16.604  66.993  1.00  0.00    -0.260 A  
HETATM   26  C   UNL     1      -8.957  17.462  66.275  1.00  0.00    -0.239 A  
HETATM   27  C   UNL     1      -7.586  17.223  66.223  1.00  0.00    -0.360 A  
HETATM   28  C   UNL     1      -7.051  16.130  66.885  1.00  0.00    -0.222 A  
HETATM   29  C   UNL     1      -7.885  15.260  67.578  1.00  0.00    -0.198 A  
ENDBRANCH  20  24
ENDBRANCH  15  16
ENDBRANCH  10  15
ENDBRANCH   9  10
ENDBRANCH   3   9
BRANCH   5  30
HETATM   30  C   UNL     1     -11.055   7.991  71.135  1.00  0.00    -0.278 A  
HETATM   31  C   UNL     1     -13.393   7.474  71.592  1.00  0.00    -0.414 A  
HETATM   32  C   UNL     1     -11.355   9.344  71.336  1.00  0.00    -0.451 A  
HETATM   33  C   UNL     1     -12.103   7.069  71.253  1.00  0.00    -0.403 A  
HETATM   34  C   UNL     1     -13.682   8.821  71.748  1.00  0.00    -0.461 A  
HETATM   35  C   UNL     1     -12.660   9.756  71.628  1.00  0.00    -0.509 A  
ENDBRANCH   5  30
TORSDOF 8
ENDMDL
MODEL       60
REMARK 921   NORMALIZED FREE ENERGY PREDICTED BY IDOCK:   -5.59 KCAL/MOL
REMARK 922        TOTAL FREE ENERGY PREDICTED BY IDOCK:   -9.01 KCAL/MOL
REMARK 923 INTER-LIGAND FREE ENERGY PREDICTED BY IDOCK:   -8.35 KCAL/MOL
REMARK 924 INTRA-LIGAND FREE ENERGY PREDICTED BY IDOCK:   -0.66 KCAL/MOL
REMARK 927      BINDING AFFINITY PREDICTED BY RF-SCORE:    0.00 PKD
ROOT
HETATM    1  C   UNL     1      -7.566   8.119  70.068  1.00  0.00    -0.077 C  
HETATM    2  N   UNL     1      -9.007   8.338  69.918  1.00  0.00    -0.139 N  
HETATM    3  C   UNL     1      -9.371   9.100  68.799  1.00  0.00    -0.139 C  
HETATM    4  C   UNL     1      -9.937   7.633  70.888  1.00  0.00    -0.180 C  
HETATM    5  C   UNL     1     -11.018   6.730  70.196  1.00  0.00    -0.340 C  
HETATM    6  C   UNL     1      -9.163   6.696  71.865  1.00  0.00    -0.147 C  
HETATM    7  C   UNL     1     -10.610   8.669  71.823  1.00  0.00    -0.395 C  
HETATM    8  O   UNL     1      -8.512   9.471  67.989  1.00  0.00    -0.118 OA 
ENDROOT
BRANCH   3   9
HETATM    9  C   UNL     1     -10.855   9.425  68.565  1.00  0.00    -0.105 C  
BRANCH   9  10
HETATM   10  N   UNL     1     -11.234  10.851  68.663  1.00  0.00    -0.245 NA 
BRANCH  10  11
HETATM   11  C   UNL     1     -12.494  11.028  69.408  1.00  0.00    -0.007 C  
BRANCH  11  12
HETATM   12  C   UNL     1     -12.325  11.696  70.791  1.00  0.00    -0.358 C  
HETATM   13  H   UNL     1     -13.127  11.545  72.587  1.00  0.00     0.000 HD 
HETATM   14  O   UNL     1     -13.230  11.135  71.737  1.00  0.00    -0.442 OA 
ENDBRANCH  11  12
ENDBRANCH  10  11
BRANCH  10  15
HETATM   15  C   UNL     1     -10.138  11.714  69.185  1.00  0.00     0.079 C  
BRANCH  15  16
HETATM   16  C   UNL     1      -9.612  12.772  68.164  1.00  0.00    -0.223 C  
HETATM   17  C   UNL     1      -9.811  15.081  67.123  1.00  0.00    -0.233 C  
HETATM   18  C   UNL     1     -11.039  14.493  69.282  1.00  0.00    -0.270 C  
HETATM   19  N   UNL     1     -10.184  14.055  68.182  1.00  0.00    -0.237 N  
HETATM   20  C   UNL     1      -9.537  14.507  65.681  1.00  0.00    -0.189 C  
HETATM   21  O   UNL     1      -8.755  12.486  67.325  1.00  0.00    -0.177 OA 
HETATM   22  C   UNL     1     -10.891  16.177  66.959  1.00  0.00    -0.194 C  
HETATM   23  C   UNL     1      -8.519  15.801  67.566  1.00  0.00    -0.183 C  
BRANCH  20  24
HETATM   24  C   UNL     1     -10.628  13.720  64.981  1.00  0.00    -0.402 A  
HETATM   25  C   UNL     1     -10.251  12.714  64.080  1.00  0.00    -0.363 A  
HETATM   26  C   UNL     1     -11.212  11.913  63.460  1.00  0.00    -0.501 A  
HETATM   27  C   UNL     1     -12.563  12.088  63.750  1.00  0.00    -0.567 A  
HETATM   28  C   UNL     1     -12.952  13.063  64.655  1.00  0.00    -0.161 A  
HETATM   29  C   UNL     1     -11.998  13.879  65.252  1.00  0.00    -0.384 A  
ENDBRANCH  20  24
ENDBRANCH  15  16
ENDBRANCH  10  15
ENDBRANCH   9  10
ENDBRANCH   3   9
BRANCH   5  30
HETATM   30  C   UNL     1     -10.493   5.669  69.245  1.00  0.00    -0.356 A  
HETATM   31  C   UNL     1     -10.115   4.781  67.006  1.00  0.00    -0.228 A  
HETATM   32  C   UNL     1      -9.843   4.539  69.760  1.00  0.00    -0.295 A  
HETATM   33  C   UNL     1     -10.632   5.759  67.854  1.00  0.00    -0.304 A  
HETATM   34  C   UNL     1      -9.510   3.650  67.534  1.00  0.00    -0.237 A  
HETATM   35  C   UNL     1      -9.368   3.534  68.912  1.00  0.00    -0.236 A  
ENDBRANCH   5  30
TORSDOF 8
ENDMDL
MODEL       61
REMARK 921   NORMALIZED FREE ENERGY PREDICTED BY IDOCK:   -5.58 KCAL/MOL
REMARK 922        TOTAL FREE ENERGY PREDICTED BY IDOCK:   -9.00 KCAL/MOL
REMARK 923 INTER-LIGAND FREE ENERGY PREDICTED BY IDOCK:   -8.99 KCAL/MOL
REMARK 924 INTRA-LIGAND FREE ENERGY PREDICTED BY IDOCK:   -0.01 KCAL/MOL
REMARK 927      BINDING AFFINITY PREDICTED BY RF-SCORE:    0.00 PKD
ROOT
HETATM    1  C   UNL     1      -9.074  11.320  68.520  1.00  0.00    -0.173 C  
HETATM    2  N   UNL     1      -9.297  10.164  67.649  1.00  0.00    -0.147 N  
HETATM    3  C   UNL     1     -10.370   9.343  68.026  1.00  0.00    -0.220 C  
HETATM    4  C   UNL     1      -8.451  10.047  66.394  1.00  0.00    -0.129 C  
HETATM    5  C   UNL     1      -9.285   9.941  65.068  1.00  0.00    -0.295 C  
HETATM    6  C   UNL     1      -7.509  11.275  66.206  1.00  0.00    -0.010 C  
HETATM    7  C   UNL     1      -7.478   8.848  66.522  1.00  0.00    -0.088 C  
HETATM    8  O   UNL     1     -11.089   9.655  68.983  1.00  0.00    -0.177 OA 
ENDROOT
BRANCH   3   9
HETATM    9  C   UNL     1     -10.670   8.080  67.204  1.00  0.00    -0.215 C  
BRANCH   9  10
HETATM   10  N   UNL     1     -10.558   6.792  67.922  1.00  0.00    -0.216 NA 
BRANCH  10  11
HETATM   11  C   UNL     1     -10.893   5.652  67.050  1.00  0.00    -0.176 C  
BRANCH  11  12
HETATM   12  C   UNL     1      -9.689   5.067  66.278  1.00  0.00    -0.183 C  
HETATM   13  H   UNL     1      -9.387   3.786  64.807  1.00  0.00     0.000 HD 
HETATM   14  O   UNL     1     -10.127   4.147  65.282  1.00  0.00    -0.207 OA 
ENDBRANCH  11  12
ENDBRANCH  10  11
BRANCH  10  15
HETATM   15  C   UNL     1      -9.246   6.616  68.608  1.00  0.00    -0.128 C  
BRANCH  15  16
HETATM   16  C   UNL     1      -9.294   6.843  70.152  1.00  0.00    -0.159 C  
HETATM   17  C   UNL     1      -9.903   5.981  72.463  1.00  0.00    -0.164 C  
HETATM   18  C   UNL     1      -9.820   4.418  70.446  1.00  0.00    -0.216 C  
HETATM   19  N   UNL     1      -9.705   5.777  70.969  1.00  0.00    -0.167 N  
HETATM   20  C   UNL     1     -10.468   7.389  72.891  1.00  0.00    -0.344 C  
HETATM   21  O   UNL     1      -9.029   7.940  70.649  1.00  0.00    -0.145 OA 
HETATM   22  C   UNL     1     -10.849   4.924  73.080  1.00  0.00    -0.348 C  
HETATM   23  C   UNL     1      -8.540   5.816  73.169  1.00  0.00    -0.116 C  
BRANCH  20  24
HETATM   24  C   UNL     1     -11.800   7.850  72.335  1.00  0.00    -0.402 A  
HETATM   25  C   UNL     1     -12.680   6.884  71.825  1.00  0.00    -0.369 A  
HETATM   26  C   UNL     1     -13.948   7.243  71.364  1.00  0.00    -0.429 A  
HETATM   27  C   UNL     1     -14.366   8.570  71.429  1.00  0.00    -0.387 A  
HETATM   28  C   UNL     1     -13.519   9.535  71.950  1.00  0.00    -0.502 A  
HETATM   29  C   UNL     1     -12.246   9.182  72.384  1.00  0.00    -0.263 A  
ENDBRANCH  20  24
ENDBRANCH  15  16
ENDBRANCH  10  15
ENDBRANCH   9  10
ENDBRANCH   3   9
BRANCH   5  30
HETATM   30  C   UNL     1     -10.285  11.056  64.817  1.00  0.00    -0.381 A  
HETATM   31  C   UNL     1     -11.427  12.634  63.350  1.00  0.00    -0.499 A  
HETATM   32  C   UNL     1     -11.052  11.550  65.880  1.00  0.00    -0.274 A  
HETATM   33  C   UNL     1     -10.481  11.631  63.555  1.00  0.00    -0.498 A  
HETATM   34  C   UNL     1     -12.148  13.139  64.421  1.00  0.00    -0.471 A  
HETATM   35  C   UNL     1     -11.965  12.591  65.685  1.00  0.00    -0.492 A  
ENDBRANCH   5  30
TORSDOF 8
ENDMDL
MODEL       62
REMARK 921   NORMALIZED FREE ENERGY PREDICTED BY IDOCK:   -5.56 KCAL/MOL
REMARK 922        TOTAL FREE ENERGY PREDICTED BY IDOCK:   -8.96 KCAL/MOL
REMARK 923 INTER-LIGAND FREE ENERGY PREDICTED BY IDOCK:   -9.01 KCAL/MOL
REMARK 924 INTRA-LIGAND FREE ENERGY PREDICTED BY IDOCK:    0.04 KCAL/MOL
REMARK 927      BINDING AFFINITY PREDICTED BY RF-SCORE:    0.00 PKD
ROOT
HETATM    1  C   UNL     1     -10.193   5.330  68.096  1.00  0.00    -0.140 C  
HETATM    2  N   UNL     1      -9.307   6.495  68.053  1.00  0.00    -0.111 N  
HETATM    3  C   UNL     1      -9.771   7.557  67.264  1.00  0.00    -0.167 C  
HETATM    4  C   UNL     1      -8.076   6.484  68.942  1.00  0.00    -0.115 C  
HETATM    5  C   UNL     1      -7.985   7.706  69.923  1.00  0.00    -0.115 C  
HETATM    6  C   UNL     1      -8.015   5.212  69.842  1.00  0.00    -0.078 C  
HETATM    7  C   UNL     1      -6.797   6.386  68.073  1.00  0.00    -0.070 C  
HETATM    8  O   UNL     1     -10.884   7.496  66.727  1.00  0.00    -0.292 OA 
ENDROOT
BRANCH   3   9
HETATM    9  C   UNL     1      -8.901   8.815  67.116  1.00  0.00    -0.127 C  
BRANCH   9  10
HETATM   10  N   UNL     1      -9.589  10.031  66.630  1.00  0.00    -0.178 NA 
BRANCH  10  11
HETATM   11  C   UNL     1      -9.966   9.910  65.210  1.00  0.00    -0.249 C  
BRANCH  11  12
HETATM   12  C   UNL     1      -9.187  10.852  64.264  1.00  0.00    -0.197 C  
HETATM   13  H   UNL     1      -9.506  12.554  63.318  1.00  0.00     0.000 HD 
HETATM   14  O   UNL     1      -9.984  11.975  63.900  1.00  0.00    -0.329 OA 
ENDBRANCH  11  12
ENDBRANCH  10  11
BRANCH  10  15
HETATM   15  C   UNL     1     -10.735  10.439  67.490  1.00  0.00    -0.287 C  
BRANCH  15  16
HETATM   16  C   UNL     1     -11.055  11.967  67.451  1.00  0.00    -0.279 C  
HETATM   17  C   UNL     1     -10.359  14.352  67.982  1.00  0.00    -0.227 C  
HETATM   18  C   UNL     1      -8.677  12.433  68.065  1.00  0.00    -0.186 C  
HETATM   19  N   UNL     1     -10.059  12.866  67.866  1.00  0.00    -0.225 N  
HETATM   20  C   UNL     1     -11.814  14.719  68.464  1.00  0.00    -0.340 C  
HETATM   21  O   UNL     1     -12.167  12.383  67.116  1.00  0.00    -0.492 OA 
HETATM   22  C   UNL     1      -9.385  15.076  68.940  1.00  0.00    -0.208 C  
HETATM   23  C   UNL     1     -10.175  15.003  66.593  1.00  0.00    -0.271 C  
BRANCH  20  24
HETATM   24  C   UNL     1     -12.301  14.199  69.802  1.00  0.00    -0.350 A  
HETATM   25  C   UNL     1     -12.943  15.092  70.672  1.00  0.00    -0.420 A  
HETATM   26  C   UNL     1     -13.473  14.652  71.886  1.00  0.00    -0.461 A  
HETATM   27  C   UNL     1     -13.391  13.308  72.239  1.00  0.00    -0.630 A  
HETATM   28  C   UNL     1     -12.780  12.406  71.382  1.00  0.00    -0.346 A  
HETATM   29  C   UNL     1     -12.228  12.848  70.185  1.00  0.00    -0.336 A  
ENDBRANCH  20  24
ENDBRANCH  15  16
ENDBRANCH  10  15
ENDBRANCH   9  10
ENDBRANCH   3   9
BRANCH   5  30
HETATM   30  C   UNL     1      -9.180   7.922  70.835  1.00  0.00    -0.160 A  
HETATM   31  C   UNL     1     -11.187   9.135  71.503  1.00  0.00    -0.430 A  
HETATM   32  C   UNL     1      -9.405   7.041  71.901  1.00  0.00    -0.147 A  
HETATM   33  C   UNL     1     -10.083   8.979  70.666  1.00  0.00    -0.284 A  
HETATM   34  C   UNL     1     -11.372   8.278  72.577  1.00  0.00    -0.455 A  
HETATM   35  C   UNL     1     -10.484   7.226  72.770  1.00  0.00    -0.302 A  
ENDBRANCH   5  30
TORSDOF 8
ENDMDL
MODEL       63
REMARK 921   NORMALIZED FREE ENERGY PREDICTED BY IDOCK:   -5.55 KCAL/MOL
REMARK 922        TOTAL FREE ENERGY PREDICTED BY IDOCK:   -8.95 KCAL/MOL
REMARK 923 INTER-LIGAND FREE ENERGY PREDICTED BY IDOCK:   -8.72 KCAL/MOL
REMARK 924 INTRA-LIGAND FREE ENERGY PREDICTED BY IDOCK:   -0.23 KCAL/MOL
REMARK 927      BINDING AFFINITY PREDICTED BY RF-SCORE:    0.00 PKD
ROOT
HETATM    1  C   UNL     1     -10.786   6.005  69.776  1.00  0.00    -0.363 C  
HETATM    2  N   UNL     1     -10.292   7.377  69.912  1.00  0.00    -0.212 N  
HETATM    3  C   UNL     1     -11.198   8.272  70.499  1.00  0.00    -0.239 C  
HETATM    4  C   UNL     1      -8.849   7.654  69.531  1.00  0.00    -0.139 C  
HETATM    5  C   UNL     1      -7.997   8.300  70.680  1.00  0.00    -0.094 C  
HETATM    6  C   UNL     1      -8.093   6.354  69.120  1.00  0.00    -0.111 C  
HETATM    7  C   UNL     1      -8.797   8.532  68.255  1.00  0.00    -0.142 C  
HETATM    8  O   UNL     1     -12.288   7.868  70.923  1.00  0.00    -0.216 OA 
ENDROOT
BRANCH   3   9
HETATM    9  C   UNL     1     -10.799   9.747  70.655  1.00  0.00    -0.329 C  
BRANCH   9  10
HETATM   10  N   UNL     1     -11.515  10.712  69.794  1.00  0.00    -0.277 NA 
BRANCH  10  11
HETATM   11  C   UNL     1     -12.212  11.739  70.590  1.00  0.00    -0.349 C  
BRANCH  11  12
HETATM   12  C   UNL     1     -13.048  11.175  71.761  1.00  0.00    -0.431 C  
HETATM   13  H   UNL     1     -14.257  11.875  73.155  1.00  0.00     0.000 HD 
HETATM   14  O   UNL     1     -13.743  12.221  72.435  1.00  0.00    -0.359 OA 
ENDBRANCH  11  12
ENDBRANCH  10  11
BRANCH  10  15
HETATM   15  C   UNL     1     -10.652  11.305  68.734  1.00  0.00    -0.203 C  
BRANCH  15  16
HETATM   16  C   UNL     1     -11.079  12.738  68.283  1.00  0.00    -0.257 C  
HETATM   17  C   UNL     1     -10.474  15.179  67.926  1.00  0.00    -0.245 C  
HETATM   18  C   UNL     1      -8.672  13.410  68.302  1.00  0.00    -0.172 C  
HETATM   19  N   UNL     1     -10.094  13.737  68.223  1.00  0.00    -0.234 N  
HETATM   20  C   UNL     1     -11.855  15.657  68.517  1.00  0.00    -0.252 C  
HETATM   21  O   UNL     1     -12.256  13.010  68.035  1.00  0.00    -0.240 OA 
HETATM   22  C   UNL     1      -9.412  16.184  68.431  1.00  0.00    -0.210 C  
HETATM   23  C   UNL     1     -10.560  15.363  66.395  1.00  0.00    -0.307 C  
BRANCH  20  24
HETATM   24  C   UNL     1     -12.084  15.576  70.013  1.00  0.00    -0.391 A  
HETATM   25  C   UNL     1     -13.393  15.378  70.479  1.00  0.00    -0.173 A  
HETATM   26  C   UNL     1     -13.652  15.227  71.842  1.00  0.00    -0.575 A  
HETATM   27  C   UNL     1     -12.605  15.247  72.760  1.00  0.00    -0.489 A  
HETATM   28  C   UNL     1     -11.303  15.420  72.317  1.00  0.00    -0.421 A  
HETATM   29  C   UNL     1     -11.047  15.597  70.962  1.00  0.00    -0.365 A  
ENDBRANCH  20  24
ENDBRANCH  15  16
ENDBRANCH  10  15
ENDBRANCH   9  10
ENDBRANCH   3   9
BRANCH   5  30
HETATM   30  C   UNL     1      -7.963   7.541  71.994  1.00  0.00    -0.103 A  
HETATM   31  C   UNL     1      -7.177   5.714  73.406  1.00  0.00    -0.087 A  
HETATM   32  C   UNL     1      -8.714   8.005  73.082  1.00  0.00    -0.300 A  
HETATM   33  C   UNL     1      -7.210   6.374  72.178  1.00  0.00    -0.087 A  
HETATM   34  C   UNL     1      -7.958   6.165  74.459  1.00  0.00    -0.101 A  
HETATM   35  C   UNL     1      -8.721   7.316  74.298  1.00  0.00    -0.250 A  
ENDBRANCH   5  30
TORSDOF 8
ENDMDL
MODEL       64
REMARK 921   NORMALIZED FREE ENERGY PREDICTED BY IDOCK:   -5.52 KCAL/MOL
REMARK 922        TOTAL FREE ENERGY PREDICTED BY IDOCK:   -8.91 KCAL/MOL
REMARK 923 INTER-LIGAND FREE ENERGY PREDICTED BY IDOCK:   -8.22 KCAL/MOL
REMARK 924 INTRA-LIGAND FREE ENERGY PREDICTED BY IDOCK:   -0.69 KCAL/MOL
REMARK 927      BINDING AFFINITY PREDICTED BY RF-SCORE:    0.00 PKD
ROOT
HETATM    1  C   UNL     1     -11.253  12.855  69.408  1.00  0.00    -0.132 C  
HETATM    2  N   UNL     1     -10.421  12.054  68.507  1.00  0.00    -0.225 N  
HETATM    3  C   UNL     1     -10.968  10.813  68.150  1.00  0.00    -0.257 C  
HETATM    4  C   UNL     1      -9.149  12.683  67.967  1.00  0.00    -0.207 C  
HETATM    5  C   UNL     1      -9.063  12.707  66.400  1.00  0.00    -0.114 C  
HETATM    6  C   UNL     1      -8.989  14.165  68.425  1.00  0.00    -0.189 C  
HETATM    7  C   UNL     1      -7.911  11.973  68.570  1.00  0.00    -0.129 C  
HETATM    8  O   UNL     1     -12.103  10.498  68.531  1.00  0.00    -0.329 OA 
ENDROOT
BRANCH   3   9
HETATM    9  C   UNL     1     -10.162   9.873  67.240  1.00  0.00    -0.222 C  
BRANCH   9  10
HETATM   10  N   UNL     1     -10.298   8.426  67.512  1.00  0.00    -0.248 NA 
BRANCH  10  11
HETATM   11  C   UNL     1      -9.949   7.617  66.331  1.00  0.00    -0.072 C  
BRANCH  11  12
HETATM   12  C   UNL     1      -8.582   6.902  66.431  1.00  0.00    -0.134 C  
HETATM   13  H   UNL     1      -7.214   6.198  65.197  1.00  0.00     0.000 HD 
HETATM   14  O   UNL     1      -8.053   6.637  65.135  1.00  0.00    -0.126 OA 
ENDBRANCH  11  12
ENDBRANCH  10  11
BRANCH  10  15
HETATM   15  C   UNL     1      -9.569   7.989  68.736  1.00  0.00    -0.149 C  
BRANCH  15  16
HETATM   16  C   UNL     1     -10.497   7.551  69.914  1.00  0.00    -0.229 C  
HETATM   17  C   UNL     1     -10.913   7.393  72.415  1.00  0.00    -0.275 C  
HETATM   18  C   UNL     1      -9.070   8.887  71.472  1.00  0.00    -0.229 C  
HETATM   19  N   UNL     1     -10.126   7.908  71.221  1.00  0.00    -0.179 N  
HETATM   20  C   UNL     1     -11.490   5.932  72.274  1.00  0.00    -0.351 C  
HETATM   21  O   UNL     1     -11.503   6.866  69.719  1.00  0.00    -0.259 OA 
HETATM   22  C   UNL     1     -10.083   7.411  73.719  1.00  0.00    -0.329 C  
HETATM   23  C   UNL     1     -12.121   8.325  72.650  1.00  0.00    -0.326 C  
BRANCH  20  24
HETATM   24  C   UNL     1     -10.535   4.785  72.012  1.00  0.00    -0.225 A  
HETATM   25  C   UNL     1     -10.270   3.885  73.056  1.00  0.00    -0.228 A  
HETATM   26  C   UNL     1      -9.453   2.772  72.851  1.00  0.00    -0.137 A  
HETATM   27  C   UNL     1      -8.909   2.526  71.593  1.00  0.00    -0.123 A  
HETATM   28  C   UNL     1      -9.178   3.390  70.544  1.00  0.00    -0.212 A  
HETATM   29  C   UNL     1      -9.968   4.514  70.754  1.00  0.00    -0.269 A  
ENDBRANCH  20  24
ENDBRANCH  15  16
ENDBRANCH  10  15
ENDBRANCH   9  10
ENDBRANCH   3   9
BRANCH   5  30
HETATM   30  C   UNL     1     -10.220  13.375  65.678  1.00  0.00    -0.300 A  
HETATM   31  C   UNL     1     -11.345  15.337  64.768  1.00  0.00    -0.396 A  
HETATM   32  C   UNL     1     -11.283  12.595  65.206  1.00  0.00    -0.335 A  
HETATM   33  C   UNL     1     -10.283  14.757  65.459  1.00  0.00    -0.400 A  
HETATM   34  C   UNL     1     -12.408  14.556  64.343  1.00  0.00    -0.437 A  
HETATM   35  C   UNL     1     -12.373  13.182  64.556  1.00  0.00    -0.447 A  
ENDBRANCH   5  30
TORSDOF 8
ENDMDL
MODEL       65
REMARK 921   NORMALIZED FREE ENERGY PREDICTED BY IDOCK:   -5.52 KCAL/MOL
REMARK 922        TOTAL FREE ENERGY PREDICTED BY IDOCK:   -8.91 KCAL/MOL
REMARK 923 INTER-LIGAND FREE ENERGY PREDICTED BY IDOCK:   -8.19 KCAL/MOL
REMARK 924 INTRA-LIGAND FREE ENERGY PREDICTED BY IDOCK:   -0.72 KCAL/MOL
REMARK 927      BINDING AFFINITY PREDICTED BY RF-SCORE:    0.00 PKD
ROOT
HETATM    1  C   UNL     1      -8.323  14.438  67.167  1.00  0.00    -0.191 C  
HETATM    2  N   UNL     1      -9.462  13.608  66.769  1.00  0.00    -0.263 N  
HETATM    3  C   UNL     1      -9.330  12.245  67.072  1.00  0.00    -0.205 C  
HETATM    4  C   UNL     1     -10.686  14.306  66.203  1.00  0.00    -0.295 C  
HETATM    5  C   UNL     1     -12.015  13.996  66.978  1.00  0.00    -0.472 C  
HETATM    6  C   UNL     1     -10.535  15.858  66.221  1.00  0.00    -0.324 C  
HETATM    7  C   UNL     1     -10.840  13.966  64.699  1.00  0.00    -0.420 C  
HETATM    8  O   UNL     1      -8.343  11.837  67.695  1.00  0.00    -0.133 OA 
ENDROOT
BRANCH   3   9
HETATM    9  C   UNL     1     -10.450  11.276  66.663  1.00  0.00    -0.247 C  
BRANCH   9  10
HETATM   10  N   UNL     1     -10.059  10.167  65.766  1.00  0.00    -0.268 NA 
BRANCH  10  11
HETATM   11  C   UNL     1      -9.422  10.665  64.533  1.00  0.00    -0.264 C  
BRANCH  11  12
HETATM   12  C   UNL     1      -8.060  10.010  64.213  1.00  0.00    -0.156 C  
HETATM   13  H   UNL     1      -7.018   9.527  62.608  1.00  0.00     0.000 HD 
HETATM   14  O   UNL     1      -7.856   9.930  62.805  1.00  0.00    -0.123 OA 
ENDBRANCH  11  12
ENDBRANCH  10  11
BRANCH  10  15
HETATM   15  C   UNL     1      -9.243   9.123  66.446  1.00  0.00    -0.183 C  
BRANCH  15  16
HETATM   16  C   UNL     1     -10.039   8.248  67.466  1.00  0.00    -0.225 C  
HETATM   17  C   UNL     1     -10.131   7.059  69.708  1.00  0.00    -0.189 C  
HETATM   18  C   UNL     1      -8.312   8.774  69.194  1.00  0.00    -0.125 C  
HETATM   19  N   UNL     1      -9.469   8.014  68.728  1.00  0.00    -0.147 N  
HETATM   20  C   UNL     1     -10.841   5.805  69.068  1.00  0.00    -0.330 C  
HETATM   21  O   UNL     1     -11.116   7.729  67.164  1.00  0.00    -0.135 OA 
HETATM   22  C   UNL     1      -9.136   6.509  70.757  1.00  0.00    -0.154 C  
HETATM   23  C   UNL     1     -11.215   7.829  70.493  1.00  0.00    -0.267 C  
BRANCH  20  24
HETATM   24  C   UNL     1     -10.029   4.856  68.210  1.00  0.00    -0.177 A  
HETATM   25  C   UNL     1     -10.327   4.771  66.842  1.00  0.00    -0.202 A  
HETATM   26  C   UNL     1      -9.566   3.966  65.992  1.00  0.00    -0.189 A  
HETATM   27  C   UNL     1      -8.480   3.253  66.492  1.00  0.00    -0.107 A  
HETATM   28  C   UNL     1      -8.156   3.342  67.836  1.00  0.00    -0.082 A  
HETATM   29  C   UNL     1      -8.929   4.122  68.688  1.00  0.00    -0.158 A  
ENDBRANCH  20  24
ENDBRANCH  15  16
ENDBRANCH  10  15
ENDBRANCH   9  10
ENDBRANCH   3   9
BRANCH   5  30
HETATM   30  C   UNL     1     -12.001  14.282  68.469  1.00  0.00    -0.352 A  
HETATM   31  C   UNL     1     -11.879  15.807  70.368  1.00  0.00    -0.391 A  
HETATM   32  C   UNL     1     -12.128  13.224  69.378  1.00  0.00    -0.301 A  
HETATM   33  C   UNL     1     -11.860  15.573  68.994  1.00  0.00    -0.373 A  
HETATM   34  C   UNL     1     -11.965  14.744  71.254  1.00  0.00    -0.404 A  
HETATM   35  C   UNL     1     -12.097  13.453  70.757  1.00  0.00    -0.333 A  
ENDBRANCH   5  30
TORSDOF 8
ENDMDL
MODEL       66
REMARK 921   NORMALIZED FREE ENERGY PREDICTED BY IDOCK:   -5.51 KCAL/MOL
REMARK 922        TOTAL FREE ENERGY PREDICTED BY IDOCK:   -8.90 KCAL/MOL
REMARK 923 INTER-LIGAND FREE ENERGY PREDICTED BY IDOCK:   -8.00 KCAL/MOL
REMARK 924 INTRA-LIGAND FREE ENERGY PREDICTED BY IDOCK:   -0.89 KCAL/MOL
REMARK 927      BINDING AFFINITY PREDICTED BY RF-SCORE:    0.00 PKD
ROOT
HETATM    1  C   UNL     1     -10.071   4.717  67.589  1.00  0.00    -0.085 C  
HETATM    2  N   UNL     1      -9.341   5.824  68.210  1.00  0.00    -0.116 N  
HETATM    3  C   UNL     1     -10.005   7.059  68.174  1.00  0.00    -0.151 C  
HETATM    4  C   UNL     1      -8.037   5.506  68.919  1.00  0.00    -0.095 C  
HETATM    5  C   UNL     1      -7.999   5.961  70.421  1.00  0.00    -0.106 C  
HETATM    6  C   UNL     1      -7.734   3.977  68.930  1.00  0.00    -0.054 C  
HETATM    7  C   UNL     1      -6.846   6.114  68.135  1.00  0.00    -0.067 C  
HETATM    8  O   UNL     1     -11.149   7.139  67.711  1.00  0.00    -0.142 OA 
ENDROOT
BRANCH   3   9
HETATM    9  C   UNL     1      -9.312   8.298  68.761  1.00  0.00    -0.143 C  
BRANCH   9  10
HETATM   10  N   UNL     1     -10.187   9.451  69.069  1.00  0.00    -0.198 NA 
BRANCH  10  11
HETATM   11  C   UNL     1     -10.445   9.566  70.515  1.00  0.00    -0.296 C  
BRANCH  11  12
HETATM   12  C   UNL     1     -11.941   9.671  70.887  1.00  0.00    -0.309 C  
HETATM   13  H   UNL     1     -13.218  11.085  71.400  1.00  0.00     0.000 HD 
HETATM   14  O   UNL     1     -12.298  11.021  71.172  1.00  0.00    -0.361 OA 
ENDBRANCH  11  12
ENDBRANCH  10  11
BRANCH  10  15
HETATM   15  C   UNL     1      -9.702  10.728  68.475  1.00  0.00    -0.182 C  
BRANCH  15  16
HETATM   16  C   UNL     1     -10.760  11.471  67.598  1.00  0.00    -0.211 C  
HETATM   17  C   UNL     1     -11.306  12.796  65.500  1.00  0.00    -0.312 C  
HETATM   18  C   UNL     1      -9.099  11.533  65.731  1.00  0.00    -0.154 C  
HETATM   19  N   UNL     1     -10.363  11.947  66.337  1.00  0.00    -0.214 N  
HETATM   20  C   UNL     1     -12.238  13.779  66.307  1.00  0.00    -0.489 C  
HETATM   21  O   UNL     1     -11.902  11.686  68.011  1.00  0.00    -0.514 OA 
HETATM   22  C   UNL     1     -10.555  13.660  64.461  1.00  0.00    -0.428 C  
HETATM   23  C   UNL     1     -12.237  11.858  64.701  1.00  0.00    -0.176 C  
BRANCH  20  24
HETATM   24  C   UNL     1     -11.607  14.817  67.213  1.00  0.00    -0.385 A  
HETATM   25  C   UNL     1     -11.982  14.839  68.564  1.00  0.00    -0.284 A  
HETATM   26  C   UNL     1     -11.381  15.728  69.458  1.00  0.00    -0.328 A  
HETATM   27  C   UNL     1     -10.380  16.591  69.020  1.00  0.00    -0.296 A  
HETATM   28  C   UNL     1      -9.981  16.567  67.694  1.00  0.00    -0.254 A  
HETATM   29  C   UNL     1     -10.597  15.702  66.797  1.00  0.00    -0.307 A  
ENDBRANCH  20  24
ENDBRANCH  15  16
ENDBRANCH  10  15
ENDBRANCH   9  10
ENDBRANCH   3   9
BRANCH   5  30
HETATM   30  C   UNL     1      -9.115   5.437  71.306  1.00  0.00    -0.162 A  
HETATM   31  C   UNL     1     -10.182   3.674  72.610  1.00  0.00    -0.239 A  
HETATM   32  C   UNL     1     -10.162   6.291  71.678  1.00  0.00    -0.225 A  
HETATM   33  C   UNL     1      -9.157   4.118  71.776  1.00  0.00    -0.168 A  
HETATM   34  C   UNL     1     -11.231   4.521  72.935  1.00  0.00    -0.205 A  
HETATM   35  C   UNL     1     -11.216   5.832  72.474  1.00  0.00    -0.347 A  
ENDBRANCH   5  30
TORSDOF 8
ENDMDL
MODEL       67
REMARK 921   NORMALIZED FREE ENERGY PREDICTED BY IDOCK:   -5.50 KCAL/MOL
REMARK 922        TOTAL FREE ENERGY PREDICTED BY IDOCK:   -8.87 KCAL/MOL
REMARK 923 INTER-LIGAND FREE ENERGY PREDICTED BY IDOCK:   -8.31 KCAL/MOL
REMARK 924 INTRA-LIGAND FREE ENERGY PREDICTED BY IDOCK:   -0.56 KCAL/MOL
REMARK 927      BINDING AFFINITY PREDICTED BY RF-SCORE:    0.00 PKD
ROOT
HETATM    1  C   UNL     1     -11.841  14.581  66.326  1.00  0.00    -0.344 C  
HETATM    2  N   UNL     1     -10.796  14.107  67.237  1.00  0.00    -0.282 N  
HETATM    3  C   UNL     1      -9.832  13.280  66.644  1.00  0.00    -0.276 C  
HETATM    4  C   UNL     1     -10.793  14.646  68.656  1.00  0.00    -0.255 C  
HETATM    5  C   UNL     1      -9.446  15.333  69.076  1.00  0.00    -0.232 C  
HETATM    6  C   UNL     1     -11.904  15.717  68.879  1.00  0.00    -0.368 C  
HETATM    7  C   UNL     1     -11.161  13.516  69.652  1.00  0.00    -0.128 C  
HETATM    8  O   UNL     1      -9.861  13.059  65.427  1.00  0.00    -0.221 OA 
ENDROOT
BRANCH   3   9
HETATM    9  C   UNL     1      -8.711  12.693  67.516  1.00  0.00    -0.184 C  
BRANCH   9  10
HETATM   10  N   UNL     1      -8.787  11.242  67.788  1.00  0.00    -0.138 NA 
BRANCH  10  11
HETATM   11  C   UNL     1      -9.550  10.533  66.745  1.00  0.00    -0.170 C  
BRANCH  11  12
HETATM   12  C   UNL     1     -10.857   9.878  67.248  1.00  0.00    -0.199 C  
HETATM   13  H   UNL     1     -12.670  10.460  67.767  1.00  0.00     0.000 HD 
HETATM   14  O   UNL     1     -11.867  10.862  67.458  1.00  0.00    -0.524 OA 
ENDBRANCH  11  12
ENDBRANCH  10  11
BRANCH  10  15
HETATM   15  C   UNL     1      -7.455  10.622  68.037  1.00  0.00    -0.090 C  
BRANCH  15  16
HETATM   16  C   UNL     1      -7.346   9.859  69.395  1.00  0.00    -0.091 C  
HETATM   17  C   UNL     1      -7.503   7.676  70.685  1.00  0.00    -0.072 C  
HETATM   18  C   UNL     1      -7.408   7.701  68.134  1.00  0.00    -0.099 C  
HETATM   19  N   UNL     1      -7.462   8.459  69.382  1.00  0.00    -0.087 N  
HETATM   20  C   UNL     1      -8.242   8.383  71.885  1.00  0.00    -0.210 C  
HETATM   21  O   UNL     1      -7.213  10.461  70.463  1.00  0.00    -0.276 OA 
HETATM   22  C   UNL     1      -8.168   6.290  70.518  1.00  0.00    -0.118 C  
HETATM   23  C   UNL     1      -6.054   7.414  71.150  1.00  0.00    -0.036 C  
BRANCH  20  24
HETATM   24  C   UNL     1      -9.693   8.789  71.720  1.00  0.00    -0.380 A  
HETATM   25  C   UNL     1     -10.654   8.177  72.538  1.00  0.00    -0.411 A  
HETATM   26  C   UNL     1     -11.995   8.562  72.478  1.00  0.00    -0.401 A  
HETATM   27  C   UNL     1     -12.392   9.581  71.617  1.00  0.00    -0.480 A  
HETATM   28  C   UNL     1     -11.453  10.213  70.818  1.00  0.00    -0.442 A  
HETATM   29  C   UNL     1     -10.123   9.812  70.857  1.00  0.00    -0.135 A  
ENDBRANCH  20  24
ENDBRANCH  15  16
ENDBRANCH  10  15
ENDBRANCH   9  10
ENDBRANCH   3   9
BRANCH   5  30
HETATM   30  C   UNL     1      -8.964  16.461  68.181  1.00  0.00    -0.197 A  
HETATM   31  C   UNL     1      -8.942  18.798  67.485  1.00  0.00    -0.291 A  
HETATM   32  C   UNL     1      -8.023  16.195  67.177  1.00  0.00    -0.232 A  
HETATM   33  C   UNL     1      -9.424  17.779  68.304  1.00  0.00    -0.290 A  
HETATM   34  C   UNL     1      -8.041  18.509  66.471  1.00  0.00    -0.299 A  
HETATM   35  C   UNL     1      -7.576  17.208  66.323  1.00  0.00    -0.352 A  
ENDBRANCH   5  30
TORSDOF 8
ENDMDL
MODEL       68
REMARK 921   NORMALIZED FREE ENERGY PREDICTED BY IDOCK:   -5.48 KCAL/MOL
REMARK 922        TOTAL FREE ENERGY PREDICTED BY IDOCK:   -8.84 KCAL/MOL
REMARK 923 INTER-LIGAND FREE ENERGY PREDICTED BY IDOCK:   -7.79 KCAL/MOL
REMARK 924 INTRA-LIGAND FREE ENERGY PREDICTED BY IDOCK:   -1.05 KCAL/MOL
REMARK 927      BINDING AFFINITY PREDICTED BY RF-SCORE:    0.00 PKD
ROOT
HETATM    1  C   UNL     1     -10.189  14.098  68.604  1.00  0.00    -0.238 C  
HETATM    2  N   UNL     1     -10.202  12.633  68.593  1.00  0.00    -0.197 N  
HETATM    3  C   UNL     1     -11.341  12.052  69.168  1.00  0.00    -0.281 C  
HETATM    4  C   UNL     1      -9.075  11.918  67.870  1.00  0.00    -0.183 C  
HETATM    5  C   UNL     1      -9.559  10.931  66.750  1.00  0.00    -0.210 C  
HETATM    6  C   UNL     1      -8.104  12.916  67.167  1.00  0.00    -0.122 C  
HETATM    7  C   UNL     1      -8.173  11.182  68.892  1.00  0.00    -0.104 C  
HETATM    8  O   UNL     1     -12.270  12.764  69.570  1.00  0.00    -0.222 OA 
ENDROOT
BRANCH   3   9
HETATM    9  C   UNL     1     -11.441  10.521  69.246  1.00  0.00    -0.256 C  
BRANCH   9  10
HETATM   10  N   UNL     1     -11.309   9.926  70.593  1.00  0.00    -0.312 NA 
BRANCH  10  11
HETATM   11  C   UNL     1     -12.516   9.171  70.975  1.00  0.00    -0.181 C  
BRANCH  11  12
HETATM   12  C   UNL     1     -12.871   9.257  72.477  1.00  0.00    -0.281 C  
HETATM   13  H   UNL     1     -14.497   9.190  73.594  1.00  0.00     0.000 HD 
HETATM   14  O   UNL     1     -14.278   9.137  72.671  1.00  0.00    -0.551 OA 
ENDBRANCH  11  12
ENDBRANCH  10  11
BRANCH  10  15
HETATM   15  C   UNL     1     -10.062   9.126  70.760  1.00  0.00    -0.268 C  
BRANCH  15  16
HETATM   16  C   UNL     1      -9.978   7.867  69.840  1.00  0.00    -0.192 C  
HETATM   17  C   UNL     1      -8.832   5.681  69.240  1.00  0.00    -0.111 C  
HETATM   18  C   UNL     1      -8.390   6.838  71.473  1.00  0.00    -0.115 C  
HETATM   19  N   UNL     1      -9.056   6.861  70.172  1.00  0.00    -0.152 N  
HETATM   20  C   UNL     1      -8.925   6.001  67.699  1.00  0.00    -0.111 C  
HETATM   21  O   UNL     1     -10.661   7.772  68.817  1.00  0.00    -0.202 OA 
HETATM   22  C   UNL     1      -7.458   5.007  69.465  1.00  0.00    -0.057 C  
HETATM   23  C   UNL     1      -9.902   4.608  69.535  1.00  0.00    -0.286 C  
BRANCH  20  24
HETATM   24  C   UNL     1      -8.001   7.045  67.106  1.00  0.00    -0.113 A  
HETATM   25  C   UNL     1      -8.250   7.491  65.799  1.00  0.00    -0.137 A  
HETATM   26  C   UNL     1      -7.474   8.501  65.228  1.00  0.00    -0.086 A  
HETATM   27  C   UNL     1      -6.453   9.099  65.962  1.00  0.00    -0.068 A  
HETATM   28  C   UNL     1      -6.207   8.688  67.263  1.00  0.00    -0.056 A  
HETATM   29  C   UNL     1      -6.962   7.664  67.823  1.00  0.00    -0.077 A  
ENDBRANCH  20  24
ENDBRANCH  15  16
ENDBRANCH  10  15
ENDBRANCH   9  10
ENDBRANCH   3   9
BRANCH   5  30
HETATM   30  C   UNL     1     -10.457  11.525  65.679  1.00  0.00    -0.317 A  
HETATM   31  C   UNL     1     -12.478  12.688  64.966  1.00  0.00    -0.556 A  
HETATM   32  C   UNL     1     -10.061  11.474  64.336  1.00  0.00    -0.328 A  
HETATM   33  C   UNL     1     -11.689  12.127  65.969  1.00  0.00    -0.388 A  
HETATM   34  C   UNL     1     -12.089  12.593  63.639  1.00  0.00    -0.632 A  
HETATM   35  C   UNL     1     -10.876  11.993  63.325  1.00  0.00    -0.400 A  
ENDBRANCH   5  30
TORSDOF 8
ENDMDL
MODEL       69
REMARK 921   NORMALIZED FREE ENERGY PREDICTED BY IDOCK:   -5.44 KCAL/MOL
REMARK 922        TOTAL FREE ENERGY PREDICTED BY IDOCK:   -8.79 KCAL/MOL
REMARK 923 INTER-LIGAND FREE ENERGY PREDICTED BY IDOCK:   -8.16 KCAL/MOL
REMARK 924 INTRA-LIGAND FREE ENERGY PREDICTED BY IDOCK:   -0.64 KCAL/MOL
REMARK 927      BINDING AFFINITY PREDICTED BY RF-SCORE:    0.00 PKD
ROOT
HETATM    1  C   UNL     1     -10.889  19.694  65.482  1.00  0.00    -0.163 C  
HETATM    2  N   UNL     1     -10.282  18.638  66.295  1.00  0.00    -0.411 N  
HETATM    3  C   UNL     1     -10.413  17.344  65.771  1.00  0.00    -0.215 C  
HETATM    4  C   UNL     1      -9.488  19.053  67.521  1.00  0.00    -0.303 C  
HETATM    5  C   UNL     1      -8.009  18.526  67.533  1.00  0.00    -0.245 C  
HETATM    6  C   UNL     1      -9.388  20.603  67.656  1.00  0.00    -0.372 C  
HETATM    7  C   UNL     1     -10.233  18.616  68.807  1.00  0.00    -0.316 C  
HETATM    8  O   UNL     1     -10.941  17.168  64.666  1.00  0.00    -1.005 OA 
ENDROOT
BRANCH   3   9
HETATM    9  C   UNL     1      -9.847  16.155  66.563  1.00  0.00    -0.267 C  
BRANCH   9  10
HETATM   10  N   UNL     1     -10.374  14.821  66.203  1.00  0.00    -0.291 NA 
BRANCH  10  11
HETATM   11  C   UNL     1      -9.338  13.779  66.315  1.00  0.00    -0.145 C  
BRANCH  11  12
HETATM   12  C   UNL     1      -8.020  14.261  66.963  1.00  0.00     0.017 C  
HETATM   13  H   UNL     1      -7.139  14.151  68.725  1.00  0.00     0.000 HD 
HETATM   14  O   UNL     1      -7.949  13.854  68.327  1.00  0.00    -0.131 OA 
ENDBRANCH  11  12
ENDBRANCH  10  11
BRANCH  10  15
HETATM   15  C   UNL     1     -11.620  14.465  66.938  1.00  0.00    -0.388 C  
BRANCH  15  16
HETATM   16  C   UNL     1     -11.765  12.943  67.259  1.00  0.00    -0.373 C  
HETATM   17  C   UNL     1     -11.271  10.986  68.801  1.00  0.00    -0.266 C  
HETATM   18  C   UNL     1     -10.913  13.395  69.565  1.00  0.00     0.051 C  
HETATM   19  N   UNL     1     -11.283  12.475  68.492  1.00  0.00    -0.261 N  
HETATM   20  C   UNL     1     -10.970  10.037  67.578  1.00  0.00    -0.276 C  
HETATM   21  O   UNL     1     -12.240  12.156  66.438  1.00  0.00    -0.592 OA 
HETATM   22  C   UNL     1     -10.245  10.621  69.899  1.00  0.00    -0.011 C  
HETATM   23  C   UNL     1     -12.658  10.582  69.345  1.00  0.00     0.310 C  
BRANCH  20  24
HETATM   24  C   UNL     1      -9.673  10.207  66.814  1.00  0.00    -0.235 A  
HETATM   25  C   UNL     1      -9.718  10.208  65.412  1.00  0.00    -0.355 A  
HETATM   26  C   UNL     1      -8.564  10.430  64.659  1.00  0.00    -0.192 A  
HETATM   27  C   UNL     1      -7.351  10.680  65.295  1.00  0.00     0.015 A  
HETATM   28  C   UNL     1      -7.290  10.705  66.679  1.00  0.00    -0.129 A  
HETATM   29  C   UNL     1      -8.433  10.457  67.430  1.00  0.00    -0.121 A  
ENDBRANCH  20  24
ENDBRANCH  15  16
ENDBRANCH  10  15
ENDBRANCH   9  10
ENDBRANCH   3   9
BRANCH   5  30
HETATM   30  C   UNL     1      -7.163  18.882  66.323  1.00  0.00    -0.274 A  
HETATM   31  C   UNL     1      -6.432  20.431  64.587  1.00  0.00    -0.329 A  
HETATM   32  C   UNL     1      -6.261  17.942  65.809  1.00  0.00    -0.252 A  
HETATM   33  C   UNL     1      -7.243  20.124  65.679  1.00  0.00    -0.303 A  
HETATM   34  C   UNL     1      -5.574  19.475  64.067  1.00  0.00    -0.310 A  
HETATM   35  C   UNL     1      -5.483  18.232  64.683  1.00  0.00    -0.018 A  
ENDBRANCH   5  30
TORSDOF 8
ENDMDL
MODEL       70
REMARK 921   NORMALIZED FREE ENERGY PREDICTED BY IDOCK:   -5.44 KCAL/MOL
REMARK 922        TOTAL FREE ENERGY PREDICTED BY IDOCK:   -8.79 KCAL/MOL
REMARK 923 INTER-LIGAND FREE ENERGY PREDICTED BY IDOCK:   -7.79 KCAL/MOL
REMARK 924 INTRA-LIGAND FREE ENERGY PREDICTED BY IDOCK:   -1.00 KCAL/MOL
REMARK 927      BINDING AFFINITY PREDICTED BY RF-SCORE:    0.00 PKD
ROOT
HETATM    1  C   UNL     1      -6.287   6.409  70.753  1.00  0.00    -0.040 C  
HETATM    2  N   UNL     1      -7.163   7.511  70.352  1.00  0.00    -0.063 N  
HETATM    3  C   UNL     1      -7.848   7.309  69.145  1.00  0.00    -0.117 C  
HETATM    4  C   UNL     1      -7.334   8.670  71.318  1.00  0.00    -0.096 C  
HETATM    5  C   UNL     1      -8.824   8.957  71.716  1.00  0.00    -0.171 C  
HETATM    6  C   UNL     1      -6.573   8.432  72.658  1.00  0.00    -0.104 C  
HETATM    7  C   UNL     1      -6.670   9.945  70.737  1.00  0.00    -0.053 C  
HETATM    8  O   UNL     1      -7.745   6.233  68.542  1.00  0.00    -0.097 OA 
ENDROOT
BRANCH   3   9
HETATM    9  C   UNL     1      -8.765   8.419  68.610  1.00  0.00    -0.133 C  
BRANCH   9  10
HETATM   10  N   UNL     1      -9.123   8.336  67.177  1.00  0.00    -0.136 NA 
BRANCH  10  11
HETATM   11  C   UNL     1     -10.567   8.106  66.991  1.00  0.00    -0.275 C  
BRANCH  11  12
HETATM   12  C   UNL     1     -10.980   6.616  66.998  1.00  0.00    -0.393 C  
HETATM   13  H   UNL     1     -11.629   5.293  68.310  1.00  0.00     0.000 HD 
HETATM   14  O   UNL     1     -11.376   6.208  68.305  1.00  0.00    -0.253 OA 
ENDBRANCH  11  12
ENDBRANCH  10  11
BRANCH  10  15
HETATM   15  C   UNL     1      -8.624   9.492  66.381  1.00  0.00    -0.134 C  
BRANCH  15  16
HETATM   16  C   UNL     1      -9.532  10.761  66.452  1.00  0.00    -0.171 C  
HETATM   17  C   UNL     1      -9.868  13.157  67.226  1.00  0.00    -0.232 C  
HETATM   18  C   UNL     1      -7.558  12.070  67.251  1.00  0.00    -0.157 C  
HETATM   19  N   UNL     1      -8.992  11.934  67.004  1.00  0.00    -0.184 N  
HETATM   20  C   UNL     1     -11.359  12.862  67.646  1.00  0.00    -0.349 C  
HETATM   21  O   UNL     1     -10.709  10.731  66.085  1.00  0.00    -0.210 OA 
HETATM   22  C   UNL     1      -9.291  14.107  68.301  1.00  0.00    -0.203 C  
HETATM   23  C   UNL     1      -9.930  13.966  65.912  1.00  0.00    -0.317 C  
BRANCH  20  24
HETATM   24  C   UNL     1     -11.625  12.056  68.902  1.00  0.00    -0.377 A  
HETATM   25  C   UNL     1     -12.102  12.727  70.037  1.00  0.00    -0.355 A  
HETATM   26  C   UNL     1     -12.430  12.025  71.199  1.00  0.00    -0.353 A  
HETATM   27  C   UNL     1     -12.310  10.638  71.235  1.00  0.00    -0.488 A  
HETATM   28  C   UNL     1     -11.862   9.955  70.116  1.00  0.00    -0.191 A  
HETATM   29  C   UNL     1     -11.509  10.656  68.968  1.00  0.00    -0.342 A  
ENDBRANCH  20  24
ENDBRANCH  15  16
ENDBRANCH  10  15
ENDBRANCH   9  10
ENDBRANCH   3   9
BRANCH   5  30
HETATM   30  C   UNL     1      -9.597   7.787  72.299  1.00  0.00    -0.231 A  
HETATM   31  C   UNL     1     -10.283   6.376  74.165  1.00  0.00    -0.361 A  
HETATM   32  C   UNL     1     -10.404   7.005  71.462  1.00  0.00    -0.218 A  
HETATM   33  C   UNL     1      -9.540   7.439  73.655  1.00  0.00    -0.337 A  
HETATM   34  C   UNL     1     -11.045   5.588  73.316  1.00  0.00    -0.322 A  
HETATM   35  C   UNL     1     -11.111   5.909  71.965  1.00  0.00    -0.329 A  
ENDBRANCH   5  30
TORSDOF 8
ENDMDL
MODEL       71
REMARK 921   NORMALIZED FREE ENERGY PREDICTED BY IDOCK:   -5.43 KCAL/MOL
REMARK 922        TOTAL FREE ENERGY PREDICTED BY IDOCK:   -8.77 KCAL/MOL
REMARK 923 INTER-LIGAND FREE ENERGY PREDICTED BY IDOCK:   -8.08 KCAL/MOL
REMARK 924 INTRA-LIGAND FREE ENERGY PREDICTED BY IDOCK:   -0.69 KCAL/MOL
REMARK 927      BINDING AFFINITY PREDICTED BY RF-SCORE:    0.00 PKD
ROOT
HETATM    1  C   UNL     1      -7.437   6.158  70.027  1.00  0.00    -0.087 C  
HETATM    2  N   UNL     1      -8.429   7.234  70.051  1.00  0.00    -0.138 N  
HETATM    3  C   UNL     1      -9.451   7.111  69.099  1.00  0.00    -0.147 C  
HETATM    4  C   UNL     1      -8.325   8.273  71.153  1.00  0.00    -0.129 C  
HETATM    5  C   UNL     1      -9.623   8.415  72.023  1.00  0.00    -0.344 C  
HETATM    6  C   UNL     1      -7.175   7.949  72.156  1.00  0.00    -0.088 C  
HETATM    7  C   UNL     1      -7.918   9.642  70.553  1.00  0.00    -0.148 C  
HETATM    8  O   UNL     1      -9.508   6.114  68.369  1.00  0.00    -0.119 OA 
ENDROOT
BRANCH   3   9
HETATM    9  C   UNL     1     -10.525   8.207  69.008  1.00  0.00    -0.198 C  
BRANCH   9  10
HETATM   10  N   UNL     1     -10.246   9.320  68.076  1.00  0.00    -0.198 NA 
BRANCH  10  11
HETATM   11  C   UNL     1     -10.454   8.918  66.673  1.00  0.00    -0.161 C  
BRANCH  11  12
HETATM   12  C   UNL     1      -9.167   8.908  65.818  1.00  0.00    -0.221 C  
HETATM   13  H   UNL     1      -7.225   8.720  66.113  1.00  0.00     0.000 HD 
HETATM   14  O   UNL     1      -8.017   8.727  66.638  1.00  0.00    -0.098 OA 
ENDBRANCH  11  12
ENDBRANCH  10  11
BRANCH  10  15
HETATM   15  C   UNL     1     -10.976  10.572  68.423  1.00  0.00    -0.261 C  
BRANCH  15  16
HETATM   16  C   UNL     1     -10.236  11.883  68.009  1.00  0.00    -0.192 C  
HETATM   17  C   UNL     1     -10.205  14.420  67.886  1.00  0.00    -0.232 C  
HETATM   18  C   UNL     1     -11.894  13.187  69.350  1.00  0.00    -0.326 C  
HETATM   19  N   UNL     1     -10.805  13.113  68.379  1.00  0.00    -0.253 N  
HETATM   20  C   UNL     1      -9.602  14.389  66.429  1.00  0.00    -0.320 C  
HETATM   21  O   UNL     1      -9.206  11.854  67.331  1.00  0.00    -0.171 OA 
HETATM   22  C   UNL     1     -11.225  15.583  67.912  1.00  0.00    -0.325 C  
HETATM   23  C   UNL     1      -9.055  14.824  68.833  1.00  0.00    -0.168 C  
BRANCH  20  24
HETATM   24  C   UNL     1     -10.497  14.001  65.269  1.00  0.00    -0.398 A  
HETATM   25  C   UNL     1     -10.217  12.812  64.579  1.00  0.00    -0.333 A  
HETATM   26  C   UNL     1     -11.048  12.370  63.548  1.00  0.00    -0.521 A  
HETATM   27  C   UNL     1     -12.185  13.097  63.207  1.00  0.00    -0.438 A  
HETATM   28  C   UNL     1     -12.490  14.262  63.892  1.00  0.00    -0.062 A  
HETATM   29  C   UNL     1     -11.649  14.717  64.900  1.00  0.00    -0.405 A  
ENDBRANCH  20  24
ENDBRANCH  15  16
ENDBRANCH  10  15
ENDBRANCH   9  10
ENDBRANCH   3   9
BRANCH   5  30
HETATM   30  C   UNL     1     -10.136   7.141  72.671  1.00  0.00    -0.217 A  
HETATM   31  C   UNL     1     -10.142   5.490  74.466  1.00  0.00    -0.293 A  
HETATM   32  C   UNL     1     -11.155   6.409  72.048  1.00  0.00    -0.306 A  
HETATM   33  C   UNL     1      -9.631   6.648  73.881  1.00  0.00    -0.236 A  
HETATM   34  C   UNL     1     -11.122   4.756  73.815  1.00  0.00    -0.321 A  
HETATM   35  C   UNL     1     -11.633   5.221  72.609  1.00  0.00    -0.226 A  
ENDBRANCH   5  30
TORSDOF 8
ENDMDL
MODEL       72
REMARK 921   NORMALIZED FREE ENERGY PREDICTED BY IDOCK:   -5.41 KCAL/MOL
REMARK 922        TOTAL FREE ENERGY PREDICTED BY IDOCK:   -8.75 KCAL/MOL
REMARK 923 INTER-LIGAND FREE ENERGY PREDICTED BY IDOCK:   -7.81 KCAL/MOL
REMARK 924 INTRA-LIGAND FREE ENERGY PREDICTED BY IDOCK:   -0.94 KCAL/MOL
REMARK 927      BINDING AFFINITY PREDICTED BY RF-SCORE:    0.00 PKD
ROOT
HETATM    1  C   UNL     1     -10.433   4.510  65.780  1.00  0.00    -0.233 C  
HETATM    2  N   UNL     1      -9.531   5.491  66.389  1.00  0.00    -0.151 N  
HETATM    3  C   UNL     1     -10.172   6.583  66.991  1.00  0.00    -0.215 C  
HETATM    4  C   UNL     1      -8.047   5.171  66.416  1.00  0.00    -0.108 C  
HETATM    5  C   UNL     1      -7.415   5.190  67.853  1.00  0.00    -0.076 C  
HETATM    6  C   UNL     1      -7.743   3.755  65.837  1.00  0.00    -0.089 C  
HETATM    7  C   UNL     1      -7.281   6.130  65.470  1.00  0.00    -0.074 C  
HETATM    8  O   UNL     1     -11.407   6.631  67.045  1.00  0.00    -0.348 OA 
ENDROOT
BRANCH   3   9
HETATM    9  C   UNL     1      -9.320   7.693  67.626  1.00  0.00    -0.142 C  
BRANCH   9  10
HETATM   10  N   UNL     1     -10.050   8.701  68.425  1.00  0.00    -0.185 NA 
BRANCH  10  11
HETATM   11  C   UNL     1      -9.999   8.392  69.866  1.00  0.00    -0.190 C  
BRANCH  11  12
HETATM   12  C   UNL     1     -11.385   8.228  70.530  1.00  0.00    -0.219 C  
HETATM   13  H   UNL     1     -12.681   6.776  70.852  1.00  0.00     0.000 HD 
HETATM   14  O   UNL     1     -11.829   6.877  70.444  1.00  0.00    -0.342 OA 
ENDBRANCH  11  12
ENDBRANCH  10  11
BRANCH  10  15
HETATM   15  C   UNL     1      -9.632  10.099  68.128  1.00  0.00    -0.139 C  
BRANCH  15  16
HETATM   16  C   UNL     1     -10.665  10.913  67.285  1.00  0.00    -0.268 C  
HETATM   17  C   UNL     1     -11.125  12.591  65.434  1.00  0.00    -0.302 C  
HETATM   18  C   UNL     1      -8.831  11.501  65.692  1.00  0.00    -0.013 C  
HETATM   19  N   UNL     1     -10.189  11.671  66.202  1.00  0.00    -0.219 N  
HETATM   20  C   UNL     1     -12.240  13.303  66.291  1.00  0.00    -0.440 C  
HETATM   21  O   UNL     1     -11.861  10.940  67.585  1.00  0.00    -0.572 OA 
HETATM   22  C   UNL     1     -10.366  13.712  64.686  1.00  0.00    -0.407 C  
HETATM   23  C   UNL     1     -11.857  11.762  64.356  1.00  0.00    -0.274 C  
BRANCH  20  24
HETATM   24  C   UNL     1     -11.827  14.182  67.454  1.00  0.00    -0.447 A  
HETATM   25  C   UNL     1     -11.215  15.413  67.176  1.00  0.00    -0.256 A  
HETATM   26  C   UNL     1     -10.876  16.293  68.206  1.00  0.00    -0.340 A  
HETATM   27  C   UNL     1     -11.167  15.967  69.528  1.00  0.00    -0.348 A  
HETATM   28  C   UNL     1     -11.791  14.765  69.821  1.00  0.00    -0.362 A  
HETATM   29  C   UNL     1     -12.104  13.877  68.798  1.00  0.00    -0.344 A  
ENDBRANCH  20  24
ENDBRANCH  15  16
ENDBRANCH  10  15
ENDBRANCH   9  10
ENDBRANCH   3   9
BRANCH   5  30
HETATM   30  C   UNL     1      -8.074   4.293  68.885  1.00  0.00    -0.073 A  
HETATM   31  C   UNL     1      -9.845   3.789  70.483  1.00  0.00    -0.147 A  
HETATM   32  C   UNL     1      -7.497   3.054  69.195  1.00  0.00    -0.048 A  
HETATM   33  C   UNL     1      -9.249   4.647  69.561  1.00  0.00    -0.182 A  
HETATM   34  C   UNL     1      -9.239   2.585  70.807  1.00  0.00    -0.201 A  
HETATM   35  C   UNL     1      -8.068   2.215  70.157  1.00  0.00    -0.056 A  
ENDBRANCH   5  30
TORSDOF 8
ENDMDL
MODEL       73
REMARK 921   NORMALIZED FREE ENERGY PREDICTED BY IDOCK:   -5.41 KCAL/MOL
REMARK 922        TOTAL FREE ENERGY PREDICTED BY IDOCK:   -8.74 KCAL/MOL
REMARK 923 INTER-LIGAND FREE ENERGY PREDICTED BY IDOCK:   -8.27 KCAL/MOL
REMARK 924 INTRA-LIGAND FREE ENERGY PREDICTED BY IDOCK:   -0.47 KCAL/MOL
REMARK 927      BINDING AFFINITY PREDICTED BY RF-SCORE:    0.00 PKD
ROOT
HETATM    1  C   UNL     1      -9.745   6.924  74.140  1.00  0.00    -0.297 C  
HETATM    2  N   UNL     1     -10.057   6.950  72.710  1.00  0.00    -0.170 N  
HETATM    3  C   UNL     1      -9.424   7.974  71.990  1.00  0.00    -0.197 C  
HETATM    4  C   UNL     1     -10.906   5.825  72.147  1.00  0.00    -0.244 C  
HETATM    5  C   UNL     1     -10.232   5.046  70.963  1.00  0.00    -0.283 C  
HETATM    6  C   UNL     1     -11.243   4.750  73.225  1.00  0.00    -0.421 C  
HETATM    7  C   UNL     1     -12.292   6.370  71.721  1.00  0.00    -0.259 C  
HETATM    8  O   UNL     1      -8.615   8.724  72.550  1.00  0.00    -0.403 OA 
ENDROOT
BRANCH   3   9
HETATM    9  C   UNL     1      -9.711   8.120  70.487  1.00  0.00    -0.174 C  
BRANCH   9  10
HETATM   10  N   UNL     1     -10.671   9.178  70.105  1.00  0.00    -0.224 NA 
BRANCH  10  11
HETATM   11  C   UNL     1     -11.340   9.757  71.284  1.00  0.00    -0.375 C  
BRANCH  11  12
HETATM   12  C   UNL     1     -12.707  10.410  70.982  1.00  0.00    -0.394 C  
HETATM   13  H   UNL     1     -14.084  11.425  71.966  1.00  0.00     0.000 HD 
HETATM   14  O   UNL     1     -13.244  11.023  72.151  1.00  0.00    -0.481 OA 
ENDBRANCH  11  12
ENDBRANCH  10  11
BRANCH  10  15
HETATM   15  C   UNL     1     -10.073  10.220  69.223  1.00  0.00    -0.227 C  
BRANCH  15  16
HETATM   16  C   UNL     1      -9.877   9.771  67.740  1.00  0.00    -0.160 C  
HETATM   17  C   UNL     1      -8.476   9.806  65.621  1.00  0.00    -0.139 C  
HETATM   18  C   UNL     1      -7.515  10.582  67.855  1.00  0.00    -0.091 C  
HETATM   19  N   UNL     1      -8.668  10.094  67.102  1.00  0.00    -0.129 N  
HETATM   20  C   UNL     1      -9.758   9.977  64.720  1.00  0.00    -0.363 C  
HETATM   21  O   UNL     1     -10.772   9.194  67.119  1.00  0.00    -0.255 OA 
HETATM   22  C   UNL     1      -7.375  10.689  64.988  1.00  0.00     0.085 C  
HETATM   23  C   UNL     1      -8.012   8.342  65.459  1.00  0.00    -0.120 C  
BRANCH  20  24
HETATM   24  C   UNL     1     -10.462  11.318  64.687  1.00  0.00    -0.387 A  
HETATM   25  C   UNL     1     -11.243  11.635  63.565  1.00  0.00    -0.462 A  
HETATM   26  C   UNL     1     -11.968  12.827  63.512  1.00  0.00    -0.633 A  
HETATM   27  C   UNL     1     -11.945  13.708  64.589  1.00  0.00    -0.441 A  
HETATM   28  C   UNL     1     -11.198  13.402  65.715  1.00  0.00    -0.305 A  
HETATM   29  C   UNL     1     -10.454  12.229  65.758  1.00  0.00    -0.287 A  
ENDBRANCH  20  24
ENDBRANCH  15  16
ENDBRANCH  10  15
ENDBRANCH   9  10
ENDBRANCH   3   9
BRANCH   5  30
HETATM   30  C   UNL     1      -8.860   4.458  71.244  1.00  0.00    -0.152 A  
HETATM   31  C   UNL     1      -6.425   4.535  71.150  1.00  0.00    -0.026 A  
HETATM   32  C   UNL     1      -8.756   3.235  71.918  1.00  0.00    -0.113 A  
HETATM   33  C   UNL     1      -7.670   5.086  70.853  1.00  0.00    -0.083 A  
HETATM   34  C   UNL     1      -6.341   3.304  71.782  1.00  0.00    -0.015 A  
HETATM   35  C   UNL     1      -7.508   2.658  72.173  1.00  0.00    -0.047 A  
ENDBRANCH   5  30
TORSDOF 8
ENDMDL
MODEL       74
REMARK 921   NORMALIZED FREE ENERGY PREDICTED BY IDOCK:   -5.36 KCAL/MOL
REMARK 922        TOTAL FREE ENERGY PREDICTED BY IDOCK:   -8.67 KCAL/MOL
REMARK 923 INTER-LIGAND FREE ENERGY PREDICTED BY IDOCK:   -7.64 KCAL/MOL
REMARK 924 INTRA-LIGAND FREE ENERGY PREDICTED BY IDOCK:   -1.04 KCAL/MOL
REMARK 927      BINDING AFFINITY PREDICTED BY RF-SCORE:    0.00 PKD
ROOT
HETATM    1  C   UNL     1      -8.177  12.834  67.548  1.00  0.00    -0.179 C  
HETATM    2  N   UNL     1      -9.438  12.091  67.602  1.00  0.00    -0.180 N  
HETATM    3  C   UNL     1      -9.494  11.101  68.592  1.00  0.00    -0.193 C  
HETATM    4  C   UNL     1     -10.568  12.542  66.693  1.00  0.00    -0.237 C  
HETATM    5  C   UNL     1     -11.899  12.887  67.449  1.00  0.00    -0.418 C  
HETATM    6  C   UNL     1     -10.193  13.822  65.885  1.00  0.00    -0.322 C  
HETATM    7  C   UNL     1     -10.824  11.474  65.599  1.00  0.00    -0.310 C  
HETATM    8  O   UNL     1      -8.554  10.955  69.384  1.00  0.00    -0.052 OA 
ENDROOT
BRANCH   3   9
HETATM    9  C   UNL     1     -10.757  10.233  68.713  1.00  0.00    -0.219 C  
BRANCH   9  10
HETATM   10  N   UNL     1     -10.914   9.481  69.977  1.00  0.00    -0.242 NA 
BRANCH  10  11
HETATM   11  C   UNL     1     -12.094   9.935  70.735  1.00  0.00    -0.308 C  
BRANCH  11  12
HETATM   12  C   UNL     1     -12.938   8.791  71.340  1.00  0.00    -0.268 C  
HETATM   13  H   UNL     1     -13.791   8.369  73.069  1.00  0.00     0.000 HD 
HETATM   14  O   UNL     1     -13.272   9.072  72.697  1.00  0.00    -0.443 OA 
ENDBRANCH  11  12
ENDBRANCH  10  11
BRANCH  10  15
HETATM   15  C   UNL     1     -10.894   8.004  69.786  1.00  0.00    -0.194 C  
BRANCH  15  16
HETATM   16  C   UNL     1      -9.583   7.457  69.138  1.00  0.00    -0.156 C  
HETATM   17  C   UNL     1      -8.453   6.170  67.262  1.00  0.00    -0.104 C  
HETATM   18  C   UNL     1     -10.877   6.947  67.061  1.00  0.00    -0.366 C  
HETATM   19  N   UNL     1      -9.669   6.843  67.878  1.00  0.00    -0.122 N  
HETATM   20  C   UNL     1      -7.483   5.451  68.275  1.00  0.00    -0.073 C  
HETATM   21  O   UNL     1      -8.502   7.511  69.730  1.00  0.00    -0.132 OA 
HETATM   22  C   UNL     1      -8.840   5.113  66.201  1.00  0.00    -0.132 C  
HETATM   23  C   UNL     1      -7.614   7.241  66.530  1.00  0.00    -0.092 C  
BRANCH  20  24
HETATM   24  C   UNL     1      -8.029   4.351  69.164  1.00  0.00    -0.068 A  
HETATM   25  C   UNL     1      -7.575   4.277  70.489  1.00  0.00    -0.052 A  
HETATM   26  C   UNL     1      -8.095   3.328  71.371  1.00  0.00    -0.061 A  
HETATM   27  C   UNL     1      -9.095   2.456  70.950  1.00  0.00    -0.180 A  
HETATM   28  C   UNL     1      -9.573   2.529  69.652  1.00  0.00    -0.049 A  
HETATM   29  C   UNL     1      -9.037   3.455  68.765  1.00  0.00    -0.204 A  
ENDBRANCH  20  24
ENDBRANCH  15  16
ENDBRANCH  10  15
ENDBRANCH   9  10
ENDBRANCH   3   9
BRANCH   5  30
HETATM   30  C   UNL     1     -11.789  13.923  68.555  1.00  0.00    -0.401 A  
HETATM   31  C   UNL     1     -11.287  16.169  69.358  1.00  0.00    -0.323 A  
HETATM   32  C   UNL     1     -12.133  13.573  69.867  1.00  0.00    -0.408 A  
HETATM   33  C   UNL     1     -11.350  15.233  68.327  1.00  0.00    -0.344 A  
HETATM   34  C   UNL     1     -11.592  15.795  70.658  1.00  0.00    -0.416 A  
HETATM   35  C   UNL     1     -12.022  14.498  70.910  1.00  0.00    -0.389 A  
ENDBRANCH   5  30
TORSDOF 8
ENDMDL
MODEL       75
REMARK 921   NORMALIZED FREE ENERGY PREDICTED BY IDOCK:   -5.36 KCAL/MOL
REMARK 922        TOTAL FREE ENERGY PREDICTED BY IDOCK:   -8.67 KCAL/MOL
REMARK 923 INTER-LIGAND FREE ENERGY PREDICTED BY IDOCK:   -7.65 KCAL/MOL
REMARK 924 INTRA-LIGAND FREE ENERGY PREDICTED BY IDOCK:   -1.03 KCAL/MOL
REMARK 927      BINDING AFFINITY PREDICTED BY RF-SCORE:    0.00 PKD
ROOT
HETATM    1  C   UNL     1      -7.715   8.790  70.296  1.00  0.00    -0.085 C  
HETATM    2  N   UNL     1      -9.016   8.974  69.649  1.00  0.00    -0.147 N  
HETATM    3  C   UNL     1      -8.953   9.306  68.288  1.00  0.00    -0.129 C  
HETATM    4  C   UNL     1     -10.263   8.672  70.461  1.00  0.00    -0.197 C  
HETATM    5  C   UNL     1     -11.211   7.608  69.804  1.00  0.00    -0.042 C  
HETATM    6  C   UNL     1      -9.919   8.118  71.877  1.00  0.00    -0.277 C  
HETATM    7  C   UNL     1     -11.035   9.983  70.753  1.00  0.00    -0.375 C  
HETATM    8  O   UNL     1      -7.862   9.352  67.706  1.00  0.00    -0.095 OA 
ENDROOT
BRANCH   3   9
HETATM    9  C   UNL     1     -10.258   9.560  67.518  1.00  0.00    -0.228 C  
BRANCH   9  10
HETATM   10  N   UNL     1     -10.254  10.709  66.587  1.00  0.00    -0.224 NA 
BRANCH  10  11
HETATM   11  C   UNL     1     -10.137  10.271  65.185  1.00  0.00    -0.285 C  
BRANCH  11  12
HETATM   12  C   UNL     1     -10.781  11.234  64.162  1.00  0.00    -0.369 C  
HETATM   13  H   UNL     1     -10.194  12.348  62.642  1.00  0.00     0.000 HD 
HETATM   14  O   UNL     1      -9.798  11.755  63.271  1.00  0.00    -0.392 OA 
ENDBRANCH  11  12
ENDBRANCH  10  11
BRANCH  10  15
HETATM   15  C   UNL     1     -11.400  11.638  66.798  1.00  0.00    -0.286 C  
BRANCH  15  16
HETATM   16  C   UNL     1     -11.070  12.869  67.702  1.00  0.00    -0.264 C  
HETATM   17  C   UNL     1     -10.541  15.345  67.900  1.00  0.00    -0.267 C  
HETATM   18  C   UNL     1     -11.472  14.360  65.737  1.00  0.00    -0.335 C  
HETATM   19  N   UNL     1     -10.994  14.135  67.099  1.00  0.00    -0.294 N  
HETATM   20  C   UNL     1      -9.433  15.070  68.988  1.00  0.00    -0.210 C  
HETATM   21  O   UNL     1     -10.831  12.738  68.905  1.00  0.00    -0.238 OA 
HETATM   22  C   UNL     1      -9.997  16.478  66.999  1.00  0.00    -0.268 C  
HETATM   23  C   UNL     1     -11.761  15.927  68.648  1.00  0.00    -0.328 C  
BRANCH  20  24
HETATM   24  C   UNL     1      -8.110  14.471  68.556  1.00  0.00    -0.148 A  
HETATM   25  C   UNL     1      -7.015  15.329  68.379  1.00  0.00    -0.111 A  
HETATM   26  C   UNL     1      -5.756  14.824  68.050  1.00  0.00    -0.146 A  
HETATM   27  C   UNL     1      -5.566  13.451  67.917  1.00  0.00    -0.121 A  
HETATM   28  C   UNL     1      -6.631  12.586  68.111  1.00  0.00    -0.077 A  
HETATM   29  C   UNL     1      -7.891  13.090  68.412  1.00  0.00    -0.134 A  
ENDBRANCH  20  24
ENDBRANCH  15  16
ENDBRANCH  10  15
ENDBRANCH   9  10
ENDBRANCH   3   9
BRANCH   5  30
HETATM   30  C   UNL     1     -10.579   6.270  69.462  1.00  0.00    -0.331 A  
HETATM   31  C   UNL     1      -9.782   4.047  70.069  1.00  0.00    -0.264 A  
HETATM   32  C   UNL     1     -10.207   5.999  68.139  1.00  0.00    -0.214 A  
HETATM   33  C   UNL     1     -10.339   5.276  70.419  1.00  0.00    -0.345 A  
HETATM   34  C   UNL     1      -9.383   3.811  68.762  1.00  0.00    -0.230 A  
HETATM   35  C   UNL     1      -9.603   4.785  67.796  1.00  0.00    -0.194 A  
ENDBRANCH   5  30
TORSDOF 8
ENDMDL
MODEL       76
REMARK 921   NORMALIZED FREE ENERGY PREDICTED BY IDOCK:   -5.36 KCAL/MOL
REMARK 922        TOTAL FREE ENERGY PREDICTED BY IDOCK:   -8.67 KCAL/MOL
REMARK 923 INTER-LIGAND FREE ENERGY PREDICTED BY IDOCK:   -8.54 KCAL/MOL
REMARK 924 INTRA-LIGAND FREE ENERGY PREDICTED BY IDOCK:   -0.13 KCAL/MOL
REMARK 927      BINDING AFFINITY PREDICTED BY RF-SCORE:    0.00 PKD
ROOT
HETATM    1  C   UNL     1      -9.843  14.195  68.403  1.00  0.00    -0.231 C  
HETATM    2  N   UNL     1     -10.083  12.750  68.435  1.00  0.00    -0.236 N  
HETATM    3  C   UNL     1     -11.279  12.368  69.059  1.00  0.00    -0.266 C  
HETATM    4  C   UNL     1      -9.105  11.851  67.701  1.00  0.00    -0.179 C  
HETATM    5  C   UNL     1      -9.772  10.925  66.623  1.00  0.00    -0.222 C  
HETATM    6  C   UNL     1      -8.015  12.668  66.942  1.00  0.00     0.019 C  
HETATM    7  C   UNL     1      -8.295  11.008  68.718  1.00  0.00    -0.144 C  
HETATM    8  O   UNL     1     -12.073  13.224  69.466  1.00  0.00    -0.303 OA 
ENDROOT
BRANCH   3   9
HETATM    9  C   UNL     1     -11.613  10.873  69.184  1.00  0.00    -0.319 C  
BRANCH   9  10
HETATM   10  N   UNL     1     -11.462  10.280  70.530  1.00  0.00    -0.321 NA 
BRANCH  10  11
HETATM   11  C   UNL     1     -12.703   9.621  70.976  1.00  0.00    -0.271 C  
BRANCH  11  12
HETATM   12  C   UNL     1     -13.392  10.308  72.176  1.00  0.00    -0.299 C  
HETATM   13  H   UNL     1     -13.753  12.149  72.788  1.00  0.00     0.000 HD 
HETATM   14  O   UNL     1     -13.330  11.726  72.050  1.00  0.00    -0.487 OA 
ENDBRANCH  11  12
ENDBRANCH  10  11
BRANCH  10  15
HETATM   15  C   UNL     1     -10.272   9.392  70.649  1.00  0.00    -0.288 C  
BRANCH  15  16
HETATM   16  C   UNL     1     -10.615   7.880  70.838  1.00  0.00    -0.213 C  
HETATM   17  C   UNL     1     -10.277   5.715  72.123  1.00  0.00    -0.202 C  
HETATM   18  C   UNL     1      -9.483   7.950  73.066  1.00  0.00    -0.271 C  
HETATM   19  N   UNL     1     -10.093   7.215  71.960  1.00  0.00    -0.178 N  
HETATM   20  C   UNL     1     -10.246   4.874  70.790  1.00  0.00    -0.276 C  
HETATM   21  O   UNL     1     -11.283   7.263  70.005  1.00  0.00    -0.263 OA 
HETATM   22  C   UNL     1      -9.216   5.089  73.059  1.00  0.00    -0.130 C  
HETATM   23  C   UNL     1     -11.650   5.454  72.779  1.00  0.00    -0.293 C  
BRANCH  20  24
HETATM   24  C   UNL     1      -9.018   4.942  69.904  1.00  0.00    -0.138 A  
HETATM   25  C   UNL     1      -7.754   4.842  70.505  1.00  0.00    -0.058 A  
HETATM   26  C   UNL     1      -6.593   4.828  69.731  1.00  0.00    -0.036 A  
HETATM   27  C   UNL     1      -6.677   4.890  68.343  1.00  0.00    -0.050 A  
HETATM   28  C   UNL     1      -7.917   4.966  67.729  1.00  0.00    -0.094 A  
HETATM   29  C   UNL     1      -9.073   5.007  68.500  1.00  0.00    -0.136 A  
ENDBRANCH  20  24
ENDBRANCH  15  16
ENDBRANCH  10  15
ENDBRANCH   9  10
ENDBRANCH   3   9
BRANCH   5  30
HETATM   30  C   UNL     1     -10.602  11.625  65.562  1.00  0.00    -0.329 A  
HETATM   31  C   UNL     1     -12.522  12.955  64.861  1.00  0.00    -0.540 A  
HETATM   32  C   UNL     1     -10.178  11.606  64.227  1.00  0.00    -0.357 A  
HETATM   33  C   UNL     1     -11.796  12.298  65.853  1.00  0.00    -0.420 A  
HETATM   34  C   UNL     1     -12.109  12.892  63.539  1.00  0.00    -0.633 A  
HETATM   35  C   UNL     1     -10.932  12.223  63.224  1.00  0.00    -0.373 A  
ENDBRANCH   5  30
TORSDOF 8
ENDMDL
MODEL       77
REMARK 921   NORMALIZED FREE ENERGY PREDICTED BY IDOCK:   -5.35 KCAL/MOL
REMARK 922        TOTAL FREE ENERGY PREDICTED BY IDOCK:   -8.66 KCAL/MOL
REMARK 923 INTER-LIGAND FREE ENERGY PREDICTED BY IDOCK:   -8.97 KCAL/MOL
REMARK 924 INTRA-LIGAND FREE ENERGY PREDICTED BY IDOCK:    0.31 KCAL/MOL
REMARK 927      BINDING AFFINITY PREDICTED BY RF-SCORE:    0.00 PKD
ROOT
HETATM    1  C   UNL     1      -9.682   7.736  72.941  1.00  0.00    -0.249 C  
HETATM    2  N   UNL     1     -10.378   7.928  71.667  1.00  0.00    -0.200 N  
HETATM    3  C   UNL     1      -9.805   8.891  70.824  1.00  0.00    -0.223 C  
HETATM    4  C   UNL     1     -11.538   7.004  71.345  1.00  0.00    -0.292 C  
HETATM    5  C   UNL     1     -11.379   6.224  69.992  1.00  0.00    -0.486 C  
HETATM    6  C   UNL     1     -11.740   5.914  72.442  1.00  0.00    -0.307 C  
HETATM    7  C   UNL     1     -12.869   7.798  71.362  1.00  0.00    -0.328 C  
HETATM    8  O   UNL     1      -8.750   9.453  71.144  1.00  0.00    -0.284 OA 
ENDROOT
BRANCH   3   9
HETATM    9  C   UNL     1     -10.476   9.202  69.477  1.00  0.00    -0.219 C  
BRANCH   9  10
HETATM   10  N   UNL     1      -9.572   9.561  68.364  1.00  0.00    -0.141 NA 
BRANCH  10  11
HETATM   11  C   UNL     1      -8.615   8.478  68.071  1.00  0.00    -0.134 C  
BRANCH  11  12
HETATM   12  C   UNL     1      -7.279   8.959  67.460  1.00  0.00    -0.080 C  
HETATM   13  H   UNL     1      -5.515   9.558  68.109  1.00  0.00     0.000 HD 
HETATM   14  O   UNL     1      -6.336   9.262  68.484  1.00  0.00    -0.052 OA 
ENDBRANCH  11  12
ENDBRANCH  10  11
BRANCH  10  15
HETATM   15  C   UNL     1     -10.296  10.024  67.147  1.00  0.00    -0.241 C  
BRANCH  15  16
HETATM   16  C   UNL     1     -10.779  11.508  67.212  1.00  0.00    -0.244 C  
HETATM   17  C   UNL     1     -10.337  13.912  67.903  1.00  0.00    -0.240 C  
HETATM   18  C   UNL     1      -8.459  12.184  67.853  1.00  0.00    -0.163 C  
HETATM   19  N   UNL     1      -9.880  12.479  67.686  1.00  0.00    -0.198 N  
HETATM   20  C   UNL     1     -11.819  14.088  68.412  1.00  0.00    -0.397 C  
HETATM   21  O   UNL     1     -11.931  11.824  66.909  1.00  0.00    -0.605 OA 
HETATM   22  C   UNL     1      -9.438  14.671  68.906  1.00  0.00    -0.173 C  
HETATM   23  C   UNL     1     -10.236  14.671  66.562  1.00  0.00    -0.282 C  
BRANCH  20  24
HETATM   24  C   UNL     1     -12.235  13.430  69.712  1.00  0.00    -0.307 A  
HETATM   25  C   UNL     1     -12.820  14.227  70.707  1.00  0.00    -0.404 A  
HETATM   26  C   UNL     1     -13.285  13.661  71.895  1.00  0.00    -0.497 A  
HETATM   27  C   UNL     1     -13.196  12.287  72.098  1.00  0.00    -0.466 A  
HETATM   28  C   UNL     1     -12.642  11.480  71.117  1.00  0.00    -0.463 A  
HETATM   29  C   UNL     1     -12.154  12.045  69.945  1.00  0.00    -0.334 A  
ENDBRANCH  20  24
ENDBRANCH  15  16
ENDBRANCH  10  15
ENDBRANCH   9  10
ENDBRANCH   3   9
BRANCH   5  30
HETATM   30  C   UNL     1     -10.111   5.402  69.840  1.00  0.00    -0.322 A  
HETATM   31  C   UNL     1      -8.280   4.080  70.758  1.00  0.00    -0.076 A  
HETATM   32  C   UNL     1      -9.583   5.174  68.563  1.00  0.00    -0.190 A  
HETATM   33  C   UNL     1      -9.426   4.853  70.932  1.00  0.00    -0.227 A  
HETATM   34  C   UNL     1      -7.748   3.898  69.491  1.00  0.00    -0.052 A  
HETATM   35  C   UNL     1      -8.405   4.440  68.392  1.00  0.00    -0.093 A  
ENDBRANCH   5  30
TORSDOF 8
ENDMDL
MODEL       78
REMARK 921   NORMALIZED FREE ENERGY PREDICTED BY IDOCK:   -5.33 KCAL/MOL
REMARK 922        TOTAL FREE ENERGY PREDICTED BY IDOCK:   -8.63 KCAL/MOL
REMARK 923 INTER-LIGAND FREE ENERGY PREDICTED BY IDOCK:   -7.36 KCAL/MOL
REMARK 924 INTRA-LIGAND FREE ENERGY PREDICTED BY IDOCK:   -1.27 KCAL/MOL
REMARK 927      BINDING AFFINITY PREDICTED BY RF-SCORE:    0.00 PKD
ROOT
HETATM    1  C   UNL     1      -9.942   8.747  66.274  1.00  0.00    -0.245 C  
HETATM    2  N   UNL     1      -8.799   9.364  66.951  1.00  0.00    -0.127 N  
HETATM    3  C   UNL     1      -8.693  10.751  66.777  1.00  0.00    -0.143 C  
HETATM    4  C   UNL     1      -7.947   8.485  67.849  1.00  0.00    -0.108 C  
HETATM    5  C   UNL     1      -7.823   9.008  69.324  1.00  0.00    -0.095 C  
HETATM    6  C   UNL     1      -8.512   7.036  67.958  1.00  0.00    -0.125 C  
HETATM    7  C   UNL     1      -6.544   8.289  67.220  1.00  0.00    -0.058 C  
HETATM    8  O   UNL     1      -9.563  11.371  66.154  1.00  0.00    -0.204 OA 
ENDROOT
BRANCH   3   9
HETATM    9  C   UNL     1      -7.508  11.496  67.411  1.00  0.00    -0.127 C  
BRANCH   9  10
HETATM   10  N   UNL     1      -7.824  12.777  68.079  1.00  0.00    -0.138 NA 
BRANCH  10  11
HETATM   11  C   UNL     1      -7.271  12.829  69.444  1.00  0.00     0.273 C  
BRANCH  11  12
HETATM   12  C   UNL     1      -5.928  13.586  69.557  1.00  0.00    -0.110 C  
HETATM   13  H   UNL     1      -5.103  14.912  70.762  1.00  0.00     0.000 HD 
HETATM   14  O   UNL     1      -5.928  14.447  70.692  1.00  0.00    -0.172 OA 
ENDBRANCH  11  12
ENDBRANCH  10  11
BRANCH  10  15
HETATM   15  C   UNL     1      -7.447  13.968  67.267  1.00  0.00    -0.029 C  
BRANCH  15  16
HETATM   16  C   UNL     1      -8.606  14.995  67.058  1.00  0.00    -0.239 C  
HETATM   17  C   UNL     1      -9.640  17.252  67.598  1.00  0.00    -0.256 C  
HETATM   18  C   UNL     1      -7.218  16.725  68.210  1.00  0.00    -0.173 C  
HETATM   19  N   UNL     1      -8.486  16.263  67.651  1.00  0.00    -0.167 N  
HETATM   20  C   UNL     1     -11.083  16.623  67.684  1.00  0.00    -0.107 C  
HETATM   21  O   UNL     1      -9.626  14.695  66.435  1.00  0.00    -0.271 OA 
HETATM   22  C   UNL     1      -9.557  18.312  68.722  1.00  0.00    -0.317 C  
HETATM   23  C   UNL     1      -9.570  18.022  66.262  1.00  0.00    -0.246 C  
BRANCH  20  24
HETATM   24  C   UNL     1     -11.450  15.781  68.889  1.00  0.00    -0.381 A  
HETATM   25  C   UNL     1     -11.971  14.496  68.672  1.00  0.00    -0.320 A  
HETATM   26  C   UNL     1     -12.262  13.652  69.745  1.00  0.00    -0.350 A  
HETATM   27  C   UNL     1     -12.013  14.068  71.050  1.00  0.00    -0.313 A  
HETATM   28  C   UNL     1     -11.477  15.324  71.283  1.00  0.00    -0.431 A  
HETATM   29  C   UNL     1     -11.213  16.176  70.217  1.00  0.00    -0.389 A  
ENDBRANCH  20  24
ENDBRANCH  15  16
ENDBRANCH  10  15
ENDBRANCH   9  10
ENDBRANCH   3   9
BRANCH   5  30
HETATM   30  C   UNL     1      -9.129   9.247  70.060  1.00  0.00    -0.229 A  
HETATM   31  C   UNL     1     -10.712   8.758  71.849  1.00  0.00    -0.429 A  
HETATM   32  C   UNL     1      -9.999  10.252  69.619  1.00  0.00    -0.240 A  
HETATM   33  C   UNL     1      -9.519   8.496  71.177  1.00  0.00    -0.249 A  
HETATM   34  C   UNL     1     -11.579   9.730  71.375  1.00  0.00    -0.452 A  
HETATM   35  C   UNL     1     -11.218  10.482  70.263  1.00  0.00    -0.391 A  
ENDBRANCH   5  30
TORSDOF 8
ENDMDL
MODEL       79
REMARK 921   NORMALIZED FREE ENERGY PREDICTED BY IDOCK:   -5.26 KCAL/MOL
REMARK 922        TOTAL FREE ENERGY PREDICTED BY IDOCK:   -8.52 KCAL/MOL
REMARK 923 INTER-LIGAND FREE ENERGY PREDICTED BY IDOCK:   -7.91 KCAL/MOL
REMARK 924 INTRA-LIGAND FREE ENERGY PREDICTED BY IDOCK:   -0.61 KCAL/MOL
REMARK 927      BINDING AFFINITY PREDICTED BY RF-SCORE:    0.00 PKD
ROOT
HETATM    1  C   UNL     1      -9.471  14.366  66.450  1.00  0.00    -0.285 C  
HETATM    2  N   UNL     1      -9.592  12.917  66.623  1.00  0.00    -0.252 N  
HETATM    3  C   UNL     1      -8.511  12.313  67.282  1.00  0.00    -0.181 C  
HETATM    4  C   UNL     1     -10.891  12.256  66.199  1.00  0.00    -0.279 C  
HETATM    5  C   UNL     1     -11.597  11.442  67.340  1.00  0.00    -0.266 C  
HETATM    6  C   UNL     1     -11.943  13.296  65.705  1.00  0.00    -0.463 C  
HETATM    7  C   UNL     1     -10.647  11.358  64.959  1.00  0.00    -0.359 C  
HETATM    8  O   UNL     1      -7.588  13.003  67.731  1.00  0.00    -0.122 OA 
ENDROOT
BRANCH   3   9
HETATM    9  C   UNL     1      -8.515  10.789  67.484  1.00  0.00    -0.119 C  
BRANCH   9  10
HETATM   10  N   UNL     1      -7.285  10.204  68.059  1.00  0.00    -0.084 NA 
BRANCH  10  11
HETATM   11  C   UNL     1      -7.422   9.964  69.506  1.00  0.00    -0.112 C  
BRANCH  11  12
HETATM   12  C   UNL     1      -6.282  10.561  70.361  1.00  0.00    -0.128 C  
HETATM   13  H   UNL     1      -4.668  11.659  70.071  1.00  0.00     0.000 HD 
HETATM   14  O   UNL     1      -5.369  11.291  69.546  1.00  0.00    -0.044 OA 
ENDBRANCH  11  12
ENDBRANCH  10  11
BRANCH  10  15
HETATM   15  C   UNL     1      -6.812   8.996  67.325  1.00  0.00    -0.077 C  
BRANCH  15  16
HETATM   16  C   UNL     1      -7.421   7.653  67.839  1.00  0.00    -0.108 C  
HETATM   17  C   UNL     1      -9.318   5.964  67.795  1.00  0.00    -0.106 C  
HETATM   18  C   UNL     1      -9.116   7.773  66.006  1.00  0.00    -0.121 C  
HETATM   19  N   UNL     1      -8.606   7.189  67.244  1.00  0.00    -0.121 N  
HETATM   20  C   UNL     1      -9.258   5.785  69.360  1.00  0.00    -0.144 C  
HETATM   21  O   UNL     1      -6.913   7.034  68.777  1.00  0.00    -0.073 OA 
HETATM   22  C   UNL     1     -10.815   5.930  67.408  1.00  0.00    -0.341 C  
HETATM   23  C   UNL     1      -8.676   4.701  67.180  1.00  0.00    -0.104 C  
BRANCH  20  24
HETATM   24  C   UNL     1      -9.800   6.886  70.249  1.00  0.00    -0.186 A  
HETATM   25  C   UNL     1     -11.150   7.245  70.119  1.00  0.00    -0.281 A  
HETATM   26  C   UNL     1     -11.720   8.204  70.960  1.00  0.00    -0.295 A  
HETATM   27  C   UNL     1     -10.956   8.800  71.959  1.00  0.00    -0.438 A  
HETATM   28  C   UNL     1      -9.627   8.442  72.118  1.00  0.00    -0.367 A  
HETATM   29  C   UNL     1      -9.052   7.508  71.264  1.00  0.00    -0.147 A  
ENDBRANCH  20  24
ENDBRANCH  15  16
ENDBRANCH  10  15
ENDBRANCH   9  10
ENDBRANCH   3   9
BRANCH   5  30
HETATM   30  C   UNL     1     -11.893  12.204  68.619  1.00  0.00    -0.358 A  
HETATM   31  C   UNL     1     -12.399  12.294  71.003  1.00  0.00    -0.320 A  
HETATM   32  C   UNL     1     -11.913  13.604  68.602  1.00  0.00    -0.395 A  
HETATM   33  C   UNL     1     -12.157  11.567  69.839  1.00  0.00    -0.389 A  
HETATM   34  C   UNL     1     -12.455  13.679  70.960  1.00  0.00    -0.456 A  
HETATM   35  C   UNL     1     -12.204  14.334  69.759  1.00  0.00    -0.390 A  
ENDBRANCH   5  30
TORSDOF 8
ENDMDL
MODEL       80
REMARK 921   NORMALIZED FREE ENERGY PREDICTED BY IDOCK:   -5.21 KCAL/MOL
REMARK 922        TOTAL FREE ENERGY PREDICTED BY IDOCK:   -8.46 KCAL/MOL
REMARK 923 INTER-LIGAND FREE ENERGY PREDICTED BY IDOCK:   -7.13 KCAL/MOL
REMARK 924 INTRA-LIGAND FREE ENERGY PREDICTED BY IDOCK:   -1.33 KCAL/MOL
REMARK 927      BINDING AFFINITY PREDICTED BY RF-SCORE:    0.00 PKD
ROOT
HETATM    1  C   UNL     1      -7.322   3.727  70.098  1.00  0.00    -0.042 C  
HETATM    2  N   UNL     1      -8.187   4.849  69.727  1.00  0.00    -0.072 N  
HETATM    3  C   UNL     1      -9.352   4.489  69.035  1.00  0.00    -0.148 C  
HETATM    4  C   UNL     1      -7.809   6.233  70.226  1.00  0.00    -0.103 C  
HETATM    5  C   UNL     1      -8.936   6.943  71.057  1.00  0.00    -0.151 C  
HETATM    6  C   UNL     1      -6.555   6.199  71.152  1.00  0.00    -0.050 C  
HETATM    7  C   UNL     1      -7.367   7.121  69.036  1.00  0.00    -0.092 C  
HETATM    8  O   UNL     1      -9.622   3.297  68.844  1.00  0.00    -0.159 OA 
ENDROOT
BRANCH   3   9
HETATM    9  C   UNL     1     -10.313   5.591  68.562  1.00  0.00    -0.178 C  
BRANCH   9  10
HETATM   10  N   UNL     1     -10.059   6.146  67.216  1.00  0.00    -0.147 NA 
BRANCH  10  11
HETATM   11  C   UNL     1     -10.340   5.158  66.159  1.00  0.00    -0.236 C  
BRANCH  11  12
HETATM   12  C   UNL     1      -9.158   4.903  65.196  1.00  0.00    -0.144 C  
HETATM   13  H   UNL     1      -7.187   4.920  65.276  1.00  0.00     0.000 HD 
HETATM   14  O   UNL     1      -7.913   5.077  65.868  1.00  0.00    -0.104 OA 
ENDBRANCH  11  12
ENDBRANCH  10  11
BRANCH  10  15
HETATM   15  C   UNL     1     -10.748   7.445  66.978  1.00  0.00    -0.319 C  
BRANCH  15  16
HETATM   16  C   UNL     1      -9.787   8.670  66.858  1.00  0.00    -0.238 C  
HETATM   17  C   UNL     1      -9.084  10.974  67.665  1.00  0.00    -0.145 C  
HETATM   18  C   UNL     1     -10.672   9.520  69.035  1.00  0.00    -0.202 C  
HETATM   19  N   UNL     1      -9.895   9.696  67.811  1.00  0.00    -0.153 N  
HETATM   20  C   UNL     1      -8.858  11.475  66.188  1.00  0.00    -0.167 C  
HETATM   21  O   UNL     1      -8.986   8.770  65.925  1.00  0.00    -0.171 OA 
HETATM   22  C   UNL     1      -9.709  12.159  68.438  1.00  0.00    -0.193 C  
HETATM   23  C   UNL     1      -7.683  10.743  68.274  1.00  0.00    -0.109 C  
BRANCH  20  24
HETATM   24  C   UNL     1     -10.062  11.770  65.317  1.00  0.00    -0.300 A  
HETATM   25  C   UNL     1     -10.022  11.386  63.968  1.00  0.00    -0.341 A  
HETATM   26  C   UNL     1     -11.129  11.571  63.138  1.00  0.00    -0.151 A  
HETATM   27  C   UNL     1     -12.302  12.120  63.649  1.00  0.00    -0.673 A  
HETATM   28  C   UNL     1     -12.369  12.485  64.984  1.00  0.00    -0.522 A  
HETATM   29  C   UNL     1     -11.258  12.327  65.805  1.00  0.00    -0.378 A  
ENDBRANCH  20  24
ENDBRANCH  15  16
ENDBRANCH  10  15
ENDBRANCH   9  10
ENDBRANCH   3   9
BRANCH   5  30
HETATM   30  C   UNL     1      -9.465   6.177  72.256  1.00  0.00    -0.156 A  
HETATM   31  C   UNL     1      -9.256   5.329  74.532  1.00  0.00    -0.116 A  
HETATM   32  C   UNL     1     -10.738   5.594  72.198  1.00  0.00    -0.287 A  
HETATM   33  C   UNL     1      -8.731   6.015  73.438  1.00  0.00    -0.126 A  
HETATM   34  C   UNL     1     -10.500   4.725  74.444  1.00  0.00    -0.331 A  
HETATM   35  C   UNL     1     -11.244   4.865  73.278  1.00  0.00    -0.423 A  
ENDBRANCH   5  30
TORSDOF 8
ENDMDL
MODEL       81
REMARK 921   NORMALIZED FREE ENERGY PREDICTED BY IDOCK:   -5.19 KCAL/MOL
REMARK 922        TOTAL FREE ENERGY PREDICTED BY IDOCK:   -8.43 KCAL/MOL
REMARK 923 INTER-LIGAND FREE ENERGY PREDICTED BY IDOCK:   -7.84 KCAL/MOL
REMARK 924 INTRA-LIGAND FREE ENERGY PREDICTED BY IDOCK:   -0.59 KCAL/MOL
REMARK 927      BINDING AFFINITY PREDICTED BY RF-SCORE:    0.00 PKD
ROOT
HETATM    1  C   UNL     1      -9.218   6.832  73.276  1.00  0.00    -0.134 C  
HETATM    2  N   UNL     1     -10.109   7.049  72.134  1.00  0.00    -0.180 N  
HETATM    3  C   UNL     1      -9.884   8.242  71.432  1.00  0.00    -0.184 C  
HETATM    4  C   UNL     1     -11.072   5.936  71.762  1.00  0.00    -0.265 C  
HETATM    5  C   UNL     1     -10.935   5.440  70.279  1.00  0.00    -0.089 C  
HETATM    6  C   UNL     1     -10.876   4.671  72.653  1.00  0.00    -0.221 C  
HETATM    7  C   UNL     1     -12.529   6.375  72.058  1.00  0.00    -0.212 C  
HETATM    8  O   UNL     1      -8.944   8.983  71.745  1.00  0.00    -0.343 OA 
ENDROOT
BRANCH   3   9
HETATM    9  C   UNL     1     -10.788   8.590  70.239  1.00  0.00    -0.238 C  
BRANCH   9  10
HETATM   10  N   UNL     1     -11.647   9.784  70.397  1.00  0.00    -0.264 NA 
BRANCH  10  11
HETATM   11  C   UNL     1     -12.082   9.960  71.794  1.00  0.00    -0.301 C  
BRANCH  11  12
HETATM   12  C   UNL     1     -13.455  10.650  71.950  1.00  0.00    -0.238 C  
HETATM   13  H   UNL     1     -14.140  12.470  72.287  1.00  0.00     0.000 HD 
HETATM   14  O   UNL     1     -13.295  12.045  72.192  1.00  0.00    -0.510 OA 
ENDBRANCH  11  12
ENDBRANCH  10  11
BRANCH  10  15
HETATM   15  C   UNL     1     -11.039  11.021  69.831  1.00  0.00    -0.205 C  
BRANCH  15  16
HETATM   16  C   UNL     1     -10.891  11.011  68.276  1.00  0.00    -0.215 C  
HETATM   17  C   UNL     1      -9.383  11.028  66.232  1.00  0.00    -0.183 C  
HETATM   18  C   UNL     1      -8.454  10.534  68.558  1.00  0.00    -0.131 C  
HETATM   19  N   UNL     1      -9.600  10.904  67.732  1.00  0.00    -0.162 N  
HETATM   20  C   UNL     1     -10.324  12.050  65.487  1.00  0.00    -0.298 C  
HETATM   21  O   UNL     1     -11.868  11.145  67.536  1.00  0.00    -0.591 OA 
HETATM   22  C   UNL     1      -7.932  11.434  65.880  1.00  0.00     0.171 C  
HETATM   23  C   UNL     1      -9.623   9.648  65.582  1.00  0.00    -0.338 C  
BRANCH  20  24
HETATM   24  C   UNL     1     -10.328  13.501  65.922  1.00  0.00    -0.301 A  
HETATM   25  C   UNL     1     -10.649  14.482  64.972  1.00  0.00    -0.458 A  
HETATM   26  C   UNL     1     -10.735  15.828  65.334  1.00  0.00    -0.420 A  
HETATM   27  C   UNL     1     -10.526  16.211  66.656  1.00  0.00    -0.300 A  
HETATM   28  C   UNL     1     -10.230  15.254  67.613  1.00  0.00    -0.242 A  
HETATM   29  C   UNL     1     -10.117  13.918  67.248  1.00  0.00    -0.242 A  
ENDBRANCH  20  24
ENDBRANCH  15  16
ENDBRANCH  10  15
ENDBRANCH   9  10
ENDBRANCH   3   9
BRANCH   5  30
HETATM   30  C   UNL     1      -9.552   4.981  69.853  1.00  0.00    -0.246 A  
HETATM   31  C   UNL     1      -7.835   3.268  69.600  1.00  0.00    -0.054 A  
HETATM   32  C   UNL     1      -8.669   5.896  69.265  1.00  0.00    -0.119 A  
HETATM   33  C   UNL     1      -9.101   3.666  70.027  1.00  0.00    -0.197 A  
HETATM   34  C   UNL     1      -6.960   4.196  69.056  1.00  0.00    -0.047 A  
HETATM   35  C   UNL     1      -7.381   5.509  68.882  1.00  0.00    -0.081 A  
ENDBRANCH   5  30
TORSDOF 8
ENDMDL
MODEL       82
REMARK 921   NORMALIZED FREE ENERGY PREDICTED BY IDOCK:   -5.18 KCAL/MOL
REMARK 922        TOTAL FREE ENERGY PREDICTED BY IDOCK:   -8.41 KCAL/MOL
REMARK 923 INTER-LIGAND FREE ENERGY PREDICTED BY IDOCK:   -7.56 KCAL/MOL
REMARK 924 INTRA-LIGAND FREE ENERGY PREDICTED BY IDOCK:   -0.85 KCAL/MOL
REMARK 927      BINDING AFFINITY PREDICTED BY RF-SCORE:    0.00 PKD
ROOT
HETATM    1  C   UNL     1     -11.615  12.872  69.028  1.00  0.00    -0.322 C  
HETATM    2  N   UNL     1     -10.312  12.648  68.397  1.00  0.00    -0.233 N  
HETATM    3  C   UNL     1      -9.965  11.300  68.231  1.00  0.00    -0.195 C  
HETATM    4  C   UNL     1      -9.552  13.860  67.889  1.00  0.00    -0.227 C  
HETATM    5  C   UNL     1      -9.178  13.788  66.366  1.00  0.00    -0.158 C  
HETATM    6  C   UNL     1     -10.366  15.178  68.065  1.00  0.00    -0.240 C  
HETATM    7  C   UNL     1      -8.284  14.089  68.751  1.00  0.00    -0.049 C  
HETATM    8  O   UNL     1     -10.763  10.407  68.538  1.00  0.00    -0.194 OA 
ENDROOT
BRANCH   3   9
HETATM    9  C   UNL     1      -8.601  10.950  67.615  1.00  0.00    -0.124 C  
BRANCH   9  10
HETATM   10  N   UNL     1      -8.182   9.535  67.718  1.00  0.00    -0.113 NA 
BRANCH  10  11
HETATM   11  C   UNL     1      -8.131   8.886  66.396  1.00  0.00    -0.110 C  
BRANCH  11  12
HETATM   12  C   UNL     1      -9.390   9.111  65.528  1.00  0.00    -0.221 C  
HETATM   13  H   UNL     1      -9.805   9.476  63.634  1.00  0.00     0.000 HD 
HETATM   14  O   UNL     1      -9.031   9.337  64.168  1.00  0.00    -0.191 OA 
ENDBRANCH  11  12
ENDBRANCH  10  11
BRANCH  10  15
HETATM   15  C   UNL     1      -6.921   9.353  68.491  1.00  0.00    -0.066 C  
BRANCH  15  16
HETATM   16  C   UNL     1      -7.132   9.133  70.022  1.00  0.00    -0.060 C  
HETATM   17  C   UNL     1      -7.103   7.565  72.021  1.00  0.00    -0.064 C  
HETATM   18  C   UNL     1      -6.009   6.910  69.809  1.00  0.00    -0.023 C  
HETATM   19  N   UNL     1      -6.791   7.884  70.567  1.00  0.00    -0.041 N  
HETATM   20  C   UNL     1      -8.440   8.182  72.584  1.00  0.00    -0.251 C  
HETATM   21  O   UNL     1      -7.632  10.006  70.735  1.00  0.00    -0.265 OA 
HETATM   22  C   UNL     1      -7.178   6.043  72.287  1.00  0.00    -0.089 C  
HETATM   23  C   UNL     1      -5.958   8.109  72.903  1.00  0.00    -0.065 C  
BRANCH  20  24
HETATM   24  C   UNL     1      -9.752   7.845  71.904  1.00  0.00    -0.231 A  
HETATM   25  C   UNL     1      -9.931   6.545  71.407  1.00  0.00    -0.202 A  
HETATM   26  C   UNL     1     -11.145   6.160  70.833  1.00  0.00    -0.371 A  
HETATM   27  C   UNL     1     -12.205   7.060  70.770  1.00  0.00    -0.343 A  
HETATM   28  C   UNL     1     -12.054   8.341  71.275  1.00  0.00    -0.307 A  
HETATM   29  C   UNL     1     -10.838   8.734  71.822  1.00  0.00    -0.416 A  
ENDBRANCH  20  24
ENDBRANCH  15  16
ENDBRANCH  10  15
ENDBRANCH   9  10
ENDBRANCH   3   9
BRANCH   5  30
HETATM   30  C   UNL     1     -10.332  13.562  65.405  1.00  0.00    -0.329 A  
HETATM   31  C   UNL     1     -11.635  12.157  63.898  1.00  0.00    -0.532 A  
HETATM   32  C   UNL     1     -11.225  14.608  65.138  1.00  0.00    -0.374 A  
HETATM   33  C   UNL     1     -10.550  12.341  64.754  1.00  0.00    -0.332 A  
HETATM   34  C   UNL     1     -12.485  13.214  63.614  1.00  0.00    -0.374 A  
HETATM   35  C   UNL     1     -12.284  14.438  64.241  1.00  0.00    -0.450 A  
ENDBRANCH   5  30
TORSDOF 8
ENDMDL
MODEL       83
REMARK 921   NORMALIZED FREE ENERGY PREDICTED BY IDOCK:   -5.16 KCAL/MOL
REMARK 922        TOTAL FREE ENERGY PREDICTED BY IDOCK:   -8.37 KCAL/MOL
REMARK 923 INTER-LIGAND FREE ENERGY PREDICTED BY IDOCK:   -8.01 KCAL/MOL
REMARK 924 INTRA-LIGAND FREE ENERGY PREDICTED BY IDOCK:   -0.36 KCAL/MOL
REMARK 927      BINDING AFFINITY PREDICTED BY RF-SCORE:    0.00 PKD
ROOT
HETATM    1  C   UNL     1      -9.406  19.678  68.322  1.00  0.00    -0.349 C  
HETATM    2  N   UNL     1      -8.896  18.412  67.789  1.00  0.00    -0.274 N  
HETATM    3  C   UNL     1      -9.633  17.888  66.717  1.00  0.00    -0.305 C  
HETATM    4  C   UNL     1      -7.590  17.879  68.350  1.00  0.00    -0.282 C  
HETATM    5  C   UNL     1      -6.484  17.626  67.265  1.00  0.00    -0.180 C  
HETATM    6  C   UNL     1      -6.955  18.859  69.384  1.00  0.00    -0.210 C  
HETATM    7  C   UNL     1      -7.853  16.592  69.172  1.00  0.00    -0.170 C  
HETATM    8  O   UNL     1     -10.585  18.520  66.245  1.00  0.00    -0.407 OA 
ENDROOT
BRANCH   3   9
HETATM    9  C   UNL     1      -9.210  16.543  66.106  1.00  0.00    -0.303 C  
BRANCH   9  10
HETATM   10  N   UNL     1      -9.755  15.331  66.753  1.00  0.00    -0.228 NA 
BRANCH  10  11
HETATM   11  C   UNL     1     -11.189  15.478  67.062  1.00  0.00    -0.177 C  
BRANCH  11  12
HETATM   12  C   UNL     1     -11.562  15.142  68.523  1.00  0.00    -0.335 C  
HETATM   13  H   UNL     1     -11.787  16.112  70.227  1.00  0.00     0.000 HD 
HETATM   14  O   UNL     1     -11.558  16.318  69.329  1.00  0.00    -0.293 OA 
ENDBRANCH  11  12
ENDBRANCH  10  11
BRANCH  10  15
HETATM   15  C   UNL     1      -9.461  14.080  65.998  1.00  0.00    -0.136 C  
BRANCH  15  16
HETATM   16  C   UNL     1     -10.162  12.806  66.567  1.00  0.00    -0.253 C  
HETATM   17  C   UNL     1     -10.173  10.887  68.231  1.00  0.00    -0.173 C  
HETATM   18  C   UNL     1      -8.608  12.882  68.523  1.00  0.00    -0.042 C  
HETATM   19  N   UNL     1      -9.619  12.205  67.714  1.00  0.00    -0.189 N  
HETATM   20  C   UNL     1     -10.661   9.871  67.129  1.00  0.00    -0.276 C  
HETATM   21  O   UNL     1     -11.136  12.302  66.004  1.00  0.00    -0.284 OA 
HETATM   22  C   UNL     1      -9.154  10.123  69.109  1.00  0.00    -0.189 C  
HETATM   23  C   UNL     1     -11.393  11.183  69.132  1.00  0.00    -0.340 C  
BRANCH  20  24
HETATM   24  C   UNL     1      -9.681   9.403  66.073  1.00  0.00    -0.345 A  
HETATM   25  C   UNL     1      -8.766   8.394  66.411  1.00  0.00    -0.159 A  
HETATM   26  C   UNL     1      -7.887   7.876  65.458  1.00  0.00    -0.112 A  
HETATM   27  C   UNL     1      -7.926   8.340  64.146  1.00  0.00    -0.148 A  
HETATM   28  C   UNL     1      -8.837   9.320  63.787  1.00  0.00    -0.150 A  
HETATM   29  C   UNL     1      -9.694   9.855  64.741  1.00  0.00    -0.305 A  
ENDBRANCH  20  24
ENDBRANCH  15  16
ENDBRANCH  10  15
ENDBRANCH   9  10
ENDBRANCH   3   9
BRANCH   5  30
HETATM   30  C   UNL     1      -6.129  18.809  66.383  1.00  0.00    -0.187 A  
HETATM   31  C   UNL     1      -6.094  19.957  64.232  1.00  0.00    -0.291 A  
HETATM   32  C   UNL     1      -5.490  19.923  66.943  1.00  0.00    -0.173 A  
HETATM   33  C   UNL     1      -6.408  18.844  65.011  1.00  0.00    -0.267 A  
HETATM   34  C   UNL     1      -5.426  21.034  64.794  1.00  0.00    -0.253 A  
HETATM   35  C   UNL     1      -5.131  21.019  66.152  1.00  0.00    -0.231 A  
ENDBRANCH   5  30
TORSDOF 8
ENDMDL
MODEL       84
REMARK 921   NORMALIZED FREE ENERGY PREDICTED BY IDOCK:   -5.15 KCAL/MOL
REMARK 922        TOTAL FREE ENERGY PREDICTED BY IDOCK:   -8.36 KCAL/MOL
REMARK 923 INTER-LIGAND FREE ENERGY PREDICTED BY IDOCK:   -7.35 KCAL/MOL
REMARK 924 INTRA-LIGAND FREE ENERGY PREDICTED BY IDOCK:   -1.02 KCAL/MOL
REMARK 927      BINDING AFFINITY PREDICTED BY RF-SCORE:    0.00 PKD
ROOT
HETATM    1  C   UNL     1      -9.862   4.378  68.945  1.00  0.00    -0.093 C  
HETATM    2  N   UNL     1      -9.457   5.739  68.585  1.00  0.00    -0.121 N  
HETATM    3  C   UNL     1      -8.737   6.419  69.577  1.00  0.00    -0.133 C  
HETATM    4  C   UNL     1      -9.739   6.213  67.170  1.00  0.00    -0.135 C  
HETATM    5  C   UNL     1      -8.466   6.704  66.395  1.00  0.00    -0.125 C  
HETATM    6  C   UNL     1     -10.365   5.088  66.290  1.00  0.00    -0.332 C  
HETATM    7  C   UNL     1     -10.826   7.317  67.189  1.00  0.00    -0.378 C  
HETATM    8  O   UNL     1      -8.427   5.846  70.628  1.00  0.00    -0.125 OA 
ENDROOT
BRANCH   3   9
HETATM    9  C   UNL     1      -8.297   7.869  69.320  1.00  0.00    -0.136 C  
BRANCH   9  10
HETATM   10  N   UNL     1      -9.209   8.925  69.810  1.00  0.00    -0.160 NA 
BRANCH  10  11
HETATM   11  C   UNL     1      -9.328   8.902  71.279  1.00  0.00    -0.266 C  
BRANCH  11  12
HETATM   12  C   UNL     1     -10.752   8.593  71.796  1.00  0.00    -0.321 C  
HETATM   13  H   UNL     1     -12.445   7.893  71.064  1.00  0.00     0.000 HD 
HETATM   14  O   UNL     1     -11.570   8.083  70.747  1.00  0.00    -0.284 OA 
ENDBRANCH  11  12
ENDBRANCH  10  11
BRANCH  10  15
HETATM   15  C   UNL     1      -8.870  10.279  69.289  1.00  0.00    -0.177 C  
BRANCH  15  16
HETATM   16  C   UNL     1     -10.035  10.982  68.522  1.00  0.00    -0.193 C  
HETATM   17  C   UNL     1     -10.806  12.811  66.936  1.00  0.00    -0.253 C  
HETATM   18  C   UNL     1      -8.335  12.215  67.165  1.00  0.00    -0.183 C  
HETATM   19  N   UNL     1      -9.710  11.998  67.607  1.00  0.00    -0.183 N  
HETATM   20  C   UNL     1     -12.076  13.109  67.822  1.00  0.00    -0.262 C  
HETATM   21  O   UNL     1     -11.214  10.699  68.743  1.00  0.00    -0.244 OA 
HETATM   22  C   UNL     1     -10.296  14.180  66.428  1.00  0.00    -0.287 C  
HETATM   23  C   UNL     1     -11.304  12.040  65.694  1.00  0.00    -0.381 C  
BRANCH  20  24
HETATM   24  C   UNL     1     -11.902  13.845  69.135  1.00  0.00    -0.401 A  
HETATM   25  C   UNL     1     -11.305  15.115  69.114  1.00  0.00    -0.311 A  
HETATM   26  C   UNL     1     -11.184  15.867  70.284  1.00  0.00    -0.388 A  
HETATM   27  C   UNL     1     -11.678  15.373  71.488  1.00  0.00    -0.467 A  
HETATM   28  C   UNL     1     -12.291  14.131  71.524  1.00  0.00    -0.395 A  
HETATM   29  C   UNL     1     -12.389  13.370  70.365  1.00  0.00    -0.382 A  
ENDBRANCH  20  24
ENDBRANCH  15  16
ENDBRANCH  10  15
ENDBRANCH   9  10
ENDBRANCH   3   9
BRANCH   5  30
HETATM   30  C   UNL     1      -7.317   5.716  66.302  1.00  0.00    -0.078 A  
HETATM   31  C   UNL     1      -6.245   3.744  65.350  1.00  0.00    -0.027 A  
HETATM   32  C   UNL     1      -6.190   5.887  67.117  1.00  0.00    -0.034 A  
HETATM   33  C   UNL     1      -7.327   4.618  65.432  1.00  0.00    -0.076 A  
HETATM   34  C   UNL     1      -5.155   3.905  66.192  1.00  0.00    -0.008 A  
HETATM   35  C   UNL     1      -5.125   4.982  67.070  1.00  0.00    -0.008 A  
ENDBRANCH   5  30
TORSDOF 8
ENDMDL
MODEL       85
REMARK 921   NORMALIZED FREE ENERGY PREDICTED BY IDOCK:   -5.14 KCAL/MOL
REMARK 922        TOTAL FREE ENERGY PREDICTED BY IDOCK:   -8.34 KCAL/MOL
REMARK 923 INTER-LIGAND FREE ENERGY PREDICTED BY IDOCK:   -7.45 KCAL/MOL
REMARK 924 INTRA-LIGAND FREE ENERGY PREDICTED BY IDOCK:   -0.90 KCAL/MOL
REMARK 927      BINDING AFFINITY PREDICTED BY RF-SCORE:    0.00 PKD
ROOT
HETATM    1  C   UNL     1     -11.691   7.645  71.014  1.00  0.00    -0.286 C  
HETATM    2  N   UNL     1     -10.770   7.880  69.900  1.00  0.00    -0.247 N  
HETATM    3  C   UNL     1     -10.433   9.225  69.691  1.00  0.00    -0.224 C  
HETATM    4  C   UNL     1     -10.192   6.670  69.189  1.00  0.00    -0.179 C  
HETATM    5  C   UNL     1      -8.623   6.631  69.165  1.00  0.00    -0.130 C  
HETATM    6  C   UNL     1     -10.640   5.332  69.852  1.00  0.00    -0.292 C  
HETATM    7  C   UNL     1     -10.761   6.580  67.750  1.00  0.00    -0.368 C  
HETATM    8  O   UNL     1     -10.847  10.100  70.461  1.00  0.00    -0.298 OA 
ENDROOT
BRANCH   3   9
HETATM    9  C   UNL     1      -9.503   9.591  68.523  1.00  0.00    -0.141 C  
BRANCH   9  10
HETATM   10  N   UNL     1      -8.937  10.957  68.542  1.00  0.00    -0.151 NA 
BRANCH  10  11
HETATM   11  C   UNL     1      -7.689  11.017  69.322  1.00  0.00    -0.068 C  
BRANCH  11  12
HETATM   12  C   UNL     1      -6.420  10.647  68.521  1.00  0.00    -0.054 C  
HETATM   13  H   UNL     1      -4.719  11.507  68.011  1.00  0.00     0.000 HD 
HETATM   14  O   UNL     1      -5.499  11.734  68.504  1.00  0.00    -0.046 OA 
ENDBRANCH  11  12
ENDBRANCH  10  11
BRANCH  10  15
HETATM   15  C   UNL     1      -8.787  11.547  67.182  1.00  0.00    -0.168 C  
BRANCH  15  16
HETATM   16  C   UNL     1      -9.785  12.707  66.870  1.00  0.00    -0.234 C  
HETATM   17  C   UNL     1     -10.296  15.195  66.853  1.00  0.00    -0.272 C  
HETATM   18  C   UNL     1      -7.912  14.335  67.162  1.00  0.00    -0.101 C  
HETATM   19  N   UNL     1      -9.332  14.029  67.007  1.00  0.00    -0.240 N  
HETATM   20  C   UNL     1     -11.759  14.947  67.383  1.00  0.00    -0.311 C  
HETATM   21  O   UNL     1     -10.958  12.480  66.562  1.00  0.00    -0.251 OA 
HETATM   22  C   UNL     1      -9.787  16.476  67.557  1.00  0.00    -0.248 C  
HETATM   23  C   UNL     1     -10.420  15.538  65.353  1.00  0.00    -0.429 C  
BRANCH  20  24
HETATM   24  C   UNL     1     -11.963  14.565  68.836  1.00  0.00    -0.326 A  
HETATM   25  C   UNL     1     -12.135  15.591  69.778  1.00  0.00    -0.372 A  
HETATM   26  C   UNL     1     -12.395  15.296  71.117  1.00  0.00    -0.421 A  
HETATM   27  C   UNL     1     -12.511  13.972  71.532  1.00  0.00    -0.407 A  
HETATM   28  C   UNL     1     -12.366  12.946  70.612  1.00  0.00    -0.385 A  
HETATM   29  C   UNL     1     -12.081  13.238  69.284  1.00  0.00    -0.291 A  
ENDBRANCH  20  24
ENDBRANCH  15  16
ENDBRANCH  10  15
ENDBRANCH   9  10
ENDBRANCH   3   9
BRANCH   5  30
HETATM   30  C   UNL     1      -7.932   6.715  70.514  1.00  0.00    -0.111 A  
HETATM   31  C   UNL     1      -6.762   7.951  72.261  1.00  0.00    -0.065 A  
HETATM   32  C   UNL     1      -7.839   5.571  71.317  1.00  0.00    -0.110 A  
HETATM   33  C   UNL     1      -7.366   7.899  71.005  1.00  0.00    -0.062 A  
HETATM   34  C   UNL     1      -6.644   6.800  73.025  1.00  0.00    -0.067 A  
HETATM   35  C   UNL     1      -7.190   5.611  72.555  1.00  0.00    -0.090 A  
ENDBRANCH   5  30
TORSDOF 8
ENDMDL
MODEL       86
REMARK 921   NORMALIZED FREE ENERGY PREDICTED BY IDOCK:   -5.12 KCAL/MOL
REMARK 922        TOTAL FREE ENERGY PREDICTED BY IDOCK:   -8.33 KCAL/MOL
REMARK 923 INTER-LIGAND FREE ENERGY PREDICTED BY IDOCK:   -7.71 KCAL/MOL
REMARK 924 INTRA-LIGAND FREE ENERGY PREDICTED BY IDOCK:   -0.61 KCAL/MOL
REMARK 927      BINDING AFFINITY PREDICTED BY RF-SCORE:    0.00 PKD
ROOT
HETATM    1  C   UNL     1      -7.062   6.887  69.678  1.00  0.00    -0.068 C  
HETATM    2  N   UNL     1      -7.825   8.019  69.147  1.00  0.00    -0.106 N  
HETATM    3  C   UNL     1      -8.432   7.786  67.905  1.00  0.00    -0.122 C  
HETATM    4  C   UNL     1      -7.980   9.246  70.026  1.00  0.00    -0.121 C  
HETATM    5  C   UNL     1      -9.471   9.659  70.291  1.00  0.00    -0.300 C  
HETATM    6  C   UNL     1      -7.338   9.043  71.433  1.00  0.00    -0.066 C  
HETATM    7  C   UNL     1      -7.185  10.433  69.424  1.00  0.00    -0.109 C  
HETATM    8  O   UNL     1      -8.365   6.670  67.376  1.00  0.00    -0.120 OA 
ENDROOT
BRANCH   3   9
HETATM    9  C   UNL     1      -9.225   8.919  67.236  1.00  0.00    -0.138 C  
BRANCH   9  10
HETATM   10  N   UNL     1      -8.591   9.554  66.060  1.00  0.00    -0.130 NA 
BRANCH  10  11
HETATM   11  C   UNL     1      -9.022   8.920  64.801  1.00  0.00    -0.036 C  
BRANCH  11  12
HETATM   12  C   UNL     1      -8.279   9.429  63.546  1.00  0.00    -0.168 C  
HETATM   13  H   UNL     1      -8.731   9.942  61.695  1.00  0.00     0.000 HD 
HETATM   14  O   UNL     1      -9.188   9.629  62.467  1.00  0.00    -0.281 OA 
ENDBRANCH  11  12
ENDBRANCH  10  11
BRANCH  10  15
HETATM   15  C   UNL     1      -8.754  11.035  66.035  1.00  0.00    -0.188 C  
BRANCH  15  16
HETATM   16  C   UNL     1     -10.239  11.517  65.985  1.00  0.00    -0.242 C  
HETATM   17  C   UNL     1     -12.027  12.952  64.890  1.00  0.00    -0.392 C  
HETATM   18  C   UNL     1      -9.787  12.523  63.742  1.00  0.00     0.012 C  
HETATM   19  N   UNL     1     -10.635  12.340  64.918  1.00  0.00    -0.282 N  
HETATM   20  C   UNL     1     -12.619  13.367  66.291  1.00  0.00    -0.231 C  
HETATM   21  O   UNL     1     -11.038  11.232  66.880  1.00  0.00    -0.289 OA 
HETATM   22  C   UNL     1     -12.098  14.211  63.995  1.00  0.00    -0.382 C  
HETATM   23  C   UNL     1     -13.006  11.925  64.282  1.00  0.00     0.031 C  
BRANCH  20  24
HETATM   24  C   UNL     1     -11.860  14.360  67.147  1.00  0.00    -0.437 A  
HETATM   25  C   UNL     1     -11.857  14.177  68.538  1.00  0.00    -0.390 A  
HETATM   26  C   UNL     1     -11.117  15.021  69.369  1.00  0.00    -0.290 A  
HETATM   27  C   UNL     1     -10.350  16.046  68.821  1.00  0.00    -0.237 A  
HETATM   28  C   UNL     1     -10.323  16.228  67.448  1.00  0.00    -0.285 A  
HETATM   29  C   UNL     1     -11.080  15.405  66.622  1.00  0.00    -0.236 A  
ENDBRANCH  20  24
ENDBRANCH  15  16
ENDBRANCH  10  15
ENDBRANCH   9  10
ENDBRANCH   3   9
BRANCH   5  30
HETATM   30  C   UNL     1     -10.367   8.584  70.881  1.00  0.00    -0.245 A  
HETATM   31  C   UNL     1     -11.761   6.594  70.678  1.00  0.00    -0.452 A  
HETATM   32  C   UNL     1     -10.624   8.576  72.258  1.00  0.00    -0.408 A  
HETATM   33  C   UNL     1     -10.965   7.584  70.104  1.00  0.00    -0.267 A  
HETATM   34  C   UNL     1     -12.038   6.625  72.036  1.00  0.00    -0.353 A  
HETATM   35  C   UNL     1     -11.462   7.612  72.827  1.00  0.00    -0.384 A  
ENDBRANCH   5  30
TORSDOF 8
ENDMDL
MODEL       87
REMARK 921   NORMALIZED FREE ENERGY PREDICTED BY IDOCK:   -5.12 KCAL/MOL
REMARK 922        TOTAL FREE ENERGY PREDICTED BY IDOCK:   -8.32 KCAL/MOL
REMARK 923 INTER-LIGAND FREE ENERGY PREDICTED BY IDOCK:   -6.73 KCAL/MOL
REMARK 924 INTRA-LIGAND FREE ENERGY PREDICTED BY IDOCK:   -1.59 KCAL/MOL
REMARK 927      BINDING AFFINITY PREDICTED BY RF-SCORE:    0.00 PKD
ROOT
HETATM    1  C   UNL     1      -6.293  12.848  70.075  1.00  0.00     0.014 C  
HETATM    2  N   UNL     1      -6.652  11.814  69.101  1.00  0.00    -0.094 N  
HETATM    3  C   UNL     1      -6.842  10.536  69.645  1.00  0.00    -0.117 C  
HETATM    4  C   UNL     1      -6.897  12.245  67.667  1.00  0.00    -0.124 C  
HETATM    5  C   UNL     1      -8.309  11.843  67.111  1.00  0.00    -0.174 C  
HETATM    6  C   UNL     1      -6.798  13.792  67.495  1.00  0.00    -0.148 C  
HETATM    7  C   UNL     1      -5.774  11.697  66.750  1.00  0.00    -0.139 C  
HETATM    8  O   UNL     1      -6.777  10.361  70.868  1.00  0.00    -0.341 OA 
ENDROOT
BRANCH   3   9
HETATM    9  C   UNL     1      -7.183   9.368  68.708  1.00  0.00    -0.073 C  
BRANCH   9  10
HETATM   10  N   UNL     1      -8.204   8.415  69.196  1.00  0.00    -0.119 NA 
BRANCH  10  11
HETATM   11  C   UNL     1      -9.129   8.012  68.122  1.00  0.00    -0.134 C  
BRANCH  11  12
HETATM   12  C   UNL     1     -10.582   7.775  68.590  1.00  0.00    -0.120 C  
HETATM   13  H   UNL     1     -11.860   6.273  68.666  1.00  0.00     0.000 HD 
HETATM   14  O   UNL     1     -10.967   6.419  68.378  1.00  0.00    -0.287 OA 
ENDBRANCH  11  12
ENDBRANCH  10  11
BRANCH  10  15
HETATM   15  C   UNL     1      -7.618   7.245  69.910  1.00  0.00    -0.094 C  
BRANCH  15  16
HETATM   16  C   UNL     1      -8.234   6.981  71.321  1.00  0.00    -0.113 C  
HETATM   17  C   UNL     1      -9.586   5.478  72.860  1.00  0.00    -0.147 C  
HETATM   18  C   UNL     1      -8.689   4.622  70.628  1.00  0.00    -0.099 C  
HETATM   19  N   UNL     1      -8.850   5.740  71.555  1.00  0.00    -0.136 N  
HETATM   20  C   UNL     1     -10.348   6.714  73.474  1.00  0.00    -0.318 C  
HETATM   21  O   UNL     1      -8.231   7.848  72.197  1.00  0.00    -0.107 OA 
HETATM   22  C   UNL     1     -10.628   4.343  72.730  1.00  0.00    -0.254 C  
HETATM   23  C   UNL     1      -8.563   5.016  73.920  1.00  0.00    -0.106 C  
BRANCH  20  24
HETATM   24  C   UNL     1     -11.414   7.408  72.649  1.00  0.00    -0.337 A  
HETATM   25  C   UNL     1     -12.482   6.642  72.158  1.00  0.00    -0.207 A  
HETATM   26  C   UNL     1     -13.526   7.241  71.452  1.00  0.00    -0.400 A  
HETATM   27  C   UNL     1     -13.533   8.618  71.247  1.00  0.00    -0.180 A  
HETATM   28  C   UNL     1     -12.498   9.394  71.744  1.00  0.00    -0.471 A  
HETATM   29  C   UNL     1     -11.444   8.795  72.424  1.00  0.00    -0.301 A  
ENDBRANCH  20  24
ENDBRANCH  15  16
ENDBRANCH  10  15
ENDBRANCH   9  10
ENDBRANCH   3   9
BRANCH   5  30
HETATM   30  C   UNL     1      -9.505  12.316  67.919  1.00  0.00    -0.200 A  
HETATM   31  C   UNL     1     -11.345  11.925  69.470  1.00  0.00    -0.306 A  
HETATM   32  C   UNL     1      -9.881  13.664  67.874  1.00  0.00    -0.237 A  
HETATM   33  C   UNL     1     -10.269  11.455  68.718  1.00  0.00    -0.209 A  
HETATM   34  C   UNL     1     -11.728  13.254  69.382  1.00  0.00    -0.383 A  
HETATM   35  C   UNL     1     -10.990  14.125  68.589  1.00  0.00    -0.275 A  
ENDBRANCH   5  30
TORSDOF 8
ENDMDL
MODEL       88
REMARK 921   NORMALIZED FREE ENERGY PREDICTED BY IDOCK:   -5.11 KCAL/MOL
REMARK 922        TOTAL FREE ENERGY PREDICTED BY IDOCK:   -8.31 KCAL/MOL
REMARK 923 INTER-LIGAND FREE ENERGY PREDICTED BY IDOCK:   -7.86 KCAL/MOL
REMARK 924 INTRA-LIGAND FREE ENERGY PREDICTED BY IDOCK:   -0.45 KCAL/MOL
REMARK 927      BINDING AFFINITY PREDICTED BY RF-SCORE:    0.00 PKD
ROOT
HETATM    1  C   UNL     1     -11.861  13.028  68.941  1.00  0.00    -0.316 C  
HETATM    2  N   UNL     1     -10.481  13.185  68.477  1.00  0.00    -0.254 N  
HETATM    3  C   UNL     1      -9.710  12.015  68.522  1.00  0.00    -0.161 C  
HETATM    4  C   UNL     1     -10.075  14.526  67.894  1.00  0.00    -0.227 C  
HETATM    5  C   UNL     1      -9.495  14.442  66.438  1.00  0.00    -0.309 C  
HETATM    6  C   UNL     1     -11.277  15.518  67.816  1.00  0.00    -0.302 C  
HETATM    7  C   UNL     1      -9.072  15.234  68.841  1.00  0.00    -0.209 C  
HETATM    8  O   UNL     1     -10.223  10.941  68.862  1.00  0.00    -0.185 OA 
ENDROOT
BRANCH   3   9
HETATM    9  C   UNL     1      -8.235  12.073  68.096  1.00  0.00    -0.163 C  
BRANCH   9  10
HETATM   10  N   UNL     1      -7.480  10.804  68.178  1.00  0.00    -0.088 NA 
BRANCH  10  11
HETATM   11  C   UNL     1      -7.679  10.137  69.477  1.00  0.00    -0.155 C  
BRANCH  11  12
HETATM   12  C   UNL     1      -6.450  10.188  70.412  1.00  0.00    -0.131 C  
HETATM   13  H   UNL     1      -5.612  11.481  71.645  1.00  0.00     0.000 HD 
HETATM   14  O   UNL     1      -6.368  11.449  71.070  1.00  0.00    -0.169 OA 
ENDBRANCH  11  12
ENDBRANCH  10  11
BRANCH  10  15
HETATM   15  C   UNL     1      -7.738   9.894  67.026  1.00  0.00    -0.095 C  
BRANCH  15  16
HETATM   16  C   UNL     1      -7.948   8.399  67.423  1.00  0.00    -0.106 C  
HETATM   17  C   UNL     1      -9.529   6.443  67.783  1.00  0.00    -0.115 C  
HETATM   18  C   UNL     1     -10.281   8.540  66.537  1.00  0.00    -0.216 C  
HETATM   19  N   UNL     1      -9.233   7.848  67.283  1.00  0.00    -0.139 N  
HETATM   20  C   UNL     1      -8.772   6.011  69.096  1.00  0.00    -0.120 C  
HETATM   21  O   UNL     1      -7.032   7.724  67.898  1.00  0.00    -0.072 OA 
HETATM   22  C   UNL     1     -11.036   6.220  68.054  1.00  0.00    -0.418 C  
HETATM   23  C   UNL     1      -9.126   5.433  66.686  1.00  0.00    -0.124 C  
BRANCH  20  24
HETATM   24  C   UNL     1      -8.953   6.833  70.356  1.00  0.00    -0.152 A  
HETATM   25  C   UNL     1      -7.924   6.828  71.310  1.00  0.00    -0.106 A  
HETATM   26  C   UNL     1      -8.008   7.621  72.456  1.00  0.00    -0.131 A  
HETATM   27  C   UNL     1      -9.108   8.451  72.654  1.00  0.00    -0.311 A  
HETATM   28  C   UNL     1     -10.124   8.486  71.712  1.00  0.00    -0.351 A  
HETATM   29  C   UNL     1     -10.054   7.677  70.584  1.00  0.00    -0.187 A  
ENDBRANCH  20  24
ENDBRANCH  15  16
ENDBRANCH  10  15
ENDBRANCH   9  10
ENDBRANCH   3   9
BRANCH   5  30
HETATM   30  C   UNL     1     -10.379  13.767  65.405  1.00  0.00    -0.347 A  
HETATM   31  C   UNL     1     -11.043  11.835  64.073  1.00  0.00    -0.461 A  
HETATM   32  C   UNL     1     -11.422  14.487  64.809  1.00  0.00    -0.408 A  
HETATM   33  C   UNL     1     -10.198  12.436  65.004  1.00  0.00    -0.306 A  
HETATM   34  C   UNL     1     -12.045  12.575  63.464  1.00  0.00    -0.653 A  
HETATM   35  C   UNL     1     -12.239  13.899  63.838  1.00  0.00    -0.375 A  
ENDBRANCH   5  30
TORSDOF 8
ENDMDL
MODEL       89
REMARK 921   NORMALIZED FREE ENERGY PREDICTED BY IDOCK:   -5.11 KCAL/MOL
REMARK 922        TOTAL FREE ENERGY PREDICTED BY IDOCK:   -8.30 KCAL/MOL
REMARK 923 INTER-LIGAND FREE ENERGY PREDICTED BY IDOCK:   -8.38 KCAL/MOL
REMARK 924 INTRA-LIGAND FREE ENERGY PREDICTED BY IDOCK:    0.08 KCAL/MOL
REMARK 927      BINDING AFFINITY PREDICTED BY RF-SCORE:    0.00 PKD
ROOT
HETATM    1  C   UNL     1     -11.508  13.655  69.012  1.00  0.00    -0.301 C  
HETATM    2  N   UNL     1     -10.484  12.774  68.446  1.00  0.00    -0.239 N  
HETATM    3  C   UNL     1     -10.780  11.406  68.522  1.00  0.00    -0.201 C  
HETATM    4  C   UNL     1      -9.304  13.418  67.742  1.00  0.00    -0.211 C  
HETATM    5  C   UNL     1      -9.104  12.941  66.260  1.00  0.00    -0.019 C  
HETATM    6  C   UNL     1      -9.438  14.970  67.674  1.00  0.00    -0.195 C  
HETATM    7  C   UNL     1      -8.010  13.194  68.565  1.00  0.00    -0.094 C  
HETATM    8  O   UNL     1     -11.868  11.025  68.972  1.00  0.00    -0.310 OA 
ENDROOT
BRANCH   3   9
HETATM    9  C   UNL     1      -9.756  10.388  67.994  1.00  0.00    -0.150 C  
BRANCH   9  10
HETATM   10  N   UNL     1      -8.770   9.884  68.974  1.00  0.00    -0.141 NA 
BRANCH  10  11
HETATM   11  C   UNL     1      -9.425   9.164  70.081  1.00  0.00    -0.208 C  
BRANCH  11  12
HETATM   12  C   UNL     1      -8.498   8.866  71.281  1.00  0.00    -0.182 C  
HETATM   13  H   UNL     1      -8.669   8.661  73.236  1.00  0.00     0.000 HD 
HETATM   14  O   UNL     1      -9.238   8.844  72.498  1.00  0.00    -0.334 OA 
ENDBRANCH  11  12
ENDBRANCH  10  11
BRANCH  10  15
HETATM   15  C   UNL     1      -7.675   9.091  68.348  1.00  0.00    -0.098 C  
BRANCH  15  16
HETATM   16  C   UNL     1      -7.951   7.556  68.282  1.00  0.00    -0.123 C  
HETATM   17  C   UNL     1      -9.312   5.627  67.343  1.00  0.00    -0.113 C  
HETATM   18  C   UNL     1      -9.419   7.953  66.298  1.00  0.00    -0.151 C  
HETATM   19  N   UNL     1      -8.901   7.090  67.357  1.00  0.00    -0.119 N  
HETATM   20  C   UNL     1      -9.367   4.919  68.750  1.00  0.00    -0.184 C  
HETATM   21  O   UNL     1      -7.395   6.768  69.050  1.00  0.00    -0.088 OA 
HETATM   22  C   UNL     1     -10.697   5.410  66.690  1.00  0.00    -0.309 C  
HETATM   23  C   UNL     1      -8.296   4.837  66.489  1.00  0.00    -0.107 C  
BRANCH  20  24
HETATM   24  C   UNL     1     -10.272   5.485  69.825  1.00  0.00    -0.336 A  
HETATM   25  C   UNL     1      -9.928   5.271  71.169  1.00  0.00    -0.265 A  
HETATM   26  C   UNL     1     -10.688   5.829  72.199  1.00  0.00    -0.282 A  
HETATM   27  C   UNL     1     -11.788   6.628  71.903  1.00  0.00    -0.375 A  
HETATM   28  C   UNL     1     -12.131   6.869  70.582  1.00  0.00    -0.363 A  
HETATM   29  C   UNL     1     -11.391   6.293  69.556  1.00  0.00    -0.475 A  
ENDBRANCH  20  24
ENDBRANCH  15  16
ENDBRANCH  10  15
ENDBRANCH   9  10
ENDBRANCH   3   9
BRANCH   5  30
HETATM   30  C   UNL     1     -10.301  13.101  65.339  1.00  0.00    -0.313 A  
HETATM   31  C   UNL     1     -12.032  14.449  64.273  1.00  0.00    -0.433 A  
HETATM   32  C   UNL     1     -10.797  11.989  64.647  1.00  0.00    -0.357 A  
HETATM   33  C   UNL     1     -10.952  14.327  65.146  1.00  0.00    -0.369 A  
HETATM   34  C   UNL     1     -12.534  13.329  63.627  1.00  0.00    -0.347 A  
HETATM   35  C   UNL     1     -11.911  12.100  63.809  1.00  0.00    -0.592 A  
ENDBRANCH   5  30
TORSDOF 8
ENDMDL
MODEL       90
REMARK 921   NORMALIZED FREE ENERGY PREDICTED BY IDOCK:   -5.08 KCAL/MOL
REMARK 922        TOTAL FREE ENERGY PREDICTED BY IDOCK:   -8.27 KCAL/MOL
REMARK 923 INTER-LIGAND FREE ENERGY PREDICTED BY IDOCK:   -8.09 KCAL/MOL
REMARK 924 INTRA-LIGAND FREE ENERGY PREDICTED BY IDOCK:   -0.18 KCAL/MOL
REMARK 927      BINDING AFFINITY PREDICTED BY RF-SCORE:    0.00 PKD
ROOT
HETATM    1  C   UNL     1      -8.303  14.620  67.013  1.00  0.00    -0.185 C  
HETATM    2  N   UNL     1      -9.488  13.796  66.765  1.00  0.00    -0.267 N  
HETATM    3  C   UNL     1      -9.369  12.460  67.173  1.00  0.00    -0.199 C  
HETATM    4  C   UNL     1     -10.730  14.482  66.225  1.00  0.00    -0.309 C  
HETATM    5  C   UNL     1     -12.009  14.279  67.112  1.00  0.00    -0.449 C  
HETATM    6  C   UNL     1     -10.539  16.025  66.101  1.00  0.00    -0.302 C  
HETATM    7  C   UNL     1     -10.997  14.023  64.770  1.00  0.00    -0.410 C  
HETATM    8  O   UNL     1      -8.351  12.074  67.762  1.00  0.00    -0.139 OA 
ENDROOT
BRANCH   3   9
HETATM    9  C   UNL     1     -10.539  11.495  66.925  1.00  0.00    -0.247 C  
BRANCH   9  10
HETATM   10  N   UNL     1     -10.210  10.236  66.223  1.00  0.00    -0.233 NA 
BRANCH  10  11
HETATM   11  C   UNL     1      -8.848  10.268  65.660  1.00  0.00    -0.168 C  
BRANCH  11  12
HETATM   12  C   UNL     1      -8.765   9.850  64.175  1.00  0.00    -0.206 C  
HETATM   13  H   UNL     1      -7.366   9.638  62.799  1.00  0.00     0.000 HD 
HETATM   14  O   UNL     1      -7.418   9.895  63.712  1.00  0.00    -0.128 OA 
ENDBRANCH  11  12
ENDBRANCH  10  11
BRANCH  10  15
HETATM   15  C   UNL     1     -10.454   9.022  67.052  1.00  0.00    -0.246 C  
BRANCH  15  16
HETATM   16  C   UNL     1      -9.273   8.644  68.001  1.00  0.00    -0.140 C  
HETATM   17  C   UNL     1      -7.611   6.908  68.824  1.00  0.00    -0.105 C  
HETATM   18  C   UNL     1      -8.930   6.559  66.666  1.00  0.00    -0.138 C  
HETATM   19  N   UNL     1      -8.669   7.385  67.842  1.00  0.00    -0.124 N  
HETATM   20  C   UNL     1      -7.820   7.349  70.322  1.00  0.00    -0.095 C  
HETATM   21  O   UNL     1      -8.905   9.400  68.903  1.00  0.00    -0.131 OA 
HETATM   22  C   UNL     1      -7.473   5.367  68.836  1.00  0.00    -0.075 C  
HETATM   23  C   UNL     1      -6.241   7.468  68.384  1.00  0.00    -0.036 C  
BRANCH  20  24
HETATM   24  C   UNL     1      -9.101   6.960  71.033  1.00  0.00    -0.155 A  
HETATM   25  C   UNL     1      -9.697   7.895  71.894  1.00  0.00    -0.231 A  
HETATM   26  C   UNL     1     -10.913   7.616  72.520  1.00  0.00    -0.377 A  
HETATM   27  C   UNL     1     -11.565   6.410  72.278  1.00  0.00    -0.341 A  
HETATM   28  C   UNL     1     -11.003   5.484  71.414  1.00  0.00    -0.208 A  
HETATM   29  C   UNL     1      -9.779   5.749  70.811  1.00  0.00    -0.220 A  
ENDBRANCH  20  24
ENDBRANCH  15  16
ENDBRANCH  10  15
ENDBRANCH   9  10
ENDBRANCH   3   9
BRANCH   5  30
HETATM   30  C   UNL     1     -11.884  14.688  68.569  1.00  0.00    -0.346 A  
HETATM   31  C   UNL     1     -11.385  16.318  70.312  1.00  0.00    -0.299 A  
HETATM   32  C   UNL     1     -12.191  13.764  69.576  1.00  0.00    -0.344 A  
HETATM   33  C   UNL     1     -11.464  15.964  68.966  1.00  0.00    -0.380 A  
HETATM   34  C   UNL     1     -11.655  15.379  71.296  1.00  0.00    -0.440 A  
HETATM   35  C   UNL     1     -12.065  14.104  70.926  1.00  0.00    -0.416 A  
ENDBRANCH   5  30
TORSDOF 8
ENDMDL
MODEL       91
REMARK 921   NORMALIZED FREE ENERGY PREDICTED BY IDOCK:   -5.08 KCAL/MOL
REMARK 922        TOTAL FREE ENERGY PREDICTED BY IDOCK:   -8.25 KCAL/MOL
REMARK 923 INTER-LIGAND FREE ENERGY PREDICTED BY IDOCK:   -7.35 KCAL/MOL
REMARK 924 INTRA-LIGAND FREE ENERGY PREDICTED BY IDOCK:   -0.91 KCAL/MOL
REMARK 927      BINDING AFFINITY PREDICTED BY RF-SCORE:    0.00 PKD
ROOT
HETATM    1  C   UNL     1     -11.182  15.385  65.273  1.00  0.00    -0.310 C  
HETATM    2  N   UNL     1     -10.135  14.630  65.964  1.00  0.00    -0.295 N  
HETATM    3  C   UNL     1      -8.955  15.349  66.205  1.00  0.00    -0.259 C  
HETATM    4  C   UNL     1     -10.469  13.231  66.448  1.00  0.00    -0.284 C  
HETATM    5  C   UNL     1     -10.244  13.015  67.987  1.00  0.00    -0.233 C  
HETATM    6  C   UNL     1     -11.961  12.860  66.181  1.00  0.00    -0.491 C  
HETATM    7  C   UNL     1      -9.675  12.183  65.629  1.00  0.00    -0.223 C  
HETATM    8  O   UNL     1      -8.881  16.547  65.906  1.00  0.00    -0.464 OA 
ENDROOT
BRANCH   3   9
HETATM    9  C   UNL     1      -7.775  14.642  66.890  1.00  0.00     0.213 C  
BRANCH   9  10
HETATM   10  N   UNL     1      -7.073  15.411  67.940  1.00  0.00    -0.126 NA 
BRANCH  10  11
HETATM   11  C   UNL     1      -6.721  14.561  69.092  1.00  0.00    -0.115 C  
BRANCH  11  12
HETATM   12  C   UNL     1      -6.157  13.174  68.709  1.00  0.00    -0.079 C  
HETATM   13  H   UNL     1      -5.448  11.585  69.639  1.00  0.00     0.000 HD 
HETATM   14  O   UNL     1      -5.795  12.438  69.874  1.00  0.00    -0.112 OA 
ENDBRANCH  11  12
ENDBRANCH  10  11
BRANCH  10  15
HETATM   15  C   UNL     1      -5.907  16.180  67.423  1.00  0.00    -0.134 C  
BRANCH  15  16
HETATM   16  C   UNL     1      -6.059  17.730  67.532  1.00  0.00    -0.154 C  
HETATM   17  C   UNL     1      -6.556  19.774  68.957  1.00  0.00    -0.333 C  
HETATM   18  C   UNL     1      -6.066  17.506  70.022  1.00  0.00    -0.114 C  
HETATM   19  N   UNL     1      -6.263  18.290  68.805  1.00  0.00    -0.205 N  
HETATM   20  C   UNL     1      -7.424  20.420  67.810  1.00  0.00    -0.303 C  
HETATM   21  O   UNL     1      -6.054  18.449  66.531  1.00  0.00    -0.151 OA 
HETATM   22  C   UNL     1      -7.277  20.098  70.287  1.00  0.00     0.409 C  
HETATM   23  C   UNL     1      -5.217  20.542  68.985  1.00  0.00    -0.303 C  
BRANCH  20  24
HETATM   24  C   UNL     1      -8.802  19.859  67.524  1.00  0.00    -0.411 A  
HETATM   25  C   UNL     1      -9.233  19.796  66.190  1.00  0.00    -0.418 A  
HETATM   26  C   UNL     1     -10.464  19.225  65.862  1.00  0.00    -0.534 A  
HETATM   27  C   UNL     1     -11.273  18.686  66.859  1.00  0.00     0.374 A  
HETATM   28  C   UNL     1     -10.855  18.720  68.180  1.00  0.00    -0.047 A  
HETATM   29  C   UNL     1      -9.642  19.312  68.510  1.00  0.00    -0.465 A  
ENDBRANCH  20  24
ENDBRANCH  15  16
ENDBRANCH  10  15
ENDBRANCH   9  10
ENDBRANCH   3   9
BRANCH   5  30
HETATM   30  C   UNL     1     -10.966  13.980  68.910  1.00  0.00    -0.283 A  
HETATM   31  C   UNL     1     -11.090  16.055  70.184  1.00  0.00    -0.372 A  
HETATM   32  C   UNL     1     -12.262  13.679  69.349  1.00  0.00    -0.307 A  
HETATM   33  C   UNL     1     -10.391  15.176  69.359  1.00  0.00    -0.259 A  
HETATM   34  C   UNL     1     -12.356  15.723  70.641  1.00  0.00    -0.412 A  
HETATM   35  C   UNL     1     -12.945  14.537  70.217  1.00  0.00    -0.148 A  
ENDBRANCH   5  30
TORSDOF 8
ENDMDL
MODEL       92
REMARK 921   NORMALIZED FREE ENERGY PREDICTED BY IDOCK:   -5.07 KCAL/MOL
REMARK 922        TOTAL FREE ENERGY PREDICTED BY IDOCK:   -8.25 KCAL/MOL
REMARK 923 INTER-LIGAND FREE ENERGY PREDICTED BY IDOCK:   -6.44 KCAL/MOL
REMARK 924 INTRA-LIGAND FREE ENERGY PREDICTED BY IDOCK:   -1.81 KCAL/MOL
REMARK 927      BINDING AFFINITY PREDICTED BY RF-SCORE:    0.00 PKD
ROOT
HETATM    1  C   UNL     1      -8.151  12.930  67.654  1.00  0.00    -0.167 C  
HETATM    2  N   UNL     1      -8.683  11.753  66.962  1.00  0.00    -0.174 N  
HETATM    3  C   UNL     1      -7.877  10.609  67.047  1.00  0.00    -0.117 C  
HETATM    4  C   UNL     1     -10.068  11.854  66.351  1.00  0.00    -0.214 C  
HETATM    5  C   UNL     1     -11.075  10.764  66.863  1.00  0.00    -0.204 C  
HETATM    6  C   UNL     1     -10.742  13.229  66.651  1.00  0.00    -0.284 C  
HETATM    7  C   UNL     1      -9.969  11.821  64.805  1.00  0.00    -0.275 C  
HETATM    8  O   UNL     1      -6.845  10.620  67.728  1.00  0.00    -0.071 OA 
ENDROOT
BRANCH   3   9
HETATM    9  C   UNL     1      -8.320   9.327  66.324  1.00  0.00    -0.122 C  
BRANCH   9  10
HETATM   10  N   UNL     1      -8.657   8.174  67.186  1.00  0.00    -0.123 NA 
BRANCH  10  11
HETATM   11  C   UNL     1      -9.704   7.331  66.582  1.00  0.00    -0.183 C  
BRANCH  11  12
HETATM   12  C   UNL     1      -9.583   5.828  66.919  1.00  0.00    -0.141 C  
HETATM   13  H   UNL     1     -10.798   4.317  67.286  1.00  0.00     0.000 HD 
HETATM   14  O   UNL     1     -10.872   5.241  67.079  1.00  0.00    -0.179 OA 
ENDBRANCH  11  12
ENDBRANCH  10  11
BRANCH  10  15
HETATM   15  C   UNL     1      -7.463   7.386  67.603  1.00  0.00    -0.097 C  
BRANCH  15  16
HETATM   16  C   UNL     1      -7.181   7.410  69.139  1.00  0.00    -0.084 C  
HETATM   17  C   UNL     1      -6.644   6.143  71.274  1.00  0.00    -0.051 C  
HETATM   18  C   UNL     1      -6.397   5.041  68.985  1.00  0.00    -0.031 C  
HETATM   19  N   UNL     1      -6.796   6.211  69.763  1.00  0.00    -0.065 N  
HETATM   20  C   UNL     1      -7.662   7.016  72.104  1.00  0.00    -0.092 C  
HETATM   21  O   UNL     1      -7.339   8.435  69.806  1.00  0.00    -0.058 OA 
HETATM   22  C   UNL     1      -6.767   4.698  71.813  1.00  0.00    -0.038 C  
HETATM   23  C   UNL     1      -5.229   6.634  71.651  1.00  0.00    -0.027 C  
BRANCH  20  24
HETATM   24  C   UNL     1      -9.148   6.779  71.930  1.00  0.00    -0.142 A  
HETATM   25  C   UNL     1     -10.018   7.230  72.935  1.00  0.00    -0.257 A  
HETATM   26  C   UNL     1     -11.401   7.101  72.795  1.00  0.00    -0.285 A  
HETATM   27  C   UNL     1     -11.938   6.542  71.638  1.00  0.00    -0.387 A  
HETATM   28  C   UNL     1     -11.096   6.111  70.625  1.00  0.00    -0.384 A  
HETATM   29  C   UNL     1      -9.718   6.215  70.775  1.00  0.00    -0.205 A  
ENDBRANCH  20  24
ENDBRANCH  15  16
ENDBRANCH  10  15
ENDBRANCH   9  10
ENDBRANCH   3   9
BRANCH   5  30
HETATM   30  C   UNL     1     -11.266  10.686  68.367  1.00  0.00    -0.347 A  
HETATM   31  C   UNL     1     -10.778   9.719  70.552  1.00  0.00    -0.381 A  
HETATM   32  C   UNL     1     -12.144  11.575  69.001  1.00  0.00    -0.303 A  
HETATM   33  C   UNL     1     -10.602   9.748  69.170  1.00  0.00    -0.237 A  
HETATM   34  C   UNL     1     -11.680  10.580  71.157  1.00  0.00    -0.323 A  
HETATM   35  C   UNL     1     -12.357  11.513  70.381  1.00  0.00    -0.390 A  
ENDBRANCH   5  30
TORSDOF 8
ENDMDL
MODEL       93
REMARK 921   NORMALIZED FREE ENERGY PREDICTED BY IDOCK:   -5.05 KCAL/MOL
REMARK 922        TOTAL FREE ENERGY PREDICTED BY IDOCK:   -8.21 KCAL/MOL
REMARK 923 INTER-LIGAND FREE ENERGY PREDICTED BY IDOCK:   -7.04 KCAL/MOL
REMARK 924 INTRA-LIGAND FREE ENERGY PREDICTED BY IDOCK:   -1.18 KCAL/MOL
REMARK 927      BINDING AFFINITY PREDICTED BY RF-SCORE:    0.00 PKD
ROOT
HETATM    1  C   UNL     1      -8.579  13.342  67.919  1.00  0.00    -0.184 C  
HETATM    2  N   UNL     1      -8.832  11.966  68.351  1.00  0.00    -0.177 N  
HETATM    3  C   UNL     1     -10.168  11.687  68.672  1.00  0.00    -0.206 C  
HETATM    4  C   UNL     1      -7.680  10.979  68.288  1.00  0.00    -0.113 C  
HETATM    5  C   UNL     1      -7.980   9.701  67.428  1.00  0.00    -0.106 C  
HETATM    6  C   UNL     1      -6.397  11.615  67.671  1.00  0.00    -0.072 C  
HETATM    7  C   UNL     1      -7.244  10.581  69.721  1.00  0.00    -0.152 C  
HETATM    8  O   UNL     1     -11.042  12.548  68.513  1.00  0.00    -0.232 OA 
ENDROOT
BRANCH   3   9
HETATM    9  C   UNL     1     -10.539  10.283  69.175  1.00  0.00    -0.230 C  
BRANCH   9  10
HETATM   10  N   UNL     1     -11.034  10.197  70.566  1.00  0.00    -0.314 NA 
BRANCH  10  11
HETATM   11  C   UNL     1     -12.476   9.893  70.612  1.00  0.00    -0.187 C  
BRANCH  11  12
HETATM   12  C   UNL     1     -13.175  10.324  71.921  1.00  0.00    -0.445 C  
HETATM   13  H   UNL     1     -13.610  12.008  72.853  1.00  0.00     0.000 HD 
HETATM   14  O   UNL     1     -13.180  11.743  72.048  1.00  0.00    -0.506 OA 
ENDBRANCH  11  12
ENDBRANCH  10  11
BRANCH  10  15
HETATM   15  C   UNL     1     -10.231   9.276  71.418  1.00  0.00    -0.301 C  
BRANCH  15  16
HETATM   16  C   UNL     1     -10.532   7.761  71.186  1.00  0.00    -0.208 C  
HETATM   17  C   UNL     1      -9.758   5.344  71.304  1.00  0.00    -0.162 C  
HETATM   18  C   UNL     1      -8.491   7.200  72.514  1.00  0.00    -0.111 C  
HETATM   19  N   UNL     1      -9.586   6.820  71.625  1.00  0.00    -0.162 N  
HETATM   20  C   UNL     1     -10.400   5.021  69.901  1.00  0.00    -0.298 C  
HETATM   21  O   UNL     1     -11.545   7.390  70.588  1.00  0.00    -0.291 OA 
HETATM   22  C   UNL     1      -8.421   4.569  71.363  1.00  0.00    -0.112 C  
HETATM   23  C   UNL     1     -10.680   4.711  72.369  1.00  0.00    -0.186 C  
BRANCH  20  24
HETATM   24  C   UNL     1      -9.724   5.535  68.645  1.00  0.00    -0.186 A  
HETATM   25  C   UNL     1      -8.351   5.302  68.482  1.00  0.00    -0.089 A  
HETATM   26  C   UNL     1      -7.692   5.692  67.315  1.00  0.00    -0.101 A  
HETATM   27  C   UNL     1      -8.401   6.300  66.282  1.00  0.00    -0.122 A  
HETATM   28  C   UNL     1      -9.763   6.518  66.415  1.00  0.00    -0.133 A  
HETATM   29  C   UNL     1     -10.414   6.155  67.588  1.00  0.00    -0.295 A  
ENDBRANCH  20  24
ENDBRANCH  15  16
ENDBRANCH  10  15
ENDBRANCH   9  10
ENDBRANCH   3   9
BRANCH   5  30
HETATM   30  C   UNL     1      -8.422   9.947  65.996  1.00  0.00    -0.135 A  
HETATM   31  C   UNL     1     -10.140  10.343  64.312  1.00  0.00    -0.306 A  
HETATM   32  C   UNL     1      -7.461  10.034  64.980  1.00  0.00    -0.139 A  
HETATM   33  C   UNL     1      -9.767  10.090  65.631  1.00  0.00    -0.336 A  
HETATM   34  C   UNL     1      -9.179  10.386  63.313  1.00  0.00    -0.312 A  
HETATM   35  C   UNL     1      -7.839  10.239  63.649  1.00  0.00    -0.125 A  
ENDBRANCH   5  30
TORSDOF 8
ENDMDL
MODEL       94
REMARK 921   NORMALIZED FREE ENERGY PREDICTED BY IDOCK:   -5.04 KCAL/MOL
REMARK 922        TOTAL FREE ENERGY PREDICTED BY IDOCK:   -8.20 KCAL/MOL
REMARK 923 INTER-LIGAND FREE ENERGY PREDICTED BY IDOCK:   -7.79 KCAL/MOL
REMARK 924 INTRA-LIGAND FREE ENERGY PREDICTED BY IDOCK:   -0.41 KCAL/MOL
REMARK 927      BINDING AFFINITY PREDICTED BY RF-SCORE:    0.00 PKD
ROOT
HETATM    1  C   UNL     1     -10.334   9.471  65.905  1.00  0.00     0.019 C  
HETATM    2  N   UNL     1      -9.845  10.291  67.016  1.00  0.00    -0.185 N  
HETATM    3  C   UNL     1     -10.694  11.343  67.388  1.00  0.00    -0.232 C  
HETATM    4  C   UNL     1      -8.569   9.854  67.713  1.00  0.00    -0.121 C  
HETATM    5  C   UNL     1      -8.727   9.637  69.260  1.00  0.00    -0.159 C  
HETATM    6  C   UNL     1      -8.026   8.506  67.148  1.00  0.00    -0.101 C  
HETATM    7  C   UNL     1      -7.432  10.864  67.418  1.00  0.00    -0.100 C  
HETATM    8  O   UNL     1     -11.795  11.480  66.840  1.00  0.00    -0.542 OA 
ENDROOT
BRANCH   3   9
HETATM    9  C   UNL     1     -10.261  12.291  68.517  1.00  0.00    -0.206 C  
BRANCH   9  10
HETATM   10  N   UNL     1      -9.996  13.693  68.127  1.00  0.00    -0.240 NA 
BRANCH  10  11
HETATM   11  C   UNL     1     -11.160  14.558  68.389  1.00  0.00    -0.256 C  
BRANCH  11  12
HETATM   12  C   UNL     1     -11.286  15.028  69.856  1.00  0.00    -0.276 C  
HETATM   13  H   UNL     1     -12.723  15.287  71.183  1.00  0.00     0.000 HD 
HETATM   14  O   UNL     1     -12.645  14.998  70.281  1.00  0.00    -0.342 OA 
ENDBRANCH  11  12
ENDBRANCH  10  11
BRANCH  10  15
HETATM   15  C   UNL     1      -8.740  14.237  68.715  1.00  0.00    -0.096 C  
BRANCH  15  16
HETATM   16  C   UNL     1      -7.971  15.228  67.785  1.00  0.00    -0.146 C  
HETATM   17  C   UNL     1      -6.363  17.179  67.536  1.00  0.00    -0.144 C  
HETATM   18  C   UNL     1      -6.581  15.917  69.744  1.00  0.00    -0.148 C  
HETATM   19  N   UNL     1      -7.038  16.100  68.369  1.00  0.00    -0.127 N  
HETATM   20  C   UNL     1      -7.255  17.832  66.412  1.00  0.00    -0.308 C  
HETATM   21  O   UNL     1      -8.207  15.289  66.576  1.00  0.00    -0.192 OA 
HETATM   22  C   UNL     1      -5.830  18.344  68.402  1.00  0.00    -0.180 C  
HETATM   23  C   UNL     1      -5.138  16.562  66.827  1.00  0.00     0.098 C  
BRANCH  20  24
HETATM   24  C   UNL     1      -8.555  18.507  66.801  1.00  0.00    -0.290 A  
HETATM   25  C   UNL     1      -8.864  19.746  66.219  1.00  0.00    -0.417 A  
HETATM   26  C   UNL     1     -10.079  20.379  66.488  1.00  0.00    -0.419 A  
HETATM   27  C   UNL     1     -11.014  19.773  67.323  1.00  0.00    -0.345 A  
HETATM   28  C   UNL     1     -10.736  18.539  67.889  1.00  0.00    -0.337 A  
HETATM   29  C   UNL     1      -9.515  17.921  67.643  1.00  0.00    -0.260 A  
ENDBRANCH  20  24
ENDBRANCH  15  16
ENDBRANCH  10  15
ENDBRANCH   9  10
ENDBRANCH   3   9
BRANCH   5  30
HETATM   30  C   UNL     1      -9.813   8.668  69.691  1.00  0.00    -0.186 A  
HETATM   31  C   UNL     1     -11.785   8.090  71.004  1.00  0.00    -0.295 A  
HETATM   32  C   UNL     1      -9.864   7.388  69.124  1.00  0.00    -0.168 A  
HETATM   33  C   UNL     1     -10.783   8.992  70.649  1.00  0.00    -0.292 A  
HETATM   34  C   UNL     1     -11.796   6.813  70.463  1.00  0.00    -0.418 A  
HETATM   35  C   UNL     1     -10.839   6.466  69.517  1.00  0.00    -0.381 A  
ENDBRANCH   5  30
TORSDOF 8
ENDMDL
MODEL       95
REMARK 921   NORMALIZED FREE ENERGY PREDICTED BY IDOCK:   -5.02 KCAL/MOL
REMARK 922        TOTAL FREE ENERGY PREDICTED BY IDOCK:   -8.17 KCAL/MOL
REMARK 923 INTER-LIGAND FREE ENERGY PREDICTED BY IDOCK:   -7.38 KCAL/MOL
REMARK 924 INTRA-LIGAND FREE ENERGY PREDICTED BY IDOCK:   -0.79 KCAL/MOL
REMARK 927      BINDING AFFINITY PREDICTED BY RF-SCORE:    0.00 PKD
ROOT
HETATM    1  C   UNL     1      -7.960  11.521  68.171  1.00  0.00    -0.136 C  
HETATM    2  N   UNL     1      -8.700  10.316  67.789  1.00  0.00    -0.122 N  
HETATM    3  C   UNL     1      -9.722   9.949  68.677  1.00  0.00    -0.157 C  
HETATM    4  C   UNL     1      -8.379   9.680  66.449  1.00  0.00    -0.119 C  
HETATM    5  C   UNL     1      -9.619   9.528  65.499  1.00  0.00    -0.349 C  
HETATM    6  C   UNL     1      -7.327  10.505  65.646  1.00  0.00    -0.126 C  
HETATM    7  C   UNL     1      -7.688   8.310  66.665  1.00  0.00    -0.093 C  
HETATM    8  O   UNL     1      -9.989  10.663  69.651  1.00  0.00    -0.177 OA 
ENDROOT
BRANCH   3   9
HETATM    9  C   UNL     1     -10.537   8.678  68.394  1.00  0.00    -0.120 C  
BRANCH   9  10
HETATM   10  N   UNL     1     -10.411   7.587  69.385  1.00  0.00    -0.220 NA 
BRANCH  10  11
HETATM   11  C   UNL     1     -10.911   6.308  68.851  1.00  0.00    -0.368 C  
BRANCH  11  12
HETATM   12  C   UNL     1     -11.024   6.262  67.311  1.00  0.00    -0.366 C  
HETATM   13  H   UNL     1     -10.509   5.041  65.849  1.00  0.00     0.000 HD 
HETATM   14  O   UNL     1     -10.440   5.069  66.796  1.00  0.00    -0.251 OA 
ENDBRANCH  11  12
ENDBRANCH  10  11
BRANCH  10  15
HETATM   15  C   UNL     1      -9.039   7.469  69.954  1.00  0.00    -0.144 C  
BRANCH  15  16
HETATM   16  C   UNL     1      -8.980   7.553  71.512  1.00  0.00    -0.131 C  
HETATM   17  C   UNL     1      -7.715   7.112  73.670  1.00  0.00    -0.100 C  
HETATM   18  C   UNL     1      -6.546   6.994  71.404  1.00  0.00    -0.048 C  
HETATM   19  N   UNL     1      -7.786   7.184  72.153  1.00  0.00    -0.090 N  
HETATM   20  C   UNL     1      -9.025   6.618  74.394  1.00  0.00    -0.203 C  
HETATM   21  O   UNL     1      -9.966   7.882  72.176  1.00  0.00    -0.181 OA 
HETATM   22  C   UNL     1      -6.571   6.195  74.163  1.00  0.00    -0.075 C  
HETATM   23  C   UNL     1      -7.412   8.524  74.218  1.00  0.00    -0.184 C  
BRANCH  20  24
HETATM   24  C   UNL     1      -9.591   5.256  74.045  1.00  0.00    -0.142 A  
HETATM   25  C   UNL     1     -10.933   5.174  73.643  1.00  0.00    -0.350 A  
HETATM   26  C   UNL     1     -11.487   3.956  73.244  1.00  0.00    -0.145 A  
HETATM   27  C   UNL     1     -10.702   2.806  73.216  1.00  0.00    -0.277 A  
HETATM   28  C   UNL     1      -9.368   2.872  73.588  1.00  0.00    -0.102 A  
HETATM   29  C   UNL     1      -8.823   4.079  74.012  1.00  0.00    -0.092 A  
ENDBRANCH  20  24
ENDBRANCH  15  16
ENDBRANCH  10  15
ENDBRANCH   9  10
ENDBRANCH   3   9
BRANCH   5  30
HETATM   30  C   UNL     1     -10.394  10.800  65.204  1.00  0.00    -0.341 A  
HETATM   31  C   UNL     1     -11.772  12.691  65.892  1.00  0.00    -0.470 A  
HETATM   32  C   UNL     1     -10.430  11.301  63.896  1.00  0.00    -0.452 A  
HETATM   33  C   UNL     1     -11.093  11.510  66.189  1.00  0.00    -0.302 A  
HETATM   34  C   UNL     1     -11.831  13.150  64.585  1.00  0.00    -0.417 A  
HETATM   35  C   UNL     1     -11.153  12.458  63.589  1.00  0.00    -0.535 A  
ENDBRANCH   5  30
TORSDOF 8
ENDMDL
MODEL       96
REMARK 921   NORMALIZED FREE ENERGY PREDICTED BY IDOCK:   -5.00 KCAL/MOL
REMARK 922        TOTAL FREE ENERGY PREDICTED BY IDOCK:   -8.14 KCAL/MOL
REMARK 923 INTER-LIGAND FREE ENERGY PREDICTED BY IDOCK:   -7.89 KCAL/MOL
REMARK 924 INTRA-LIGAND FREE ENERGY PREDICTED BY IDOCK:   -0.24 KCAL/MOL
REMARK 927      BINDING AFFINITY PREDICTED BY RF-SCORE:    0.00 PKD
ROOT
HETATM    1  C   UNL     1      -9.184  14.685  66.785  1.00  0.00    -0.264 C  
HETATM    2  N   UNL     1      -9.789  13.444  67.273  1.00  0.00    -0.229 N  
HETATM    3  C   UNL     1      -8.922  12.614  67.999  1.00  0.00    -0.200 C  
HETATM    4  C   UNL     1     -11.279  13.247  67.059  1.00  0.00    -0.292 C  
HETATM    5  C   UNL     1     -12.085  12.980  68.380  1.00  0.00    -0.193 C  
HETATM    6  C   UNL     1     -11.945  14.493  66.399  1.00  0.00    -0.350 C  
HETATM    7  C   UNL     1     -11.521  12.111  66.034  1.00  0.00    -0.427 C  
HETATM    8  O   UNL     1      -7.767  12.982  68.246  1.00  0.00    -0.125 OA 
ENDROOT
BRANCH   3   9
HETATM    9  C   UNL     1      -9.441  11.267  68.525  1.00  0.00    -0.191 C  
BRANCH   9  10
HETATM   10  N   UNL     1      -9.415  10.139  67.569  1.00  0.00    -0.151 NA 
BRANCH  10  11
HETATM   11  C   UNL     1      -8.149   9.389  67.648  1.00  0.00    -0.106 C  
BRANCH  11  12
HETATM   12  C   UNL     1      -7.310   9.421  66.350  1.00  0.00    -0.093 C  
HETATM   13  H   UNL     1      -7.333  10.380  64.626  1.00  0.00     0.000 HD 
HETATM   14  O   UNL     1      -7.848  10.360  65.424  1.00  0.00    -0.147 OA 
ENDBRANCH  11  12
ENDBRANCH  10  11
BRANCH  10  15
HETATM   15  C   UNL     1     -10.608   9.253  67.677  1.00  0.00    -0.261 C  
BRANCH  15  16
HETATM   16  C   UNL     1     -10.489   8.145  68.772  1.00  0.00    -0.174 C  
HETATM   17  C   UNL     1     -10.664   7.471  71.214  1.00  0.00    -0.225 C  
HETATM   18  C   UNL     1     -11.644   9.674  70.377  1.00  0.00    -0.236 C  
HETATM   19  N   UNL     1     -10.886   8.460  70.082  1.00  0.00    -0.240 N  
HETATM   20  C   UNL     1      -9.349   6.607  71.119  1.00  0.00    -0.164 C  
HETATM   21  O   UNL     1     -10.013   7.037  68.516  1.00  0.00    -0.148 OA 
HETATM   22  C   UNL     1     -10.636   8.158  72.600  1.00  0.00    -0.414 C  
HETATM   23  C   UNL     1     -11.846   6.477  71.242  1.00  0.00    -0.385 C  
BRANCH  20  24
HETATM   24  C   UNL     1      -8.008   7.310  71.053  1.00  0.00    -0.098 A  
HETATM   25  C   UNL     1      -6.873   6.554  70.724  1.00  0.00    -0.063 A  
HETATM   26  C   UNL     1      -5.624   7.163  70.582  1.00  0.00    -0.024 A  
HETATM   27  C   UNL     1      -5.495   8.540  70.741  1.00  0.00    -0.028 A  
HETATM   28  C   UNL     1      -6.609   9.306  71.043  1.00  0.00    -0.091 A  
HETATM   29  C   UNL     1      -7.847   8.698  71.212  1.00  0.00    -0.156 A  
ENDBRANCH  20  24
ENDBRANCH  15  16
ENDBRANCH  10  15
ENDBRANCH   9  10
ENDBRANCH   3   9
BRANCH   5  30
HETATM   30  C   UNL     1     -11.935  14.020  69.476  1.00  0.00    -0.390 A  
HETATM   31  C   UNL     1     -11.312  16.242  70.265  1.00  0.00    -0.299 A  
HETATM   32  C   UNL     1     -12.325  13.708  70.784  1.00  0.00    -0.446 A  
HETATM   33  C   UNL     1     -11.412  15.299  69.243  1.00  0.00    -0.334 A  
HETATM   34  C   UNL     1     -11.666  15.902  71.562  1.00  0.00    -0.545 A  
HETATM   35  C   UNL     1     -12.179  14.637  71.819  1.00  0.00    -0.409 A  
ENDBRANCH   5  30
TORSDOF 8
ENDMDL
MODEL       97
REMARK 921   NORMALIZED FREE ENERGY PREDICTED BY IDOCK:   -4.99 KCAL/MOL
REMARK 922        TOTAL FREE ENERGY PREDICTED BY IDOCK:   -8.13 KCAL/MOL
REMARK 923 INTER-LIGAND FREE ENERGY PREDICTED BY IDOCK:   -7.40 KCAL/MOL
REMARK 924 INTRA-LIGAND FREE ENERGY PREDICTED BY IDOCK:   -0.73 KCAL/MOL
REMARK 927      BINDING AFFINITY PREDICTED BY RF-SCORE:    0.00 PKD
ROOT
HETATM    1  C   UNL     1      -7.970  12.394  67.458  1.00  0.00    -0.173 C  
HETATM    2  N   UNL     1      -8.912  11.274  67.400  1.00  0.00    -0.143 N  
HETATM    3  C   UNL     1      -8.674  10.258  68.337  1.00  0.00    -0.129 C  
HETATM    4  C   UNL     1     -10.088  11.383  66.446  1.00  0.00    -0.218 C  
HETATM    5  C   UNL     1     -11.488  11.219  67.136  1.00  0.00    -0.217 C  
HETATM    6  C   UNL     1     -10.129  12.765  65.724  1.00  0.00    -0.296 C  
HETATM    7  C   UNL     1      -9.927  10.365  65.289  1.00  0.00    -0.376 C  
HETATM    8  O   UNL     1      -7.774  10.381  69.176  1.00  0.00    -0.103 OA 
ENDROOT
BRANCH   3   9
HETATM    9  C   UNL     1      -9.579   9.016  68.339  1.00  0.00    -0.152 C  
BRANCH   9  10
HETATM   10  N   UNL     1      -8.962   7.758  67.864  1.00  0.00    -0.126 NA 
BRANCH  10  11
HETATM   11  C   UNL     1      -7.765   8.016  67.043  1.00  0.00    -0.100 C  
BRANCH  11  12
HETATM   12  C   UNL     1      -7.820   7.396  65.628  1.00  0.00    -0.111 C  
HETATM   13  H   UNL     1      -8.662   5.842  64.752  1.00  0.00     0.000 HD 
HETATM   14  O   UNL     1      -8.629   6.223  65.621  1.00  0.00    -0.149 OA 
ENDBRANCH  11  12
ENDBRANCH  10  11
BRANCH  10  15
HETATM   15  C   UNL     1      -8.700   6.784  68.960  1.00  0.00    -0.130 C  
BRANCH  15  16
HETATM   16  C   UNL     1      -9.774   6.789  70.094  1.00  0.00    -0.167 C  
HETATM   17  C   UNL     1     -10.383   7.262  72.515  1.00  0.00    -0.218 C  
HETATM   18  C   UNL     1      -8.221   8.159  71.495  1.00  0.00    -0.125 C  
HETATM   19  N   UNL     1      -9.430   7.353  71.334  1.00  0.00    -0.153 N  
HETATM   20  C   UNL     1     -11.225   5.933  72.612  1.00  0.00    -0.335 C  
HETATM   21  O   UNL     1     -10.880   6.268  69.935  1.00  0.00    -0.266 OA 
HETATM   22  C   UNL     1      -9.656   7.419  73.871  1.00  0.00    -0.303 C  
HETATM   23  C   UNL     1     -11.396   8.424  72.423  1.00  0.00    -0.448 C  
BRANCH  20  24
HETATM   24  C   UNL     1     -10.501   4.605  72.695  1.00  0.00    -0.258 A  
HETATM   25  C   UNL     1     -11.259   3.442  72.899  1.00  0.00     0.092 A  
HETATM   26  C   UNL     1     -10.651   2.186  72.914  1.00  0.00    -0.240 A  
HETATM   27  C   UNL     1      -9.280   2.069  72.701  1.00  0.00    -0.113 A  
HETATM   28  C   UNL     1      -8.518   3.204  72.475  1.00  0.00    -0.082 A  
HETATM   29  C   UNL     1      -9.118   4.458  72.487  1.00  0.00    -0.137 A  
ENDBRANCH  20  24
ENDBRANCH  15  16
ENDBRANCH  10  15
ENDBRANCH   9  10
ENDBRANCH   3   9
BRANCH   5  30
HETATM   30  C   UNL     1     -11.777  12.157  68.294  1.00  0.00    -0.401 A  
HETATM   31  C   UNL     1     -12.250  14.368  69.207  1.00  0.00    -0.274 A  
HETATM   32  C   UNL     1     -11.866  11.645  69.595  1.00  0.00    -0.419 A  
HETATM   33  C   UNL     1     -11.958  13.536  68.127  1.00  0.00    -0.376 A  
HETATM   34  C   UNL     1     -12.294  13.851  70.492  1.00  0.00    -0.439 A  
HETATM   35  C   UNL     1     -12.109  12.487  70.684  1.00  0.00    -0.312 A  
ENDBRANCH   5  30
TORSDOF 8
ENDMDL
MODEL       98
REMARK 921   NORMALIZED FREE ENERGY PREDICTED BY IDOCK:   -4.99 KCAL/MOL
REMARK 922        TOTAL FREE ENERGY PREDICTED BY IDOCK:   -8.13 KCAL/MOL
REMARK 923 INTER-LIGAND FREE ENERGY PREDICTED BY IDOCK:   -7.66 KCAL/MOL
REMARK 924 INTRA-LIGAND FREE ENERGY PREDICTED BY IDOCK:   -0.46 KCAL/MOL
REMARK 927      BINDING AFFINITY PREDICTED BY RF-SCORE:    0.00 PKD
ROOT
HETATM    1  C   UNL     1      -8.679  12.417  66.821  1.00  0.00    -0.160 C  
HETATM    2  N   UNL     1      -9.156  11.351  67.704  1.00  0.00    -0.152 N  
HETATM    3  C   UNL     1      -8.305  11.055  68.778  1.00  0.00    -0.144 C  
HETATM    4  C   UNL     1     -10.539  10.782  67.448  1.00  0.00    -0.242 C  
HETATM    5  C   UNL     1     -11.504  10.865  68.683  1.00  0.00    -0.380 C  
HETATM    6  C   UNL     1     -11.271  11.522  66.286  1.00  0.00    -0.286 C  
HETATM    7  C   UNL     1     -10.425   9.321  66.942  1.00  0.00    -0.284 C  
HETATM    8  O   UNL     1      -7.280  11.721  68.966  1.00  0.00    -0.110 OA 
ENDROOT
BRANCH   3   9
HETATM    9  C   UNL     1      -8.688   9.925  69.747  1.00  0.00    -0.212 C  
BRANCH   9  10
HETATM   10  N   UNL     1      -7.723   8.811  69.865  1.00  0.00    -0.077 NA 
BRANCH  10  11
HETATM   11  C   UNL     1      -6.835   8.734  68.691  1.00  0.00    -0.063 C  
BRANCH  11  12
HETATM   12  C   UNL     1      -7.212   7.627  67.681  1.00  0.00    -0.087 C  
HETATM   13  H   UNL     1      -7.185   7.372  65.725  1.00  0.00     0.000 HD 
HETATM   14  O   UNL     1      -6.954   8.052  66.346  1.00  0.00    -0.068 OA 
ENDBRANCH  11  12
ENDBRANCH  10  11
BRANCH  10  15
HETATM   15  C   UNL     1      -6.968   8.824  71.150  1.00  0.00    -0.082 C  
BRANCH  15  16
HETATM   16  C   UNL     1      -7.691   8.098  72.328  1.00  0.00    -0.120 C  
HETATM   17  C   UNL     1      -8.644   5.957  73.309  1.00  0.00    -0.118 C  
HETATM   18  C   UNL     1      -7.093   5.908  71.282  1.00  0.00    -0.073 C  
HETATM   19  N   UNL     1      -7.830   6.701  72.263  1.00  0.00    -0.096 N  
HETATM   20  C   UNL     1      -9.913   6.717  73.855  1.00  0.00    -0.317 C  
HETATM   21  O   UNL     1      -8.177   8.727  73.270  1.00  0.00    -0.402 OA 
HETATM   22  C   UNL     1      -9.142   4.584  72.801  1.00  0.00    -0.134 C  
HETATM   23  C   UNL     1      -7.740   5.673  74.528  1.00  0.00    -0.097 C  
BRANCH  20  24
HETATM   24  C   UNL     1     -10.987   7.154  72.879  1.00  0.00    -0.359 A  
HETATM   25  C   UNL     1     -11.199   8.528  72.690  1.00  0.00    -0.229 A  
HETATM   26  C   UNL     1     -12.127   8.987  71.753  1.00  0.00    -0.438 A  
HETATM   27  C   UNL     1     -12.839   8.080  70.972  1.00  0.00    -0.020 A  
HETATM   28  C   UNL     1     -12.627   6.720  71.128  1.00  0.00    -0.305 A  
HETATM   29  C   UNL     1     -11.724   6.261  72.080  1.00  0.00    -0.374 A  
ENDBRANCH  20  24
ENDBRANCH  15  16
ENDBRANCH  10  15
ENDBRANCH   9  10
ENDBRANCH   3   9
BRANCH   5  30
HETATM   30  C   UNL     1     -11.705  12.245  69.282  1.00  0.00    -0.388 A  
HETATM   31  C   UNL     1     -12.390  13.727  71.094  1.00  0.00    -0.428 A  
HETATM   32  C   UNL     1     -11.350  13.380  68.542  1.00  0.00    -0.324 A  
HETATM   33  C   UNL     1     -12.243  12.447  70.560  1.00  0.00    -0.382 A  
HETATM   34  C   UNL     1     -12.071  14.840  70.332  1.00  0.00    -0.381 A  
HETATM   35  C   UNL     1     -11.543  14.665  69.058  1.00  0.00    -0.328 A  
ENDBRANCH   5  30
TORSDOF 8
ENDMDL
MODEL       99
REMARK 921   NORMALIZED FREE ENERGY PREDICTED BY IDOCK:   -4.98 KCAL/MOL
REMARK 922        TOTAL FREE ENERGY PREDICTED BY IDOCK:   -8.11 KCAL/MOL
REMARK 923 INTER-LIGAND FREE ENERGY PREDICTED BY IDOCK:   -7.60 KCAL/MOL
REMARK 924 INTRA-LIGAND FREE ENERGY PREDICTED BY IDOCK:   -0.52 KCAL/MOL
REMARK 927      BINDING AFFINITY PREDICTED BY RF-SCORE:    0.00 PKD
ROOT
HETATM    1  C   UNL     1      -8.968   7.205  67.105  1.00  0.00    -0.125 C  
HETATM    2  N   UNL     1      -8.553   8.605  67.229  1.00  0.00    -0.125 N  
HETATM    3  C   UNL     1      -9.374   9.522  66.557  1.00  0.00    -0.171 C  
HETATM    4  C   UNL     1      -7.387   8.921  68.147  1.00  0.00    -0.084 C  
HETATM    5  C   UNL     1      -7.722   9.967  69.269  1.00  0.00    -0.109 C  
HETATM    6  C   UNL     1      -6.866   7.653  68.891  1.00  0.00    -0.061 C  
HETATM    7  C   UNL     1      -6.168   9.389  67.313  1.00  0.00    -0.057 C  
HETATM    8  O   UNL     1     -10.401   9.138  65.983  1.00  0.00    -0.179 OA 
ENDROOT
BRANCH   3   9
HETATM    9  C   UNL     1      -9.010  11.014  66.588  1.00  0.00    -0.168 C  
BRANCH   9  10
HETATM   10  N   UNL     1      -9.964  11.933  65.930  1.00  0.00    -0.228 NA 
BRANCH  10  11
HETATM   11  C   UNL     1     -10.312  11.475  64.573  1.00  0.00    -0.302 C  
BRANCH  11  12
HETATM   12  C   UNL     1     -11.315  12.388  63.832  1.00  0.00    -0.433 C  
HETATM   13  H   UNL     1     -12.997  12.183  62.822  1.00  0.00     0.000 HD 
HETATM   14  O   UNL     1     -12.381  11.622  63.277  1.00  0.00    -0.452 OA 
ENDBRANCH  11  12
ENDBRANCH  10  11
BRANCH  10  15
HETATM   15  C   UNL     1     -11.168  12.219  66.760  1.00  0.00    -0.318 C  
BRANCH  15  16
HETATM   16  C   UNL     1     -10.939  13.284  67.879  1.00  0.00    -0.249 C  
HETATM   17  C   UNL     1     -10.780  15.726  68.560  1.00  0.00    -0.274 C  
HETATM   18  C   UNL     1     -11.770  15.043  66.309  1.00  0.00    -0.096 C  
HETATM   19  N   UNL     1     -11.122  14.639  67.554  1.00  0.00    -0.302 N  
HETATM   20  C   UNL     1      -9.535  15.437  69.483  1.00  0.00    -0.250 C  
HETATM   21  O   UNL     1     -10.558  12.962  69.006  1.00  0.00    -0.167 OA 
HETATM   22  C   UNL     1     -10.515  17.092  67.883  1.00  0.00    -0.354 C  
HETATM   23  C   UNL     1     -11.990  15.930  69.498  1.00  0.00    -0.274 C  
BRANCH  20  24
HETATM   24  C   UNL     1      -8.188  15.172  68.842  1.00  0.00    -0.181 A  
HETATM   25  C   UNL     1      -7.440  16.267  68.384  1.00  0.00    -0.163 A  
HETATM   26  C   UNL     1      -6.163  16.087  67.849  1.00  0.00    -0.147 A  
HETATM   27  C   UNL     1      -5.604  14.813  67.785  1.00  0.00    -0.067 A  
HETATM   28  C   UNL     1      -6.319  13.722  68.253  1.00  0.00    -0.108 A  
HETATM   29  C   UNL     1      -7.601  13.897  68.761  1.00  0.00    -0.108 A  
ENDBRANCH  20  24
ENDBRANCH  15  16
ENDBRANCH  10  15
ENDBRANCH   9  10
ENDBRANCH   3   9
BRANCH   5  30
HETATM   30  C   UNL     1      -8.903   9.633  70.163  1.00  0.00    -0.266 A  
HETATM   31  C   UNL     1      -9.872   8.642  72.170  1.00  0.00    -0.387 A  
HETATM   32  C   UNL     1     -10.189  10.050  69.796  1.00  0.00    -0.286 A  
HETATM   33  C   UNL     1      -8.772   8.910  71.356  1.00  0.00    -0.262 A  
HETATM   34  C   UNL     1     -11.143   9.028  71.771  1.00  0.00    -0.444 A  
HETATM   35  C   UNL     1     -11.299   9.739  70.587  1.00  0.00    -0.401 A  
ENDBRANCH   5  30
TORSDOF 8
ENDMDL
MODEL      100
REMARK 921   NORMALIZED FREE ENERGY PREDICTED BY IDOCK:   -4.94 KCAL/MOL
REMARK 922        TOTAL FREE ENERGY PREDICTED BY IDOCK:   -8.05 KCAL/MOL
REMARK 923 INTER-LIGAND FREE ENERGY PREDICTED BY IDOCK:   -6.85 KCAL/MOL
REMARK 924 INTRA-LIGAND FREE ENERGY PREDICTED BY IDOCK:   -1.20 KCAL/MOL
REMARK 927      BINDING AFFINITY PREDICTED BY RF-SCORE:    0.00 PKD
ROOT
HETATM    1  C   UNL     1      -7.807  11.411  66.586  1.00  0.00    -0.137 C  
HETATM    2  N   UNL     1      -8.202  10.123  67.161  1.00  0.00    -0.120 N  
HETATM    3  C   UNL     1      -7.499   9.757  68.318  1.00  0.00    -0.080 C  
HETATM    4  C   UNL     1      -9.381   9.398  66.538  1.00  0.00    -0.171 C  
HETATM    5  C   UNL     1     -10.535   9.067  67.549  1.00  0.00    -0.338 C  
HETATM    6  C   UNL     1     -10.042  10.230  65.396  1.00  0.00    -0.354 C  
HETATM    7  C   UNL     1      -8.894   8.111  65.825  1.00  0.00    -0.173 C  
HETATM    8  O   UNL     1      -6.674  10.531  68.819  1.00  0.00    -0.052 OA 
ENDROOT
BRANCH   3   9
HETATM    9  C   UNL     1      -7.805   8.406  68.983  1.00  0.00    -0.102 C  
BRANCH   9  10
HETATM   10  N   UNL     1      -6.810   7.920  69.963  1.00  0.00    -0.044 NA 
BRANCH  10  11
HETATM   11  C   UNL     1      -7.388   7.811  71.315  1.00  0.00    -0.066 C  
BRANCH  11  12
HETATM   12  C   UNL     1      -8.710   8.587  71.505  1.00  0.00    -0.189 C  
HETATM   13  H   UNL     1      -9.947   9.015  72.982  1.00  0.00     0.000 HD 
HETATM   14  O   UNL     1      -9.134   8.538  72.865  1.00  0.00    -0.270 OA 
ENDBRANCH  11  12
ENDBRANCH  10  11
BRANCH  10  15
HETATM   15  C   UNL     1      -6.127   6.667  69.534  1.00  0.00    -0.025 C  
BRANCH  15  16
HETATM   16  C   UNL     1      -6.915   5.360  69.867  1.00  0.00    -0.061 C  
HETATM   17  C   UNL     1      -8.499   3.521  69.116  1.00  0.00    -0.066 C  
HETATM   18  C   UNL     1      -7.380   5.075  67.427  1.00  0.00    -0.082 C  
HETATM   19  N   UNL     1      -7.604   4.716  68.826  1.00  0.00    -0.067 N  
HETATM   20  C   UNL     1      -9.277   3.568  70.486  1.00  0.00    -0.213 C  
HETATM   21  O   UNL     1      -6.981   4.925  71.018  1.00  0.00    -0.044 OA 
HETATM   22  C   UNL     1      -9.563   3.302  68.015  1.00  0.00    -0.148 C  
HETATM   23  C   UNL     1      -7.627   2.246  69.145  1.00  0.00    -0.043 C  
BRANCH  20  24
HETATM   24  C   UNL     1     -10.210   4.729  70.765  1.00  0.00    -0.246 A  
HETATM   25  C   UNL     1     -10.662   5.497  69.682  1.00  0.00    -0.349 A  
HETATM   26  C   UNL     1     -11.576   6.535  69.873  1.00  0.00    -0.433 A  
HETATM   27  C   UNL     1     -12.071   6.806  71.146  1.00  0.00    -0.422 A  
HETATM   28  C   UNL     1     -11.653   6.044  72.225  1.00  0.00    -0.359 A  
HETATM   29  C   UNL     1     -10.722   5.028  72.040  1.00  0.00    -0.205 A  
ENDBRANCH  20  24
ENDBRANCH  15  16
ENDBRANCH  10  15
ENDBRANCH   9  10
ENDBRANCH   3   9
BRANCH   5  30
HETATM   30  C   UNL     1     -11.105  10.243  68.321  1.00  0.00    -0.311 A  
HETATM   31  C   UNL     1     -11.951  12.526  68.452  1.00  0.00    -0.271 A  
HETATM   32  C   UNL     1     -11.347  10.117  69.695  1.00  0.00    -0.289 A  
HETATM   33  C   UNL     1     -11.402  11.473  67.721  1.00  0.00    -0.364 A  
HETATM   34  C   UNL     1     -12.146  12.397  69.818  1.00  0.00    -0.292 A  
HETATM   35  C   UNL     1     -11.851  11.189  70.438  1.00  0.00    -0.462 A  
ENDBRANCH   5  30
TORSDOF 8
ENDMDL
MODEL      101
REMARK 921   NORMALIZED FREE ENERGY PREDICTED BY IDOCK:   -4.93 KCAL/MOL
REMARK 922        TOTAL FREE ENERGY PREDICTED BY IDOCK:   -8.04 KCAL/MOL
REMARK 923 INTER-LIGAND FREE ENERGY PREDICTED BY IDOCK:   -7.58 KCAL/MOL
REMARK 924 INTRA-LIGAND FREE ENERGY PREDICTED BY IDOCK:   -0.46 KCAL/MOL
REMARK 927      BINDING AFFINITY PREDICTED BY RF-SCORE:    0.00 PKD
ROOT
HETATM    1  C   UNL     1      -9.395   7.957  73.626  1.00  0.00    -0.222 C  
HETATM    2  N   UNL     1      -9.749   7.474  72.290  1.00  0.00    -0.155 N  
HETATM    3  C   UNL     1      -9.203   8.216  71.234  1.00  0.00    -0.156 C  
HETATM    4  C   UNL     1     -10.542   6.183  72.188  1.00  0.00    -0.209 C  
HETATM    5  C   UNL     1      -9.854   5.078  71.312  1.00  0.00    -0.246 C  
HETATM    6  C   UNL     1     -10.780   5.531  73.585  1.00  0.00    -0.321 C  
HETATM    7  C   UNL     1     -11.971   6.479  71.669  1.00  0.00    -0.387 C  
HETATM    8  O   UNL     1      -8.427   9.152  71.463  1.00  0.00    -0.333 OA 
ENDROOT
BRANCH   3   9
HETATM    9  C   UNL     1      -9.541   7.821  69.788  1.00  0.00    -0.167 C  
BRANCH   9  10
HETATM   10  N   UNL     1      -9.678   8.932  68.821  1.00  0.00    -0.161 NA 
BRANCH  10  11
HETATM   11  C   UNL     1     -10.133   8.453  67.504  1.00  0.00    -0.218 C  
BRANCH  11  12
HETATM   12  C   UNL     1      -9.086   7.614  66.737  1.00  0.00    -0.151 C  
HETATM   13  H   UNL     1      -8.947   5.794  65.986  1.00  0.00     0.000 HD 
HETATM   14  O   UNL     1      -9.590   6.310  66.457  1.00  0.00    -0.157 OA 
ENDBRANCH  11  12
ENDBRANCH  10  11
BRANCH  10  15
HETATM   15  C   UNL     1     -10.510  10.056  69.336  1.00  0.00    -0.232 C  
BRANCH  15  16
HETATM   16  C   UNL     1     -10.106  11.459  68.781  1.00  0.00    -0.188 C  
HETATM   17  C   UNL     1     -10.702  13.897  68.384  1.00  0.00    -0.257 C  
HETATM   18  C   UNL     1     -12.069  12.443  69.976  1.00  0.00    -0.263 C  
HETATM   19  N   UNL     1     -10.972  12.541  69.017  1.00  0.00    -0.218 N  
HETATM   20  C   UNL     1     -10.074  13.864  66.939  1.00  0.00    -0.260 C  
HETATM   21  O   UNL     1      -9.085  11.616  68.109  1.00  0.00    -0.170 OA 
HETATM   22  C   UNL     1     -11.978  14.765  68.286  1.00  0.00    -0.258 C  
HETATM   23  C   UNL     1      -9.711  14.672  69.280  1.00  0.00    -0.050 C  
BRANCH  20  24
HETATM   24  C   UNL     1     -10.814  13.145  65.829  1.00  0.00    -0.289 A  
HETATM   25  C   UNL     1     -12.150  13.497  65.582  1.00  0.00    -0.467 A  
HETATM   26  C   UNL     1     -12.859  12.917  64.527  1.00  0.00    -0.273 A  
HETATM   27  C   UNL     1     -12.236  11.996  63.689  1.00  0.00    -0.642 A  
HETATM   28  C   UNL     1     -10.911  11.653  63.904  1.00  0.00    -0.478 A  
HETATM   29  C   UNL     1     -10.213  12.209  64.969  1.00  0.00    -0.312 A  
ENDBRANCH  20  24
ENDBRANCH  15  16
ENDBRANCH  10  15
ENDBRANCH   9  10
ENDBRANCH   3   9
BRANCH   5  30
HETATM   30  C   UNL     1      -8.441   4.691  71.711  1.00  0.00    -0.117 A  
HETATM   31  C   UNL     1      -6.838   3.677  73.243  1.00  0.00    -0.040 A  
HETATM   32  C   UNL     1      -7.373   4.990  70.854  1.00  0.00    -0.068 A  
HETATM   33  C   UNL     1      -8.142   4.044  72.917  1.00  0.00    -0.088 A  
HETATM   34  C   UNL     1      -5.789   4.016  72.402  1.00  0.00    -0.008 A  
HETATM   35  C   UNL     1      -6.059   4.666  71.204  1.00  0.00    -0.018 A  
ENDBRANCH   5  30
TORSDOF 8
ENDMDL
MODEL      102
REMARK 921   NORMALIZED FREE ENERGY PREDICTED BY IDOCK:   -4.92 KCAL/MOL
REMARK 922        TOTAL FREE ENERGY PREDICTED BY IDOCK:   -8.02 KCAL/MOL
REMARK 923 INTER-LIGAND FREE ENERGY PREDICTED BY IDOCK:   -8.55 KCAL/MOL
REMARK 924 INTRA-LIGAND FREE ENERGY PREDICTED BY IDOCK:    0.52 KCAL/MOL
REMARK 927      BINDING AFFINITY PREDICTED BY RF-SCORE:    0.00 PKD
ROOT
HETATM    1  C   UNL     1      -8.420   7.437  65.858  1.00  0.00    -0.150 C  
HETATM    2  N   UNL     1      -8.195   8.849  65.540  1.00  0.00    -0.121 N  
HETATM    3  C   UNL     1      -9.305   9.681  65.746  1.00  0.00    -0.228 C  
HETATM    4  C   UNL     1      -6.790   9.275  65.154  1.00  0.00    -0.082 C  
HETATM    5  C   UNL     1      -6.199  10.419  66.051  1.00  0.00    -0.110 C  
HETATM    6  C   UNL     1      -5.775   8.095  65.245  1.00  0.00    -0.044 C  
HETATM    7  C   UNL     1      -6.753   9.681  63.658  1.00  0.00    -0.111 C  
HETATM    8  O   UNL     1     -10.347   9.224  66.232  1.00  0.00    -0.240 OA 
ENDROOT
BRANCH   3   9
HETATM    9  C   UNL     1      -9.192  11.176  65.408  1.00  0.00    -0.205 C  
BRANCH   9  10
HETATM   10  N   UNL     1     -10.465  11.923  65.321  1.00  0.00    -0.264 NA 
BRANCH  10  11
HETATM   11  C   UNL     1     -11.341  11.383  64.265  1.00  0.00    -0.168 C  
BRANCH  11  12
HETATM   12  C   UNL     1     -12.591  12.244  63.975  1.00  0.00    -0.420 C  
HETATM   13  H   UNL     1     -12.985  14.064  63.320  1.00  0.00     0.000 HD 
HETATM   14  O   UNL     1     -12.217  13.534  63.499  1.00  0.00    -0.643 OA 
ENDBRANCH  11  12
ENDBRANCH  10  11
BRANCH  10  15
HETATM   15  C   UNL     1     -11.163  12.046  66.631  1.00  0.00    -0.327 C  
BRANCH  15  16
HETATM   16  C   UNL     1     -11.353  13.516  67.123  1.00  0.00    -0.321 C  
HETATM   17  C   UNL     1     -10.501  15.485  68.483  1.00  0.00    -0.238 C  
HETATM   18  C   UNL     1      -8.992  13.498  67.942  1.00  0.00    -0.200 C  
HETATM   19  N   UNL     1     -10.317  14.110  67.862  1.00  0.00    -0.232 N  
HETATM   20  C   UNL     1     -11.950  15.806  69.015  1.00  0.00    -0.294 C  
HETATM   21  O   UNL     1     -12.402  14.132  66.918  1.00  0.00    -0.419 OA 
HETATM   22  C   UNL     1      -9.537  15.729  69.668  1.00  0.00    -0.233 C  
HETATM   23  C   UNL     1     -10.171  16.556  67.421  1.00  0.00    -0.287 C  
BRANCH  20  24
HETATM   24  C   UNL     1     -12.567  14.905  70.065  1.00  0.00    -0.260 A  
HETATM   25  C   UNL     1     -12.100  13.586  70.171  1.00  0.00    -0.425 A  
HETATM   26  C   UNL     1     -12.583  12.734  71.166  1.00  0.00    -0.365 A  
HETATM   27  C   UNL     1     -13.521  13.194  72.086  1.00  0.00    -0.653 A  
HETATM   28  C   UNL     1     -13.978  14.500  72.012  1.00  0.00    -0.587 A  
HETATM   29  C   UNL     1     -13.518  15.341  71.005  1.00  0.00    -0.516 A  
ENDBRANCH  20  24
ENDBRANCH  15  16
ENDBRANCH  10  15
ENDBRANCH   9  10
ENDBRANCH   3   9
BRANCH   5  30
HETATM   30  C   UNL     1      -6.178  10.152  67.546  1.00  0.00    -0.058 A  
HETATM   31  C   UNL     1      -6.793  10.705  69.840  1.00  0.00    -0.149 A  
HETATM   32  C   UNL     1      -5.504   9.028  68.039  1.00  0.00    -0.035 A  
HETATM   33  C   UNL     1      -6.806  10.991  68.476  1.00  0.00    -0.064 A  
HETATM   34  C   UNL     1      -6.087   9.610  70.314  1.00  0.00    -0.062 A  
HETATM   35  C   UNL     1      -5.449   8.767  69.412  1.00  0.00    -0.035 A  
ENDBRANCH   5  30
TORSDOF 8
ENDMDL
MODEL      103
REMARK 921   NORMALIZED FREE ENERGY PREDICTED BY IDOCK:   -4.91 KCAL/MOL
REMARK 922        TOTAL FREE ENERGY PREDICTED BY IDOCK:   -8.01 KCAL/MOL
REMARK 923 INTER-LIGAND FREE ENERGY PREDICTED BY IDOCK:   -7.38 KCAL/MOL
REMARK 924 INTRA-LIGAND FREE ENERGY PREDICTED BY IDOCK:   -0.63 KCAL/MOL
REMARK 927      BINDING AFFINITY PREDICTED BY RF-SCORE:    0.00 PKD
ROOT
HETATM    1  C   UNL     1      -7.392   9.083  64.189  1.00  0.00    -0.103 C  
HETATM    2  N   UNL     1      -8.097   9.606  65.362  1.00  0.00    -0.123 N  
HETATM    3  C   UNL     1      -9.362  10.146  65.094  1.00  0.00    -0.235 C  
HETATM    4  C   UNL     1      -7.458   9.402  66.724  1.00  0.00    -0.094 C  
HETATM    5  C   UNL     1      -8.376   8.654  67.755  1.00  0.00    -0.118 C  
HETATM    6  C   UNL     1      -6.147   8.563  66.636  1.00  0.00    -0.057 C  
HETATM    7  C   UNL     1      -6.990  10.762  67.299  1.00  0.00    -0.086 C  
HETATM    8  O   UNL     1      -9.836  10.092  63.952  1.00  0.00    -0.274 OA 
ENDROOT
BRANCH   3   9
HETATM    9  C   UNL     1     -10.173  10.760  66.246  1.00  0.00    -0.245 C  
BRANCH   9  10
HETATM   10  N   UNL     1     -10.720  12.114  66.011  1.00  0.00    -0.264 NA 
BRANCH  10  11
HETATM   11  C   UNL     1     -11.730  12.475  67.022  1.00  0.00    -0.367 C  
BRANCH  11  12
HETATM   12  C   UNL     1     -11.759  11.541  68.253  1.00  0.00    -0.301 C  
HETATM   13  H   UNL     1     -11.509  11.698  70.204  1.00  0.00     0.000 HD 
HETATM   14  O   UNL     1     -11.491  12.271  69.447  1.00  0.00    -0.271 OA 
ENDBRANCH  11  12
ENDBRANCH  10  11
BRANCH  10  15
HETATM   15  C   UNL     1      -9.664  13.155  65.866  1.00  0.00    -0.178 C  
BRANCH  15  16
HETATM   16  C   UNL     1      -9.675  14.242  66.988  1.00  0.00    -0.253 C  
HETATM   17  C   UNL     1     -10.220  16.613  67.717  1.00  0.00    -0.292 C  
HETATM   18  C   UNL     1     -11.153  15.649  65.545  1.00  0.00    -0.226 C  
HETATM   19  N   UNL     1     -10.299  15.471  66.717  1.00  0.00    -0.281 N  
HETATM   20  C   UNL     1      -8.866  16.729  68.517  1.00  0.00    -0.248 C  
HETATM   21  O   UNL     1      -9.108  14.057  68.067  1.00  0.00    -0.175 OA 
HETATM   22  C   UNL     1     -10.456  17.991  67.055  1.00  0.00    -0.361 C  
HETATM   23  C   UNL     1     -11.340  16.431  68.765  1.00  0.00    -0.277 C  
BRANCH  20  24
HETATM   24  C   UNL     1      -7.569  16.896  67.751  1.00  0.00    -0.180 A  
HETATM   25  C   UNL     1      -7.555  17.754  66.641  1.00  0.00    -0.271 A  
HETATM   26  C   UNL     1      -6.372  17.998  65.941  1.00  0.00    -0.294 A  
HETATM   27  C   UNL     1      -5.180  17.409  66.355  1.00  0.00    -0.215 A  
HETATM   28  C   UNL     1      -5.170  16.577  67.462  1.00  0.00    -0.154 A  
HETATM   29  C   UNL     1      -6.352  16.311  68.143  1.00  0.00    -0.130 A  
ENDBRANCH  20  24
ENDBRANCH  15  16
ENDBRANCH  10  15
ENDBRANCH   9  10
ENDBRANCH   3   9
BRANCH   5  30
HETATM   30  C   UNL     1      -8.910   7.302  67.316  1.00  0.00    -0.124 A  
HETATM   31  C   UNL     1      -8.599   4.971  66.668  1.00  0.00    -0.109 A  
HETATM   32  C   UNL     1     -10.290   7.118  67.165  1.00  0.00    -0.359 A  
HETATM   33  C   UNL     1      -8.077   6.208  67.043  1.00  0.00    -0.106 A  
HETATM   34  C   UNL     1      -9.965   4.819  66.486  1.00  0.00    -0.262 A  
HETATM   35  C   UNL     1     -10.811   5.891  66.742  1.00  0.00    -0.347 A  
ENDBRANCH   5  30
TORSDOF 8
ENDMDL
MODEL      104
REMARK 921   NORMALIZED FREE ENERGY PREDICTED BY IDOCK:   -4.91 KCAL/MOL
REMARK 922        TOTAL FREE ENERGY PREDICTED BY IDOCK:   -8.01 KCAL/MOL
REMARK 923 INTER-LIGAND FREE ENERGY PREDICTED BY IDOCK:   -6.81 KCAL/MOL
REMARK 924 INTRA-LIGAND FREE ENERGY PREDICTED BY IDOCK:   -1.20 KCAL/MOL
REMARK 927      BINDING AFFINITY PREDICTED BY RF-SCORE:    0.00 PKD
ROOT
HETATM    1  C   UNL     1     -10.597  16.126  65.519  1.00  0.00    -0.377 C  
HETATM    2  N   UNL     1     -10.447  15.381  66.771  1.00  0.00    -0.293 N  
HETATM    3  C   UNL     1     -10.076  14.039  66.614  1.00  0.00    -0.276 C  
HETATM    4  C   UNL     1     -10.580  16.148  68.074  1.00  0.00    -0.304 C  
HETATM    5  C   UNL     1      -9.334  16.024  69.019  1.00  0.00    -0.239 C  
HETATM    6  C   UNL     1     -10.783  17.676  67.836  1.00  0.00    -0.341 C  
HETATM    7  C   UNL     1     -11.871  15.714  68.814  1.00  0.00    -0.336 C  
HETATM    8  O   UNL     1      -9.831  13.585  65.489  1.00  0.00    -0.240 OA 
ENDROOT
BRANCH   3   9
HETATM    9  C   UNL     1      -9.928  13.152  67.860  1.00  0.00    -0.233 C  
BRANCH   9  10
HETATM   10  N   UNL     1      -9.947  11.692  67.629  1.00  0.00    -0.186 NA 
BRANCH  10  11
HETATM   11  C   UNL     1      -8.584  11.137  67.551  1.00  0.00    -0.129 C  
BRANCH  11  12
HETATM   12  C   UNL     1      -7.585  11.763  68.550  1.00  0.00    -0.131 C  
HETATM   13  H   UNL     1      -6.767  11.288  70.282  1.00  0.00     0.000 HD 
HETATM   14  O   UNL     1      -7.382  10.903  69.668  1.00  0.00    -0.134 OA 
ENDBRANCH  11  12
ENDBRANCH  10  11
BRANCH  10  15
HETATM   15  C   UNL     1     -10.806  10.956  68.599  1.00  0.00    -0.217 C  
BRANCH  15  16
HETATM   16  C   UNL     1     -10.689   9.401  68.511  1.00  0.00    -0.161 C  
HETATM   17  C   UNL     1     -10.051   7.199  69.606  1.00  0.00    -0.192 C  
HETATM   18  C   UNL     1     -10.305   9.336  70.980  1.00  0.00    -0.318 C  
HETATM   19  N   UNL     1     -10.316   8.695  69.667  1.00  0.00    -0.209 N  
HETATM   20  C   UNL     1      -9.385   6.677  68.276  1.00  0.00    -0.119 C  
HETATM   21  O   UNL     1     -10.865   8.803  67.447  1.00  0.00    -0.213 OA 
HETATM   22  C   UNL     1      -9.152   6.713  70.767  1.00  0.00    -0.151 C  
HETATM   23  C   UNL     1     -11.396   6.453  69.750  1.00  0.00    -0.494 C  
BRANCH  20  24
HETATM   24  C   UNL     1      -8.047   7.246  67.849  1.00  0.00    -0.119 A  
HETATM   25  C   UNL     1      -7.883   7.636  66.511  1.00  0.00    -0.105 A  
HETATM   26  C   UNL     1      -6.696   8.230  66.079  1.00  0.00    -0.057 A  
HETATM   27  C   UNL     1      -5.664   8.468  66.982  1.00  0.00    -0.042 A  
HETATM   28  C   UNL     1      -5.815   8.110  68.312  1.00  0.00    -0.037 A  
HETATM   29  C   UNL     1      -6.986   7.494  68.738  1.00  0.00    -0.078 A  
ENDBRANCH  20  24
ENDBRANCH  15  16
ENDBRANCH  10  15
ENDBRANCH   9  10
ENDBRANCH   3   9
BRANCH   5  30
HETATM   30  C   UNL     1      -7.997  16.417  68.417  1.00  0.00    -0.178 A  
HETATM   31  C   UNL     1      -6.420  18.074  67.571  1.00  0.00    -0.182 A  
HETATM   32  C   UNL     1      -7.038  15.430  68.155  1.00  0.00    -0.128 A  
HETATM   33  C   UNL     1      -7.667  17.741  68.098  1.00  0.00    -0.254 A  
HETATM   34  C   UNL     1      -5.499  17.080  67.282  1.00  0.00    -0.174 A  
HETATM   35  C   UNL     1      -5.806  15.758  67.581  1.00  0.00    -0.162 A  
ENDBRANCH   5  30
TORSDOF 8
ENDMDL
MODEL      105
REMARK 921   NORMALIZED FREE ENERGY PREDICTED BY IDOCK:   -4.91 KCAL/MOL
REMARK 922        TOTAL FREE ENERGY PREDICTED BY IDOCK:   -8.01 KCAL/MOL
REMARK 923 INTER-LIGAND FREE ENERGY PREDICTED BY IDOCK:   -6.85 KCAL/MOL
REMARK 924 INTRA-LIGAND FREE ENERGY PREDICTED BY IDOCK:   -1.15 KCAL/MOL
REMARK 927      BINDING AFFINITY PREDICTED BY RF-SCORE:    0.00 PKD
ROOT
HETATM    1  C   UNL     1     -10.521  11.955  65.155  1.00  0.00    -0.287 C  
HETATM    2  N   UNL     1     -10.252  11.590  66.547  1.00  0.00    -0.212 N  
HETATM    3  C   UNL     1      -9.180  10.704  66.725  1.00  0.00    -0.156 C  
HETATM    4  C   UNL     1     -11.053  12.287  67.632  1.00  0.00    -0.268 C  
HETATM    5  C   UNL     1     -10.174  13.022  68.705  1.00  0.00    -0.173 C  
HETATM    6  C   UNL     1     -12.008  13.373  67.048  1.00  0.00    -0.429 C  
HETATM    7  C   UNL     1     -12.012  11.277  68.312  1.00  0.00    -0.215 C  
HETATM    8  O   UNL     1      -8.498  10.346  65.756  1.00  0.00    -0.153 OA 
ENDROOT
BRANCH   3   9
HETATM    9  C   UNL     1      -8.833  10.224  68.143  1.00  0.00    -0.123 C  
BRANCH   9  10
HETATM   10  N   UNL     1      -7.394  10.077  68.449  1.00  0.00    -0.077 NA 
BRANCH  10  11
HETATM   11  C   UNL     1      -7.103  10.397  69.858  1.00  0.00    -0.159 C  
BRANCH  11  12
HETATM   12  C   UNL     1      -5.906  11.354  70.059  1.00  0.00    -0.126 C  
HETATM   13  H   UNL     1      -4.982  12.233  71.564  1.00  0.00     0.000 HD 
HETATM   14  O   UNL     1      -5.718  11.645  71.441  1.00  0.00    -0.372 OA 
ENDBRANCH  11  12
ENDBRANCH  10  11
BRANCH  10  15
HETATM   15  C   UNL     1      -6.839   8.756  68.040  1.00  0.00    -0.070 C  
BRANCH  15  16
HETATM   16  C   UNL     1      -7.512   7.533  68.740  1.00  0.00    -0.097 C  
HETATM   17  C   UNL     1      -9.283   5.712  68.715  1.00  0.00    -0.118 C  
HETATM   18  C   UNL     1      -8.705   7.025  66.603  1.00  0.00    -0.128 C  
HETATM   19  N   UNL     1      -8.497   6.822  68.035  1.00  0.00    -0.120 N  
HETATM   20  C   UNL     1      -9.605   5.938  70.241  1.00  0.00    -0.199 C  
HETATM   21  O   UNL     1      -7.231   7.221  69.900  1.00  0.00    -0.077 OA 
HETATM   22  C   UNL     1     -10.637   5.437  68.018  1.00  0.00    -0.157 C  
HETATM   23  C   UNL     1      -8.469   4.403  68.623  1.00  0.00    -0.095 C  
BRANCH  20  24
HETATM   24  C   UNL     1     -10.386   7.169  70.655  1.00  0.00    -0.217 A  
HETATM   25  C   UNL     1     -11.781   7.067  70.773  1.00  0.00    -0.394 A  
HETATM   26  C   UNL     1     -12.542   8.150  71.218  1.00  0.00    -0.243 A  
HETATM   27  C   UNL     1     -11.920   9.343  71.575  1.00  0.00    -0.456 A  
HETATM   28  C   UNL     1     -10.542   9.456  71.486  1.00  0.00    -0.331 A  
HETATM   29  C   UNL     1      -9.785   8.387  71.018  1.00  0.00    -0.218 A  
ENDBRANCH  20  24
ENDBRANCH  15  16
ENDBRANCH  10  15
ENDBRANCH   9  10
ENDBRANCH   3   9
BRANCH   5  30
HETATM   30  C   UNL     1      -9.184  14.042  68.172  1.00  0.00    -0.196 A  
HETATM   31  C   UNL     1      -8.623  16.255  67.315  1.00  0.00    -0.199 A  
HETATM   32  C   UNL     1      -7.830  13.699  68.059  1.00  0.00    -0.150 A  
HETATM   33  C   UNL     1      -9.561  15.331  67.774  1.00  0.00    -0.206 A  
HETATM   34  C   UNL     1      -7.295  15.886  67.172  1.00  0.00    -0.258 A  
HETATM   35  C   UNL     1      -6.897  14.609  67.552  1.00  0.00    -0.174 A  
ENDBRANCH   5  30
TORSDOF 8
ENDMDL
MODEL      106
REMARK 921   NORMALIZED FREE ENERGY PREDICTED BY IDOCK:   -4.91 KCAL/MOL
REMARK 922        TOTAL FREE ENERGY PREDICTED BY IDOCK:   -8.00 KCAL/MOL
REMARK 923 INTER-LIGAND FREE ENERGY PREDICTED BY IDOCK:   -8.68 KCAL/MOL
REMARK 924 INTRA-LIGAND FREE ENERGY PREDICTED BY IDOCK:    0.67 KCAL/MOL
REMARK 927      BINDING AFFINITY PREDICTED BY RF-SCORE:    0.00 PKD
ROOT
HETATM    1  C   UNL     1     -12.324  14.121  69.147  1.00  0.00    -0.138 C  
HETATM    2  N   UNL     1     -11.000  13.636  68.752  1.00  0.00    -0.258 N  
HETATM    3  C   UNL     1     -10.838  12.246  68.828  1.00  0.00    -0.229 C  
HETATM    4  C   UNL     1     -10.011  14.644  68.196  1.00  0.00    -0.224 C  
HETATM    5  C   UNL     1      -9.464  14.285  66.770  1.00  0.00    -0.287 C  
HETATM    6  C   UNL     1     -10.636  16.067  68.065  1.00  0.00    -0.295 C  
HETATM    7  C   UNL     1      -8.842  14.844  69.194  1.00  0.00    -0.145 C  
HETATM    8  O   UNL     1     -11.792  11.521  69.137  1.00  0.00    -0.298 OA 
ENDROOT
BRANCH   3   9
HETATM    9  C   UNL     1      -9.475  11.631  68.473  1.00  0.00    -0.173 C  
BRANCH   9  10
HETATM   10  N   UNL     1      -9.470  10.644  67.372  1.00  0.00    -0.153 NA 
BRANCH  10  11
HETATM   11  C   UNL     1      -8.192  10.656  66.638  1.00  0.00    -0.134 C  
BRANCH  11  12
HETATM   12  C   UNL     1      -7.145  11.644  67.201  1.00  0.00    -0.143 C  
HETATM   13  H   UNL     1      -5.212  11.645  67.599  1.00  0.00     0.000 HD 
HETATM   14  O   UNL     1      -5.856  11.039  67.253  1.00  0.00    -0.046 OA 
ENDBRANCH  11  12
ENDBRANCH  10  11
BRANCH  10  15
HETATM   15  C   UNL     1      -9.861   9.275  67.810  1.00  0.00    -0.171 C  
BRANCH  15  16
HETATM   16  C   UNL     1      -9.541   8.964  69.307  1.00  0.00    -0.162 C  
HETATM   17  C   UNL     1      -9.137   7.247  71.135  1.00  0.00    -0.152 C  
HETATM   18  C   UNL     1      -9.104   6.586  68.670  1.00  0.00    -0.128 C  
HETATM   19  N   UNL     1      -9.315   7.627  69.674  1.00  0.00    -0.157 N  
HETATM   20  C   UNL     1     -10.001   8.072  72.165  1.00  0.00    -0.289 C  
HETATM   21  O   UNL     1      -9.537   9.852  70.162  1.00  0.00    -0.245 OA 
HETATM   22  C   UNL     1      -9.450   5.755  71.398  1.00  0.00    -0.174 C  
HETATM   23  C   UNL     1      -7.659   7.462  71.526  1.00  0.00    -0.085 C  
BRANCH  20  24
HETATM   24  C   UNL     1     -11.510   8.074  72.026  1.00  0.00    -0.364 A  
HETATM   25  C   UNL     1     -12.189   9.296  72.145  1.00  0.00    -0.377 A  
HETATM   26  C   UNL     1     -13.571   9.368  71.957  1.00  0.00    -0.505 A  
HETATM   27  C   UNL     1     -14.292   8.224  71.622  1.00  0.00    -0.561 A  
HETATM   28  C   UNL     1     -13.635   7.013  71.478  1.00  0.00    -0.355 A  
HETATM   29  C   UNL     1     -12.264   6.935  71.692  1.00  0.00    -0.403 A  
ENDBRANCH  20  24
ENDBRANCH  15  16
ENDBRANCH  10  15
ENDBRANCH   9  10
ENDBRANCH   3   9
BRANCH   5  30
HETATM   30  C   UNL     1     -10.508  14.058  65.691  1.00  0.00    -0.328 A  
HETATM   31  C   UNL     1     -11.714  12.626  64.129  1.00  0.00    -0.468 A  
HETATM   32  C   UNL     1     -11.292  15.132  65.250  1.00  0.00    -0.318 A  
HETATM   33  C   UNL     1     -10.729  12.808  65.098  1.00  0.00    -0.319 A  
HETATM   34  C   UNL     1     -12.453  13.708  63.676  1.00  0.00    -0.230 A  
HETATM   35  C   UNL     1     -12.246  14.960  64.243  1.00  0.00    -0.365 A  
ENDBRANCH   5  30
TORSDOF 8
ENDMDL
MODEL      107
REMARK 921   NORMALIZED FREE ENERGY PREDICTED BY IDOCK:   -4.90 KCAL/MOL
REMARK 922        TOTAL FREE ENERGY PREDICTED BY IDOCK:   -8.00 KCAL/MOL
REMARK 923 INTER-LIGAND FREE ENERGY PREDICTED BY IDOCK:   -7.87 KCAL/MOL
REMARK 924 INTRA-LIGAND FREE ENERGY PREDICTED BY IDOCK:   -0.13 KCAL/MOL
REMARK 927      BINDING AFFINITY PREDICTED BY RF-SCORE:    0.00 PKD
ROOT
HETATM    1  C   UNL     1     -10.385   4.583  72.531  1.00  0.00    -0.195 C  
HETATM    2  N   UNL     1      -9.669   5.716  71.939  1.00  0.00    -0.159 N  
HETATM    3  C   UNL     1      -9.450   5.615  70.558  1.00  0.00    -0.163 C  
HETATM    4  C   UNL     1      -9.359   6.904  72.831  1.00  0.00    -0.135 C  
HETATM    5  C   UNL     1      -9.918   8.270  72.295  1.00  0.00    -0.366 C  
HETATM    6  C   UNL     1      -9.955   6.734  74.262  1.00  0.00    -0.354 C  
HETATM    7  C   UNL     1      -7.831   6.999  73.075  1.00  0.00    -0.102 C  
HETATM    8  O   UNL     1      -9.912   4.661  69.920  1.00  0.00    -0.213 OA 
ENDROOT
BRANCH   3   9
HETATM    9  C   UNL     1      -8.673   6.730  69.840  1.00  0.00    -0.141 C  
BRANCH   9  10
HETATM   10  N   UNL     1      -9.102   7.041  68.460  1.00  0.00    -0.132 NA 
BRANCH  10  11
HETATM   11  C   UNL     1     -10.570   7.112  68.350  1.00  0.00    -0.186 C  
BRANCH  11  12
HETATM   12  C   UNL     1     -11.139   6.534  67.035  1.00  0.00    -0.339 C  
HETATM   13  H   UNL     1     -10.659   5.126  65.738  1.00  0.00     0.000 HD 
HETATM   14  O   UNL     1     -10.310   5.482  66.546  1.00  0.00    -0.222 OA 
ENDBRANCH  11  12
ENDBRANCH  10  11
BRANCH  10  15
HETATM   15  C   UNL     1      -8.430   8.245  67.895  1.00  0.00    -0.132 C  
BRANCH  15  16
HETATM   16  C   UNL     1      -9.189   9.585  68.155  1.00  0.00    -0.129 C  
HETATM   17  C   UNL     1     -10.339  11.651  67.228  1.00  0.00    -0.204 C  
HETATM   18  C   UNL     1      -9.807   9.651  65.734  1.00  0.00    -0.302 C  
HETATM   19  N   UNL     1      -9.715  10.277  67.051  1.00  0.00    -0.170 N  
HETATM   20  C   UNL     1      -9.668  12.572  68.318  1.00  0.00    -0.220 C  
HETATM   21  O   UNL     1      -9.284  10.060  69.289  1.00  0.00    -0.178 OA 
HETATM   22  C   UNL     1     -10.350  12.467  65.914  1.00  0.00    -0.282 C  
HETATM   23  C   UNL     1     -11.815  11.474  67.646  1.00  0.00    -0.194 C  
BRANCH  20  24
HETATM   24  C   UNL     1      -8.197  12.913  68.191  1.00  0.00    -0.163 A  
HETATM   25  C   UNL     1      -7.846  14.176  67.691  1.00  0.00    -0.190 A  
HETATM   26  C   UNL     1      -6.508  14.569  67.617  1.00  0.00    -0.153 A  
HETATM   27  C   UNL     1      -5.503  13.716  68.065  1.00  0.00    -0.116 A  
HETATM   28  C   UNL     1      -5.832  12.474  68.583  1.00  0.00    -0.059 A  
HETATM   29  C   UNL     1      -7.161  12.071  68.632  1.00  0.00    -0.110 A  
ENDBRANCH  20  24
ENDBRANCH  15  16
ENDBRANCH  10  15
ENDBRANCH   9  10
ENDBRANCH   3   9
BRANCH   5  30
HETATM   30  C   UNL     1     -11.408   8.316  72.010  1.00  0.00    -0.390 A  
HETATM   31  C   UNL     1     -13.572   7.240  71.682  1.00  0.00    -0.435 A  
HETATM   32  C   UNL     1     -12.039   9.552  71.821  1.00  0.00    -0.459 A  
HETATM   33  C   UNL     1     -12.200   7.163  71.918  1.00  0.00    -0.358 A  
HETATM   34  C   UNL     1     -14.172   8.469  71.458  1.00  0.00    -0.448 A  
HETATM   35  C   UNL     1     -13.406   9.626  71.536  1.00  0.00    -0.468 A  
ENDBRANCH   5  30
TORSDOF 8
ENDMDL
MODEL      108
REMARK 921   NORMALIZED FREE ENERGY PREDICTED BY IDOCK:   -4.87 KCAL/MOL
REMARK 922        TOTAL FREE ENERGY PREDICTED BY IDOCK:   -7.95 KCAL/MOL
REMARK 923 INTER-LIGAND FREE ENERGY PREDICTED BY IDOCK:   -6.94 KCAL/MOL
REMARK 924 INTRA-LIGAND FREE ENERGY PREDICTED BY IDOCK:   -1.01 KCAL/MOL
REMARK 927      BINDING AFFINITY PREDICTED BY RF-SCORE:    0.00 PKD
ROOT
HETATM    1  C   UNL     1      -7.954   9.188  70.924  1.00  0.00    -0.157 C  
HETATM    2  N   UNL     1      -8.871   9.339  69.791  1.00  0.00    -0.153 N  
HETATM    3  C   UNL     1      -8.246   9.580  68.560  1.00  0.00    -0.113 C  
HETATM    4  C   UNL     1     -10.349   9.099  70.037  1.00  0.00    -0.207 C  
HETATM    5  C   UNL     1     -10.982   8.001  69.112  1.00  0.00     0.058 C  
HETATM    6  C   UNL     1     -10.632   8.637  71.500  1.00  0.00    -0.352 C  
HETATM    7  C   UNL     1     -11.129  10.433  69.913  1.00  0.00    -0.367 C  
HETATM    8  O   UNL     1      -7.012   9.580  68.474  1.00  0.00    -0.064 OA 
ENDROOT
BRANCH   3   9
HETATM    9  C   UNL     1      -9.114   9.793  67.310  1.00  0.00    -0.134 C  
BRANCH   9  10
HETATM   10  N   UNL     1      -8.714  10.902  66.418  1.00  0.00    -0.164 NA 
BRANCH  10  11
HETATM   11  C   UNL     1      -8.325  10.413  65.083  1.00  0.00    -0.165 C  
BRANCH  11  12
HETATM   12  C   UNL     1      -7.790   8.963  65.069  1.00  0.00    -0.112 C  
HETATM   13  H   UNL     1      -8.045   7.329  63.992  1.00  0.00     0.000 HD 
HETATM   14  O   UNL     1      -8.373   8.221  64.001  1.00  0.00    -0.132 OA 
ENDBRANCH  11  12
ENDBRANCH  10  11
BRANCH  10  15
HETATM   15  C   UNL     1      -9.726  11.994  66.350  1.00  0.00    -0.225 C  
BRANCH  15  16
HETATM   16  C   UNL     1      -9.740  12.935  67.596  1.00  0.00    -0.212 C  
HETATM   17  C   UNL     1     -10.829  14.843  68.872  1.00  0.00    -0.250 C  
HETATM   18  C   UNL     1     -12.045  13.665  66.961  1.00  0.00    -0.380 C  
HETATM   19  N   UNL     1     -10.829  13.809  67.758  1.00  0.00    -0.247 N  
HETATM   20  C   UNL     1      -9.427  15.474  69.220  1.00  0.00    -0.263 C  
HETATM   21  O   UNL     1      -8.801  12.958  68.396  1.00  0.00    -0.182 OA 
HETATM   22  C   UNL     1     -11.780  16.027  68.576  1.00  0.00    -0.244 C  
HETATM   23  C   UNL     1     -11.348  14.176  70.165  1.00  0.00    -0.147 C  
BRANCH  20  24
HETATM   24  C   UNL     1      -8.650  16.189  68.134  1.00  0.00    -0.177 A  
HETATM   25  C   UNL     1      -9.183  17.372  67.600  1.00  0.00    -0.234 A  
HETATM   26  C   UNL     1      -8.477  18.109  66.647  1.00  0.00    -0.282 A  
HETATM   27  C   UNL     1      -7.217  17.687  66.230  1.00  0.00    -0.342 A  
HETATM   28  C   UNL     1      -6.665  16.533  66.762  1.00  0.00    -0.202 A  
HETATM   29  C   UNL     1      -7.378  15.785  67.691  1.00  0.00    -0.187 A  
ENDBRANCH  20  24
ENDBRANCH  15  16
ENDBRANCH  10  15
ENDBRANCH   9  10
ENDBRANCH   3   9
BRANCH   5  30
HETATM   30  C   UNL     1     -10.310   6.640  69.134  1.00  0.00    -0.220 A  
HETATM   31  C   UNL     1      -8.825   4.956  68.184  1.00  0.00    -0.113 A  
HETATM   32  C   UNL     1     -10.553   5.766  70.202  1.00  0.00    -0.377 A  
HETATM   33  C   UNL     1      -9.449   6.201  68.121  1.00  0.00    -0.113 A  
HETATM   34  C   UNL     1      -9.107   4.088  69.228  1.00  0.00    -0.194 A  
HETATM   35  C   UNL     1      -9.966   4.497  70.241  1.00  0.00    -0.288 A  
ENDBRANCH   5  30
TORSDOF 8
ENDMDL
MODEL      109
REMARK 921   NORMALIZED FREE ENERGY PREDICTED BY IDOCK:   -4.84 KCAL/MOL
REMARK 922        TOTAL FREE ENERGY PREDICTED BY IDOCK:   -7.91 KCAL/MOL
REMARK 923 INTER-LIGAND FREE ENERGY PREDICTED BY IDOCK:   -7.90 KCAL/MOL
REMARK 924 INTRA-LIGAND FREE ENERGY PREDICTED BY IDOCK:   -0.02 KCAL/MOL
REMARK 927      BINDING AFFINITY PREDICTED BY RF-SCORE:    0.00 PKD
ROOT
HETATM    1  C   UNL     1      -9.521  14.695  66.166  1.00  0.00    -0.276 C  
HETATM    2  N   UNL     1     -10.034  13.396  66.609  1.00  0.00    -0.270 N  
HETATM    3  C   UNL     1      -9.062  12.527  67.124  1.00  0.00    -0.205 C  
HETATM    4  C   UNL     1     -11.536  13.179  66.584  1.00  0.00    -0.348 C  
HETATM    5  C   UNL     1     -12.146  12.766  67.970  1.00  0.00    -0.174 C  
HETATM    6  C   UNL     1     -12.305  14.464  66.147  1.00  0.00    -0.335 C  
HETATM    7  C   UNL     1     -11.902  12.139  65.495  1.00  0.00    -0.350 C  
HETATM    8  O   UNL     1      -7.889  12.901  67.246  1.00  0.00    -0.167 OA 
ENDROOT
BRANCH   3   9
HETATM    9  C   UNL     1      -9.483  11.121  67.583  1.00  0.00    -0.166 C  
BRANCH   9  10
HETATM   10  N   UNL     1      -9.197  10.781  68.993  1.00  0.00    -0.172 NA 
BRANCH  10  11
HETATM   11  C   UNL     1     -10.142   9.776  69.512  1.00  0.00    -0.217 C  
BRANCH  11  12
HETATM   12  C   UNL     1     -11.106  10.310  70.595  1.00  0.00    -0.280 C  
HETATM   13  H   UNL     1     -13.054  10.373  70.905  1.00  0.00     0.000 HD 
HETATM   14  O   UNL     1     -12.461  10.045  70.240  1.00  0.00    -0.166 OA 
ENDBRANCH  11  12
ENDBRANCH  10  11
BRANCH  10  15
HETATM   15  C   UNL     1      -7.776  10.399  69.227  1.00  0.00    -0.140 C  
BRANCH  15  16
HETATM   16  C   UNL     1      -7.585   9.205  70.214  1.00  0.00    -0.108 C  
HETATM   17  C   UNL     1      -7.228   6.716  70.578  1.00  0.00    -0.073 C  
HETATM   18  C   UNL     1      -6.889   7.780  68.282  1.00  0.00    -0.067 C  
HETATM   19  N   UNL     1      -7.287   7.941  69.679  1.00  0.00    -0.087 N  
HETATM   20  C   UNL     1      -8.258   6.695  71.772  1.00  0.00    -0.110 C  
HETATM   21  O   UNL     1      -7.742   9.343  71.429  1.00  0.00    -0.334 OA 
HETATM   22  C   UNL     1      -7.440   5.400  69.794  1.00  0.00    -0.066 C  
HETATM   23  C   UNL     1      -5.820   6.631  71.206  1.00  0.00    -0.032 C  
BRANCH  20  24
HETATM   24  C   UNL     1      -9.740   6.787  71.469  1.00  0.00    -0.168 A  
HETATM   25  C   UNL     1     -10.201   6.298  70.238  1.00  0.00    -0.244 A  
HETATM   26  C   UNL     1     -11.564   6.294  69.935  1.00  0.00    -0.361 A  
HETATM   27  C   UNL     1     -12.489   6.756  70.867  1.00  0.00    -0.270 A  
HETATM   28  C   UNL     1     -12.054   7.222  72.098  1.00  0.00    -0.287 A  
HETATM   29  C   UNL     1     -10.695   7.252  72.390  1.00  0.00    -0.283 A  
ENDBRANCH  20  24
ENDBRANCH  15  16
ENDBRANCH  10  15
ENDBRANCH   9  10
ENDBRANCH   3   9
BRANCH   5  30
HETATM   30  C   UNL     1     -11.860  13.701  69.132  1.00  0.00    -0.394 A  
HETATM   31  C   UNL     1     -10.681  15.582  70.141  1.00  0.00    -0.345 A  
HETATM   32  C   UNL     1     -12.568  13.552  70.331  1.00  0.00    -0.267 A  
HETATM   33  C   UNL     1     -10.902  14.722  69.067  1.00  0.00    -0.250 A  
HETATM   34  C   UNL     1     -11.362  15.395  71.334  1.00  0.00    -0.449 A  
HETATM   35  C   UNL     1     -12.312  14.384  71.426  1.00  0.00    -0.433 A  
ENDBRANCH   5  30
TORSDOF 8
ENDMDL
MODEL      110
REMARK 921   NORMALIZED FREE ENERGY PREDICTED BY IDOCK:   -4.84 KCAL/MOL
REMARK 922        TOTAL FREE ENERGY PREDICTED BY IDOCK:   -7.91 KCAL/MOL
REMARK 923 INTER-LIGAND FREE ENERGY PREDICTED BY IDOCK:   -8.19 KCAL/MOL
REMARK 924 INTRA-LIGAND FREE ENERGY PREDICTED BY IDOCK:    0.29 KCAL/MOL
REMARK 927      BINDING AFFINITY PREDICTED BY RF-SCORE:    0.00 PKD
ROOT
HETATM    1  C   UNL     1     -10.347   4.327  72.722  1.00  0.00    -0.178 C  
HETATM    2  N   UNL     1      -9.701   5.500  72.127  1.00  0.00    -0.156 N  
HETATM    3  C   UNL     1      -9.480   5.411  70.746  1.00  0.00    -0.167 C  
HETATM    4  C   UNL     1      -9.459   6.705  73.017  1.00  0.00    -0.142 C  
HETATM    5  C   UNL     1     -10.099   8.034  72.482  1.00  0.00    -0.346 C  
HETATM    6  C   UNL     1     -10.040   6.501  74.450  1.00  0.00    -0.371 C  
HETATM    7  C   UNL     1      -7.939   6.890  73.257  1.00  0.00    -0.107 C  
HETATM    8  O   UNL     1      -9.887   4.430  70.110  1.00  0.00    -0.205 OA 
ENDROOT
BRANCH   3   9
HETATM    9  C   UNL     1      -8.772   6.569  70.025  1.00  0.00    -0.140 C  
BRANCH   9  10
HETATM   10  N   UNL     1      -9.520   7.204  68.919  1.00  0.00    -0.143 NA 
BRANCH  10  11
HETATM   11  C   UNL     1     -10.785   6.500  68.643  1.00  0.00    -0.271 C  
BRANCH  11  12
HETATM   12  C   UNL     1     -11.015   6.166  67.152  1.00  0.00    -0.331 C  
HETATM   13  H   UNL     1     -10.658   4.662  65.925  1.00  0.00     0.000 HD 
HETATM   14  O   UNL     1     -10.517   4.867  66.842  1.00  0.00    -0.221 OA 
ENDBRANCH  11  12
ENDBRANCH  10  11
BRANCH  10  15
HETATM   15  C   UNL     1      -9.715   8.669  69.109  1.00  0.00    -0.173 C  
BRANCH  15  16
HETATM   16  C   UNL     1      -9.345   9.534  67.862  1.00  0.00    -0.132 C  
HETATM   17  C   UNL     1      -7.833  11.269  66.788  1.00  0.00    -0.155 C  
HETATM   18  C   UNL     1      -7.175  10.106  68.963  1.00  0.00    -0.076 C  
HETATM   19  N   UNL     1      -8.171  10.304  67.912  1.00  0.00    -0.109 N  
HETATM   20  C   UNL     1      -9.061  11.992  66.115  1.00  0.00    -0.129 C  
HETATM   21  O   UNL     1     -10.082   9.588  66.876  1.00  0.00    -0.198 OA 
HETATM   22  C   UNL     1      -6.863  12.386  67.242  1.00  0.00    -0.127 C  
HETATM   23  C   UNL     1      -7.110  10.489  65.667  1.00  0.00    -0.119 C  
BRANCH  20  24
HETATM   24  C   UNL     1      -9.985  12.830  66.976  1.00  0.00    -0.231 A  
HETATM   25  C   UNL     1      -9.730  14.205  67.089  1.00  0.00    -0.248 A  
HETATM   26  C   UNL     1     -10.588  15.035  67.812  1.00  0.00    -0.264 A  
HETATM   27  C   UNL     1     -11.728  14.509  68.413  1.00  0.00    -0.367 A  
HETATM   28  C   UNL     1     -12.010  13.158  68.294  1.00  0.00    -0.328 A  
HETATM   29  C   UNL     1     -11.142  12.325  67.597  1.00  0.00    -0.318 A  
ENDBRANCH  20  24
ENDBRANCH  15  16
ENDBRANCH  10  15
ENDBRANCH   9  10
ENDBRANCH   3   9
BRANCH   5  30
HETATM   30  C   UNL     1     -11.591   7.992  72.200  1.00  0.00    -0.399 A  
HETATM   31  C   UNL     1     -13.596   6.872  71.384  1.00  0.00    -0.234 A  
HETATM   32  C   UNL     1     -12.390   9.092  72.538  1.00  0.00    -0.276 A  
HETATM   33  C   UNL     1     -12.220   6.892  71.604  1.00  0.00    -0.403 A  
HETATM   34  C   UNL     1     -14.366   7.984  71.688  1.00  0.00    -0.581 A  
HETATM   35  C   UNL     1     -13.763   9.091  72.272  1.00  0.00    -0.550 A  
ENDBRANCH   5  30
TORSDOF 8
ENDMDL
MODEL      111
REMARK 921   NORMALIZED FREE ENERGY PREDICTED BY IDOCK:   -4.83 KCAL/MOL
REMARK 922        TOTAL FREE ENERGY PREDICTED BY IDOCK:   -7.89 KCAL/MOL
REMARK 923 INTER-LIGAND FREE ENERGY PREDICTED BY IDOCK:   -7.83 KCAL/MOL
REMARK 924 INTRA-LIGAND FREE ENERGY PREDICTED BY IDOCK:   -0.06 KCAL/MOL
REMARK 927      BINDING AFFINITY PREDICTED BY RF-SCORE:    0.00 PKD
ROOT
HETATM    1  C   UNL     1      -9.586  12.891  64.231  1.00  0.00     0.446 C  
HETATM    2  N   UNL     1     -10.159  13.028  65.572  1.00  0.00    -0.280 N  
HETATM    3  C   UNL     1      -9.714  12.076  66.500  1.00  0.00    -0.216 C  
HETATM    4  C   UNL     1     -11.052  14.225  65.844  1.00  0.00    -0.310 C  
HETATM    5  C   UNL     1     -10.578  15.115  67.047  1.00  0.00    -0.300 C  
HETATM    6  C   UNL     1     -11.139  15.182  64.616  1.00  0.00    -0.338 C  
HETATM    7  C   UNL     1     -12.515  13.758  66.054  1.00  0.00    -0.491 C  
HETATM    8  O   UNL     1      -8.846  11.253  66.184  1.00  0.00    -0.186 OA 
ENDROOT
BRANCH   3   9
HETATM    9  C   UNL     1     -10.280  12.102  67.929  1.00  0.00    -0.198 C  
BRANCH   9  10
HETATM   10  N   UNL     1     -10.576  10.787  68.538  1.00  0.00    -0.182 NA 
BRANCH  10  11
HETATM   11  C   UNL     1     -11.901  10.773  69.182  1.00  0.00    -0.275 C  
BRANCH  11  12
HETATM   12  C   UNL     1     -11.942  11.456  70.568  1.00  0.00    -0.356 C  
HETATM   13  H   UNL     1     -12.538  11.008  72.395  1.00  0.00     0.000 HD 
HETATM   14  O   UNL     1     -12.512  10.588  71.543  1.00  0.00    -0.380 OA 
ENDBRANCH  11  12
ENDBRANCH  10  11
BRANCH  10  15
HETATM   15  C   UNL     1     -10.389   9.649  67.594  1.00  0.00    -0.237 C  
BRANCH  15  16
HETATM   16  C   UNL     1      -9.456   8.518  68.129  1.00  0.00    -0.141 C  
HETATM   17  C   UNL     1      -9.051   6.045  68.547  1.00  0.00    -0.112 C  
HETATM   18  C   UNL     1     -10.934   6.837  67.017  1.00  0.00    -0.368 C  
HETATM   19  N   UNL     1      -9.847   7.183  67.929  1.00  0.00    -0.140 N  
HETATM   20  C   UNL     1      -8.426   6.338  69.965  1.00  0.00    -0.134 C  
HETATM   21  O   UNL     1      -8.427   8.776  68.757  1.00  0.00    -0.126 OA 
HETATM   22  C   UNL     1      -9.889   4.754  68.698  1.00  0.00    -0.208 C  
HETATM   23  C   UNL     1      -7.875   5.697  67.609  1.00  0.00    -0.097 C  
BRANCH  20  24
HETATM   24  C   UNL     1      -9.342   6.733  71.106  1.00  0.00    -0.159 A  
HETATM   25  C   UNL     1      -8.846   7.600  72.091  1.00  0.00    -0.161 A  
HETATM   26  C   UNL     1      -9.666   8.051  73.126  1.00  0.00    -0.341 A  
HETATM   27  C   UNL     1     -11.002   7.663  73.180  1.00  0.00    -0.411 A  
HETATM   28  C   UNL     1     -11.516   6.824  72.204  1.00  0.00    -0.319 A  
HETATM   29  C   UNL     1     -10.693   6.353  71.188  1.00  0.00    -0.293 A  
ENDBRANCH  20  24
ENDBRANCH  15  16
ENDBRANCH  10  15
ENDBRANCH   9  10
ENDBRANCH   3   9
BRANCH   5  30
HETATM   30  C   UNL     1      -9.156  15.640  66.970  1.00  0.00    -0.239 A  
HETATM   31  C   UNL     1      -7.502  17.277  66.242  1.00  0.00    -0.354 A  
HETATM   32  C   UNL     1      -8.125  14.944  67.614  1.00  0.00    -0.180 A  
HETATM   33  C   UNL     1      -8.813  16.805  66.271  1.00  0.00    -0.334 A  
HETATM   34  C   UNL     1      -6.488  16.554  66.851  1.00  0.00    -0.190 A  
HETATM   35  C   UNL     1      -6.802  15.391  67.544  1.00  0.00    -0.223 A  
ENDBRANCH   5  30
TORSDOF 8
ENDMDL
MODEL      112
REMARK 921   NORMALIZED FREE ENERGY PREDICTED BY IDOCK:   -4.83 KCAL/MOL
REMARK 922        TOTAL FREE ENERGY PREDICTED BY IDOCK:   -7.89 KCAL/MOL
REMARK 923 INTER-LIGAND FREE ENERGY PREDICTED BY IDOCK:   -7.89 KCAL/MOL
REMARK 924 INTRA-LIGAND FREE ENERGY PREDICTED BY IDOCK:   -0.00 KCAL/MOL
REMARK 927      BINDING AFFINITY PREDICTED BY RF-SCORE:    0.00 PKD
ROOT
HETATM    1  C   UNL     1      -9.606   9.221  65.475  1.00  0.00    -0.220 C  
HETATM    2  N   UNL     1      -9.325   9.816  66.783  1.00  0.00    -0.148 N  
HETATM    3  C   UNL     1     -10.420  10.449  67.388  1.00  0.00    -0.249 C  
HETATM    4  C   UNL     1      -7.952   9.583  67.389  1.00  0.00    -0.106 C  
HETATM    5  C   UNL     1      -7.985   8.925  68.814  1.00  0.00    -0.102 C  
HETATM    6  C   UNL     1      -7.075   8.643  66.507  1.00  0.00    -0.080 C  
HETATM    7  C   UNL     1      -7.155  10.912  67.420  1.00  0.00    -0.093 C  
HETATM    8  O   UNL     1     -11.535  10.414  66.854  1.00  0.00    -0.110 OA 
ENDROOT
BRANCH   3   9
HETATM    9  C   UNL     1     -10.227  11.142  68.746  1.00  0.00    -0.206 C  
BRANCH   9  10
HETATM   10  N   UNL     1     -11.461  11.543  69.456  1.00  0.00    -0.290 NA 
BRANCH  10  11
HETATM   11  C   UNL     1     -11.700  10.706  70.645  1.00  0.00    -0.356 C  
BRANCH  11  12
HETATM   12  C   UNL     1     -13.101  10.880  71.273  1.00  0.00    -0.308 C  
HETATM   13  H   UNL     1     -13.917  11.909  72.746  1.00  0.00     0.000 HD 
HETATM   14  O   UNL     1     -13.056  11.802  72.359  1.00  0.00    -0.243 OA 
ENDBRANCH  11  12
ENDBRANCH  10  11
BRANCH  10  15
HETATM   15  C   UNL     1     -11.511  12.999  69.766  1.00  0.00    -0.143 C  
BRANCH  15  16
HETATM   16  C   UNL     1     -10.502  13.866  68.947  1.00  0.00    -0.187 C  
HETATM   17  C   UNL     1      -9.965  16.052  67.770  1.00  0.00    -0.234 C  
HETATM   18  C   UNL     1     -11.951  15.860  69.361  1.00  0.00    -0.256 C  
HETATM   19  N   UNL     1     -10.840  15.203  68.678  1.00  0.00    -0.236 N  
HETATM   20  C   UNL     1      -9.290  15.292  66.565  1.00  0.00    -0.309 C  
HETATM   21  O   UNL     1      -9.458  13.387  68.499  1.00  0.00    -0.200 OA 
HETATM   22  C   UNL     1     -10.735  17.245  67.158  1.00  0.00    -0.181 C  
HETATM   23  C   UNL     1      -8.818  16.655  68.611  1.00  0.00    -0.249 C  
BRANCH  20  24
HETATM   24  C   UNL     1     -10.169  14.571  65.563  1.00  0.00    -0.394 A  
HETATM   25  C   UNL     1      -9.801  13.278  65.160  1.00  0.00    -0.078 A  
HETATM   26  C   UNL     1     -10.610  12.541  64.294  1.00  0.00    -0.395 A  
HETATM   27  C   UNL     1     -11.812  13.074  63.836  1.00  0.00    -0.542 A  
HETATM   28  C   UNL     1     -12.203  14.340  64.240  1.00  0.00    -0.451 A  
HETATM   29  C   UNL     1     -11.385  15.086  65.081  1.00  0.00    -0.372 A  
ENDBRANCH  20  24
ENDBRANCH  15  16
ENDBRANCH  10  15
ENDBRANCH   9  10
ENDBRANCH   3   9
BRANCH   5  30
HETATM   30  C   UNL     1      -8.739   7.613  68.926  1.00  0.00    -0.135 A  
HETATM   31  C   UNL     1      -8.917   5.199  68.627  1.00  0.00    -0.122 A  
HETATM   32  C   UNL     1     -10.023   7.598  69.488  1.00  0.00    -0.182 A  
HETATM   33  C   UNL     1      -8.211   6.393  68.484  1.00  0.00    -0.113 A  
HETATM   34  C   UNL     1     -10.202   5.209  69.148  1.00  0.00    -0.259 A  
HETATM   35  C   UNL     1     -10.751   6.408  69.586  1.00  0.00    -0.339 A  
ENDBRANCH   5  30
TORSDOF 8
ENDMDL
MODEL      113
REMARK 921   NORMALIZED FREE ENERGY PREDICTED BY IDOCK:   -4.82 KCAL/MOL
REMARK 922        TOTAL FREE ENERGY PREDICTED BY IDOCK:   -7.88 KCAL/MOL
REMARK 923 INTER-LIGAND FREE ENERGY PREDICTED BY IDOCK:   -6.81 KCAL/MOL
REMARK 924 INTRA-LIGAND FREE ENERGY PREDICTED BY IDOCK:   -1.07 KCAL/MOL
REMARK 927      BINDING AFFINITY PREDICTED BY RF-SCORE:    0.00 PKD
ROOT
HETATM    1  C   UNL     1     -10.922  18.610  65.765  1.00  0.00     0.159 C  
HETATM    2  N   UNL     1     -10.075  17.780  66.624  1.00  0.00    -0.334 N  
HETATM    3  C   UNL     1      -9.761  16.519  66.096  1.00  0.00    -0.317 C  
HETATM    4  C   UNL     1      -9.534  18.399  67.900  1.00  0.00    -0.285 C  
HETATM    5  C   UNL     1      -7.970  18.357  68.019  1.00  0.00    -0.289 C  
HETATM    6  C   UNL     1      -9.931  19.901  68.036  1.00  0.00    -0.556 C  
HETATM    7  C   UNL     1     -10.193  17.729  69.133  1.00  0.00    -0.211 C  
HETATM    8  O   UNL     1     -10.131  16.209  64.957  1.00  0.00    -0.478 OA 
ENDROOT
BRANCH   3   9
HETATM    9  C   UNL     1      -8.909  15.550  66.931  1.00  0.00    -0.255 C  
BRANCH   9  10
HETATM   10  N   UNL     1      -9.629  14.421  67.557  1.00  0.00    -0.212 NA 
BRANCH  10  11
HETATM   11  C   UNL     1     -11.045  14.748  67.802  1.00  0.00    -0.299 C  
BRANCH  11  12
HETATM   12  C   UNL     1     -11.657  14.042  69.032  1.00  0.00    -0.306 C  
HETATM   13  H   UNL     1     -12.735  14.539  70.609  1.00  0.00     0.000 HD 
HETATM   14  O   UNL     1     -12.359  14.973  69.852  1.00  0.00    -0.312 OA 
ENDBRANCH  11  12
ENDBRANCH  10  11
BRANCH  10  15
HETATM   15  C   UNL     1      -9.462  13.138  66.819  1.00  0.00    -0.252 C  
BRANCH  15  16
HETATM   16  C   UNL     1      -8.161  12.353  67.182  1.00  0.00    -0.167 C  
HETATM   17  C   UNL     1      -6.944  10.755  68.737  1.00  0.00    -0.075 C  
HETATM   18  C   UNL     1      -9.481  11.022  68.835  1.00  0.00    -0.155 C  
HETATM   19  N   UNL     1      -8.210  11.442  68.251  1.00  0.00    -0.142 N  
HETATM   20  C   UNL     1      -5.629  11.621  68.675  1.00  0.00    -0.045 C  
HETATM   21  O   UNL     1      -7.100  12.556  66.587  1.00  0.00     0.209 OA 
HETATM   22  C   UNL     1      -7.070  10.254  70.196  1.00  0.00    -0.154 C  
HETATM   23  C   UNL     1      -6.694   9.506  67.865  1.00  0.00    -0.066 C  
BRANCH  20  24
HETATM   24  C   UNL     1      -5.576  12.936  69.426  1.00  0.00    -0.084 A  
HETATM   25  C   UNL     1      -5.413  14.120  68.690  1.00  0.00    -0.089 A  
HETATM   26  C   UNL     1      -5.427  15.364  69.323  1.00  0.00    -0.096 A  
HETATM   27  C   UNL     1      -5.629  15.447  70.698  1.00  0.00    -0.096 A  
HETATM   28  C   UNL     1      -5.815  14.291  71.439  1.00  0.00    -0.164 A  
HETATM   29  C   UNL     1      -5.774  13.050  70.814  1.00  0.00    -0.160 A  
ENDBRANCH  20  24
ENDBRANCH  15  16
ENDBRANCH  10  15
ENDBRANCH   9  10
ENDBRANCH   3   9
BRANCH   5  30
HETATM   30  C   UNL     1      -7.196  18.980  66.871  1.00  0.00    -0.221 A  
HETATM   31  C   UNL     1      -5.929  18.824  64.793  1.00  0.00    -0.265 A  
HETATM   32  C   UNL     1      -7.042  20.371  66.814  1.00  0.00    -0.319 A  
HETATM   33  C   UNL     1      -6.610  18.221  65.849  1.00  0.00    -0.306 A  
HETATM   34  C   UNL     1      -5.753  20.199  64.774  1.00  0.00    -0.242 A  
HETATM   35  C   UNL     1      -6.317  20.973  65.781  1.00  0.00    -0.220 A  
ENDBRANCH   5  30
TORSDOF 8
ENDMDL
MODEL      114
REMARK 921   NORMALIZED FREE ENERGY PREDICTED BY IDOCK:   -4.82 KCAL/MOL
REMARK 922        TOTAL FREE ENERGY PREDICTED BY IDOCK:   -7.87 KCAL/MOL
REMARK 923 INTER-LIGAND FREE ENERGY PREDICTED BY IDOCK:   -8.12 KCAL/MOL
REMARK 924 INTRA-LIGAND FREE ENERGY PREDICTED BY IDOCK:    0.25 KCAL/MOL
REMARK 927      BINDING AFFINITY PREDICTED BY RF-SCORE:    0.00 PKD
ROOT
HETATM    1  C   UNL     1      -8.235  14.779  67.101  1.00  0.00    -0.211 C  
HETATM    2  N   UNL     1      -9.320  13.874  66.716  1.00  0.00    -0.269 N  
HETATM    3  C   UNL     1      -9.102  12.526  67.034  1.00  0.00    -0.213 C  
HETATM    4  C   UNL     1     -10.587  14.487  66.145  1.00  0.00    -0.306 C  
HETATM    5  C   UNL     1     -11.892  14.104  66.928  1.00  0.00    -0.458 C  
HETATM    6  C   UNL     1     -10.534  16.046  66.145  1.00  0.00    -0.334 C  
HETATM    7  C   UNL     1     -10.722  14.121  64.646  1.00  0.00    -0.408 C  
HETATM    8  O   UNL     1      -8.090  12.188  67.659  1.00  0.00    -0.138 OA 
ENDROOT
BRANCH   3   9
HETATM    9  C   UNL     1     -10.160  11.484  66.640  1.00  0.00    -0.210 C  
BRANCH   9  10
HETATM   10  N   UNL     1     -10.073  10.175  67.322  1.00  0.00    -0.195 NA 
BRANCH  10  11
HETATM   11  C   UNL     1      -8.857   9.439  66.931  1.00  0.00    -0.127 C  
BRANCH  11  12
HETATM   12  C   UNL     1      -8.987   8.656  65.604  1.00  0.00    -0.182 C  
HETATM   13  H   UNL     1      -7.957   8.442  63.935  1.00  0.00     0.000 HD 
HETATM   14  O   UNL     1      -7.877   8.922  64.751  1.00  0.00    -0.109 OA 
ENDBRANCH  11  12
ENDBRANCH  10  11
BRANCH  10  15
HETATM   15  C   UNL     1     -10.227  10.273  68.800  1.00  0.00    -0.192 C  
BRANCH  15  16
HETATM   16  C   UNL     1     -10.616   8.930  69.496  1.00  0.00    -0.228 C  
HETATM   17  C   UNL     1     -11.741   7.726  71.430  1.00  0.00    -0.282 C  
HETATM   18  C   UNL     1     -12.152  10.208  70.998  1.00  0.00    -0.377 C  
HETATM   19  N   UNL     1     -11.444   8.985  70.630  1.00  0.00    -0.263 N  
HETATM   20  C   UNL     1     -10.562   6.685  71.529  1.00  0.00    -0.251 C  
HETATM   21  O   UNL     1     -10.173   7.849  69.102  1.00  0.00    -0.206 OA 
HETATM   22  C   UNL     1     -12.172   8.039  72.882  1.00  0.00     0.037 C  
HETATM   23  C   UNL     1     -12.927   6.990  70.769  1.00  0.00     0.001 C  
BRANCH  20  24
HETATM   24  C   UNL     1      -9.238   7.124  72.123  1.00  0.00    -0.144 A  
HETATM   25  C   UNL     1      -9.234   7.661  73.419  1.00  0.00    -0.311 A  
HETATM   26  C   UNL     1      -8.036   8.018  74.042  1.00  0.00    -0.303 A  
HETATM   27  C   UNL     1      -6.823   7.820  73.388  1.00  0.00    -0.101 A  
HETATM   28  C   UNL     1      -6.805   7.270  72.117  1.00  0.00    -0.059 A  
HETATM   29  C   UNL     1      -7.999   6.940  71.486  1.00  0.00    -0.104 A  
ENDBRANCH  20  24
ENDBRANCH  15  16
ENDBRANCH  10  15
ENDBRANCH   9  10
ENDBRANCH   3   9
BRANCH   5  30
HETATM   30  C   UNL     1     -11.893  14.407  68.415  1.00  0.00    -0.354 A  
HETATM   31  C   UNL     1     -12.122  13.739  70.749  1.00  0.00    -0.395 A  
HETATM   32  C   UNL     1     -11.627  15.710  68.856  1.00  0.00    -0.392 A  
HETATM   33  C   UNL     1     -12.156  13.435  69.389  1.00  0.00    -0.321 A  
HETATM   34  C   UNL     1     -11.898  15.042  71.166  1.00  0.00    -0.382 A  
HETATM   35  C   UNL     1     -11.643  16.026  70.218  1.00  0.00    -0.335 A  
ENDBRANCH   5  30
TORSDOF 8
ENDMDL
MODEL      115
REMARK 921   NORMALIZED FREE ENERGY PREDICTED BY IDOCK:   -4.81 KCAL/MOL
REMARK 922        TOTAL FREE ENERGY PREDICTED BY IDOCK:   -7.86 KCAL/MOL
REMARK 923 INTER-LIGAND FREE ENERGY PREDICTED BY IDOCK:   -6.81 KCAL/MOL
REMARK 924 INTRA-LIGAND FREE ENERGY PREDICTED BY IDOCK:   -1.05 KCAL/MOL
REMARK 927      BINDING AFFINITY PREDICTED BY RF-SCORE:    0.00 PKD
ROOT
HETATM    1  C   UNL     1      -9.668   4.429  67.713  1.00  0.00    -0.137 C  
HETATM    2  N   UNL     1      -9.231   5.388  68.730  1.00  0.00    -0.120 N  
HETATM    3  C   UNL     1     -10.222   6.283  69.157  1.00  0.00    -0.187 C  
HETATM    4  C   UNL     1      -7.829   5.238  69.293  1.00  0.00    -0.088 C  
HETATM    5  C   UNL     1      -7.779   5.085  70.854  1.00  0.00    -0.083 C  
HETATM    6  C   UNL     1      -7.099   3.985  68.719  1.00  0.00    -0.054 C  
HETATM    7  C   UNL     1      -6.944   6.425  68.833  1.00  0.00    -0.076 C  
HETATM    8  O   UNL     1     -11.381   6.181  68.735  1.00  0.00    -0.344 OA 
ENDROOT
BRANCH   3   9
HETATM    9  C   UNL     1      -9.863   7.359  70.194  1.00  0.00    -0.180 C  
BRANCH   9  10
HETATM   10  N   UNL     1     -10.850   8.444  70.378  1.00  0.00    -0.233 NA 
BRANCH  10  11
HETATM   11  C   UNL     1     -11.320   8.521  71.773  1.00  0.00    -0.307 C  
BRANCH  11  12
HETATM   12  C   UNL     1     -10.267   8.099  72.822  1.00  0.00    -0.302 C  
HETATM   13  H   UNL     1     -10.127   6.802  74.303  1.00  0.00     0.000 HD 
HETATM   14  O   UNL     1     -10.774   7.062  73.658  1.00  0.00    -0.362 OA 
ENDBRANCH  11  12
ENDBRANCH  10  11
BRANCH  10  15
HETATM   15  C   UNL     1     -10.376   9.760  69.865  1.00  0.00    -0.254 C  
BRANCH  15  16
HETATM   16  C   UNL     1     -10.264   9.840  68.309  1.00  0.00    -0.183 C  
HETATM   17  C   UNL     1      -8.849  10.294  66.248  1.00  0.00    -0.146 C  
HETATM   18  C   UNL     1      -7.778   9.960  68.541  1.00  0.00    -0.081 C  
HETATM   19  N   UNL     1      -8.998  10.068  67.745  1.00  0.00    -0.131 N  
HETATM   20  C   UNL     1     -10.026  11.082  65.556  1.00  0.00    -0.308 C  
HETATM   21  O   UNL     1     -11.260   9.759  67.587  1.00  0.00    -0.178 OA 
HETATM   22  C   UNL     1      -7.548  11.052  65.894  1.00  0.00     0.007 C  
HETATM   23  C   UNL     1      -8.762   8.921  65.548  1.00  0.00    -0.215 C  
BRANCH  20  24
HETATM   24  C   UNL     1     -10.371  12.473  66.047  1.00  0.00    -0.277 A  
HETATM   25  C   UNL     1     -11.711  12.761  66.350  1.00  0.00    -0.464 A  
HETATM   26  C   UNL     1     -12.075  14.004  66.871  1.00  0.00    -0.465 A  
HETATM   27  C   UNL     1     -11.104  14.969  67.122  1.00  0.00    -0.332 A  
HETATM   28  C   UNL     1      -9.773  14.695  66.850  1.00  0.00    -0.249 A  
HETATM   29  C   UNL     1      -9.412  13.468  66.305  1.00  0.00    -0.199 A  
ENDBRANCH  20  24
ENDBRANCH  15  16
ENDBRANCH  10  15
ENDBRANCH   9  10
ENDBRANCH   3   9
BRANCH   5  30
HETATM   30  C   UNL     1      -8.608   3.957  71.442  1.00  0.00    -0.116 A  
HETATM   31  C   UNL     1      -9.018   1.596  71.892  1.00  0.00    -0.109 A  
HETATM   32  C   UNL     1      -9.787   4.254  72.138  1.00  0.00    -0.231 A  
HETATM   33  C   UNL     1      -8.251   2.608  71.317  1.00  0.00    -0.071 A  
HETATM   34  C   UNL     1     -10.203   1.905  72.543  1.00  0.00    -0.221 A  
HETATM   35  C   UNL     1     -10.582   3.236  72.672  1.00  0.00    -0.119 A  
ENDBRANCH   5  30
TORSDOF 8
ENDMDL
MODEL      116
REMARK 921   NORMALIZED FREE ENERGY PREDICTED BY IDOCK:   -4.81 KCAL/MOL
REMARK 922        TOTAL FREE ENERGY PREDICTED BY IDOCK:   -7.86 KCAL/MOL
REMARK 923 INTER-LIGAND FREE ENERGY PREDICTED BY IDOCK:   -7.22 KCAL/MOL
REMARK 924 INTRA-LIGAND FREE ENERGY PREDICTED BY IDOCK:   -0.64 KCAL/MOL
REMARK 927      BINDING AFFINITY PREDICTED BY RF-SCORE:    0.00 PKD
ROOT
HETATM    1  C   UNL     1      -8.337   7.255  65.950  1.00  0.00    -0.144 C  
HETATM    2  N   UNL     1      -8.412   7.734  67.332  1.00  0.00    -0.118 N  
HETATM    3  C   UNL     1      -9.677   8.194  67.726  1.00  0.00    -0.157 C  
HETATM    4  C   UNL     1      -7.184   7.571  68.209  1.00  0.00    -0.093 C  
HETATM    5  C   UNL     1      -7.444   6.768  69.532  1.00  0.00    -0.093 C  
HETATM    6  C   UNL     1      -6.035   6.816  67.472  1.00  0.00    -0.024 C  
HETATM    7  C   UNL     1      -6.571   8.959  68.525  1.00  0.00    -0.059 C  
HETATM    8  O   UNL     1     -10.641   8.110  66.955  1.00  0.00    -0.329 OA 
ENDROOT
BRANCH   3   9
HETATM    9  C   UNL     1      -9.860   8.757  69.144  1.00  0.00    -0.181 C  
BRANCH   9  10
HETATM   10  N   UNL     1     -10.623  10.019  69.252  1.00  0.00    -0.213 NA 
BRANCH  10  11
HETATM   11  C   UNL     1     -11.180  10.203  70.605  1.00  0.00    -0.340 C  
BRANCH  11  12
HETATM   12  C   UNL     1     -12.258   9.167  70.994  1.00  0.00    -0.242 C  
HETATM   13  H   UNL     1     -13.588   8.921  72.431  1.00  0.00     0.000 HD 
HETATM   14  O   UNL     1     -12.925   9.558  72.191  1.00  0.00    -0.396 OA 
ENDBRANCH  11  12
ENDBRANCH  10  11
BRANCH  10  15
HETATM   15  C   UNL     1      -9.855  11.209  68.787  1.00  0.00    -0.192 C  
BRANCH  15  16
HETATM   16  C   UNL     1     -10.719  12.286  68.059  1.00  0.00    -0.218 C  
HETATM   17  C   UNL     1     -11.327  13.504  65.914  1.00  0.00    -0.308 C  
HETATM   18  C   UNL     1      -9.953  11.353  65.870  1.00  0.00    -0.234 C  
HETATM   19  N   UNL     1     -10.618  12.386  66.661  1.00  0.00    -0.228 N  
HETATM   20  C   UNL     1     -11.402  14.888  66.665  1.00  0.00    -0.326 C  
HETATM   21  O   UNL     1     -11.435  13.069  68.687  1.00  0.00    -0.262 OA 
HETATM   22  C   UNL     1     -10.687  13.789  64.535  1.00  0.00    -0.405 C  
HETATM   23  C   UNL     1     -12.784  13.069  65.640  1.00  0.00    -0.198 C  
BRANCH  20  24
HETATM   24  C   UNL     1     -10.115  15.566  67.090  1.00  0.00    -0.254 A  
HETATM   25  C   UNL     1      -9.132  15.803  66.118  1.00  0.00    -0.377 A  
HETATM   26  C   UNL     1      -7.957  16.485  66.440  1.00  0.00    -0.352 A  
HETATM   27  C   UNL     1      -7.758  16.964  67.732  1.00  0.00    -0.184 A  
HETATM   28  C   UNL     1      -8.728  16.760  68.700  1.00  0.00    -0.255 A  
HETATM   29  C   UNL     1      -9.885  16.057  68.388  1.00  0.00    -0.213 A  
ENDBRANCH  20  24
ENDBRANCH  15  16
ENDBRANCH  10  15
ENDBRANCH   9  10
ENDBRANCH   3   9
BRANCH   5  30
HETATM   30  C   UNL     1      -8.048   5.385  69.366  1.00  0.00    -0.093 A  
HETATM   31  C   UNL     1      -8.114   3.173  68.342  1.00  0.00    -0.074 A  
HETATM   32  C   UNL     1      -9.149   5.013  70.148  1.00  0.00    -0.163 A  
HETATM   33  C   UNL     1      -7.555   4.445  68.451  1.00  0.00    -0.064 A  
HETATM   34  C   UNL     1      -9.228   2.836  69.094  1.00  0.00    -0.215 A  
HETATM   35  C   UNL     1      -9.741   3.754  70.003  1.00  0.00    -0.211 A  
ENDBRANCH   5  30
TORSDOF 8
ENDMDL
MODEL      117
REMARK 921   NORMALIZED FREE ENERGY PREDICTED BY IDOCK:   -4.80 KCAL/MOL
REMARK 922        TOTAL FREE ENERGY PREDICTED BY IDOCK:   -7.84 KCAL/MOL
REMARK 923 INTER-LIGAND FREE ENERGY PREDICTED BY IDOCK:   -7.86 KCAL/MOL
REMARK 924 INTRA-LIGAND FREE ENERGY PREDICTED BY IDOCK:    0.02 KCAL/MOL
REMARK 927      BINDING AFFINITY PREDICTED BY RF-SCORE:    0.00 PKD
ROOT
HETATM    1  C   UNL     1     -12.069   8.227  71.393  1.00  0.00    -0.300 C  
HETATM    2  N   UNL     1     -11.106   8.157  70.292  1.00  0.00    -0.248 N  
HETATM    3  C   UNL     1     -10.702   9.400  69.785  1.00  0.00    -0.234 C  
HETATM    4  C   UNL     1     -10.563   6.791  69.910  1.00  0.00    -0.222 C  
HETATM    5  C   UNL     1      -8.997   6.689  69.958  1.00  0.00    -0.144 C  
HETATM    6  C   UNL     1     -11.092   5.667  70.852  1.00  0.00    -0.200 C  
HETATM    7  C   UNL     1     -11.093   6.384  68.512  1.00  0.00    -0.385 C  
HETATM    8  O   UNL     1     -11.098  10.448  70.311  1.00  0.00    -0.288 OA 
ENDROOT
BRANCH   3   9
HETATM    9  C   UNL     1      -9.722   9.443  68.602  1.00  0.00    -0.152 C  
BRANCH   9  10
HETATM   10  N   UNL     1      -8.762  10.567  68.590  1.00  0.00    -0.135 NA 
BRANCH  10  11
HETATM   11  C   UNL     1      -7.393  10.117  68.901  1.00  0.00    -0.083 C  
BRANCH  11  12
HETATM   12  C   UNL     1      -6.632  11.033  69.885  1.00  0.00    -0.142 C  
HETATM   13  H   UNL     1      -6.060  10.982  71.773  1.00  0.00     0.000 HD 
HETATM   14  O   UNL     1      -6.528  10.420  71.168  1.00  0.00    -0.336 OA 
ENDBRANCH  11  12
ENDBRANCH  10  11
BRANCH  10  15
HETATM   15  C   UNL     1      -8.824  11.376  67.340  1.00  0.00    -0.150 C  
BRANCH  15  16
HETATM   16  C   UNL     1      -9.865  12.539  67.378  1.00  0.00    -0.201 C  
HETATM   17  C   UNL     1     -11.180  14.326  66.141  1.00  0.00    -0.331 C  
HETATM   18  C   UNL     1      -9.973  12.463  64.882  1.00  0.00    -0.184 C  
HETATM   19  N   UNL     1     -10.277  13.103  66.159  1.00  0.00    -0.284 N  
HETATM   20  C   UNL     1     -10.940  15.371  67.297  1.00  0.00    -0.317 C  
HETATM   21  O   UNL     1     -10.283  12.994  68.446  1.00  0.00    -0.242 OA 
HETATM   22  C   UNL     1     -11.078  15.113  64.813  1.00  0.00    -0.395 C  
HETATM   23  C   UNL     1     -12.647  13.860  66.263  1.00  0.00    -0.376 C  
BRANCH  20  24
HETATM   24  C   UNL     1      -9.569  15.999  67.451  1.00  0.00    -0.225 A  
HETATM   25  C   UNL     1      -8.867  16.361  66.291  1.00  0.00    -0.367 A  
HETATM   26  C   UNL     1      -7.632  17.006  66.375  1.00  0.00    -0.350 A  
HETATM   27  C   UNL     1      -7.091  17.321  67.619  1.00  0.00    -0.179 A  
HETATM   28  C   UNL     1      -7.779  16.991  68.775  1.00  0.00    -0.249 A  
HETATM   29  C   UNL     1      -8.997  16.325  68.693  1.00  0.00    -0.232 A  
ENDBRANCH  20  24
ENDBRANCH  15  16
ENDBRANCH  10  15
ENDBRANCH   9  10
ENDBRANCH   3   9
BRANCH   5  30
HETATM   30  C   UNL     1      -8.343   7.065  71.276  1.00  0.00    -0.114 A  
HETATM   31  C   UNL     1      -6.465   7.041  72.831  1.00  0.00    -0.061 A  
HETATM   32  C   UNL     1      -9.048   7.847  72.200  1.00  0.00    -0.205 A  
HETATM   33  C   UNL     1      -7.049   6.657  71.625  1.00  0.00    -0.080 A  
HETATM   34  C   UNL     1      -7.191   7.783  73.751  1.00  0.00    -0.145 A  
HETATM   35  C   UNL     1      -8.480   8.192  73.431  1.00  0.00    -0.303 A  
ENDBRANCH   5  30
TORSDOF 8
ENDMDL
MODEL      118
REMARK 921   NORMALIZED FREE ENERGY PREDICTED BY IDOCK:   -4.79 KCAL/MOL
REMARK 922        TOTAL FREE ENERGY PREDICTED BY IDOCK:   -7.83 KCAL/MOL
REMARK 923 INTER-LIGAND FREE ENERGY PREDICTED BY IDOCK:   -7.44 KCAL/MOL
REMARK 924 INTRA-LIGAND FREE ENERGY PREDICTED BY IDOCK:   -0.39 KCAL/MOL
REMARK 927      BINDING AFFINITY PREDICTED BY RF-SCORE:    0.00 PKD
ROOT
HETATM    1  C   UNL     1     -10.723   8.638  67.563  1.00  0.00    -0.139 C  
HETATM    2  N   UNL     1     -10.479   9.609  68.632  1.00  0.00    -0.204 N  
HETATM    3  C   UNL     1     -11.098  10.853  68.448  1.00  0.00    -0.262 C  
HETATM    4  C   UNL     1      -9.711   9.140  69.855  1.00  0.00    -0.191 C  
HETATM    5  C   UNL     1     -10.476   9.347  71.209  1.00  0.00    -0.385 C  
HETATM    6  C   UNL     1      -9.371   7.620  69.786  1.00  0.00    -0.150 C  
HETATM    7  C   UNL     1      -8.323   9.828  69.902  1.00  0.00    -0.198 C  
HETATM    8  O   UNL     1     -11.844  11.043  67.479  1.00  0.00    -0.571 OA 
ENDROOT
BRANCH   3   9
HETATM    9  C   UNL     1     -10.878  11.960  69.491  1.00  0.00     0.050 C  
BRANCH   9  10
HETATM   10  N   UNL     1     -11.933  12.993  69.580  1.00  0.00    -0.318 NA 
BRANCH  10  11
HETATM   11  C   UNL     1     -13.056  12.550  70.426  1.00  0.00     0.622 C  
BRANCH  11  12
HETATM   12  C   UNL     1     -13.142  13.265  71.793  1.00  0.00    -0.379 C  
HETATM   13  H   UNL     1     -14.205  13.115  73.449  1.00  0.00     0.000 HD 
HETATM   14  O   UNL     1     -14.152  12.676  72.608  1.00  0.00    -0.356 OA 
ENDBRANCH  11  12
ENDBRANCH  10  11
BRANCH  10  15
HETATM   15  C   UNL     1     -11.411  14.329  69.982  1.00  0.00    -0.219 C  
BRANCH  15  16
HETATM   16  C   UNL     1     -10.484  15.003  68.921  1.00  0.00    -0.241 C  
HETATM   17  C   UNL     1      -9.925  15.439  66.481  1.00  0.00    -0.268 C  
HETATM   18  C   UNL     1     -12.190  14.483  67.169  1.00  0.00    -0.152 C  
HETATM   19  N   UNL     1     -10.856  14.925  67.568  1.00  0.00    -0.284 N  
HETATM   20  C   UNL     1      -8.384  15.238  66.749  1.00  0.00    -0.258 C  
HETATM   21  O   UNL     1      -9.425  15.545  69.244  1.00  0.00    -0.229 OA 
HETATM   22  C   UNL     1     -10.217  14.798  65.105  1.00  0.00    -0.410 C  
HETATM   23  C   UNL     1     -10.151  16.958  66.315  1.00  0.00    -0.335 C  
BRANCH  20  24
HETATM   24  C   UNL     1      -7.853  13.837  66.977  1.00  0.00     0.105 A  
HETATM   25  C   UNL     1      -8.579  12.755  66.458  1.00  0.00     0.078 A  
HETATM   26  C   UNL     1      -8.100  11.449  66.578  1.00  0.00    -0.141 A  
HETATM   27  C   UNL     1      -6.876  11.206  67.196  1.00  0.00    -0.107 A  
HETATM   28  C   UNL     1      -6.134  12.265  67.694  1.00  0.00    -0.120 A  
HETATM   29  C   UNL     1      -6.622  13.563  67.600  1.00  0.00    -0.177 A  
ENDBRANCH  20  24
ENDBRANCH  15  16
ENDBRANCH  10  15
ENDBRANCH   9  10
ENDBRANCH   3   9
BRANCH   5  30
HETATM   30  C   UNL     1     -11.858   8.724  71.298  1.00  0.00    -0.358 A  
HETATM   31  C   UNL     1     -14.257   8.857  71.714  1.00  0.00    -0.392 A  
HETATM   32  C   UNL     1     -12.024   7.363  71.007  1.00  0.00    -0.337 A  
HETATM   33  C   UNL     1     -12.996   9.451  71.668  1.00  0.00    -0.471 A  
HETATM   34  C   UNL     1     -14.396   7.501  71.462  1.00  0.00    -0.603 A  
HETATM   35  C   UNL     1     -13.280   6.756  71.101  1.00  0.00    -0.040 A  
ENDBRANCH   5  30
TORSDOF 8
ENDMDL
MODEL      119
REMARK 921   NORMALIZED FREE ENERGY PREDICTED BY IDOCK:   -4.78 KCAL/MOL
REMARK 922        TOTAL FREE ENERGY PREDICTED BY IDOCK:   -7.82 KCAL/MOL
REMARK 923 INTER-LIGAND FREE ENERGY PREDICTED BY IDOCK:   -7.78 KCAL/MOL
REMARK 924 INTRA-LIGAND FREE ENERGY PREDICTED BY IDOCK:   -0.04 KCAL/MOL
REMARK 927      BINDING AFFINITY PREDICTED BY RF-SCORE:    0.00 PKD
ROOT
HETATM    1  C   UNL     1      -7.754   5.652  68.174  1.00  0.00    -0.089 C  
HETATM    2  N   UNL     1      -8.538   6.877  67.998  1.00  0.00    -0.123 N  
HETATM    3  C   UNL     1      -8.230   7.906  68.899  1.00  0.00    -0.126 C  
HETATM    4  C   UNL     1      -9.486   6.950  66.815  1.00  0.00    -0.165 C  
HETATM    5  C   UNL     1      -9.230   8.172  65.864  1.00  0.00    -0.158 C  
HETATM    6  C   UNL     1      -9.393   5.682  65.911  1.00  0.00    -0.119 C  
HETATM    7  C   UNL     1     -10.954   6.943  67.311  1.00  0.00    -0.406 C  
HETATM    8  O   UNL     1      -7.306   7.770  69.711  1.00  0.00    -0.076 OA 
ENDROOT
BRANCH   3   9
HETATM    9  C   UNL     1      -9.019   9.222  68.830  1.00  0.00    -0.136 C  
BRANCH   9  10
HETATM   10  N   UNL     1     -10.333   9.232  69.509  1.00  0.00    -0.208 NA 
BRANCH  10  11
HETATM   11  C   UNL     1     -10.189   9.155  70.973  1.00  0.00    -0.302 C  
BRANCH  11  12
HETATM   12  C   UNL     1     -11.528   9.112  71.743  1.00  0.00    -0.381 C  
HETATM   13  H   UNL     1     -12.333   8.062  73.207  1.00  0.00     0.000 HD 
HETATM   14  O   UNL     1     -11.509   8.089  72.734  1.00  0.00    -0.402 OA 
ENDBRANCH  11  12
ENDBRANCH  10  11
BRANCH  10  15
HETATM   15  C   UNL     1     -11.204  10.363  69.082  1.00  0.00    -0.246 C  
BRANCH  15  16
HETATM   16  C   UNL     1     -10.434  11.559  68.437  1.00  0.00    -0.207 C  
HETATM   17  C   UNL     1     -10.331  14.035  67.879  1.00  0.00    -0.239 C  
HETATM   18  C   UNL     1     -12.024  13.127  69.561  1.00  0.00    -0.294 C  
HETATM   19  N   UNL     1     -10.959  12.852  68.599  1.00  0.00    -0.253 N  
HETATM   20  C   UNL     1      -9.762  13.736  66.440  1.00  0.00    -0.304 C  
HETATM   21  O   UNL     1      -9.421  11.380  67.757  1.00  0.00    -0.159 OA 
HETATM   22  C   UNL     1     -11.315  15.218  67.722  1.00  0.00    -0.331 C  
HETATM   23  C   UNL     1      -9.149  14.557  68.724  1.00  0.00    -0.158 C  
BRANCH  20  24
HETATM   24  C   UNL     1     -10.692  13.184  65.379  1.00  0.00    -0.308 A  
HETATM   25  C   UNL     1     -10.206  12.193  64.513  1.00  0.00    -0.321 A  
HETATM   26  C   UNL     1     -11.040  11.601  63.563  1.00  0.00    -0.476 A  
HETATM   27  C   UNL     1     -12.379  11.972  63.479  1.00  0.00    -0.661 A  
HETATM   28  C   UNL     1     -12.883  12.933  64.340  1.00  0.00    -0.235 A  
HETATM   29  C   UNL     1     -12.047  13.543  65.268  1.00  0.00    -0.439 A  
ENDBRANCH  20  24
ENDBRANCH  15  16
ENDBRANCH  10  15
ENDBRANCH   9  10
ENDBRANCH   3   9
BRANCH   5  30
HETATM   30  C   UNL     1      -7.824   8.301  65.305  1.00  0.00    -0.120 A  
HETATM   31  C   UNL     1      -6.145   7.891  63.585  1.00  0.00    -0.062 A  
HETATM   32  C   UNL     1      -6.855   9.010  66.026  1.00  0.00    -0.080 A  
HETATM   33  C   UNL     1      -7.437   7.731  64.085  1.00  0.00    -0.105 A  
HETATM   34  C   UNL     1      -5.188   8.562  64.330  1.00  0.00    -0.043 A  
HETATM   35  C   UNL     1      -5.546   9.128  65.548  1.00  0.00    -0.048 A  
ENDBRANCH   5  30
TORSDOF 8
ENDMDL
MODEL      120
REMARK 921   NORMALIZED FREE ENERGY PREDICTED BY IDOCK:   -4.74 KCAL/MOL
REMARK 922        TOTAL FREE ENERGY PREDICTED BY IDOCK:   -7.76 KCAL/MOL
REMARK 923 INTER-LIGAND FREE ENERGY PREDICTED BY IDOCK:   -6.60 KCAL/MOL
REMARK 924 INTRA-LIGAND FREE ENERGY PREDICTED BY IDOCK:   -1.17 KCAL/MOL
REMARK 927      BINDING AFFINITY PREDICTED BY RF-SCORE:    0.00 PKD
ROOT
HETATM    1  C   UNL     1      -8.662  10.554  69.276  1.00  0.00    -0.123 C  
HETATM    2  N   UNL     1      -8.609  11.281  68.006  1.00  0.00    -0.134 N  
HETATM    3  C   UNL     1      -9.509  10.826  67.032  1.00  0.00    -0.164 C  
HETATM    4  C   UNL     1      -7.703  12.496  67.920  1.00  0.00    -0.138 C  
HETATM    5  C   UNL     1      -8.439  13.814  67.491  1.00  0.00    -0.199 C  
HETATM    6  C   UNL     1      -7.020  12.815  69.285  1.00  0.00     0.041 C  
HETATM    7  C   UNL     1      -6.513  12.203  66.971  1.00  0.00    -0.088 C  
HETATM    8  O   UNL     1     -10.317   9.928  67.298  1.00  0.00    -0.214 OA 
ENDROOT
BRANCH   3   9
HETATM    9  C   UNL     1      -9.511  11.491  65.646  1.00  0.00    -0.222 C  
BRANCH   9  10
HETATM   10  N   UNL     1      -9.570  10.579  64.484  1.00  0.00    -0.273 NA 
BRANCH  10  11
HETATM   11  C   UNL     1     -10.566  11.025  63.493  1.00  0.00    -0.232 C  
BRANCH  11  12
HETATM   12  C   UNL     1     -11.040  12.484  63.681  1.00  0.00    -0.467 C  
HETATM   13  H   UNL     1     -12.723  13.500  63.514  1.00  0.00     0.000 HD 
HETATM   14  O   UNL     1     -12.431  12.603  63.399  1.00  0.00    -0.663 OA 
ENDBRANCH  11  12
ENDBRANCH  10  11
BRANCH  10  15
HETATM   15  C   UNL     1      -8.235  10.323  63.872  1.00  0.00    -0.152 C  
BRANCH  15  16
HETATM   16  C   UNL     1      -7.481   9.092  64.468  1.00  0.00    -0.101 C  
HETATM   17  C   UNL     1      -7.051   6.589  64.457  1.00  0.00    -0.060 C  
HETATM   18  C   UNL     1      -8.268   7.730  62.525  1.00  0.00    -0.112 C  
HETATM   19  N   UNL     1      -7.646   7.845  63.842  1.00  0.00    -0.114 N  
HETATM   20  C   UNL     1      -7.044   6.535  66.032  1.00  0.00    -0.063 C  
HETATM   21  O   UNL     1      -6.797   9.189  65.489  1.00  0.00    -0.072 OA 
HETATM   22  C   UNL     1      -7.766   5.303  63.978  1.00  0.00    -0.084 C  
HETATM   23  C   UNL     1      -5.579   6.467  64.003  1.00  0.00    -0.022 C  
BRANCH  20  24
HETATM   24  C   UNL     1      -8.358   6.653  66.779  1.00  0.00    -0.115 A  
HETATM   25  C   UNL     1      -9.533   6.241  66.133  1.00  0.00    -0.092 A  
HETATM   26  C   UNL     1     -10.760   6.262  66.798  1.00  0.00    -0.364 A  
HETATM   27  C   UNL     1     -10.829   6.673  68.127  1.00  0.00    -0.334 A  
HETATM   28  C   UNL     1      -9.675   7.063  68.788  1.00  0.00    -0.143 A  
HETATM   29  C   UNL     1      -8.457   7.068  68.119  1.00  0.00    -0.129 A  
ENDBRANCH  20  24
ENDBRANCH  15  16
ENDBRANCH  10  15
ENDBRANCH   9  10
ENDBRANCH   3   9
BRANCH   5  30
HETATM   30  C   UNL     1      -9.632  14.218  68.339  1.00  0.00    -0.221 A  
HETATM   31  C   UNL     1     -11.988  14.069  68.952  1.00  0.00    -0.387 A  
HETATM   32  C   UNL     1      -9.465  15.154  69.368  1.00  0.00    -0.185 A  
HETATM   33  C   UNL     1     -10.918  13.699  68.139  1.00  0.00    -0.273 A  
HETATM   34  C   UNL     1     -11.813  15.027  69.939  1.00  0.00    -0.362 A  
HETATM   35  C   UNL     1     -10.548  15.563  70.152  1.00  0.00    -0.336 A  
ENDBRANCH   5  30
TORSDOF 8
ENDMDL
MODEL      121
REMARK 921   NORMALIZED FREE ENERGY PREDICTED BY IDOCK:   -4.74 KCAL/MOL
REMARK 922        TOTAL FREE ENERGY PREDICTED BY IDOCK:   -7.76 KCAL/MOL
REMARK 923 INTER-LIGAND FREE ENERGY PREDICTED BY IDOCK:   -6.10 KCAL/MOL
REMARK 924 INTRA-LIGAND FREE ENERGY PREDICTED BY IDOCK:   -1.67 KCAL/MOL
REMARK 927      BINDING AFFINITY PREDICTED BY RF-SCORE:    0.00 PKD
ROOT
HETATM    1  C   UNL     1     -11.464   6.107  69.666  1.00  0.00    -0.262 C  
HETATM    2  N   UNL     1     -10.304   6.014  68.776  1.00  0.00    -0.191 N  
HETATM    3  C   UNL     1     -10.197   7.053  67.842  1.00  0.00    -0.183 C  
HETATM    4  C   UNL     1      -9.300   4.905  69.033  1.00  0.00    -0.129 C  
HETATM    5  C   UNL     1      -7.830   5.411  69.251  1.00  0.00    -0.089 C  
HETATM    6  C   UNL     1      -9.656   4.075  70.304  1.00  0.00    -0.271 C  
HETATM    7  C   UNL     1      -9.354   3.866  67.885  1.00  0.00    -0.227 C  
HETATM    8  O   UNL     1     -11.001   7.993  67.857  1.00  0.00    -0.036 OA 
ENDROOT
BRANCH   3   9
HETATM    9  C   UNL     1      -9.039   7.034  66.832  1.00  0.00    -0.140 C  
BRANCH   9  10
HETATM   10  N   UNL     1      -8.254   8.282  66.714  1.00  0.00    -0.102 NA 
BRANCH  10  11
HETATM   11  C   UNL     1      -6.806   8.010  66.670  1.00  0.00    -0.068 C  
BRANCH  11  12
HETATM   12  C   UNL     1      -6.424   6.720  65.909  1.00  0.00    -0.050 C  
HETATM   13  H   UNL     1      -5.775   6.229  64.111  1.00  0.00     0.000 HD 
HETATM   14  O   UNL     1      -6.009   7.022  64.579  1.00  0.00    -0.035 OA 
ENDBRANCH  11  12
ENDBRANCH  10  11
BRANCH  10  15
HETATM   15  C   UNL     1      -8.703   9.153  65.593  1.00  0.00    -0.174 C  
BRANCH  15  16
HETATM   16  C   UNL     1      -9.511  10.413  66.042  1.00  0.00    -0.185 C  
HETATM   17  C   UNL     1      -9.547  12.684  67.180  1.00  0.00    -0.207 C  
HETATM   18  C   UNL     1      -7.347  11.573  66.515  1.00  0.00    -0.012 C  
HETATM   19  N   UNL     1      -8.804  11.492  66.599  1.00  0.00    -0.183 N  
HETATM   20  C   UNL     1     -10.911  12.354  67.899  1.00  0.00    -0.266 C  
HETATM   21  O   UNL     1     -10.740  10.450  65.964  1.00  0.00    -0.115 OA 
HETATM   22  C   UNL     1      -8.692  13.469  68.202  1.00  0.00    -0.174 C  
HETATM   23  C   UNL     1      -9.876  13.667  66.035  1.00  0.00    -0.290 C  
BRANCH  20  24
HETATM   24  C   UNL     1     -10.915  11.387  69.065  1.00  0.00    -0.288 A  
HETATM   25  C   UNL     1     -12.109  11.207  69.779  1.00  0.00    -0.414 A  
HETATM   26  C   UNL     1     -12.188  10.277  70.818  1.00  0.00    -0.447 A  
HETATM   27  C   UNL     1     -11.082   9.496  71.144  1.00  0.00    -0.450 A  
HETATM   28  C   UNL     1      -9.900   9.644  70.435  1.00  0.00    -0.315 A  
HETATM   29  C   UNL     1      -9.813  10.588  69.418  1.00  0.00    -0.205 A  
ENDBRANCH  20  24
ENDBRANCH  15  16
ENDBRANCH  10  15
ENDBRANCH   9  10
ENDBRANCH   3   9
BRANCH   5  30
HETATM   30  C   UNL     1      -7.634   6.440  70.350  1.00  0.00    -0.096 A  
HETATM   31  C   UNL     1      -6.659   8.497  71.224  1.00  0.00    -0.062 A  
HETATM   32  C   UNL     1      -8.304   6.286  71.570  1.00  0.00    -0.126 A  
HETATM   33  C   UNL     1      -6.797   7.555  70.206  1.00  0.00    -0.047 A  
HETATM   34  C   UNL     1      -7.298   8.308  72.439  1.00  0.00    -0.140 A  
HETATM   35  C   UNL     1      -8.127   7.205  72.609  1.00  0.00    -0.118 A  
ENDBRANCH   5  30
TORSDOF 8
ENDMDL
MODEL      122
REMARK 921   NORMALIZED FREE ENERGY PREDICTED BY IDOCK:   -4.73 KCAL/MOL
REMARK 922        TOTAL FREE ENERGY PREDICTED BY IDOCK:   -7.75 KCAL/MOL
REMARK 923 INTER-LIGAND FREE ENERGY PREDICTED BY IDOCK:   -6.61 KCAL/MOL
REMARK 924 INTRA-LIGAND FREE ENERGY PREDICTED BY IDOCK:   -1.14 KCAL/MOL
REMARK 927      BINDING AFFINITY PREDICTED BY RF-SCORE:    0.00 PKD
ROOT
HETATM    1  C   UNL     1     -10.620   5.049  66.382  1.00  0.00    -0.261 C  
HETATM    2  N   UNL     1      -9.311   5.680  66.569  1.00  0.00    -0.145 N  
HETATM    3  C   UNL     1      -9.338   7.080  66.629  1.00  0.00    -0.165 C  
HETATM    4  C   UNL     1      -8.113   4.777  66.799  1.00  0.00    -0.107 C  
HETATM    5  C   UNL     1      -7.329   5.078  68.125  1.00  0.00    -0.074 C  
HETATM    6  C   UNL     1      -8.520   3.273  66.878  1.00  0.00    -0.103 C  
HETATM    7  C   UNL     1      -7.161   4.839  65.577  1.00  0.00    -0.071 C  
HETATM    8  O   UNL     1     -10.417   7.686  66.599  1.00  0.00    -0.281 OA 
ENDROOT
BRANCH   3   9
HETATM    9  C   UNL     1      -8.016   7.849  66.783  1.00  0.00    -0.107 C  
BRANCH   9  10
HETATM   10  N   UNL     1      -8.112   9.200  67.376  1.00  0.00    -0.107 NA 
BRANCH  10  11
HETATM   11  C   UNL     1      -6.936   9.513  68.208  1.00  0.00    -0.070 C  
BRANCH  11  12
HETATM   12  C   UNL     1      -7.090   9.127  69.697  1.00  0.00    -0.059 C  
HETATM   13  H   UNL     1      -6.590   9.874  71.453  1.00  0.00     0.000 HD 
HETATM   14  O   UNL     1      -6.496  10.111  70.538  1.00  0.00    -0.115 OA 
ENDBRANCH  11  12
ENDBRANCH  10  11
BRANCH  10  15
HETATM   15  C   UNL     1      -8.394  10.262  66.370  1.00  0.00    -0.132 C  
BRANCH  15  16
HETATM   16  C   UNL     1      -9.663  11.119  66.679  1.00  0.00    -0.196 C  
HETATM   17  C   UNL     1     -10.698  13.147  67.806  1.00  0.00    -0.240 C  
HETATM   18  C   UNL     1      -8.170  12.938  67.524  1.00  0.00    -0.184 C  
HETATM   19  N   UNL     1      -9.492  12.339  67.355  1.00  0.00    -0.178 N  
HETATM   20  C   UNL     1     -11.946  12.307  68.277  1.00  0.00    -0.259 C  
HETATM   21  O   UNL     1     -10.794  10.722  66.390  1.00  0.00    -0.204 OA 
HETATM   22  C   UNL     1     -10.359  14.115  68.964  1.00  0.00    -0.159 C  
HETATM   23  C   UNL     1     -11.174  14.024  66.627  1.00  0.00    -0.330 C  
BRANCH  20  24
HETATM   24  C   UNL     1     -11.785  11.326  69.420  1.00  0.00    -0.409 A  
HETATM   25  C   UNL     1     -12.886  11.089  70.256  1.00  0.00    -0.178 A  
HETATM   26  C   UNL     1     -12.815  10.144  71.282  1.00  0.00    -0.508 A  
HETATM   27  C   UNL     1     -11.651   9.404  71.472  1.00  0.00    -0.467 A  
HETATM   28  C   UNL     1     -10.561   9.609  70.642  1.00  0.00    -0.386 A  
HETATM   29  C   UNL     1     -10.621  10.568  69.638  1.00  0.00    -0.281 A  
ENDBRANCH  20  24
ENDBRANCH  15  16
ENDBRANCH  10  15
ENDBRANCH   9  10
ENDBRANCH   3   9
BRANCH   5  30
HETATM   30  C   UNL     1      -8.146   5.053  69.404  1.00  0.00    -0.079 A  
HETATM   31  C   UNL     1      -9.689   6.071  70.994  1.00  0.00    -0.208 A  
HETATM   32  C   UNL     1      -8.129   3.910  70.214  1.00  0.00    -0.056 A  
HETATM   33  C   UNL     1      -8.928   6.135  69.828  1.00  0.00    -0.138 A  
HETATM   34  C   UNL     1      -9.628   4.948  71.804  1.00  0.00    -0.210 A  
HETATM   35  C   UNL     1      -8.853   3.864  71.409  1.00  0.00    -0.143 A  
ENDBRANCH   5  30
TORSDOF 8
ENDMDL
MODEL      123
REMARK 921   NORMALIZED FREE ENERGY PREDICTED BY IDOCK:   -4.72 KCAL/MOL
REMARK 922        TOTAL FREE ENERGY PREDICTED BY IDOCK:   -7.73 KCAL/MOL
REMARK 923 INTER-LIGAND FREE ENERGY PREDICTED BY IDOCK:   -5.86 KCAL/MOL
REMARK 924 INTRA-LIGAND FREE ENERGY PREDICTED BY IDOCK:   -1.86 KCAL/MOL
REMARK 927      BINDING AFFINITY PREDICTED BY RF-SCORE:    0.00 PKD
ROOT
HETATM    1  C   UNL     1      -9.984  11.023  64.985  1.00  0.00    -0.285 C  
HETATM    2  N   UNL     1     -10.384  11.081  66.393  1.00  0.00    -0.243 N  
HETATM    3  C   UNL     1     -10.568   9.833  67.003  1.00  0.00    -0.199 C  
HETATM    4  C   UNL     1     -10.432  12.443  67.061  1.00  0.00    -0.220 C  
HETATM    5  C   UNL     1      -9.542  12.556  68.349  1.00  0.00    -0.176 C  
HETATM    6  C   UNL     1      -9.949  13.580  66.110  1.00  0.00    -0.310 C  
HETATM    7  C   UNL     1     -11.900  12.825  67.379  1.00  0.00    -0.404 C  
HETATM    8  O   UNL     1     -10.325   8.791  66.381  1.00  0.00    -0.271 OA 
ENDROOT
BRANCH   3   9
HETATM    9  C   UNL     1     -11.026   9.776  68.468  1.00  0.00    -0.149 C  
BRANCH   9  10
HETATM   10  N   UNL     1     -10.330   8.799  69.333  1.00  0.00    -0.211 NA 
BRANCH  10  11
HETATM   11  C   UNL     1      -9.929   9.400  70.618  1.00  0.00    -0.284 C  
BRANCH  11  12
HETATM   12  C   UNL     1     -10.790   8.958  71.823  1.00  0.00    -0.365 C  
HETATM   13  H   UNL     1     -10.509   8.082  73.568  1.00  0.00     0.000 HD 
HETATM   14  O   UNL     1      -9.980   8.353  72.828  1.00  0.00    -0.284 OA 
ENDBRANCH  11  12
ENDBRANCH  10  11
BRANCH  10  15
HETATM   15  C   UNL     1     -11.090   7.530  69.512  1.00  0.00    -0.046 C  
BRANCH  15  16
HETATM   16  C   UNL     1     -10.534   6.327  68.686  1.00  0.00    -0.231 C  
HETATM   17  C   UNL     1      -8.738   4.563  68.348  1.00  0.00    -0.099 C  
HETATM   18  C   UNL     1      -8.920   5.863  70.538  1.00  0.00    -0.144 C  
HETATM   19  N   UNL     1      -9.405   5.649  69.176  1.00  0.00    -0.121 N  
HETATM   20  C   UNL     1      -8.737   4.795  66.789  1.00  0.00    -0.107 C  
HETATM   21  O   UNL     1     -11.033   6.003  67.606  1.00  0.00    -0.305 OA 
HETATM   22  C   UNL     1      -7.264   4.333  68.757  1.00  0.00    -0.055 C  
HETATM   23  C   UNL     1      -9.475   3.229  68.597  1.00  0.00    -0.200 C  
BRANCH  20  24
HETATM   24  C   UNL     1      -8.094   6.049  66.231  1.00  0.00    -0.112 A  
HETATM   25  C   UNL     1      -8.280   6.346  64.873  1.00  0.00    -0.110 A  
HETATM   26  C   UNL     1      -7.770   7.523  64.322  1.00  0.00    -0.128 A  
HETATM   27  C   UNL     1      -7.087   8.433  65.125  1.00  0.00    -0.075 A  
HETATM   28  C   UNL     1      -6.913   8.167  66.473  1.00  0.00    -0.068 A  
HETATM   29  C   UNL     1      -7.397   6.983  67.017  1.00  0.00    -0.086 A  
ENDBRANCH  20  24
ENDBRANCH  15  16
ENDBRANCH  10  15
ENDBRANCH   9  10
ENDBRANCH   3   9
BRANCH   5  30
HETATM   30  C   UNL     1      -8.074  12.206  68.179  1.00  0.00    -0.161 A  
HETATM   31  C   UNL     1      -5.849  12.634  67.277  1.00  0.00    -0.065 A  
HETATM   32  C   UNL     1      -7.552  11.077  68.823  1.00  0.00    -0.127 A  
HETATM   33  C   UNL     1      -7.198  12.965  67.392  1.00  0.00    -0.130 A  
HETATM   34  C   UNL     1      -5.359  11.491  67.889  1.00  0.00    -0.046 A  
HETATM   35  C   UNL     1      -6.210  10.716  68.668  1.00  0.00    -0.046 A  
ENDBRANCH   5  30
TORSDOF 8
ENDMDL
MODEL      124
REMARK 921   NORMALIZED FREE ENERGY PREDICTED BY IDOCK:   -4.70 KCAL/MOL
REMARK 922        TOTAL FREE ENERGY PREDICTED BY IDOCK:   -7.71 KCAL/MOL
REMARK 923 INTER-LIGAND FREE ENERGY PREDICTED BY IDOCK:   -7.69 KCAL/MOL
REMARK 924 INTRA-LIGAND FREE ENERGY PREDICTED BY IDOCK:   -0.02 KCAL/MOL
REMARK 927      BINDING AFFINITY PREDICTED BY RF-SCORE:    0.00 PKD
ROOT
HETATM    1  C   UNL     1      -9.161   7.953  73.092  1.00  0.00    -0.267 C  
HETATM    2  N   UNL     1     -10.003   8.060  71.897  1.00  0.00    -0.182 N  
HETATM    3  C   UNL     1      -9.570   9.007  70.958  1.00  0.00    -0.279 C  
HETATM    4  C   UNL     1     -11.149   7.077  71.745  1.00  0.00    -0.239 C  
HETATM    5  C   UNL     1     -11.106   6.245  70.415  1.00  0.00    -0.416 C  
HETATM    6  C   UNL     1     -11.179   6.030  72.900  1.00  0.00    -0.265 C  
HETATM    7  C   UNL     1     -12.503   7.818  71.881  1.00  0.00    -0.343 C  
HETATM    8  O   UNL     1      -8.512   9.624  71.134  1.00  0.00    -0.204 OA 
ENDROOT
BRANCH   3   9
HETATM    9  C   UNL     1     -10.401   9.231  69.685  1.00  0.00    -0.217 C  
BRANCH   9  10
HETATM   10  N   UNL     1      -9.704   9.888  68.558  1.00  0.00    -0.151 NA 
BRANCH  10  11
HETATM   11  C   UNL     1      -8.488   9.152  68.167  1.00  0.00    -0.125 C  
BRANCH  11  12
HETATM   12  C   UNL     1      -7.568   9.919  67.191  1.00  0.00    -0.092 C  
HETATM   13  H   UNL     1      -5.671   9.882  66.647  1.00  0.00     0.000 HD 
HETATM   14  O   UNL     1      -6.237   9.411  67.247  1.00  0.00    -0.056 OA 
ENDBRANCH  11  12
ENDBRANCH  10  11
BRANCH  10  15
HETATM   15  C   UNL     1     -10.598  10.166  67.398  1.00  0.00    -0.272 C  
BRANCH  15  16
HETATM   16  C   UNL     1     -11.114  11.638  67.323  1.00  0.00    -0.290 C  
HETATM   17  C   UNL     1     -11.256  13.833  66.052  1.00  0.00    -0.304 C  
HETATM   18  C   UNL     1     -10.469  11.690  64.909  1.00  0.00    -0.288 C  
HETATM   19  N   UNL     1     -10.901  12.357  66.135  1.00  0.00    -0.265 N  
HETATM   20  C   UNL     1     -11.027  14.666  67.371  1.00  0.00    -0.309 C  
HETATM   21  O   UNL     1     -11.648  12.183  68.291  1.00  0.00    -0.283 OA 
HETATM   22  C   UNL     1     -10.478  14.563  64.933  1.00  0.00    -0.435 C  
HETATM   23  C   UNL     1     -12.754  13.962  65.701  1.00  0.00    -0.534 C  
BRANCH  20  24
HETATM   24  C   UNL     1      -9.641  14.713  67.981  1.00  0.00    -0.212 A  
HETATM   25  C   UNL     1      -9.122  15.960  68.361  1.00  0.00    -0.189 A  
HETATM   26  C   UNL     1      -7.880  16.055  68.992  1.00  0.00    -0.222 A  
HETATM   27  C   UNL     1      -7.149  14.904  69.275  1.00  0.00    -0.160 A  
HETATM   28  C   UNL     1      -7.656  13.662  68.928  1.00  0.00    -0.016 A  
HETATM   29  C   UNL     1      -8.880  13.568  68.275  1.00  0.00    -0.179 A  
ENDBRANCH  20  24
ENDBRANCH  15  16
ENDBRANCH  10  15
ENDBRANCH   9  10
ENDBRANCH   3   9
BRANCH   5  30
HETATM   30  C   UNL     1      -9.827   5.469  70.153  1.00  0.00    -0.261 A  
HETATM   31  C   UNL     1      -8.559   3.390  70.024  1.00  0.00    -0.109 A  
HETATM   32  C   UNL     1      -8.672   6.152  69.754  1.00  0.00    -0.135 A  
HETATM   33  C   UNL     1      -9.740   4.078  70.299  1.00  0.00    -0.263 A  
HETATM   34  C   UNL     1      -7.415   4.086  69.669  1.00  0.00    -0.053 A  
HETATM   35  C   UNL     1      -7.474   5.468  69.527  1.00  0.00    -0.070 A  
ENDBRANCH   5  30
TORSDOF 8
ENDMDL
MODEL      125
REMARK 921   NORMALIZED FREE ENERGY PREDICTED BY IDOCK:   -4.68 KCAL/MOL
REMARK 922        TOTAL FREE ENERGY PREDICTED BY IDOCK:   -7.67 KCAL/MOL
REMARK 923 INTER-LIGAND FREE ENERGY PREDICTED BY IDOCK:   -7.00 KCAL/MOL
REMARK 924 INTRA-LIGAND FREE ENERGY PREDICTED BY IDOCK:   -0.67 KCAL/MOL
REMARK 927      BINDING AFFINITY PREDICTED BY RF-SCORE:    0.00 PKD
ROOT
HETATM    1  C   UNL     1      -8.903   8.918  71.196  1.00  0.00    -0.237 C  
HETATM    2  N   UNL     1      -9.147   9.752  70.017  1.00  0.00    -0.230 N  
HETATM    3  C   UNL     1      -8.000  10.345  69.470  1.00  0.00    -0.144 C  
HETATM    4  C   UNL     1     -10.555   9.786  69.449  1.00  0.00    -0.228 C  
HETATM    5  C   UNL     1     -10.645   9.376  67.937  1.00  0.00    -0.293 C  
HETATM    6  C   UNL     1     -11.515   8.821  70.209  1.00  0.00    -0.102 C  
HETATM    7  C   UNL     1     -11.182  11.185  69.673  1.00  0.00    -0.333 C  
HETATM    8  O   UNL     1      -6.883  10.092  69.936  1.00  0.00    -0.076 OA 
ENDROOT
BRANCH   3   9
HETATM    9  C   UNL     1      -8.145  11.273  68.254  1.00  0.00    -0.137 C  
BRANCH   9  10
HETATM   10  N   UNL     1      -7.145  12.356  68.135  1.00  0.00    -0.087 NA 
BRANCH  10  11
HETATM   11  C   UNL     1      -5.906  11.882  67.491  1.00  0.00    -0.099 C  
BRANCH  11  12
HETATM   12  C   UNL     1      -6.102  10.675  66.547  1.00  0.00    -0.088 C  
HETATM   13  H   UNL     1      -6.116  10.335  64.603  1.00  0.00     0.000 HD 
HETATM   14  O   UNL     1      -5.996  11.077  65.184  1.00  0.00     0.013 OA 
ENDBRANCH  11  12
ENDBRANCH  10  11
BRANCH  10  15
HETATM   15  C   UNL     1      -7.686  13.585  67.490  1.00  0.00    -0.175 C  
BRANCH  15  16
HETATM   16  C   UNL     1      -8.585  14.457  68.424  1.00  0.00    -0.174 C  
HETATM   17  C   UNL     1     -10.846  15.511  68.905  1.00  0.00    -0.254 C  
HETATM   18  C   UNL     1     -10.585  13.690  67.135  1.00  0.00    -0.272 C  
HETATM   19  N   UNL     1      -9.951  14.567  68.117  1.00  0.00    -0.215 N  
HETATM   20  C   UNL     1     -10.171  16.854  69.381  1.00  0.00    -0.208 C  
HETATM   21  O   UNL     1      -8.110  15.079  69.377  1.00  0.00    -0.194 OA 
HETATM   22  C   UNL     1     -12.115  15.914  68.119  1.00  0.00     0.371 C  
HETATM   23  C   UNL     1     -11.331  14.783  70.178  1.00  0.00    -0.291 C  
BRANCH  20  24
HETATM   24  C   UNL     1      -9.573  17.785  68.347  1.00  0.00    -0.323 A  
HETATM   25  C   UNL     1     -10.442  18.564  67.567  1.00  0.00    -0.453 A  
HETATM   26  C   UNL     1      -9.944  19.489  66.648  1.00  0.00    -0.509 A  
HETATM   27  C   UNL     1      -8.570  19.669  66.511  1.00  0.00    -0.387 A  
HETATM   28  C   UNL     1      -7.696  18.925  67.288  1.00  0.00    -0.247 A  
HETATM   29  C   UNL     1      -8.191  17.984  68.184  1.00  0.00    -0.275 A  
ENDBRANCH  20  24
ENDBRANCH  15  16
ENDBRANCH  10  15
ENDBRANCH   9  10
ENDBRANCH   3   9
BRANCH   5  30
HETATM   30  C   UNL     1     -10.061   8.022  67.576  1.00  0.00    -0.281 A  
HETATM   31  C   UNL     1      -8.177   6.534  67.150  1.00  0.00    -0.113 A  
HETATM   32  C   UNL     1     -10.919   6.939  67.343  1.00  0.00    -0.374 A  
HETATM   33  C   UNL     1      -8.684   7.796  67.456  1.00  0.00    -0.125 A  
HETATM   34  C   UNL     1      -9.042   5.483  66.883  1.00  0.00    -0.115 A  
HETATM   35  C   UNL     1     -10.413   5.685  66.988  1.00  0.00    -0.344 A  
ENDBRANCH   5  30
TORSDOF 8
ENDMDL
MODEL      126
REMARK 921   NORMALIZED FREE ENERGY PREDICTED BY IDOCK:   -4.68 KCAL/MOL
REMARK 922        TOTAL FREE ENERGY PREDICTED BY IDOCK:   -7.67 KCAL/MOL
REMARK 923 INTER-LIGAND FREE ENERGY PREDICTED BY IDOCK:   -6.87 KCAL/MOL
REMARK 924 INTRA-LIGAND FREE ENERGY PREDICTED BY IDOCK:   -0.80 KCAL/MOL
REMARK 927      BINDING AFFINITY PREDICTED BY RF-SCORE:    0.00 PKD
ROOT
HETATM    1  C   UNL     1     -11.445   6.600  70.167  1.00  0.00    -0.385 C  
HETATM    2  N   UNL     1     -10.509   6.793  69.058  1.00  0.00    -0.194 N  
HETATM    3  C   UNL     1     -10.408   8.114  68.598  1.00  0.00    -0.200 C  
HETATM    4  C   UNL     1      -9.674   5.604  68.618  1.00  0.00    -0.137 C  
HETATM    5  C   UNL     1      -8.126   5.861  68.651  1.00  0.00    -0.103 C  
HETATM    6  C   UNL     1      -9.917   4.353  69.517  1.00  0.00    -0.187 C  
HETATM    7  C   UNL     1     -10.119   5.138  67.208  1.00  0.00    -0.235 C  
HETATM    8  O   UNL     1     -11.025   9.022  69.168  1.00  0.00    -0.140 OA 
ENDROOT
BRANCH   3   9
HETATM    9  C   UNL     1      -9.483   8.424  67.411  1.00  0.00    -0.147 C  
BRANCH   9  10
HETATM   10  N   UNL     1      -9.350   9.850  67.041  1.00  0.00    -0.145 NA 
BRANCH  10  11
HETATM   11  C   UNL     1      -7.952  10.205  66.740  1.00  0.00    -0.115 C  
BRANCH  11  12
HETATM   12  C   UNL     1      -7.631  10.296  65.231  1.00  0.00    -0.143 C  
HETATM   13  H   UNL     1      -6.027  10.280  64.082  1.00  0.00     0.000 HD 
HETATM   14  O   UNL     1      -6.225  10.225  65.009  1.00  0.00    -0.116 OA 
ENDBRANCH  11  12
ENDBRANCH  10  11
BRANCH  10  15
HETATM   15  C   UNL     1     -10.288  10.264  65.960  1.00  0.00    -0.178 C  
BRANCH  15  16
HETATM   16  C   UNL     1     -11.056  11.593  66.250  1.00  0.00    -0.290 C  
HETATM   17  C   UNL     1     -11.587  13.988  65.591  1.00  0.00    -0.331 C  
HETATM   18  C   UNL     1     -10.438  12.393  63.963  1.00  0.00    -0.416 C  
HETATM   19  N   UNL     1     -10.978  12.626  65.301  1.00  0.00    -0.280 N  
HETATM   20  C   UNL     1     -11.505  14.468  67.091  1.00  0.00    -0.383 C  
HETATM   21  O   UNL     1     -11.675  11.762  67.302  1.00  0.00    -0.546 OA 
HETATM   22  C   UNL     1     -10.954  15.111  64.737  1.00  0.00    -0.394 C  
HETATM   23  C   UNL     1     -13.086  13.948  65.221  1.00  0.00    -0.205 C  
BRANCH  20  24
HETATM   24  C   UNL     1     -10.147  14.588  67.753  1.00  0.00    -0.225 A  
HETATM   25  C   UNL     1      -9.900  15.699  68.573  1.00  0.00    -0.205 A  
HETATM   26  C   UNL     1      -8.693  15.825  69.263  1.00  0.00    -0.261 A  
HETATM   27  C   UNL     1      -7.723  14.831  69.162  1.00  0.00    -0.144 A  
HETATM   28  C   UNL     1      -7.957  13.716  68.374  1.00  0.00    -0.147 A  
HETATM   29  C   UNL     1      -9.148  13.603  67.666  1.00  0.00    -0.207 A  
ENDBRANCH  20  24
ENDBRANCH  15  16
ENDBRANCH  10  15
ENDBRANCH   9  10
ENDBRANCH   3   9
BRANCH   5  30
HETATM   30  C   UNL     1      -7.555   6.327  69.978  1.00  0.00    -0.096 A  
HETATM   31  C   UNL     1      -6.858   5.929  72.281  1.00  0.00    -0.073 A  
HETATM   32  C   UNL     1      -7.151   7.660  70.128  1.00  0.00    -0.059 A  
HETATM   33  C   UNL     1      -7.412   5.478  71.084  1.00  0.00    -0.086 A  
HETATM   34  C   UNL     1      -6.501   7.261  72.424  1.00  0.00    -0.051 A  
HETATM   35  C   UNL     1      -6.640   8.124  71.344  1.00  0.00    -0.047 A  
ENDBRANCH   5  30
TORSDOF 8
ENDMDL
MODEL      127
REMARK 921   NORMALIZED FREE ENERGY PREDICTED BY IDOCK:   -4.67 KCAL/MOL
REMARK 922        TOTAL FREE ENERGY PREDICTED BY IDOCK:   -7.66 KCAL/MOL
REMARK 923 INTER-LIGAND FREE ENERGY PREDICTED BY IDOCK:   -7.38 KCAL/MOL
REMARK 924 INTRA-LIGAND FREE ENERGY PREDICTED BY IDOCK:   -0.28 KCAL/MOL
REMARK 927      BINDING AFFINITY PREDICTED BY RF-SCORE:    0.00 PKD
ROOT
HETATM    1  C   UNL     1     -10.659  18.548  65.993  1.00  0.00    -0.331 C  
HETATM    2  N   UNL     1      -9.955  17.676  66.935  1.00  0.00    -0.308 N  
HETATM    3  C   UNL     1      -9.635  16.407  66.432  1.00  0.00    -0.288 C  
HETATM    4  C   UNL     1      -9.544  18.261  68.274  1.00  0.00    -0.318 C  
HETATM    5  C   UNL     1      -8.007  18.150  68.575  1.00  0.00    -0.312 C  
HETATM    6  C   UNL     1      -9.889  19.778  68.380  1.00  0.00    -0.522 C  
HETATM    7  C   UNL     1     -10.371  17.612  69.412  1.00  0.00    -0.006 C  
HETATM    8  O   UNL     1      -9.881  16.121  65.254  1.00  0.00    -0.452 OA 
ENDROOT
BRANCH   3   9
HETATM    9  C   UNL     1      -8.930  15.395  67.349  1.00  0.00    -0.191 C  
BRANCH   9  10
HETATM   10  N   UNL     1      -9.714  14.201  67.730  1.00  0.00    -0.219 NA 
BRANCH  10  11
HETATM   11  C   UNL     1     -11.081  14.559  68.150  1.00  0.00    -0.266 C  
BRANCH  11  12
HETATM   12  C   UNL     1     -11.648  13.679  69.287  1.00  0.00    -0.311 C  
HETATM   13  H   UNL     1     -12.968  13.855  70.743  1.00  0.00     0.000 HD 
HETATM   14  O   UNL     1     -12.619  14.396  70.044  1.00  0.00    -0.330 OA 
ENDBRANCH  11  12
ENDBRANCH  10  11
BRANCH  10  15
HETATM   15  C   UNL     1      -9.701  13.135  66.688  1.00  0.00    -0.261 C  
BRANCH  15  16
HETATM   16  C   UNL     1      -8.493  12.151  66.791  1.00  0.00    -0.138 C  
HETATM   17  C   UNL     1      -7.313  10.058  65.965  1.00  0.00    -0.112 C  
HETATM   18  C   UNL     1      -9.199  11.131  64.621  1.00  0.00    -0.119 C  
HETATM   19  N   UNL     1      -8.386  11.127  65.835  1.00  0.00    -0.123 N  
HETATM   20  C   UNL     1      -6.964   9.617  67.438  1.00  0.00    -0.084 C  
HETATM   21  O   UNL     1      -7.678  12.227  67.713  1.00  0.00    -0.117 OA 
HETATM   22  C   UNL     1      -7.673   8.766  65.195  1.00  0.00    -0.103 C  
HETATM   23  C   UNL     1      -6.005  10.592  65.341  1.00  0.00    -0.129 C  
BRANCH  20  24
HETATM   24  C   UNL     1      -8.063   9.063  68.322  1.00  0.00    -0.109 A  
HETATM   25  C   UNL     1      -7.699   8.395  69.501  1.00  0.00    -0.096 A  
HETATM   26  C   UNL     1      -8.671   7.926  70.387  1.00  0.00    -0.137 A  
HETATM   27  C   UNL     1     -10.020   8.139  70.121  1.00  0.00    -0.187 A  
HETATM   28  C   UNL     1     -10.399   8.816  68.973  1.00  0.00    -0.227 A  
HETATM   29  C   UNL     1      -9.433   9.260  68.077  1.00  0.00    -0.152 A  
ENDBRANCH  20  24
ENDBRANCH  15  16
ENDBRANCH  10  15
ENDBRANCH   9  10
ENDBRANCH   3   9
BRANCH   5  30
HETATM   30  C   UNL     1      -7.077  18.747  67.534  1.00  0.00    -0.216 A  
HETATM   31  C   UNL     1      -6.135  18.835  65.287  1.00  0.00    -0.314 A  
HETATM   32  C   UNL     1      -6.270  19.840  67.873  1.00  0.00    -0.248 A  
HETATM   33  C   UNL     1      -6.978  18.248  66.229  1.00  0.00    -0.284 A  
HETATM   34  C   UNL     1      -5.313  19.891  65.651  1.00  0.00    -0.180 A  
HETATM   35  C   UNL     1      -5.387  20.398  66.943  1.00  0.00    -0.190 A  
ENDBRANCH   5  30
TORSDOF 8
ENDMDL
MODEL      128
REMARK 921   NORMALIZED FREE ENERGY PREDICTED BY IDOCK:   -4.67 KCAL/MOL
REMARK 922        TOTAL FREE ENERGY PREDICTED BY IDOCK:   -7.65 KCAL/MOL
REMARK 923 INTER-LIGAND FREE ENERGY PREDICTED BY IDOCK:   -7.36 KCAL/MOL
REMARK 924 INTRA-LIGAND FREE ENERGY PREDICTED BY IDOCK:   -0.30 KCAL/MOL
REMARK 927      BINDING AFFINITY PREDICTED BY RF-SCORE:    0.00 PKD
ROOT
HETATM    1  C   UNL     1      -8.339  13.984  67.222  1.00  0.00    -0.194 C  
HETATM    2  N   UNL     1      -9.481  13.084  67.396  1.00  0.00    -0.203 N  
HETATM    3  C   UNL     1      -9.248  11.998  68.250  1.00  0.00    -0.192 C  
HETATM    4  C   UNL     1     -10.800  13.478  66.754  1.00  0.00    -0.282 C  
HETATM    5  C   UNL     1     -11.999  13.571  67.762  1.00  0.00    -0.369 C  
HETATM    6  C   UNL     1     -10.719  14.872  66.060  1.00  0.00    -0.326 C  
HETATM    7  C   UNL     1     -11.135  12.506  65.595  1.00  0.00    -0.338 C  
HETATM    8  O   UNL     1      -8.169  11.892  68.847  1.00  0.00    -0.050 OA 
ENDROOT
BRANCH   3   9
HETATM    9  C   UNL     1     -10.367  10.968  68.474  1.00  0.00    -0.190 C  
BRANCH   9  10
HETATM   10  N   UNL     1      -9.953   9.549  68.499  1.00  0.00    -0.162 NA 
BRANCH  10  11
HETATM   11  C   UNL     1      -9.363   9.131  67.215  1.00  0.00    -0.135 C  
BRANCH  11  12
HETATM   12  C   UNL     1      -9.897   7.784  66.678  1.00  0.00    -0.225 C  
HETATM   13  H   UNL     1     -11.516   6.675  66.883  1.00  0.00     0.000 HD 
HETATM   14  O   UNL     1     -11.188   7.503  67.212  1.00  0.00    -0.069 OA 
ENDBRANCH  11  12
ENDBRANCH  10  11
BRANCH  10  15
HETATM   15  C   UNL     1      -9.081   9.214  69.660  1.00  0.00    -0.160 C  
BRANCH  15  16
HETATM   16  C   UNL     1      -9.683   8.149  70.630  1.00  0.00    -0.170 C  
HETATM   17  C   UNL     1      -9.416   6.672  72.680  1.00  0.00    -0.142 C  
HETATM   18  C   UNL     1      -7.796   8.588  72.210  1.00  0.00    -0.063 C  
HETATM   19  N   UNL     1      -8.947   7.800  71.775  1.00  0.00    -0.119 N  
HETATM   20  C   UNL     1     -10.112   5.458  71.955  1.00  0.00    -0.246 C  
HETATM   21  O   UNL     1     -10.751   7.584  70.382  1.00  0.00    -0.229 OA 
HETATM   22  C   UNL     1      -8.264   6.076  73.523  1.00  0.00    -0.109 C  
HETATM   23  C   UNL     1     -10.446   7.238  73.682  1.00  0.00    -0.391 C  
BRANCH  20  24
HETATM   24  C   UNL     1      -9.348   4.701  70.886  1.00  0.00    -0.214 A  
HETATM   25  C   UNL     1     -10.014   4.373  69.696  1.00  0.00    -0.209 A  
HETATM   26  C   UNL     1      -9.339   3.738  68.651  1.00  0.00    -0.226 A  
HETATM   27  C   UNL     1      -7.984   3.445  68.769  1.00  0.00    -0.067 A  
HETATM   28  C   UNL     1      -7.304   3.782  69.929  1.00  0.00    -0.042 A  
HETATM   29  C   UNL     1      -7.980   4.389  70.980  1.00  0.00    -0.072 A  
ENDBRANCH  20  24
ENDBRANCH  15  16
ENDBRANCH  10  15
ENDBRANCH   9  10
ENDBRANCH   3   9
BRANCH   5  30
HETATM   30  C   UNL     1     -11.802  14.491  68.953  1.00  0.00    -0.359 A  
HETATM   31  C   UNL     1     -11.041  16.579  69.958  1.00  0.00    -0.217 A  
HETATM   32  C   UNL     1     -12.245  14.090  70.220  1.00  0.00    -0.430 A  
HETATM   33  C   UNL     1     -11.183  15.744  68.850  1.00  0.00    -0.332 A  
HETATM   34  C   UNL     1     -11.449  16.148  71.211  1.00  0.00    -0.433 A  
HETATM   35  C   UNL     1     -12.059  14.906  71.339  1.00  0.00    -0.392 A  
ENDBRANCH   5  30
TORSDOF 8
ENDMDL
MODEL      129
REMARK 921   NORMALIZED FREE ENERGY PREDICTED BY IDOCK:   -4.66 KCAL/MOL
REMARK 922        TOTAL FREE ENERGY PREDICTED BY IDOCK:   -7.64 KCAL/MOL
REMARK 923 INTER-LIGAND FREE ENERGY PREDICTED BY IDOCK:   -6.92 KCAL/MOL
REMARK 924 INTRA-LIGAND FREE ENERGY PREDICTED BY IDOCK:   -0.72 KCAL/MOL
REMARK 927      BINDING AFFINITY PREDICTED BY RF-SCORE:    0.00 PKD
ROOT
HETATM    1  C   UNL     1      -8.367  13.661  67.498  1.00  0.00    -0.188 C  
HETATM    2  N   UNL     1      -9.536  12.778  67.476  1.00  0.00    -0.182 N  
HETATM    3  C   UNL     1      -9.378  11.578  68.183  1.00  0.00    -0.185 C  
HETATM    4  C   UNL     1     -10.803  13.293  66.817  1.00  0.00    -0.281 C  
HETATM    5  C   UNL     1     -12.062  13.279  67.754  1.00  0.00    -0.281 C  
HETATM    6  C   UNL     1     -10.652  14.767  66.330  1.00  0.00    -0.306 C  
HETATM    7  C   UNL     1     -11.083  12.499  65.515  1.00  0.00    -0.336 C  
HETATM    8  O   UNL     1      -8.342  11.361  68.823  1.00  0.00    -0.150 OA 
ENDROOT
BRANCH   3   9
HETATM    9  C   UNL     1     -10.528  10.559  68.193  1.00  0.00    -0.186 C  
BRANCH   9  10
HETATM   10  N   UNL     1     -10.329   9.358  69.033  1.00  0.00    -0.205 NA 
BRANCH  10  11
HETATM   11  C   UNL     1     -11.352   9.257  70.089  1.00  0.00    -0.164 C  
BRANCH  11  12
HETATM   12  C   UNL     1     -10.785   9.266  71.526  1.00  0.00    -0.355 C  
HETATM   13  H   UNL     1      -9.014   9.361  72.391  1.00  0.00     0.000 HD 
HETATM   14  O   UNL     1      -9.363   9.355  71.507  1.00  0.00    -0.271 OA 
ENDBRANCH  11  12
ENDBRANCH  10  11
BRANCH  10  15
HETATM   15  C   UNL     1     -10.206   8.103  68.239  1.00  0.00    -0.206 C  
BRANCH  15  16
HETATM   16  C   UNL     1      -8.734   7.654  67.970  1.00  0.00    -0.125 C  
HETATM   17  C   UNL     1      -6.861   7.213  66.312  1.00  0.00    -0.057 C  
HETATM   18  C   UNL     1      -8.948   8.518  65.634  1.00  0.00    -0.160 C  
HETATM   19  N   UNL     1      -8.235   7.762  66.661  1.00  0.00    -0.120 N  
HETATM   20  C   UNL     1      -6.439   5.896  67.067  1.00  0.00    -0.050 C  
HETATM   21  O   UNL     1      -8.036   7.169  68.863  1.00  0.00    -0.118 OA 
HETATM   22  C   UNL     1      -6.712   6.919  64.801  1.00  0.00    -0.043 C  
HETATM   23  C   UNL     1      -5.800   8.281  66.657  1.00  0.00    -0.044 C  
BRANCH  20  24
HETATM   24  C   UNL     1      -7.308   4.661  66.937  1.00  0.00    -0.081 A  
HETATM   25  C   UNL     1      -7.011   3.548  67.738  1.00  0.00    -0.051 A  
HETATM   26  C   UNL     1      -7.820   2.410  67.710  1.00  0.00    -0.060 A  
HETATM   27  C   UNL     1      -8.952   2.376  66.900  1.00  0.00    -0.150 A  
HETATM   28  C   UNL     1      -9.274   3.474  66.119  1.00  0.00    -0.173 A  
HETATM   29  C   UNL     1      -8.455   4.597  66.126  1.00  0.00    -0.114 A  
ENDBRANCH  20  24
ENDBRANCH  15  16
ENDBRANCH  10  15
ENDBRANCH   9  10
ENDBRANCH   3   9
BRANCH   5  30
HETATM   30  C   UNL     1     -11.923  14.021  69.071  1.00  0.00    -0.392 A  
HETATM   31  C   UNL     1     -12.216  14.194  71.486  1.00  0.00    -0.340 A  
HETATM   32  C   UNL     1     -11.317  15.284  69.094  1.00  0.00    -0.307 A  
HETATM   33  C   UNL     1     -12.383  13.501  70.288  1.00  0.00    -0.370 A  
HETATM   34  C   UNL     1     -11.650  15.460  71.484  1.00  0.00    -0.475 A  
HETATM   35  C   UNL     1     -11.194  16.001  70.288  1.00  0.00    -0.397 A  
ENDBRANCH   5  30
TORSDOF 8
ENDMDL
MODEL      130
REMARK 921   NORMALIZED FREE ENERGY PREDICTED BY IDOCK:   -4.65 KCAL/MOL
REMARK 922        TOTAL FREE ENERGY PREDICTED BY IDOCK:   -7.63 KCAL/MOL
REMARK 923 INTER-LIGAND FREE ENERGY PREDICTED BY IDOCK:   -5.12 KCAL/MOL
REMARK 924 INTRA-LIGAND FREE ENERGY PREDICTED BY IDOCK:   -2.51 KCAL/MOL
REMARK 927      BINDING AFFINITY PREDICTED BY RF-SCORE:    0.00 PKD
ROOT
HETATM    1  C   UNL     1      -9.124   2.719  65.283  1.00  0.00    -0.148 C  
HETATM    2  N   UNL     1      -8.362   3.882  65.742  1.00  0.00    -0.108 N  
HETATM    3  C   UNL     1      -9.132   5.027  65.990  1.00  0.00    -0.146 C  
HETATM    4  C   UNL     1      -6.880   3.699  66.015  1.00  0.00    -0.060 C  
HETATM    5  C   UNL     1      -6.444   4.096  67.469  1.00  0.00    -0.038 C  
HETATM    6  C   UNL     1      -6.430   2.217  65.826  1.00  0.00    -0.024 C  
HETATM    7  C   UNL     1      -6.048   4.476  64.963  1.00  0.00    -0.026 C  
HETATM    8  O   UNL     1     -10.365   4.986  65.889  1.00  0.00    -0.219 OA 
ENDROOT
BRANCH   3   9
HETATM    9  C   UNL     1      -8.430   6.319  66.439  1.00  0.00    -0.125 C  
BRANCH   9  10
HETATM   10  N   UNL     1      -8.732   6.784  67.809  1.00  0.00    -0.120 NA 
BRANCH  10  11
HETATM   11  C   UNL     1      -7.728   7.753  68.287  1.00  0.00    -0.119 C  
BRANCH  11  12
HETATM   12  C   UNL     1      -7.283   8.782  67.225  1.00  0.00    -0.080 C  
HETATM   13  H   UNL     1      -7.452  10.724  66.919  1.00  0.00     0.000 HD 
HETATM   14  O   UNL     1      -7.726  10.091  67.572  1.00  0.00    -0.091 OA 
ENDBRANCH  11  12
ENDBRANCH  10  11
BRANCH  10  15
HETATM   15  C   UNL     1     -10.126   7.287  67.963  1.00  0.00    -0.172 C  
BRANCH  15  16
HETATM   16  C   UNL     1     -10.844   6.801  69.262  1.00  0.00    -0.264 C  
HETATM   17  C   UNL     1     -11.648   7.295  71.621  1.00  0.00    -0.274 C  
HETATM   18  C   UNL     1     -10.923   9.172  70.050  1.00  0.00    -0.220 C  
HETATM   19  N   UNL     1     -11.080   7.738  70.282  1.00  0.00    -0.255 N  
HETATM   20  C   UNL     1     -11.175   5.880  72.129  1.00  0.00    -0.342 C  
HETATM   21  O   UNL     1     -11.153   5.618  69.422  1.00  0.00    -0.294 OA 
HETATM   22  C   UNL     1     -11.330   8.297  72.756  1.00  0.00    -0.332 C  
HETATM   23  C   UNL     1     -13.187   7.234  71.509  1.00  0.00    -0.434 C  
BRANCH  20  24
HETATM   24  C   UNL     1      -9.694   5.623  72.320  1.00  0.00    -0.177 A  
HETATM   25  C   UNL     1      -9.295   4.740  73.335  1.00  0.00    -0.129 A  
HETATM   26  C   UNL     1      -7.949   4.413  73.510  1.00  0.00    -0.094 A  
HETATM   27  C   UNL     1      -6.984   4.943  72.658  1.00  0.00    -0.076 A  
HETATM   28  C   UNL     1      -7.361   5.799  71.636  1.00  0.00    -0.092 A  
HETATM   29  C   UNL     1      -8.698   6.147  71.478  1.00  0.00    -0.135 A  
ENDBRANCH  20  24
ENDBRANCH  15  16
ENDBRANCH  10  15
ENDBRANCH   9  10
ENDBRANCH   3   9
BRANCH   5  30
HETATM   30  C   UNL     1      -7.184   3.408  68.601  1.00  0.00    -0.050 A  
HETATM   31  C   UNL     1      -9.223   2.860  69.821  1.00  0.00    -0.213 A  
HETATM   32  C   UNL     1      -6.473   2.618  69.514  1.00  0.00    -0.029 A  
HETATM   33  C   UNL     1      -8.568   3.527  68.787  1.00  0.00    -0.120 A  
HETATM   34  C   UNL     1      -8.499   2.115  70.739  1.00  0.00    -0.085 A  
HETATM   35  C   UNL     1      -7.124   1.989  70.580  1.00  0.00    -0.033 A  
ENDBRANCH   5  30
TORSDOF 8
ENDMDL
MODEL      131
REMARK 921   NORMALIZED FREE ENERGY PREDICTED BY IDOCK:   -4.62 KCAL/MOL
REMARK 922        TOTAL FREE ENERGY PREDICTED BY IDOCK:   -7.59 KCAL/MOL
REMARK 923 INTER-LIGAND FREE ENERGY PREDICTED BY IDOCK:   -6.69 KCAL/MOL
REMARK 924 INTRA-LIGAND FREE ENERGY PREDICTED BY IDOCK:   -0.90 KCAL/MOL
REMARK 927      BINDING AFFINITY PREDICTED BY RF-SCORE:    0.00 PKD
ROOT
HETATM    1  C   UNL     1      -6.373   6.361  70.904  1.00  0.00    -0.047 C  
HETATM    2  N   UNL     1      -7.374   7.313  70.418  1.00  0.00    -0.077 N  
HETATM    3  C   UNL     1      -8.061   6.905  69.266  1.00  0.00    -0.120 C  
HETATM    4  C   UNL     1      -7.646   8.548  71.257  1.00  0.00    -0.101 C  
HETATM    5  C   UNL     1      -9.149   8.718  71.677  1.00  0.00    -0.314 C  
HETATM    6  C   UNL     1      -6.832   8.543  72.587  1.00  0.00    -0.069 C  
HETATM    7  C   UNL     1      -7.140   9.813  70.518  1.00  0.00    -0.130 C  
HETATM    8  O   UNL     1      -7.857   5.786  68.779  1.00  0.00    -0.095 OA 
ENDROOT
BRANCH   3   9
HETATM    9  C   UNL     1      -9.108   7.845  68.647  1.00  0.00    -0.136 C  
BRANCH   9  10
HETATM   10  N   UNL     1      -8.940   8.154  67.210  1.00  0.00    -0.136 NA 
BRANCH  10  11
HETATM   11  C   UNL     1     -10.159   7.844  66.442  1.00  0.00    -0.079 C  
BRANCH  11  12
HETATM   12  C   UNL     1     -11.076   6.791  67.103  1.00  0.00    -0.333 C  
HETATM   13  H   UNL     1     -11.393   4.847  66.970  1.00  0.00     0.000 HD 
HETATM   14  O   UNL     1     -10.829   5.495  66.564  1.00  0.00    -0.288 OA 
ENDBRANCH  11  12
ENDBRANCH  10  11
BRANCH  10  15
HETATM   15  C   UNL     1      -8.448   9.538  66.962  1.00  0.00    -0.128 C  
BRANCH  15  16
HETATM   16  C   UNL     1      -9.576  10.615  66.878  1.00  0.00    -0.171 C  
HETATM   17  C   UNL     1     -10.653  12.547  65.630  1.00  0.00    -0.269 C  
HETATM   18  C   UNL     1      -8.929  11.040  64.501  1.00  0.00    -0.055 C  
HETATM   19  N   UNL     1      -9.667  11.393  65.712  1.00  0.00    -0.224 N  
HETATM   20  C   UNL     1     -10.883  13.346  66.969  1.00  0.00    -0.280 C  
HETATM   21  O   UNL     1     -10.338  10.823  67.825  1.00  0.00    -0.177 OA 
HETATM   22  C   UNL     1     -10.250  13.591  64.561  1.00  0.00    -0.296 C  
HETATM   23  C   UNL     1     -12.030  11.992  65.203  1.00  0.00    -0.230 C  
BRANCH  20  24
HETATM   24  C   UNL     1      -9.698  13.999  67.651  1.00  0.00    -0.228 A  
HETATM   25  C   UNL     1      -9.940  14.859  68.732  1.00  0.00    -0.228 A  
HETATM   26  C   UNL     1      -8.883  15.433  69.441  1.00  0.00    -0.251 A  
HETATM   27  C   UNL     1      -7.567  15.135  69.097  1.00  0.00    -0.188 A  
HETATM   28  C   UNL     1      -7.308  14.270  68.046  1.00  0.00    -0.145 A  
HETATM   29  C   UNL     1      -8.360  13.720  67.322  1.00  0.00    -0.186 A  
ENDBRANCH  20  24
ENDBRANCH  15  16
ENDBRANCH  10  15
ENDBRANCH   9  10
ENDBRANCH   3   9
BRANCH   5  30
HETATM   30  C   UNL     1      -9.775   7.546  72.411  1.00  0.00    -0.208 A  
HETATM   31  C   UNL     1     -10.113   6.190  74.409  1.00  0.00    -0.337 A  
HETATM   32  C   UNL     1     -10.662   6.699  71.734  1.00  0.00    -0.257 A  
HETATM   33  C   UNL     1      -9.501   7.258  73.754  1.00  0.00    -0.313 A  
HETATM   34  C   UNL     1     -10.958   5.338  73.713  1.00  0.00    -0.259 A  
HETATM   35  C   UNL     1     -11.238   5.599  72.376  1.00  0.00    -0.336 A  
ENDBRANCH   5  30
TORSDOF 8
ENDMDL
MODEL      132
REMARK 921   NORMALIZED FREE ENERGY PREDICTED BY IDOCK:   -4.62 KCAL/MOL
REMARK 922        TOTAL FREE ENERGY PREDICTED BY IDOCK:   -7.59 KCAL/MOL
REMARK 923 INTER-LIGAND FREE ENERGY PREDICTED BY IDOCK:   -7.21 KCAL/MOL
REMARK 924 INTRA-LIGAND FREE ENERGY PREDICTED BY IDOCK:   -0.37 KCAL/MOL
REMARK 927      BINDING AFFINITY PREDICTED BY RF-SCORE:    0.00 PKD
ROOT
HETATM    1  C   UNL     1     -12.276  13.523  68.794  1.00  0.00    -0.143 C  
HETATM    2  N   UNL     1     -10.901  13.098  68.522  1.00  0.00    -0.255 N  
HETATM    3  C   UNL     1     -10.630  11.758  68.830  1.00  0.00    -0.206 C  
HETATM    4  C   UNL     1      -9.975  14.086  67.836  1.00  0.00    -0.237 C  
HETATM    5  C   UNL     1      -9.340  13.550  66.505  1.00  0.00    -0.227 C  
HETATM    6  C   UNL     1     -10.708  15.409  67.456  1.00  0.00    -0.295 C  
HETATM    7  C   UNL     1      -8.869  14.546  68.821  1.00  0.00    -0.153 C  
HETATM    8  O   UNL     1     -11.534  11.012  69.226  1.00  0.00    -0.246 OA 
ENDROOT
BRANCH   3   9
HETATM    9  C   UNL     1      -9.207  11.215  68.620  1.00  0.00    -0.171 C  
BRANCH   9  10
HETATM   10  N   UNL     1      -8.976   9.814  69.031  1.00  0.00    -0.145 NA 
BRANCH  10  11
HETATM   11  C   UNL     1      -7.552   9.445  68.926  1.00  0.00    -0.075 C  
BRANCH  11  12
HETATM   12  C   UNL     1      -6.598  10.360  69.726  1.00  0.00    -0.103 C  
HETATM   13  H   UNL     1      -4.891  10.184  70.700  1.00  0.00     0.000 HD 
HETATM   14  O   UNL     1      -5.478   9.622  70.208  1.00  0.00    -0.037 OA 
ENDBRANCH  11  12
ENDBRANCH  10  11
BRANCH  10  15
HETATM   15  C   UNL     1      -9.548   9.493  70.369  1.00  0.00    -0.269 C  
BRANCH  15  16
HETATM   16  C   UNL     1     -10.086   8.033  70.504  1.00  0.00    -0.192 C  
HETATM   17  C   UNL     1      -9.702   5.631  71.236  1.00  0.00    -0.167 C  
HETATM   18  C   UNL     1      -8.151   7.510  71.999  1.00  0.00    -0.098 C  
HETATM   19  N   UNL     1      -9.297   7.096  71.193  1.00  0.00    -0.157 N  
HETATM   20  C   UNL     1     -10.393   5.074  69.934  1.00  0.00    -0.298 C  
HETATM   21  O   UNL     1     -11.147   7.687  69.981  1.00  0.00    -0.254 OA 
HETATM   22  C   UNL     1      -8.503   4.698  71.529  1.00  0.00    -0.117 C  
HETATM   23  C   UNL     1     -10.706   5.430  72.392  1.00  0.00    -0.286 C  
BRANCH  20  24
HETATM   24  C   UNL     1      -9.652   5.152  68.615  1.00  0.00    -0.194 A  
HETATM   25  C   UNL     1     -10.319   4.746  67.449  1.00  0.00    -0.079 A  
HETATM   26  C   UNL     1      -9.708   4.862  66.198  1.00  0.00    -0.200 A  
HETATM   27  C   UNL     1      -8.432   5.408  66.091  1.00  0.00    -0.120 A  
HETATM   28  C   UNL     1      -7.766   5.835  67.229  1.00  0.00    -0.101 A  
HETATM   29  C   UNL     1      -8.362   5.695  68.477  1.00  0.00    -0.106 A  
ENDBRANCH  20  24
ENDBRANCH  15  16
ENDBRANCH  10  15
ENDBRANCH   9  10
ENDBRANCH   3   9
BRANCH   5  30
HETATM   30  C   UNL     1     -10.316  13.063  65.448  1.00  0.00    -0.313 A  
HETATM   31  C   UNL     1     -11.393  11.290  64.167  1.00  0.00    -0.126 A  
HETATM   32  C   UNL     1     -11.104  13.989  64.753  1.00  0.00    -0.391 A  
HETATM   33  C   UNL     1     -10.469  11.709  65.123  1.00  0.00    -0.329 A  
HETATM   34  C   UNL     1     -12.136  12.223  63.461  1.00  0.00    -0.649 A  
HETATM   35  C   UNL     1     -11.996  13.573  63.760  1.00  0.00    -0.475 A  
ENDBRANCH   5  30
TORSDOF 8
ENDMDL
MODEL      133
REMARK 921   NORMALIZED FREE ENERGY PREDICTED BY IDOCK:   -4.62 KCAL/MOL
REMARK 922        TOTAL FREE ENERGY PREDICTED BY IDOCK:   -7.58 KCAL/MOL
REMARK 923 INTER-LIGAND FREE ENERGY PREDICTED BY IDOCK:   -7.89 KCAL/MOL
REMARK 924 INTRA-LIGAND FREE ENERGY PREDICTED BY IDOCK:    0.31 KCAL/MOL
REMARK 927      BINDING AFFINITY PREDICTED BY RF-SCORE:    0.00 PKD
ROOT
HETATM    1  C   UNL     1      -6.921   5.979  69.854  1.00  0.00    -0.070 C  
HETATM    2  N   UNL     1      -7.440   7.319  70.137  1.00  0.00    -0.086 N  
HETATM    3  C   UNL     1      -8.230   7.870  69.118  1.00  0.00    -0.132 C  
HETATM    4  C   UNL     1      -7.183   7.904  71.514  1.00  0.00    -0.067 C  
HETATM    5  C   UNL     1      -8.484   8.330  72.282  1.00  0.00    -0.248 C  
HETATM    6  C   UNL     1      -6.448   6.896  72.450  1.00  0.00    -0.057 C  
HETATM    7  C   UNL     1      -6.198   9.096  71.407  1.00  0.00    -0.078 C  
HETATM    8  O   UNL     1      -8.502   7.206  68.110  1.00  0.00    -0.122 OA 
ENDROOT
BRANCH   3   9
HETATM    9  C   UNL     1      -8.793   9.289  69.293  1.00  0.00    -0.146 C  
BRANCH   9  10
HETATM   10  N   UNL     1     -10.242   9.451  69.045  1.00  0.00    -0.198 NA 
BRANCH  10  11
HETATM   11  C   UNL     1     -10.792  10.610  69.772  1.00  0.00    -0.261 C  
BRANCH  11  12
HETATM   12  C   UNL     1     -11.571  10.243  71.055  1.00  0.00    -0.343 C  
HETATM   13  H   UNL     1     -13.227   9.280  71.526  1.00  0.00     0.000 HD 
HETATM   14  O   UNL     1     -12.748   9.505  70.738  1.00  0.00    -0.203 OA 
ENDBRANCH  11  12
ENDBRANCH  10  11
BRANCH  10  15
HETATM   15  C   UNL     1     -10.589   9.473  67.596  1.00  0.00    -0.269 C  
BRANCH  15  16
HETATM   16  C   UNL     1     -11.225  10.814  67.107  1.00  0.00    -0.147 C  
HETATM   17  C   UNL     1     -11.212  12.764  65.480  1.00  0.00    -0.294 C  
HETATM   18  C   UNL     1      -9.849  10.654  65.027  1.00  0.00    -0.293 C  
HETATM   19  N   UNL     1     -10.729  11.394  65.928  1.00  0.00    -0.267 N  
HETATM   20  C   UNL     1     -11.520  13.791  66.635  1.00  0.00    -0.362 C  
HETATM   21  O   UNL     1     -12.103  11.384  67.759  1.00  0.00    -0.637 OA 
HETATM   22  C   UNL     1     -10.207  13.461  64.532  1.00  0.00    -0.321 C  
HETATM   23  C   UNL     1     -12.521  12.590  64.681  1.00  0.00    -0.539 C  
BRANCH  20  24
HETATM   24  C   UNL     1     -10.420  14.154  67.613  1.00  0.00    -0.245 A  
HETATM   25  C   UNL     1      -9.127  13.662  67.376  1.00  0.00    -0.222 A  
HETATM   26  C   UNL     1      -8.063  14.020  68.205  1.00  0.00    -0.151 A  
HETATM   27  C   UNL     1      -8.267  14.895  69.268  1.00  0.00    -0.124 A  
HETATM   28  C   UNL     1      -9.532  15.409  69.504  1.00  0.00    -0.250 A  
HETATM   29  C   UNL     1     -10.598  15.032  68.696  1.00  0.00    -0.237 A  
ENDBRANCH  20  24
ENDBRANCH  15  16
ENDBRANCH  10  15
ENDBRANCH   9  10
ENDBRANCH   3   9
BRANCH   5  30
HETATM   30  C   UNL     1      -9.540   7.253  72.456  1.00  0.00    -0.186 A  
HETATM   31  C   UNL     1     -11.391   5.899  71.627  1.00  0.00    -0.272 A  
HETATM   32  C   UNL     1      -9.630   6.562  73.671  1.00  0.00    -0.193 A  
HETATM   33  C   UNL     1     -10.450   6.912  71.447  1.00  0.00    -0.230 A  
HETATM   34  C   UNL     1     -11.492   5.253  72.850  1.00  0.00    -0.339 A  
HETATM   35  C   UNL     1     -10.606   5.580  73.869  1.00  0.00    -0.304 A  
ENDBRANCH   5  30
TORSDOF 8
ENDMDL
MODEL      134
REMARK 921   NORMALIZED FREE ENERGY PREDICTED BY IDOCK:   -4.60 KCAL/MOL
REMARK 922        TOTAL FREE ENERGY PREDICTED BY IDOCK:   -7.56 KCAL/MOL
REMARK 923 INTER-LIGAND FREE ENERGY PREDICTED BY IDOCK:   -6.69 KCAL/MOL
REMARK 924 INTRA-LIGAND FREE ENERGY PREDICTED BY IDOCK:   -0.87 KCAL/MOL
REMARK 927      BINDING AFFINITY PREDICTED BY RF-SCORE:    0.00 PKD
ROOT
HETATM    1  C   UNL     1      -6.492   8.926  66.390  1.00  0.00    -0.066 C  
HETATM    2  N   UNL     1      -7.865   9.271  66.765  1.00  0.00    -0.104 N  
HETATM    3  C   UNL     1      -8.677   9.687  65.700  1.00  0.00    -0.141 C  
HETATM    4  C   UNL     1      -8.292   9.029  68.201  1.00  0.00    -0.121 C  
HETATM    5  C   UNL     1      -9.550   8.103  68.348  1.00  0.00    -0.155 C  
HETATM    6  C   UNL     1      -7.165   8.352  69.041  1.00  0.00    -0.070 C  
HETATM    7  C   UNL     1      -8.525  10.383  68.919  1.00  0.00    -0.144 C  
HETATM    8  O   UNL     1      -8.244   9.673  64.541  1.00  0.00    -0.132 OA 
ENDROOT
BRANCH   3   9
HETATM    9  C   UNL     1     -10.126  10.111  65.985  1.00  0.00    -0.248 C  
BRANCH   9  10
HETATM   10  N   UNL     1     -10.380  11.566  66.052  1.00  0.00    -0.238 NA 
BRANCH  10  11
HETATM   11  C   UNL     1     -10.432  12.170  64.708  1.00  0.00    -0.294 C  
BRANCH  11  12
HETATM   12  C   UNL     1     -11.660  11.750  63.870  1.00  0.00    -0.377 C  
HETATM   13  H   UNL     1     -13.155  12.635  62.933  1.00  0.00     0.000 HD 
HETATM   14  O   UNL     1     -12.400  12.893  63.449  1.00  0.00    -0.653 OA 
ENDBRANCH  11  12
ENDBRANCH  10  11
BRANCH  10  15
HETATM   15  C   UNL     1     -11.569  11.916  66.879  1.00  0.00    -0.285 C  
BRANCH  15  16
HETATM   16  C   UNL     1     -11.298  13.005  67.965  1.00  0.00    -0.290 C  
HETATM   17  C   UNL     1     -11.167  15.461  68.601  1.00  0.00    -0.308 C  
HETATM   18  C   UNL     1     -12.285  14.714  66.431  1.00  0.00    -0.137 C  
HETATM   19  N   UNL     1     -11.543  14.348  67.635  1.00  0.00    -0.352 N  
HETATM   20  C   UNL     1      -9.855  15.223  69.441  1.00  0.00    -0.253 C  
HETATM   21  O   UNL     1     -10.832  12.711  69.068  1.00  0.00    -0.222 OA 
HETATM   22  C   UNL     1     -10.989  16.823  67.889  1.00  0.00    -0.260 C  
HETATM   23  C   UNL     1     -12.316  15.643  69.616  1.00  0.00    -0.178 C  
BRANCH  20  24
HETATM   24  C   UNL     1      -8.546  14.987  68.713  1.00  0.00    -0.182 A  
HETATM   25  C   UNL     1      -7.584  16.008  68.724  1.00  0.00    -0.184 A  
HETATM   26  C   UNL     1      -6.335  15.819  68.129  1.00  0.00    -0.133 A  
HETATM   27  C   UNL     1      -6.019  14.600  67.537  1.00  0.00     0.066 A  
HETATM   28  C   UNL     1      -6.948  13.572  67.537  1.00  0.00    -0.157 A  
HETATM   29  C   UNL     1      -8.202  13.768  68.105  1.00  0.00    -0.160 A  
ENDBRANCH  20  24
ENDBRANCH  15  16
ENDBRANCH  10  15
ENDBRANCH   9  10
ENDBRANCH   3   9
BRANCH   5  30
HETATM   30  C   UNL     1      -9.456   6.740  67.686  1.00  0.00    -0.126 A  
HETATM   31  C   UNL     1     -10.142   5.111  66.005  1.00  0.00    -0.197 A  
HETATM   32  C   UNL     1      -8.528   5.803  68.157  1.00  0.00    -0.109 A  
HETATM   33  C   UNL     1     -10.270   6.361  66.610  1.00  0.00    -0.216 A  
HETATM   34  C   UNL     1      -9.245   4.182  66.510  1.00  0.00    -0.163 A  
HETATM   35  C   UNL     1      -8.433   4.532  67.582  1.00  0.00    -0.103 A  
ENDBRANCH   5  30
TORSDOF 8
ENDMDL
MODEL      135
REMARK 921   NORMALIZED FREE ENERGY PREDICTED BY IDOCK:   -4.58 KCAL/MOL
REMARK 922        TOTAL FREE ENERGY PREDICTED BY IDOCK:   -7.52 KCAL/MOL
REMARK 923 INTER-LIGAND FREE ENERGY PREDICTED BY IDOCK:   -6.25 KCAL/MOL
REMARK 924 INTRA-LIGAND FREE ENERGY PREDICTED BY IDOCK:   -1.27 KCAL/MOL
REMARK 927      BINDING AFFINITY PREDICTED BY RF-SCORE:    0.00 PKD
ROOT
HETATM    1  C   UNL     1     -11.710  10.426  68.842  1.00  0.00    -0.068 C  
HETATM    2  N   UNL     1     -10.454  10.553  68.099  1.00  0.00    -0.174 N  
HETATM    3  C   UNL     1      -9.830  11.803  68.211  1.00  0.00    -0.198 C  
HETATM    4  C   UNL     1      -9.909   9.316  67.408  1.00  0.00    -0.178 C  
HETATM    5  C   UNL     1      -8.450   8.933  67.839  1.00  0.00    -0.125 C  
HETATM    6  C   UNL     1     -10.782   8.055  67.692  1.00  0.00    -0.203 C  
HETATM    7  C   UNL     1      -9.996   9.487  65.870  1.00  0.00    -0.342 C  
HETATM    8  O   UNL     1     -10.302  12.673  68.953  1.00  0.00    -0.157 OA 
ENDROOT
BRANCH   3   9
HETATM    9  C   UNL     1      -8.526  12.060  67.440  1.00  0.00    -0.170 C  
BRANCH   9  10
HETATM   10  N   UNL     1      -7.342  12.406  68.256  1.00  0.00    -0.105 NA 
BRANCH  10  11
HETATM   11  C   UNL     1      -6.086  12.108  67.544  1.00  0.00    -0.124 C  
BRANCH  11  12
HETATM   12  C   UNL     1      -6.235  11.090  66.391  1.00  0.00    -0.136 C  
HETATM   13  H   UNL     1      -5.280   9.497  65.724  1.00  0.00     0.000 HD 
HETATM   14  O   UNL     1      -5.189  10.123  66.433  1.00  0.00    -0.038 OA 
ENDBRANCH  11  12
ENDBRANCH  10  11
BRANCH  10  15
HETATM   15  C   UNL     1      -7.380  13.800  68.782  1.00  0.00    -0.103 C  
BRANCH  15  16
HETATM   16  C   UNL     1      -7.928  14.854  67.768  1.00  0.00    -0.150 C  
HETATM   17  C   UNL     1      -9.591  16.698  67.229  1.00  0.00    -0.243 C  
HETATM   18  C   UNL     1      -9.248  15.884  69.625  1.00  0.00    -0.078 C  
HETATM   19  N   UNL     1      -8.922  15.744  68.207  1.00  0.00    -0.179 N  
HETATM   20  C   UNL     1      -9.810  16.139  65.772  1.00  0.00    -0.354 C  
HETATM   21  O   UNL     1      -7.544  14.880  66.597  1.00  0.00     0.138 OA 
HETATM   22  C   UNL     1     -10.975  17.176  67.727  1.00  0.00    -0.180 C  
HETATM   23  C   UNL     1      -8.713  17.961  67.093  1.00  0.00    -0.248 C  
BRANCH  20  24
HETATM   24  C   UNL     1     -10.625  14.876  65.581  1.00  0.00    -0.358 A  
HETATM   25  C   UNL     1     -10.227  13.967  64.589  1.00  0.00    -0.242 A  
HETATM   26  C   UNL     1     -10.900  12.756  64.417  1.00  0.00    -0.395 A  
HETATM   27  C   UNL     1     -11.966  12.424  65.248  1.00  0.00    -0.461 A  
HETATM   28  C   UNL     1     -12.360  13.299  66.248  1.00  0.00    -0.382 A  
HETATM   29  C   UNL     1     -11.708  14.517  66.403  1.00  0.00    -0.372 A  
ENDBRANCH  20  24
ENDBRANCH  15  16
ENDBRANCH  10  15
ENDBRANCH   9  10
ENDBRANCH   3   9
BRANCH   5  30
HETATM   30  C   UNL     1      -8.223   8.736  69.328  1.00  0.00    -0.108 A  
HETATM   31  C   UNL     1      -8.717   7.655  71.457  1.00  0.00    -0.131 A  
HETATM   32  C   UNL     1      -7.235   9.484  69.982  1.00  0.00    -0.101 A  
HETATM   33  C   UNL     1      -8.968   7.833  70.097  1.00  0.00    -0.146 A  
HETATM   34  C   UNL     1      -7.763   8.432  72.096  1.00  0.00    -0.159 A  
HETATM   35  C   UNL     1      -7.017   9.341  71.356  1.00  0.00     0.022 A  
ENDBRANCH   5  30
TORSDOF 8
ENDMDL
MODEL      136
REMARK 921   NORMALIZED FREE ENERGY PREDICTED BY IDOCK:   -4.55 KCAL/MOL
REMARK 922        TOTAL FREE ENERGY PREDICTED BY IDOCK:   -7.48 KCAL/MOL
REMARK 923 INTER-LIGAND FREE ENERGY PREDICTED BY IDOCK:   -6.17 KCAL/MOL
REMARK 924 INTRA-LIGAND FREE ENERGY PREDICTED BY IDOCK:   -1.31 KCAL/MOL
REMARK 927      BINDING AFFINITY PREDICTED BY RF-SCORE:    0.00 PKD
ROOT
HETATM    1  C   UNL     1      -5.841  12.077  67.170  1.00  0.00    -0.150 C  
HETATM    2  N   UNL     1      -6.376  10.765  67.541  1.00  0.00    -0.056 N  
HETATM    3  C   UNL     1      -6.758  10.645  68.885  1.00  0.00    -0.062 C  
HETATM    4  C   UNL     1      -6.576   9.741  66.438  1.00  0.00    -0.072 C  
HETATM    5  C   UNL     1      -8.043   9.194  66.330  1.00  0.00    -0.107 C  
HETATM    6  C   UNL     1      -6.234  10.322  65.031  1.00  0.00    -0.125 C  
HETATM    7  C   UNL     1      -5.570   8.574  66.610  1.00  0.00    -0.036 C  
HETATM    8  O   UNL     1      -6.699  11.623  69.641  1.00  0.00    -0.119 OA 
ENDROOT
BRANCH   3   9
HETATM    9  C   UNL     1      -7.296   9.298  69.392  1.00  0.00    -0.077 C  
BRANCH   9  10
HETATM   10  N   UNL     1      -6.443   8.576  70.360  1.00  0.00    -0.035 NA 
BRANCH  10  11
HETATM   11  C   UNL     1      -6.910   8.766  71.745  1.00  0.00    -0.062 C  
BRANCH  11  12
HETATM   12  C   UNL     1      -5.791   9.117  72.751  1.00  0.00     0.021 C  
HETATM   13  H   UNL     1      -5.652   9.650  74.646  1.00  0.00     0.000 HD 
HETATM   14  O   UNL     1      -6.340   9.434  74.027  1.00  0.00    -0.329 OA 
ENDBRANCH  11  12
ENDBRANCH  10  11
BRANCH  10  15
HETATM   15  C   UNL     1      -6.254   7.139  70.016  1.00  0.00    -0.027 C  
BRANCH  15  16
HETATM   16  C   UNL     1      -7.510   6.246  70.274  1.00  0.00    -0.094 C  
HETATM   17  C   UNL     1      -9.605   5.125  69.378  1.00  0.00    -0.161 C  
HETATM   18  C   UNL     1      -7.831   6.065  67.802  1.00  0.00    -0.105 C  
HETATM   19  N   UNL     1      -8.298   5.874  69.173  1.00  0.00    -0.106 N  
HETATM   20  C   UNL     1     -10.424   5.519  70.666  1.00  0.00    -0.342 C  
HETATM   21  O   UNL     1      -7.840   5.915  71.415  1.00  0.00    -0.107 OA 
HETATM   22  C   UNL     1     -10.570   5.286  68.180  1.00  0.00    -0.076 C  
HETATM   23  C   UNL     1      -9.297   3.616  69.494  1.00  0.00    -0.247 C  
BRANCH  20  24
HETATM   24  C   UNL     1     -10.859   6.959  70.850  1.00  0.00    -0.277 A  
HETATM   25  C   UNL     1     -11.369   7.348  72.098  1.00  0.00    -0.311 A  
HETATM   26  C   UNL     1     -11.720   8.677  72.345  1.00  0.00    -0.393 A  
HETATM   27  C   UNL     1     -11.543   9.642  71.357  1.00  0.00    -0.472 A  
HETATM   28  C   UNL     1     -11.020   9.281  70.126  1.00  0.00    -0.278 A  
HETATM   29  C   UNL     1     -10.696   7.954  69.870  1.00  0.00    -0.244 A  
ENDBRANCH  20  24
ENDBRANCH  15  16
ENDBRANCH  10  15
ENDBRANCH   9  10
ENDBRANCH   3   9
BRANCH   5  30
HETATM   30  C   UNL     1      -9.134  10.236  66.160  1.00  0.00    -0.181 A  
HETATM   31  C   UNL     1     -10.799  11.775  67.057  1.00  0.00    -0.306 A  
HETATM   32  C   UNL     1      -9.489  10.663  64.874  1.00  0.00    -0.293 A  
HETATM   33  C   UNL     1      -9.821  10.800  67.243  1.00  0.00    -0.208 A  
HETATM   34  C   UNL     1     -11.166  12.157  65.775  1.00  0.00    -0.384 A  
HETATM   35  C   UNL     1     -10.505  11.605  64.684  1.00  0.00    -0.354 A  
ENDBRANCH   5  30
TORSDOF 8
ENDMDL
MODEL      137
REMARK 921   NORMALIZED FREE ENERGY PREDICTED BY IDOCK:   -4.55 KCAL/MOL
REMARK 922        TOTAL FREE ENERGY PREDICTED BY IDOCK:   -7.48 KCAL/MOL
REMARK 923 INTER-LIGAND FREE ENERGY PREDICTED BY IDOCK:   -7.27 KCAL/MOL
REMARK 924 INTRA-LIGAND FREE ENERGY PREDICTED BY IDOCK:   -0.21 KCAL/MOL
REMARK 927      BINDING AFFINITY PREDICTED BY RF-SCORE:    0.00 PKD
ROOT
HETATM    1  C   UNL     1      -9.646   4.139  67.499  1.00  0.00    -0.171 C  
HETATM    2  N   UNL     1      -9.106   5.317  68.183  1.00  0.00    -0.109 N  
HETATM    3  C   UNL     1     -10.012   6.376  68.332  1.00  0.00    -0.141 C  
HETATM    4  C   UNL     1      -7.703   5.224  68.755  1.00  0.00    -0.083 C  
HETATM    5  C   UNL     1      -7.616   5.535  70.291  1.00  0.00    -0.080 C  
HETATM    6  C   UNL     1      -7.090   3.801  68.575  1.00  0.00    -0.051 C  
HETATM    7  C   UNL     1      -6.744   6.144  67.957  1.00  0.00    -0.064 C  
HETATM    8  O   UNL     1     -11.187   6.250  67.966  1.00  0.00    -0.323 OA 
ENDROOT
BRANCH   3   9
HETATM    9  C   UNL     1      -9.538   7.677  69.000  1.00  0.00    -0.151 C  
BRANCH   9  10
HETATM   10  N   UNL     1      -9.592   8.897  68.166  1.00  0.00    -0.143 NA 
BRANCH  10  11
HETATM   11  C   UNL     1     -10.033   8.597  66.792  1.00  0.00    -0.273 C  
BRANCH  11  12
HETATM   12  C   UNL     1      -8.948   8.814  65.714  1.00  0.00    -0.206 C  
HETATM   13  H   UNL     1      -7.815   7.700  64.544  1.00  0.00     0.000 HD 
HETATM   14  O   UNL     1      -8.482   7.567  65.207  1.00  0.00    -0.132 OA 
ENDBRANCH  11  12
ENDBRANCH  10  11
BRANCH  10  15
HETATM   15  C   UNL     1     -10.381   9.997  68.789  1.00  0.00    -0.198 C  
BRANCH  15  16
HETATM   16  C   UNL     1      -9.975  11.428  68.310  1.00  0.00    -0.198 C  
HETATM   17  C   UNL     1     -10.526  13.901  68.132  1.00  0.00    -0.245 C  
HETATM   18  C   UNL     1     -11.824  12.367  69.706  1.00  0.00    -0.317 C  
HETATM   19  N   UNL     1     -10.791  12.509  68.682  1.00  0.00    -0.242 N  
HETATM   20  C   UNL     1      -9.997  13.961  66.648  1.00  0.00    -0.279 C  
HETATM   21  O   UNL     1      -8.997  11.609  67.582  1.00  0.00    -0.158 OA 
HETATM   22  C   UNL     1     -11.780  14.805  68.186  1.00  0.00    -0.353 C  
HETATM   23  C   UNL     1      -9.455  14.584  69.011  1.00  0.00    -0.087 C  
BRANCH  20  24
HETATM   24  C   UNL     1     -10.831  13.344  65.544  1.00  0.00    -0.299 A  
HETATM   25  C   UNL     1     -12.214  13.581  65.540  1.00  0.00    -0.490 A  
HETATM   26  C   UNL     1     -13.020  13.096  64.508  1.00  0.00    -0.046 A  
HETATM   27  C   UNL     1     -12.454  12.388  63.452  1.00  0.00    -0.554 A  
HETATM   28  C   UNL     1     -11.087  12.163  63.426  1.00  0.00    -0.495 A  
HETATM   29  C   UNL     1     -10.287  12.622  64.467  1.00  0.00    -0.369 A  
ENDBRANCH  20  24
ENDBRANCH  15  16
ENDBRANCH  10  15
ENDBRANCH   9  10
ENDBRANCH   3   9
BRANCH   5  30
HETATM   30  C   UNL     1      -8.511   4.704  71.193  1.00  0.00    -0.115 A  
HETATM   31  C   UNL     1      -9.239   2.574  72.131  1.00  0.00    -0.148 A  
HETATM   32  C   UNL     1      -9.477   5.337  71.984  1.00  0.00    -0.173 A  
HETATM   33  C   UNL     1      -8.422   3.308  71.272  1.00  0.00    -0.096 A  
HETATM   34  C   UNL     1     -10.217   3.213  72.877  1.00  0.00    -0.237 A  
HETATM   35  C   UNL     1     -10.330   4.597  72.809  1.00  0.00    -0.244 A  
ENDBRANCH   5  30
TORSDOF 8
ENDMDL
MODEL      138
REMARK 921   NORMALIZED FREE ENERGY PREDICTED BY IDOCK:   -4.54 KCAL/MOL
REMARK 922        TOTAL FREE ENERGY PREDICTED BY IDOCK:   -7.46 KCAL/MOL
REMARK 923 INTER-LIGAND FREE ENERGY PREDICTED BY IDOCK:   -5.87 KCAL/MOL
REMARK 924 INTRA-LIGAND FREE ENERGY PREDICTED BY IDOCK:   -1.59 KCAL/MOL
REMARK 927      BINDING AFFINITY PREDICTED BY RF-SCORE:    0.00 PKD
ROOT
HETATM    1  C   UNL     1      -9.908  10.527  65.012  1.00  0.00    -0.306 C  
HETATM    2  N   UNL     1     -10.415  10.816  66.355  1.00  0.00    -0.247 N  
HETATM    3  C   UNL     1     -10.679   9.684  67.140  1.00  0.00    -0.188 C  
HETATM    4  C   UNL     1     -10.480  12.268  66.793  1.00  0.00    -0.218 C  
HETATM    5  C   UNL     1      -9.690  12.575  68.114  1.00  0.00    -0.222 C  
HETATM    6  C   UNL     1      -9.895  13.231  65.714  1.00  0.00    -0.210 C  
HETATM    7  C   UNL     1     -11.958  12.715  66.925  1.00  0.00    -0.345 C  
HETATM    8  O   UNL     1     -10.415   8.553  66.713  1.00  0.00    -0.303 OA 
ENDROOT
BRANCH   3   9
HETATM    9  C   UNL     1     -11.251   9.870  68.553  1.00  0.00    -0.072 C  
BRANCH   9  10
HETATM   10  N   UNL     1     -10.635   9.053  69.621  1.00  0.00    -0.223 NA 
BRANCH  10  11
HETATM   11  C   UNL     1     -10.621   9.766  70.911  1.00  0.00    -0.274 C  
BRANCH  11  12
HETATM   12  C   UNL     1     -11.849   9.483  71.806  1.00  0.00    -0.360 C  
HETATM   13  H   UNL     1     -13.453  10.452  72.425  1.00  0.00     0.000 HD 
HETATM   14  O   UNL     1     -12.698  10.625  71.875  1.00  0.00    -0.412 OA 
ENDBRANCH  11  12
ENDBRANCH  10  11
BRANCH  10  15
HETATM   15  C   UNL     1     -11.225   7.690  69.731  1.00  0.00    -0.029 C  
BRANCH  15  16
HETATM   16  C   UNL     1     -10.176   6.547  69.906  1.00  0.00    -0.184 C  
HETATM   17  C   UNL     1      -9.152   4.736  71.363  1.00  0.00    -0.135 C  
HETATM   18  C   UNL     1     -11.381   5.821  71.972  1.00  0.00    -0.228 C  
HETATM   19  N   UNL     1     -10.230   5.768  71.074  1.00  0.00    -0.207 N  
HETATM   20  C   UNL     1      -7.695   5.120  70.900  1.00  0.00    -0.088 C  
HETATM   21  O   UNL     1      -9.286   6.358  69.074  1.00  0.00    -0.130 OA 
HETATM   22  C   UNL     1      -9.056   4.391  72.868  1.00  0.00    -0.132 C  
HETATM   23  C   UNL     1      -9.516   3.423  70.635  1.00  0.00    -0.243 C  
BRANCH  20  24
HETATM   24  C   UNL     1      -7.062   6.389  71.436  1.00  0.00    -0.077 A  
HETATM   25  C   UNL     1      -6.083   7.026  70.659  1.00  0.00    -0.031 A  
HETATM   26  C   UNL     1      -5.517   8.234  71.071  1.00  0.00    -0.029 A  
HETATM   27  C   UNL     1      -5.938   8.836  72.254  1.00  0.00    -0.076 A  
HETATM   28  C   UNL     1      -6.920   8.233  73.024  1.00  0.00    -0.128 A  
HETATM   29  C   UNL     1      -7.464   7.017  72.628  1.00  0.00    -0.084 A  
ENDBRANCH  20  24
ENDBRANCH  15  16
ENDBRANCH  10  15
ENDBRANCH   9  10
ENDBRANCH   3   9
BRANCH   5  30
HETATM   30  C   UNL     1      -8.224  12.183  68.122  1.00  0.00    -0.164 A  
HETATM   31  C   UNL     1      -6.405  10.659  68.687  1.00  0.00    -0.046 A  
HETATM   32  C   UNL     1      -7.279  13.022  67.515  1.00  0.00    -0.154 A  
HETATM   33  C   UNL     1      -7.755  11.006  68.720  1.00  0.00    -0.135 A  
HETATM   34  C   UNL     1      -5.480  11.521  68.118  1.00  0.00    -0.042 A  
HETATM   35  C   UNL     1      -5.919  12.699  67.525  1.00  0.00    -0.151 A  
ENDBRANCH   5  30
TORSDOF 8
ENDMDL
MODEL      139
REMARK 921   NORMALIZED FREE ENERGY PREDICTED BY IDOCK:   -4.52 KCAL/MOL
REMARK 922        TOTAL FREE ENERGY PREDICTED BY IDOCK:   -7.43 KCAL/MOL
REMARK 923 INTER-LIGAND FREE ENERGY PREDICTED BY IDOCK:   -6.78 KCAL/MOL
REMARK 924 INTRA-LIGAND FREE ENERGY PREDICTED BY IDOCK:   -0.66 KCAL/MOL
REMARK 927      BINDING AFFINITY PREDICTED BY RF-SCORE:    0.00 PKD
ROOT
HETATM    1  C   UNL     1     -12.284  12.725  65.913  1.00  0.00    -0.359 C  
HETATM    2  N   UNL     1     -10.971  12.618  66.554  1.00  0.00    -0.261 N  
HETATM    3  C   UNL     1     -10.025  13.555  66.114  1.00  0.00    -0.304 C  
HETATM    4  C   UNL     1     -10.811  11.617  67.684  1.00  0.00    -0.225 C  
HETATM    5  C   UNL     1     -10.302  12.246  69.028  1.00  0.00     0.008 C  
HETATM    6  C   UNL     1     -12.155  10.905  68.030  1.00  0.00     0.376 C  
HETATM    7  C   UNL     1      -9.883  10.459  67.238  1.00  0.00    -0.214 C  
HETATM    8  O   UNL     1     -10.346  14.432  65.303  1.00  0.00    -0.353 OA 
ENDROOT
BRANCH   3   9
HETATM    9  C   UNL     1      -8.602  13.509  66.692  1.00  0.00     0.077 C  
BRANCH   9  10
HETATM   10  N   UNL     1      -8.160  14.708  67.437  1.00  0.00    -0.184 NA 
BRANCH  10  11
HETATM   11  C   UNL     1      -7.242  14.357  68.535  1.00  0.00    -0.119 C  
BRANCH  11  12
HETATM   12  C   UNL     1      -5.782  14.118  68.090  1.00  0.00    -0.128 C  
HETATM   13  H   UNL     1      -4.466  12.648  68.144  1.00  0.00     0.000 HD 
HETATM   14  O   UNL     1      -5.364  12.795  68.417  1.00  0.00    -0.054 OA 
ENDBRANCH  11  12
ENDBRANCH  10  11
BRANCH  10  15
HETATM   15  C   UNL     1      -7.610  15.776  66.555  1.00  0.00     0.112 C  
BRANCH  15  16
HETATM   16  C   UNL     1      -8.015  17.225  66.972  1.00  0.00    -0.214 C  
HETATM   17  C   UNL     1      -7.561  19.723  66.885  1.00  0.00    -0.260 C  
HETATM   18  C   UNL     1      -6.410  18.112  65.273  1.00  0.00    -0.062 C  
HETATM   19  N   UNL     1      -7.306  18.301  66.412  1.00  0.00    -0.232 N  
HETATM   20  C   UNL     1      -7.892  19.885  68.417  1.00  0.00    -0.270 C  
HETATM   21  O   UNL     1      -8.896  17.431  67.810  1.00  0.00    -0.226 OA 
HETATM   22  C   UNL     1      -6.367  20.663  66.594  1.00  0.00    -0.295 C  
HETATM   23  C   UNL     1      -8.768  20.293  66.108  1.00  0.00    -0.159 C  
BRANCH  20  24
HETATM   24  C   UNL     1      -6.893  19.391  69.444  1.00  0.00    -0.342 A  
HETATM   25  C   UNL     1      -6.613  20.208  70.550  1.00  0.00    -0.092 A  
HETATM   26  C   UNL     1      -5.753  19.774  71.561  1.00  0.00    -0.329 A  
HETATM   27  C   UNL     1      -5.180  18.507  71.495  1.00  0.00    -0.204 A  
HETATM   28  C   UNL     1      -5.463  17.677  70.422  1.00  0.00    -0.260 A  
HETATM   29  C   UNL     1      -6.296  18.119  69.401  1.00  0.00    -0.249 A  
ENDBRANCH  20  24
ENDBRANCH  15  16
ENDBRANCH  10  15
ENDBRANCH   9  10
ENDBRANCH   3   9
BRANCH   5  30
HETATM   30  C   UNL     1     -11.122  13.399  69.580  1.00  0.00    -0.100 A  
HETATM   31  C   UNL     1     -12.943  14.292  70.933  1.00  0.00    -0.395 A  
HETATM   32  C   UNL     1     -10.781  14.715  69.241  1.00  0.00    -0.254 A  
HETATM   33  C   UNL     1     -12.226  13.211  70.421  1.00  0.00    -0.389 A  
HETATM   34  C   UNL     1     -12.617  15.585  70.556  1.00  0.00    -0.462 A  
HETATM   35  C   UNL     1     -11.530  15.796  69.715  1.00  0.00    -0.350 A  
ENDBRANCH   5  30
TORSDOF 8
ENDMDL
MODEL      140
REMARK 921   NORMALIZED FREE ENERGY PREDICTED BY IDOCK:   -4.51 KCAL/MOL
REMARK 922        TOTAL FREE ENERGY PREDICTED BY IDOCK:   -7.42 KCAL/MOL
REMARK 923 INTER-LIGAND FREE ENERGY PREDICTED BY IDOCK:   -7.39 KCAL/MOL
REMARK 924 INTRA-LIGAND FREE ENERGY PREDICTED BY IDOCK:   -0.03 KCAL/MOL
REMARK 927      BINDING AFFINITY PREDICTED BY RF-SCORE:    0.00 PKD
ROOT
HETATM    1  C   UNL     1     -10.888  16.441  67.661  1.00  0.00    -0.280 C  
HETATM    2  N   UNL     1     -10.344  15.124  67.998  1.00  0.00    -0.237 N  
HETATM    3  C   UNL     1      -9.179  15.153  68.778  1.00  0.00    -0.200 C  
HETATM    4  C   UNL     1     -11.142  13.899  67.589  1.00  0.00    -0.277 C  
HETATM    5  C   UNL     1     -11.503  12.944  68.780  1.00  0.00    -0.345 C  
HETATM    6  C   UNL     1     -12.499  14.281  66.923  1.00  0.00    -0.077 C  
HETATM    7  C   UNL     1     -10.389  13.124  66.478  1.00  0.00    -0.284 C  
HETATM    8  O   UNL     1      -8.728  16.229  69.189  1.00  0.00    -0.247 OA 
ENDROOT
BRANCH   3   9
HETATM    9  C   UNL     1      -8.500  13.827  69.157  1.00  0.00     0.395 C  
BRANCH   9  10
HETATM   10  N   UNL     1      -7.668  13.196  68.110  1.00  0.00    -0.131 NA 
BRANCH  10  11
HETATM   11  C   UNL     1      -6.662  14.133  67.577  1.00  0.00    -0.105 C  
BRANCH  11  12
HETATM   12  C   UNL     1      -5.318  14.124  68.340  1.00  0.00    -0.104 C  
HETATM   13  H   UNL     1      -4.440  15.185  69.753  1.00  0.00     0.000 HD 
HETATM   14  O   UNL     1      -5.266  15.190  69.284  1.00  0.00    -0.092 OA 
ENDBRANCH  11  12
ENDBRANCH  10  11
BRANCH  10  15
HETATM   15  C   UNL     1      -7.068  11.902  68.539  1.00  0.00    -0.089 C  
BRANCH  15  16
HETATM   16  C   UNL     1      -7.873  10.641  68.090  1.00  0.00    -0.110 C  
HETATM   17  C   UNL     1      -7.884   8.313  67.072  1.00  0.00    -0.096 C  
HETATM   18  C   UNL     1      -5.713   9.403  67.859  1.00  0.00    -0.041 C  
HETATM   19  N   UNL     1      -7.155   9.516  67.651  1.00  0.00    -0.081 N  
HETATM   20  C   UNL     1      -9.174   8.638  66.227  1.00  0.00    -0.257 C  
HETATM   21  O   UNL     1      -9.106  10.639  68.069  1.00  0.00    -0.142 OA 
HETATM   22  C   UNL     1      -6.972   7.453  66.166  1.00  0.00    -0.065 C  
HETATM   23  C   UNL     1      -8.333   7.402  68.235  1.00  0.00    -0.125 C  
BRANCH  20  24
HETATM   24  C   UNL     1      -9.055   9.541  65.016  1.00  0.00    -0.281 A  
HETATM   25  C   UNL     1      -7.895   9.455  64.232  1.00  0.00    -0.124 A  
HETATM   26  C   UNL     1      -7.762  10.213  63.066  1.00  0.00    -0.149 A  
HETATM   27  C   UNL     1      -8.796  11.049  62.654  1.00  0.00    -0.334 A  
HETATM   28  C   UNL     1      -9.958  11.130  63.403  1.00  0.00    -0.430 A  
HETATM   29  C   UNL     1     -10.081  10.396  64.578  1.00  0.00    -0.365 A  
ENDBRANCH  20  24
ENDBRANCH  15  16
ENDBRANCH  10  15
ENDBRANCH   9  10
ENDBRANCH   3   9
BRANCH   5  30
HETATM   30  C   UNL     1     -12.244  13.578  69.944  1.00  0.00    -0.356 A  
HETATM   31  C   UNL     1     -13.221  15.499  71.084  1.00  0.00    -0.576 A  
HETATM   32  C   UNL     1     -12.680  12.776  71.007  1.00  0.00    -0.331 A  
HETATM   33  C   UNL     1     -12.515  14.951  70.015  1.00  0.00    -0.320 A  
HETATM   34  C   UNL     1     -13.611  14.697  72.146  1.00  0.00    -0.514 A  
HETATM   35  C   UNL     1     -13.346  13.333  72.103  1.00  0.00    -0.618 A  
ENDBRANCH   5  30
TORSDOF 8
ENDMDL
MODEL      141
REMARK 921   NORMALIZED FREE ENERGY PREDICTED BY IDOCK:   -4.47 KCAL/MOL
REMARK 922        TOTAL FREE ENERGY PREDICTED BY IDOCK:   -7.36 KCAL/MOL
REMARK 923 INTER-LIGAND FREE ENERGY PREDICTED BY IDOCK:   -6.47 KCAL/MOL
REMARK 924 INTRA-LIGAND FREE ENERGY PREDICTED BY IDOCK:   -0.88 KCAL/MOL
REMARK 927      BINDING AFFINITY PREDICTED BY RF-SCORE:    0.00 PKD
ROOT
HETATM    1  C   UNL     1      -8.218  15.769  69.094  1.00  0.00    -0.247 C  
HETATM    2  N   UNL     1      -8.935  15.005  68.070  1.00  0.00    -0.171 N  
HETATM    3  C   UNL     1      -8.522  13.672  67.935  1.00  0.00    -0.177 C  
HETATM    4  C   UNL     1     -10.102  15.677  67.370  1.00  0.00    -0.251 C  
HETATM    5  C   UNL     1     -11.454  14.886  67.478  1.00  0.00    -0.361 C  
HETATM    6  C   UNL     1     -10.393  17.096  67.948  1.00  0.00    -0.350 C  
HETATM    7  C   UNL     1      -9.745  15.947  65.886  1.00  0.00    -0.386 C  
HETATM    8  O   UNL     1      -7.667  13.203  68.697  1.00  0.00    -0.128 OA 
ENDROOT
BRANCH   3   9
HETATM    9  C   UNL     1      -9.180  12.789  66.864  1.00  0.00    -0.229 C  
BRANCH   9  10
HETATM   10  N   UNL     1      -8.895  11.340  66.945  1.00  0.00    -0.159 NA 
BRANCH  10  11
HETATM   11  C   UNL     1     -10.107  10.565  67.265  1.00  0.00    -0.201 C  
BRANCH  11  12
HETATM   12  C   UNL     1     -10.251  10.199  68.760  1.00  0.00    -0.186 C  
HETATM   13  H   UNL     1     -11.035   8.739  69.831  1.00  0.00     0.000 HD 
HETATM   14  O   UNL     1     -10.947   8.964  68.912  1.00  0.00    -0.083 OA 
ENDBRANCH  11  12
ENDBRANCH  10  11
BRANCH  10  15
HETATM   15  C   UNL     1      -8.184  10.815  65.746  1.00  0.00    -0.146 C  
BRANCH  15  16
HETATM   16  C   UNL     1      -7.145   9.691  66.056  1.00  0.00    -0.097 C  
HETATM   17  C   UNL     1      -6.422   7.267  65.817  1.00  0.00    -0.045 C  
HETATM   18  C   UNL     1      -8.263   8.250  64.347  1.00  0.00    -0.127 C  
HETATM   19  N   UNL     1      -7.319   8.437  65.446  1.00  0.00    -0.082 N  
HETATM   20  C   UNL     1      -5.970   7.204  67.326  1.00  0.00    -0.032 C  
HETATM   21  O   UNL     1      -6.222   9.871  66.853  1.00  0.00    -0.062 OA 
HETATM   22  C   UNL     1      -7.074   5.901  65.498  1.00  0.00    -0.069 C  
HETATM   23  C   UNL     1      -5.132   7.346  64.971  1.00  0.00    -0.028 C  
BRANCH  20  24
HETATM   24  C   UNL     1      -7.028   7.140  68.410  1.00  0.00    -0.076 A  
HETATM   25  C   UNL     1      -8.103   6.255  68.243  1.00  0.00    -0.112 A  
HETATM   26  C   UNL     1      -9.068   6.105  69.240  1.00  0.00    -0.129 A  
HETATM   27  C   UNL     1      -8.960   6.819  70.431  1.00  0.00    -0.152 A  
HETATM   28  C   UNL     1      -7.893   7.682  70.623  1.00  0.00    -0.097 A  
HETATM   29  C   UNL     1      -6.947   7.852  69.620  1.00  0.00    -0.053 A  
ENDBRANCH  20  24
ENDBRANCH  15  16
ENDBRANCH  10  15
ENDBRANCH   9  10
ENDBRANCH   3   9
BRANCH   5  30
HETATM   30  C   UNL     1     -11.922  14.552  68.883  1.00  0.00    -0.326 A  
HETATM   31  C   UNL     1     -12.297  12.981  70.710  1.00  0.00    -0.394 A  
HETATM   32  C   UNL     1     -12.421  15.569  69.707  1.00  0.00    -0.188 A  
HETATM   33  C   UNL     1     -11.886  13.252  69.406  1.00  0.00    -0.386 A  
HETATM   34  C   UNL     1     -12.826  13.993  71.498  1.00  0.00    -0.440 A  
HETATM   35  C   UNL     1     -12.880  15.288  70.997  1.00  0.00    -0.505 A  
ENDBRANCH   5  30
TORSDOF 8
ENDMDL
MODEL      142
REMARK 921   NORMALIZED FREE ENERGY PREDICTED BY IDOCK:   -4.45 KCAL/MOL
REMARK 922        TOTAL FREE ENERGY PREDICTED BY IDOCK:   -7.34 KCAL/MOL
REMARK 923 INTER-LIGAND FREE ENERGY PREDICTED BY IDOCK:   -6.40 KCAL/MOL
REMARK 924 INTRA-LIGAND FREE ENERGY PREDICTED BY IDOCK:   -0.94 KCAL/MOL
REMARK 927      BINDING AFFINITY PREDICTED BY RF-SCORE:    0.00 PKD
ROOT
HETATM    1  C   UNL     1      -6.321   7.889  70.068  1.00  0.00    -0.033 C  
HETATM    2  N   UNL     1      -7.387   8.210  69.116  1.00  0.00    -0.080 N  
HETATM    3  C   UNL     1      -7.029   8.079  67.767  1.00  0.00    -0.078 C  
HETATM    4  C   UNL     1      -8.766   8.518  69.671  1.00  0.00    -0.133 C  
HETATM    5  C   UNL     1      -9.905   7.600  69.101  1.00  0.00    -0.171 C  
HETATM    6  C   UNL     1      -8.824   8.352  71.221  1.00  0.00    -0.210 C  
HETATM    7  C   UNL     1      -9.106  10.013  69.445  1.00  0.00    -0.228 C  
HETATM    8  O   UNL     1      -5.911   7.650  67.456  1.00  0.00    -0.034 OA 
ENDROOT
BRANCH   3   9
HETATM    9  C   UNL     1      -8.059   8.428  66.682  1.00  0.00    -0.101 C  
BRANCH   9  10
HETATM   10  N   UNL     1      -8.132   9.851  66.284  1.00  0.00    -0.113 NA 
BRANCH  10  11
HETATM   11  C   UNL     1      -6.791  10.447  66.147  1.00  0.00    -0.125 C  
BRANCH  11  12
HETATM   12  C   UNL     1      -6.049  10.050  64.850  1.00  0.00    -0.116 C  
HETATM   13  H   UNL     1      -4.780  10.881  63.588  1.00  0.00     0.000 HD 
HETATM   14  O   UNL     1      -5.236  11.124  64.385  1.00  0.00    -0.185 OA 
ENDBRANCH  11  12
ENDBRANCH  10  11
BRANCH  10  15
HETATM   15  C   UNL     1      -8.982  10.079  65.081  1.00  0.00    -0.192 C  
BRANCH  15  16
HETATM   16  C   UNL     1     -10.263  10.930  65.352  1.00  0.00    -0.277 C  
HETATM   17  C   UNL     1     -11.781  12.854  64.684  1.00  0.00    -0.359 C  
HETATM   18  C   UNL     1     -10.007  11.952  63.085  1.00  0.00    -0.294 C  
HETATM   19  N   UNL     1     -10.626  11.905  64.408  1.00  0.00    -0.296 N  
HETATM   20  C   UNL     1     -11.955  13.301  66.186  1.00  0.00    -0.470 C  
HETATM   21  O   UNL     1     -10.918  10.794  66.388  1.00  0.00    -0.166 OA 
HETATM   22  C   UNL     1     -11.687  14.154  63.850  1.00  0.00    -0.120 C  
HETATM   23  C   UNL     1     -13.099  12.162  64.272  1.00  0.00    -0.019 C  
BRANCH  20  24
HETATM   24  C   UNL     1     -10.805  13.998  66.886  1.00  0.00    -0.290 A  
HETATM   25  C   UNL     1     -10.801  14.036  68.288  1.00  0.00    -0.268 A  
HETATM   26  C   UNL     1      -9.733  14.604  68.985  1.00  0.00    -0.161 A  
HETATM   27  C   UNL     1      -8.641  15.120  68.293  1.00  0.00    -0.164 A  
HETATM   28  C   UNL     1      -8.617  15.072  66.908  1.00  0.00    -0.280 A  
HETATM   29  C   UNL     1      -9.692  14.531  66.212  1.00  0.00    -0.330 A  
ENDBRANCH  20  24
ENDBRANCH  15  16
ENDBRANCH  10  15
ENDBRANCH   9  10
ENDBRANCH   3   9
BRANCH   5  30
HETATM   30  C   UNL     1      -9.697   6.104  69.254  1.00  0.00    -0.163 A  
HETATM   31  C   UNL     1      -8.866   3.954  68.460  1.00  0.00    -0.148 A  
HETATM   32  C   UNL     1     -10.153   5.457  70.410  1.00  0.00    -0.314 A  
HETATM   33  C   UNL     1      -9.067   5.321  68.278  1.00  0.00    -0.122 A  
HETATM   34  C   UNL     1      -9.359   3.322  69.591  1.00  0.00    -0.236 A  
HETATM   35  C   UNL     1      -9.996   4.076  70.570  1.00  0.00    -0.125 A  
ENDBRANCH   5  30
TORSDOF 8
ENDMDL
MODEL      143
REMARK 921   NORMALIZED FREE ENERGY PREDICTED BY IDOCK:   -4.44 KCAL/MOL
REMARK 922        TOTAL FREE ENERGY PREDICTED BY IDOCK:   -7.32 KCAL/MOL
REMARK 923 INTER-LIGAND FREE ENERGY PREDICTED BY IDOCK:   -5.72 KCAL/MOL
REMARK 924 INTRA-LIGAND FREE ENERGY PREDICTED BY IDOCK:   -1.60 KCAL/MOL
REMARK 927      BINDING AFFINITY PREDICTED BY RF-SCORE:    0.00 PKD
ROOT
HETATM    1  C   UNL     1     -10.911   7.116  67.133  1.00  0.00    -0.333 C  
HETATM    2  N   UNL     1      -9.946   7.758  68.028  1.00  0.00    -0.168 N  
HETATM    3  C   UNL     1      -9.384   6.909  68.992  1.00  0.00    -0.135 C  
HETATM    4  C   UNL     1      -9.569   9.202  67.749  1.00  0.00    -0.146 C  
HETATM    5  C   UNL     1      -8.029   9.435  67.556  1.00  0.00    -0.102 C  
HETATM    6  C   UNL     1     -10.247   9.743  66.453  1.00  0.00    -0.288 C  
HETATM    7  C   UNL     1     -10.124  10.119  68.868  1.00  0.00    -0.211 C  
HETATM    8  O   UNL     1      -9.657   5.702  68.997  1.00  0.00    -0.125 OA 
ENDROOT
BRANCH   3   9
HETATM    9  C   UNL     1      -8.389   7.487  70.010  1.00  0.00    -0.136 C  
BRANCH   9  10
HETATM   10  N   UNL     1      -7.004   6.973  69.933  1.00  0.00    -0.060 NA 
BRANCH  10  11
HETATM   11  C   UNL     1      -6.030   7.963  70.428  1.00  0.00    -0.029 C  
BRANCH  11  12
HETATM   12  C   UNL     1      -6.666   9.198  71.104  1.00  0.00    -0.090 C  
HETATM   13  H   UNL     1      -6.586  10.099  72.858  1.00  0.00     0.000 HD 
HETATM   14  O   UNL     1      -6.195   9.340  72.442  1.00  0.00    -0.283 OA 
ENDBRANCH  11  12
ENDBRANCH  10  11
BRANCH  10  15
HETATM   15  C   UNL     1      -6.837   5.640  70.577  1.00  0.00    -0.052 C  
BRANCH  15  16
HETATM   16  C   UNL     1      -7.630   5.468  71.912  1.00  0.00    -0.099 C  
HETATM   17  C   UNL     1      -9.383   4.214  73.257  1.00  0.00    -0.112 C  
HETATM   18  C   UNL     1      -8.437   3.249  71.091  1.00  0.00    -0.067 C  
HETATM   19  N   UNL     1      -8.483   4.359  72.040  1.00  0.00    -0.110 N  
HETATM   20  C   UNL     1      -9.964   5.558  73.841  1.00  0.00    -0.203 C  
HETATM   21  O   UNL     1      -7.557   6.303  72.816  1.00  0.00    -0.101 OA 
HETATM   22  C   UNL     1     -10.597   3.295  72.985  1.00  0.00    -0.241 C  
HETATM   23  C   UNL     1      -8.575   3.550  74.393  1.00  0.00    -0.087 C  
BRANCH  20  24
HETATM   24  C   UNL     1     -10.796   6.453  72.944  1.00  0.00    -0.286 A  
HETATM   25  C   UNL     1     -10.594   7.840  73.013  1.00  0.00    -0.441 A  
HETATM   26  C   UNL     1     -11.283   8.706  72.161  1.00  0.00    -0.438 A  
HETATM   27  C   UNL     1     -12.165   8.198  71.211  1.00  0.00    -0.302 A  
HETATM   28  C   UNL     1     -12.361   6.830  71.114  1.00  0.00    -0.386 A  
HETATM   29  C   UNL     1     -11.696   5.968  71.979  1.00  0.00    -0.315 A  
ENDBRANCH  20  24
ENDBRANCH  15  16
ENDBRANCH  10  15
ENDBRANCH   9  10
ENDBRANCH   3   9
BRANCH   5  30
HETATM   30  C   UNL     1      -7.355   8.594  66.488  1.00  0.00    -0.081 A  
HETATM   31  C   UNL     1      -6.136   6.612  65.759  1.00  0.00    -0.034 A  
HETATM   32  C   UNL     1      -7.346   9.039  65.159  1.00  0.00    -0.096 A  
HETATM   33  C   UNL     1      -6.723   7.375  66.767  1.00  0.00    -0.064 A  
HETATM   34  C   UNL     1      -6.101   7.086  64.457  1.00  0.00    -0.037 A  
HETATM   35  C   UNL     1      -6.714   8.298  64.157  1.00  0.00    -0.067 A  
ENDBRANCH   5  30
TORSDOF 8
ENDMDL
MODEL      144
REMARK 921   NORMALIZED FREE ENERGY PREDICTED BY IDOCK:   -4.43 KCAL/MOL
REMARK 922        TOTAL FREE ENERGY PREDICTED BY IDOCK:   -7.31 KCAL/MOL
REMARK 923 INTER-LIGAND FREE ENERGY PREDICTED BY IDOCK:   -6.07 KCAL/MOL
REMARK 924 INTRA-LIGAND FREE ENERGY PREDICTED BY IDOCK:   -1.23 KCAL/MOL
REMARK 927      BINDING AFFINITY PREDICTED BY RF-SCORE:    0.00 PKD
ROOT
HETATM    1  C   UNL     1      -7.556  10.326  69.724  1.00  0.00    -0.162 C  
HETATM    2  N   UNL     1      -7.475  10.803  68.342  1.00  0.00    -0.091 N  
HETATM    3  C   UNL     1      -8.012   9.928  67.387  1.00  0.00    -0.106 C  
HETATM    4  C   UNL     1      -6.951  12.208  68.105  1.00  0.00    -0.082 C  
HETATM    5  C   UNL     1      -7.937  13.133  67.308  1.00  0.00    -0.140 C  
HETATM    6  C   UNL     1      -6.653  12.955  69.441  1.00  0.00    -0.062 C  
HETATM    7  C   UNL     1      -5.572  12.146  67.400  1.00  0.00    -0.128 C  
HETATM    8  O   UNL     1      -8.568   8.881  67.741  1.00  0.00    -0.124 OA 
ENDROOT
BRANCH   3   9
HETATM    9  C   UNL     1      -7.944  10.311  65.900  1.00  0.00    -0.137 C  
BRANCH   9  10
HETATM   10  N   UNL     1      -8.253   9.234  64.934  1.00  0.00    -0.136 NA 
BRANCH  10  11
HETATM   11  C   UNL     1      -9.030   9.739  63.788  1.00  0.00    -0.240 C  
BRANCH  11  12
HETATM   12  C   UNL     1      -9.953  10.932  64.122  1.00  0.00    -0.344 C  
HETATM   13  H   UNL     1     -10.479  12.643  63.291  1.00  0.00     0.000 HD 
HETATM   14  O   UNL     1      -9.912  11.909  63.085  1.00  0.00    -0.422 OA 
ENDBRANCH  11  12
ENDBRANCH  10  11
BRANCH  10  15
HETATM   15  C   UNL     1      -7.049   8.465  64.510  1.00  0.00    -0.077 C  
BRANCH  15  16
HETATM   16  C   UNL     1      -6.967   7.022  65.103  1.00  0.00    -0.052 C  
HETATM   17  C   UNL     1      -7.662   4.581  64.995  1.00  0.00    -0.081 C  
HETATM   18  C   UNL     1      -8.060   6.158  63.027  1.00  0.00    -0.079 C  
HETATM   19  N   UNL     1      -7.590   5.978  64.399  1.00  0.00    -0.086 N  
HETATM   20  C   UNL     1      -7.843   4.514  66.560  1.00  0.00    -0.099 C  
HETATM   21  O   UNL     1      -6.419   6.801  66.185  1.00  0.00    -0.047 OA 
HETATM   22  C   UNL     1      -8.809   3.741  64.386  1.00  0.00    -0.120 C  
HETATM   23  C   UNL     1      -6.350   3.835  64.668  1.00  0.00    -0.027 C  
BRANCH  20  24
HETATM   24  C   UNL     1      -9.046   5.185  67.192  1.00  0.00    -0.112 A  
HETATM   25  C   UNL     1      -9.206   5.094  68.583  1.00  0.00    -0.150 A  
HETATM   26  C   UNL     1     -10.257   5.751  69.226  1.00  0.00    -0.292 A  
HETATM   27  C   UNL     1     -11.149   6.529  68.493  1.00  0.00    -0.347 A  
HETATM   28  C   UNL     1     -10.994   6.649  67.121  1.00  0.00    -0.478 A  
HETATM   29  C   UNL     1      -9.964   5.974  66.476  1.00  0.00    -0.189 A  
ENDBRANCH  20  24
ENDBRANCH  15  16
ENDBRANCH  10  15
ENDBRANCH   9  10
ENDBRANCH   3   9
BRANCH   5  30
HETATM   30  C   UNL     1      -9.332  13.281  67.889  1.00  0.00    -0.214 A  
HETATM   31  C   UNL     1     -10.967  14.413  69.299  1.00  0.00    -0.281 A  
HETATM   32  C   UNL     1     -10.338  12.381  67.513  1.00  0.00    -0.223 A  
HETATM   33  C   UNL     1      -9.670  14.286  68.804  1.00  0.00    -0.173 A  
HETATM   34  C   UNL     1     -11.940  13.490  68.947  1.00  0.00    -0.378 A  
HETATM   35  C   UNL     1     -11.626  12.479  68.047  1.00  0.00    -0.395 A  
ENDBRANCH   5  30
TORSDOF 8
ENDMDL
MODEL      145
REMARK 921   NORMALIZED FREE ENERGY PREDICTED BY IDOCK:   -4.43 KCAL/MOL
REMARK 922        TOTAL FREE ENERGY PREDICTED BY IDOCK:   -7.31 KCAL/MOL
REMARK 923 INTER-LIGAND FREE ENERGY PREDICTED BY IDOCK:   -6.78 KCAL/MOL
REMARK 924 INTRA-LIGAND FREE ENERGY PREDICTED BY IDOCK:   -0.52 KCAL/MOL
REMARK 927      BINDING AFFINITY PREDICTED BY RF-SCORE:    0.00 PKD
ROOT
HETATM    1  C   UNL     1      -9.414  13.184  65.403  1.00  0.00     0.245 C  
HETATM    2  N   UNL     1     -10.345  13.528  66.480  1.00  0.00    -0.277 N  
HETATM    3  C   UNL     1     -10.025  12.978  67.730  1.00  0.00    -0.227 C  
HETATM    4  C   UNL     1     -11.455  14.516  66.172  1.00  0.00    -0.357 C  
HETATM    5  C   UNL     1     -11.473  15.772  67.113  1.00  0.00     0.080 C  
HETATM    6  C   UNL     1     -11.354  15.075  64.719  1.00  0.00    -0.409 C  
HETATM    7  C   UNL     1     -12.827  13.797  66.197  1.00  0.00    -0.188 C  
HETATM    8  O   UNL     1      -8.985  12.324  67.877  1.00  0.00    -0.170 OA 
ENDROOT
BRANCH   3   9
HETATM    9  C   UNL     1     -10.955  13.242  68.924  1.00  0.00    -0.240 C  
BRANCH   9  10
HETATM   10  N   UNL     1     -11.414  12.051  69.670  1.00  0.00    -0.276 NA 
BRANCH  10  11
HETATM   11  C   UNL     1     -12.299  12.419  70.790  1.00  0.00    -0.286 C  
BRANCH  11  12
HETATM   12  C   UNL     1     -12.418  13.941  71.033  1.00  0.00    -0.377 C  
HETATM   13  H   UNL     1     -13.841  15.240  71.456  1.00  0.00     0.000 HD 
HETATM   14  O   UNL     1     -13.768  14.305  71.307  1.00  0.00    -0.341 OA 
ENDBRANCH  11  12
ENDBRANCH  10  11
BRANCH  10  15
HETATM   15  C   UNL     1     -12.012  11.005  68.794  1.00  0.00    -0.225 C  
BRANCH  15  16
HETATM   16  C   UNL     1     -11.136   9.721  68.637  1.00  0.00    -0.093 C  
HETATM   17  C   UNL     1      -9.816   7.840  69.720  1.00  0.00    -0.178 C  
HETATM   18  C   UNL     1     -11.419   9.287  71.082  1.00  0.00    -0.333 C  
HETATM   19  N   UNL     1     -10.779   9.014  69.797  1.00  0.00    -0.228 N  
HETATM   20  C   UNL     1      -8.664   7.971  68.652  1.00  0.00    -0.131 C  
HETATM   21  O   UNL     1     -10.720   9.357  67.535  1.00  0.00    -0.280 OA 
HETATM   22  C   UNL     1      -9.127   7.554  71.075  1.00  0.00    -0.148 C  
HETATM   23  C   UNL     1     -10.615   6.569  69.357  1.00  0.00    -0.291 C  
BRANCH  20  24
HETATM   24  C   UNL     1      -7.713   9.148  68.735  1.00  0.00    -0.087 A  
HETATM   25  C   UNL     1      -7.511   9.757  69.982  1.00  0.00    -0.158 A  
HETATM   26  C   UNL     1      -6.594  10.800  70.128  1.00  0.00    -0.144 A  
HETATM   27  C   UNL     1      -5.847  11.233  69.037  1.00  0.00    -0.041 A  
HETATM   28  C   UNL     1      -6.016  10.628  67.802  1.00  0.00    -0.043 A  
HETATM   29  C   UNL     1      -6.948   9.609  67.648  1.00  0.00    -0.087 A  
ENDBRANCH  20  24
ENDBRANCH  15  16
ENDBRANCH  10  15
ENDBRANCH   9  10
ENDBRANCH   3   9
BRANCH   5  30
HETATM   30  C   UNL     1     -10.184  16.572  67.185  1.00  0.00    -0.284 A  
HETATM   31  C   UNL     1      -7.952  16.983  68.078  1.00  0.00    -0.195 A  
HETATM   32  C   UNL     1     -10.017  17.692  66.360  1.00  0.00    -0.337 A  
HETATM   33  C   UNL     1      -9.135  16.245  68.054  1.00  0.00    -0.188 A  
HETATM   34  C   UNL     1      -7.820  18.111  67.284  1.00  0.00    -0.230 A  
HETATM   35  C   UNL     1      -8.851  18.461  66.419  1.00  0.00    -0.262 A  
ENDBRANCH   5  30
TORSDOF 8
ENDMDL
MODEL      146
REMARK 921   NORMALIZED FREE ENERGY PREDICTED BY IDOCK:   -4.39 KCAL/MOL
REMARK 922        TOTAL FREE ENERGY PREDICTED BY IDOCK:   -7.25 KCAL/MOL
REMARK 923 INTER-LIGAND FREE ENERGY PREDICTED BY IDOCK:   -7.11 KCAL/MOL
REMARK 924 INTRA-LIGAND FREE ENERGY PREDICTED BY IDOCK:   -0.14 KCAL/MOL
REMARK 927      BINDING AFFINITY PREDICTED BY RF-SCORE:    0.00 PKD
ROOT
HETATM    1  C   UNL     1      -8.246  14.302  67.429  1.00  0.00    -0.202 C  
HETATM    2  N   UNL     1      -9.441  13.597  66.960  1.00  0.00    -0.243 N  
HETATM    3  C   UNL     1      -9.420  12.209  67.160  1.00  0.00    -0.190 C  
HETATM    4  C   UNL     1     -10.598  14.429  66.436  1.00  0.00    -0.297 C  
HETATM    5  C   UNL     1     -11.958  14.168  67.174  1.00  0.00    -0.460 C  
HETATM    6  C   UNL     1     -10.327  15.959  66.573  1.00  0.00    -0.304 C  
HETATM    7  C   UNL     1     -10.756  14.215  64.910  1.00  0.00    -0.444 C  
HETATM    8  O   UNL     1      -8.477  11.679  67.760  1.00  0.00    -0.133 OA 
ENDROOT
BRANCH   3   9
HETATM    9  C   UNL     1     -10.606  11.364  66.669  1.00  0.00    -0.258 C  
BRANCH   9  10
HETATM   10  N   UNL     1     -10.340   9.925  66.460  1.00  0.00    -0.214 NA 
BRANCH  10  11
HETATM   11  C   UNL     1      -9.000   9.697  65.890  1.00  0.00    -0.167 C  
BRANCH  11  12
HETATM   12  C   UNL     1      -8.971   9.617  64.347  1.00  0.00    -0.234 C  
HETATM   13  H   UNL     1      -9.865  10.503  62.827  1.00  0.00     0.000 HD 
HETATM   14  O   UNL     1      -9.883  10.552  63.775  1.00  0.00    -0.305 OA 
ENDBRANCH  11  12
ENDBRANCH  10  11
BRANCH  10  15
HETATM   15  C   UNL     1     -10.589   9.101  67.676  1.00  0.00    -0.242 C  
BRANCH  15  16
HETATM   16  C   UNL     1     -10.052   7.637  67.581  1.00  0.00    -0.192 C  
HETATM   17  C   UNL     1      -8.304   5.912  68.230  1.00  0.00    -0.112 C  
HETATM   18  C   UNL     1      -8.494   8.134  69.471  1.00  0.00    -0.127 C  
HETATM   19  N   UNL     1      -8.956   7.277  68.382  1.00  0.00    -0.127 N  
HETATM   20  C   UNL     1      -8.262   5.334  66.764  1.00  0.00    -0.108 C  
HETATM   21  O   UNL     1     -10.537   6.825  66.789  1.00  0.00    -0.269 OA 
HETATM   22  C   UNL     1      -6.848   5.893  68.750  1.00  0.00    -0.066 C  
HETATM   23  C   UNL     1      -9.089   4.892  69.085  1.00  0.00    -0.144 C  
BRANCH  20  24
HETATM   24  C   UNL     1      -7.569   6.131  65.677  1.00  0.00    -0.085 A  
HETATM   25  C   UNL     1      -6.471   6.928  66.031  1.00  0.00    -0.051 A  
HETATM   26  C   UNL     1      -5.752   7.629  65.060  1.00  0.00    -0.037 A  
HETATM   27  C   UNL     1      -6.105   7.523  63.718  1.00  0.00    -0.049 A  
HETATM   28  C   UNL     1      -7.173   6.723  63.346  1.00  0.00    -0.065 A  
HETATM   29  C   UNL     1      -7.906   6.046  64.314  1.00  0.00    -0.113 A  
ENDBRANCH  20  24
ENDBRANCH  15  16
ENDBRANCH  10  15
ENDBRANCH   9  10
ENDBRANCH   3   9
BRANCH   5  30
HETATM   30  C   UNL     1     -11.945  14.340  68.683  1.00  0.00    -0.348 A  
HETATM   31  C   UNL     1     -11.865  15.721  70.691  1.00  0.00    -0.415 A  
HETATM   32  C   UNL     1     -12.025  13.212  69.509  1.00  0.00    -0.354 A  
HETATM   33  C   UNL     1     -11.848  15.593  69.303  1.00  0.00    -0.378 A  
HETATM   34  C   UNL     1     -11.906  14.591  71.494  1.00  0.00    -0.283 A  
HETATM   35  C   UNL     1     -11.993  13.337  70.901  1.00  0.00    -0.090 A  
ENDBRANCH   5  30
TORSDOF 8
ENDMDL
MODEL      147
REMARK 921   NORMALIZED FREE ENERGY PREDICTED BY IDOCK:   -4.37 KCAL/MOL
REMARK 922        TOTAL FREE ENERGY PREDICTED BY IDOCK:   -7.22 KCAL/MOL
REMARK 923 INTER-LIGAND FREE ENERGY PREDICTED BY IDOCK:   -6.88 KCAL/MOL
REMARK 924 INTRA-LIGAND FREE ENERGY PREDICTED BY IDOCK:   -0.34 KCAL/MOL
REMARK 927      BINDING AFFINITY PREDICTED BY RF-SCORE:    0.00 PKD
ROOT
HETATM    1  C   UNL     1     -11.208  13.926  69.069  1.00  0.00    -0.274 C  
HETATM    2  N   UNL     1     -10.242  13.476  68.065  1.00  0.00    -0.236 N  
HETATM    3  C   UNL     1     -10.785  12.684  67.043  1.00  0.00    -0.245 C  
HETATM    4  C   UNL     1      -8.821  14.001  68.160  1.00  0.00    -0.182 C  
HETATM    5  C   UNL     1      -8.319  14.726  66.861  1.00  0.00    -0.184 C  
HETATM    6  C   UNL     1      -8.656  15.036  69.315  1.00  0.00    -0.167 C  
HETATM    7  C   UNL     1      -7.857  12.853  68.551  1.00  0.00    -0.099 C  
HETATM    8  O   UNL     1     -12.003  12.473  66.995  1.00  0.00    -0.498 OA 
ENDROOT
BRANCH   3   9
HETATM    9  C   UNL     1      -9.853  12.123  65.957  1.00  0.00    -0.243 C  
BRANCH   9  10
HETATM   10  N   UNL     1     -10.513  11.484  64.797  1.00  0.00    -0.282 NA 
BRANCH  10  11
HETATM   11  C   UNL     1     -10.696  12.434  63.685  1.00  0.00    -0.455 C  
BRANCH  11  12
HETATM   12  C   UNL     1     -12.125  13.013  63.573  1.00  0.00    -0.542 C  
HETATM   13  H   UNL     1     -13.974  12.394  63.878  1.00  0.00     0.000 HD 
HETATM   14  O   UNL     1     -13.095  12.039  63.947  1.00  0.00    -0.695 OA 
ENDBRANCH  11  12
ENDBRANCH  10  11
BRANCH  10  15
HETATM   15  C   UNL     1      -9.845  10.225  64.364  1.00  0.00    -0.305 C  
BRANCH  15  16
HETATM   16  C   UNL     1      -8.296  10.216  64.569  1.00  0.00    -0.167 C  
HETATM   17  C   UNL     1      -6.060   9.063  64.217  1.00  0.00    -0.071 C  
HETATM   18  C   UNL     1      -8.135   8.352  62.911  1.00  0.00    -0.170 C  
HETATM   19  N   UNL     1      -7.549   9.205  63.942  1.00  0.00    -0.109 N  
HETATM   20  C   UNL     1      -5.601   9.401  65.687  1.00  0.00    -0.048 C  
HETATM   21  O   UNL     1      -7.739  11.037  65.301  1.00  0.00     0.079 OA 
HETATM   22  C   UNL     1      -5.539   7.639  63.912  1.00  0.00    -0.041 C  
HETATM   23  C   UNL     1      -5.292  10.022  63.281  1.00  0.00    -0.102 C  
BRANCH  20  24
HETATM   24  C   UNL     1      -6.205   8.630  66.843  1.00  0.00    -0.059 A  
HETATM   25  C   UNL     1      -6.436   9.308  68.049  1.00  0.00    -0.059 A  
HETATM   26  C   UNL     1      -7.054   8.665  69.124  1.00  0.00    -0.063 A  
HETATM   27  C   UNL     1      -7.472   7.343  69.002  1.00  0.00    -0.100 A  
HETATM   28  C   UNL     1      -7.273   6.663  67.811  1.00  0.00    -0.091 A  
HETATM   29  C   UNL     1      -6.633   7.294  66.749  1.00  0.00    -0.056 A  
ENDBRANCH  20  24
ENDBRANCH  15  16
ENDBRANCH  10  15
ENDBRANCH   9  10
ENDBRANCH   3   9
BRANCH   5  30
HETATM   30  C   UNL     1      -9.177  15.876  66.363  1.00  0.00    -0.344 A  
HETATM   31  C   UNL     1     -10.991  16.778  65.006  1.00  0.00    -0.118 A  
HETATM   32  C   UNL     1      -8.948  17.170  66.847  1.00  0.00    -0.253 A  
HETATM   33  C   UNL     1     -10.202  15.707  65.423  1.00  0.00    -0.401 A  
HETATM   34  C   UNL     1     -10.724  18.059  65.465  1.00  0.00     0.035 A  
HETATM   35  C   UNL     1      -9.707  18.253  66.391  1.00  0.00    -0.334 A  
ENDBRANCH   5  30
TORSDOF 8
ENDMDL
MODEL      148
REMARK 921   NORMALIZED FREE ENERGY PREDICTED BY IDOCK:   -4.34 KCAL/MOL
REMARK 922        TOTAL FREE ENERGY PREDICTED BY IDOCK:   -7.17 KCAL/MOL
REMARK 923 INTER-LIGAND FREE ENERGY PREDICTED BY IDOCK:   -6.31 KCAL/MOL
REMARK 924 INTRA-LIGAND FREE ENERGY PREDICTED BY IDOCK:   -0.86 KCAL/MOL
REMARK 927      BINDING AFFINITY PREDICTED BY RF-SCORE:    0.00 PKD
ROOT
HETATM    1  C   UNL     1     -10.343  12.021  64.893  1.00  0.00    -0.278 C  
HETATM    2  N   UNL     1     -10.105  11.957  66.337  1.00  0.00    -0.209 N  
HETATM    3  C   UNL     1      -8.871  11.401  66.704  1.00  0.00    -0.183 C  
HETATM    4  C   UNL     1     -11.131  12.595  67.256  1.00  0.00    -0.278 C  
HETATM    5  C   UNL     1     -10.538  13.682  68.220  1.00  0.00    -0.261 C  
HETATM    6  C   UNL     1     -12.267  13.307  66.459  1.00  0.00    -0.389 C  
HETATM    7  C   UNL     1     -11.874  11.499  68.061  1.00  0.00    -0.287 C  
HETATM    8  O   UNL     1      -8.050  11.075  65.838  1.00  0.00    -0.150 OA 
ENDROOT
BRANCH   3   9
HETATM    9  C   UNL     1      -8.533  11.248  68.195  1.00  0.00    -0.145 C  
BRANCH   9  10
HETATM   10  N   UNL     1      -8.246   9.875  68.663  1.00  0.00    -0.105 NA 
BRANCH  10  11
HETATM   11  C   UNL     1      -8.135   9.812  70.131  1.00  0.00    -0.182 C  
BRANCH  11  12
HETATM   12  C   UNL     1      -6.690   9.939  70.665  1.00  0.00    -0.094 C  
HETATM   13  H   UNL     1      -5.731   9.609  72.358  1.00  0.00     0.000 HD 
HETATM   14  O   UNL     1      -6.618   9.532  72.029  1.00  0.00    -0.295 OA 
ENDBRANCH  11  12
ENDBRANCH  10  11
BRANCH  10  15
HETATM   15  C   UNL     1      -9.194   8.861  68.121  1.00  0.00    -0.139 C  
BRANCH  15  16
HETATM   16  C   UNL     1      -8.520   7.524  67.677  1.00  0.00    -0.117 C  
HETATM   17  C   UNL     1      -8.761   5.129  66.864  1.00  0.00    -0.107 C  
HETATM   18  C   UNL     1     -10.736   6.746  66.821  1.00  0.00    -0.242 C  
HETATM   19  N   UNL     1      -9.342   6.498  67.180  1.00  0.00    -0.123 N  
HETATM   20  C   UNL     1      -7.607   4.638  67.820  1.00  0.00    -0.078 C  
HETATM   21  O   UNL     1      -7.307   7.342  67.802  1.00  0.00    -0.088 OA 
HETATM   22  C   UNL     1      -9.837   4.018  66.871  1.00  0.00    -0.157 C  
HETATM   23  C   UNL     1      -8.171   5.160  65.437  1.00  0.00    -0.124 C  
BRANCH  20  24
HETATM   24  C   UNL     1      -7.880   4.525  69.307  1.00  0.00    -0.062 A  
HETATM   25  C   UNL     1      -6.907   4.994  70.202  1.00  0.00    -0.044 A  
HETATM   26  C   UNL     1      -7.135   4.978  71.579  1.00  0.00    -0.054 A  
HETATM   27  C   UNL     1      -8.348   4.515  72.082  1.00  0.00    -0.109 A  
HETATM   28  C   UNL     1      -9.330   4.068  71.212  1.00  0.00    -0.212 A  
HETATM   29  C   UNL     1      -9.094   4.059  69.843  1.00  0.00    -0.185 A  
ENDBRANCH  20  24
ENDBRANCH  15  16
ENDBRANCH  10  15
ENDBRANCH   9  10
ENDBRANCH   3   9
BRANCH   5  30
HETATM   30  C   UNL     1      -9.778  14.818  67.559  1.00  0.00    -0.213 A  
HETATM   31  C   UNL     1      -7.712  15.889  66.830  1.00  0.00    -0.268 A  
HETATM   32  C   UNL     1     -10.484  15.900  67.016  1.00  0.00    -0.306 A  
HETATM   33  C   UNL     1      -8.380  14.845  67.468  1.00  0.00    -0.195 A  
HETATM   34  C   UNL     1      -8.424  16.971  66.334  1.00  0.00    -0.318 A  
HETATM   35  C   UNL     1      -9.811  16.971  66.420  1.00  0.00    -0.312 A  
ENDBRANCH   5  30
TORSDOF 8
ENDMDL
MODEL      149
REMARK 921   NORMALIZED FREE ENERGY PREDICTED BY IDOCK:   -4.32 KCAL/MOL
REMARK 922        TOTAL FREE ENERGY PREDICTED BY IDOCK:   -7.14 KCAL/MOL
REMARK 923 INTER-LIGAND FREE ENERGY PREDICTED BY IDOCK:   -7.47 KCAL/MOL
REMARK 924 INTRA-LIGAND FREE ENERGY PREDICTED BY IDOCK:    0.34 KCAL/MOL
REMARK 927      BINDING AFFINITY PREDICTED BY RF-SCORE:    0.00 PKD
ROOT
HETATM    1  C   UNL     1      -8.030   7.538  71.306  1.00  0.00    -0.095 C  
HETATM    2  N   UNL     1      -9.440   7.505  70.908  1.00  0.00    -0.165 N  
HETATM    3  C   UNL     1      -9.956   8.736  70.478  1.00  0.00    -0.189 C  
HETATM    4  C   UNL     1     -10.140   6.159  70.881  1.00  0.00    -0.192 C  
HETATM    5  C   UNL     1     -10.778   5.796  69.494  1.00  0.00    -0.408 C  
HETATM    6  C   UNL     1      -9.168   4.987  71.221  1.00  0.00    -0.186 C  
HETATM    7  C   UNL     1     -11.205   6.094  72.005  1.00  0.00    -0.335 C  
HETATM    8  O   UNL     1      -9.219   9.725  70.386  1.00  0.00    -0.237 OA 
ENDROOT
BRANCH   3   9
HETATM    9  C   UNL     1     -11.436   8.826  70.073  1.00  0.00     0.055 C  
BRANCH   9  10
HETATM   10  N   UNL     1     -11.991  10.188  69.927  1.00  0.00    -0.144 NA 
BRANCH  10  11
HETATM   11  C   UNL     1     -12.779  10.584  71.108  1.00  0.00    -0.418 C  
BRANCH  11  12
HETATM   12  C   UNL     1     -13.571   9.429  71.760  1.00  0.00    -0.388 C  
HETATM   13  H   UNL     1     -13.620   8.498  73.499  1.00  0.00     0.000 HD 
HETATM   14  O   UNL     1     -13.133   9.208  73.098  1.00  0.00    -0.128 OA 
ENDBRANCH  11  12
ENDBRANCH  10  11
BRANCH  10  15
HETATM   15  C   UNL     1     -10.963  11.203  69.562  1.00  0.00    -0.220 C  
BRANCH  15  16
HETATM   16  C   UNL     1     -11.446  12.261  68.519  1.00  0.00    -0.303 C  
HETATM   17  C   UNL     1     -11.338  13.201  66.161  1.00  0.00    -0.312 C  
HETATM   18  C   UNL     1     -10.370  10.904  66.716  1.00  0.00    -0.241 C  
HETATM   19  N   UNL     1     -11.015  12.127  67.189  1.00  0.00    -0.254 N  
HETATM   20  C   UNL     1     -11.348  14.682  66.701  1.00  0.00    -0.358 C  
HETATM   21  O   UNL     1     -12.145  13.221  68.852  1.00  0.00    -0.316 OA 
HETATM   22  C   UNL     1     -10.363  13.179  64.961  1.00  0.00    -0.346 C  
HETATM   23  C   UNL     1     -12.746  12.928  65.588  1.00  0.00    -0.100 C  
BRANCH  20  24
HETATM   24  C   UNL     1     -10.097  15.239  67.349  1.00  0.00    -0.232 A  
HETATM   25  C   UNL     1      -8.856  14.703  66.975  1.00  0.00    -0.262 A  
HETATM   26  C   UNL     1      -7.667  15.225  67.488  1.00  0.00    -0.200 A  
HETATM   27  C   UNL     1      -7.699  16.307  68.364  1.00  0.00    -0.169 A  
HETATM   28  C   UNL     1      -8.914  16.865  68.727  1.00  0.00    -0.256 A  
HETATM   29  C   UNL     1     -10.100  16.328  68.238  1.00  0.00    -0.243 A  
ENDBRANCH  20  24
ENDBRANCH  15  16
ENDBRANCH  10  15
ENDBRANCH   9  10
ENDBRANCH   3   9
BRANCH   5  30
HETATM   30  C   UNL     1      -9.840   5.824  68.300  1.00  0.00    -0.170 A  
HETATM   31  C   UNL     1      -8.714   6.982  66.473  1.00  0.00    -0.138 A  
HETATM   32  C   UNL     1      -9.179   4.652  67.912  1.00  0.00    -0.154 A  
HETATM   33  C   UNL     1      -9.602   6.982  67.548  1.00  0.00    -0.155 A  
HETATM   34  C   UNL     1      -8.099   5.804  66.078  1.00  0.00    -0.110 A  
HETATM   35  C   UNL     1      -8.326   4.640  66.803  1.00  0.00    -0.106 A  
ENDBRANCH   5  30
TORSDOF 8
ENDMDL
MODEL      150
REMARK 921   NORMALIZED FREE ENERGY PREDICTED BY IDOCK:   -4.29 KCAL/MOL
REMARK 922        TOTAL FREE ENERGY PREDICTED BY IDOCK:   -7.10 KCAL/MOL
REMARK 923 INTER-LIGAND FREE ENERGY PREDICTED BY IDOCK:   -6.84 KCAL/MOL
REMARK 924 INTRA-LIGAND FREE ENERGY PREDICTED BY IDOCK:   -0.27 KCAL/MOL
REMARK 927      BINDING AFFINITY PREDICTED BY RF-SCORE:    0.00 PKD
ROOT
HETATM    1  C   UNL     1     -10.759  16.136  67.878  1.00  0.00    -0.321 C  
HETATM    2  N   UNL     1     -10.078  14.840  67.862  1.00  0.00    -0.220 N  
HETATM    3  C   UNL     1      -8.877  14.799  68.584  1.00  0.00    -0.180 C  
HETATM    4  C   UNL     1     -10.784  13.674  67.192  1.00  0.00    -0.277 C  
HETATM    5  C   UNL     1     -10.987  12.428  68.125  1.00  0.00    -0.263 C  
HETATM    6  C   UNL     1     -12.208  14.064  66.688  1.00  0.00    -0.463 C  
HETATM    7  C   UNL     1     -10.031  13.271  65.899  1.00  0.00    -0.280 C  
HETATM    8  O   UNL     1      -8.503  15.785  69.230  1.00  0.00    -0.238 OA 
ENDROOT
BRANCH   3   9
HETATM    9  C   UNL     1      -8.059  13.498  68.602  1.00  0.00    -0.055 C  
BRANCH   9  10
HETATM   10  N   UNL     1      -6.787  13.515  67.847  1.00  0.00    -0.132 NA 
BRANCH  10  11
HETATM   11  C   UNL     1      -5.736  14.254  68.570  1.00  0.00    -0.096 C  
BRANCH  11  12
HETATM   12  C   UNL     1      -5.176  15.474  67.805  1.00  0.00    -0.095 C  
HETATM   13  H   UNL     1      -5.834  16.805  66.506  1.00  0.00     0.000 HD 
HETATM   14  O   UNL     1      -6.179  16.055  66.977  1.00  0.00    -0.314 OA 
ENDBRANCH  11  12
ENDBRANCH  10  11
BRANCH  10  15
HETATM   15  C   UNL     1      -6.340  12.159  67.423  1.00  0.00    -0.144 C  
BRANCH  15  16
HETATM   16  C   UNL     1      -7.310  11.005  67.831  1.00  0.00    -0.092 C  
HETATM   17  C   UNL     1      -7.875   9.088  69.399  1.00  0.00    -0.094 C  
HETATM   18  C   UNL     1      -6.081  10.803  69.998  1.00  0.00    -0.107 C  
HETATM   19  N   UNL     1      -7.049  10.308  69.022  1.00  0.00    -0.066 N  
HETATM   20  C   UNL     1      -8.341   8.180  68.198  1.00  0.00    -0.129 C  
HETATM   21  O   UNL     1      -8.253  10.672  67.110  1.00  0.00    -0.119 OA 
HETATM   22  C   UNL     1      -7.134   8.159  70.389  1.00  0.00    -0.041 C  
HETATM   23  C   UNL     1      -9.157   9.563  70.119  1.00  0.00    -0.276 C  
BRANCH  20  24
HETATM   24  C   UNL     1      -7.296   7.576  67.282  1.00  0.00    -0.098 A  
HETATM   25  C   UNL     1      -6.389   6.652  67.822  1.00  0.00    -0.044 A  
HETATM   26  C   UNL     1      -5.450   6.013  67.009  1.00  0.00    -0.009 A  
HETATM   27  C   UNL     1      -5.419   6.269  65.641  1.00  0.00    -0.014 A  
HETATM   28  C   UNL     1      -6.321   7.162  65.086  1.00  0.00    -0.037 A  
HETATM   29  C   UNL     1      -7.238   7.819  65.898  1.00  0.00    -0.072 A  
ENDBRANCH  20  24
ENDBRANCH  15  16
ENDBRANCH  10  15
ENDBRANCH   9  10
ENDBRANCH   3   9
BRANCH   5  30
HETATM   30  C   UNL     1     -11.712  12.684  69.434  1.00  0.00    -0.387 A  
HETATM   31  C   UNL     1     -12.653  14.175  71.119  1.00  0.00    -0.439 A  
HETATM   32  C   UNL     1     -12.158  11.600  70.202  1.00  0.00    -0.414 A  
HETATM   33  C   UNL     1     -11.959  13.972  69.926  1.00  0.00    -0.399 A  
HETATM   34  C   UNL     1     -13.051  13.091  71.885  1.00  0.00    -0.483 A  
HETATM   35  C   UNL     1     -12.810  11.803  71.422  1.00  0.00    -0.440 A  
ENDBRANCH   5  30
TORSDOF 8
ENDMDL
MODEL      151
REMARK 921   NORMALIZED FREE ENERGY PREDICTED BY IDOCK:   -4.29 KCAL/MOL
REMARK 922        TOTAL FREE ENERGY PREDICTED BY IDOCK:   -7.10 KCAL/MOL
REMARK 923 INTER-LIGAND FREE ENERGY PREDICTED BY IDOCK:   -6.41 KCAL/MOL
REMARK 924 INTRA-LIGAND FREE ENERGY PREDICTED BY IDOCK:   -0.69 KCAL/MOL
REMARK 927      BINDING AFFINITY PREDICTED BY RF-SCORE:    0.00 PKD
ROOT
HETATM    1  C   UNL     1     -11.071   8.796  71.092  1.00  0.00    -0.276 C  
HETATM    2  N   UNL     1     -10.654   8.689  69.692  1.00  0.00    -0.222 N  
HETATM    3  C   UNL     1     -10.894   9.833  68.918  1.00  0.00    -0.192 C  
HETATM    4  C   UNL     1      -9.912   7.435  69.266  1.00  0.00    -0.173 C  
HETATM    5  C   UNL     1      -8.509   7.711  68.617  1.00  0.00    -0.129 C  
HETATM    6  C   UNL     1      -9.643   6.477  70.467  1.00  0.00    -0.180 C  
HETATM    7  C   UNL     1     -10.797   6.593  68.312  1.00  0.00    -0.322 C  
HETATM    8  O   UNL     1     -11.354  10.856  69.441  1.00  0.00    -0.232 OA 
ENDROOT
BRANCH   3   9
HETATM    9  C   UNL     1     -10.532   9.816  67.425  1.00  0.00    -0.259 C  
BRANCH   9  10
HETATM   10  N   UNL     1      -9.412  10.691  67.015  1.00  0.00    -0.162 NA 
BRANCH  10  11
HETATM   11  C   UNL     1      -8.595  10.068  65.958  1.00  0.00    -0.138 C  
BRANCH  11  12
HETATM   12  C   UNL     1      -9.227  10.125  64.549  1.00  0.00    -0.257 C  
HETATM   13  H   UNL     1      -8.660  10.591  62.717  1.00  0.00     0.000 HD 
HETATM   14  O   UNL     1      -8.272  10.556  63.584  1.00  0.00    -0.152 OA 
ENDBRANCH  11  12
ENDBRANCH  10  11
BRANCH  10  15
HETATM   15  C   UNL     1      -9.847  12.071  66.658  1.00  0.00    -0.204 C  
BRANCH  15  16
HETATM   16  C   UNL     1      -9.840  13.076  67.854  1.00  0.00    -0.224 C  
HETATM   17  C   UNL     1     -10.869  15.089  69.012  1.00  0.00    -0.242 C  
HETATM   18  C   UNL     1     -12.105  13.862  67.146  1.00  0.00    -0.387 C  
HETATM   19  N   UNL     1     -10.895  13.998  67.953  1.00  0.00    -0.242 N  
HETATM   20  C   UNL     1      -9.448  15.681  69.349  1.00  0.00    -0.279 C  
HETATM   21  O   UNL     1      -8.912  13.103  68.665  1.00  0.00    -0.091 OA 
HETATM   22  C   UNL     1     -11.767  16.292  68.640  1.00  0.00    -0.113 C  
HETATM   23  C   UNL     1     -11.432  14.511  70.329  1.00  0.00    -0.281 C  
BRANCH  20  24
HETATM   24  C   UNL     1      -8.628  16.307  68.239  1.00  0.00    -0.196 A  
HETATM   25  C   UNL     1      -7.233  16.160  68.275  1.00  0.00    -0.136 A  
HETATM   26  C   UNL     1      -6.435  16.657  67.243  1.00  0.00    -0.215 A  
HETATM   27  C   UNL     1      -7.020  17.286  66.147  1.00  0.00    -0.251 A  
HETATM   28  C   UNL     1      -8.397  17.421  66.083  1.00  0.00    -0.217 A  
HETATM   29  C   UNL     1      -9.191  16.951  67.123  1.00  0.00    -0.238 A  
ENDBRANCH  20  24
ENDBRANCH  15  16
ENDBRANCH  10  15
ENDBRANCH   9  10
ENDBRANCH   3   9
BRANCH   5  30
HETATM   30  C   UNL     1      -7.539   8.531  69.448  1.00  0.00    -0.090 A  
HETATM   31  C   UNL     1      -6.147  10.500  69.812  1.00  0.00    -0.065 A  
HETATM   32  C   UNL     1      -7.131   8.060  70.703  1.00  0.00    -0.045 A  
HETATM   33  C   UNL     1      -7.015   9.756  69.015  1.00  0.00    -0.058 A  
HETATM   34  C   UNL     1      -5.722   9.999  71.033  1.00  0.00    -0.083 A  
HETATM   35  C   UNL     1      -6.221   8.782  71.481  1.00  0.00    -0.062 A  
ENDBRANCH   5  30
TORSDOF 8
ENDMDL
MODEL      152
REMARK 921   NORMALIZED FREE ENERGY PREDICTED BY IDOCK:   -4.29 KCAL/MOL
REMARK 922        TOTAL FREE ENERGY PREDICTED BY IDOCK:   -7.10 KCAL/MOL
REMARK 923 INTER-LIGAND FREE ENERGY PREDICTED BY IDOCK:   -5.88 KCAL/MOL
REMARK 924 INTRA-LIGAND FREE ENERGY PREDICTED BY IDOCK:   -1.22 KCAL/MOL
REMARK 927      BINDING AFFINITY PREDICTED BY RF-SCORE:    0.00 PKD
ROOT
HETATM    1  C   UNL     1     -10.492   8.238  66.897  1.00  0.00    -0.295 C  
HETATM    2  N   UNL     1      -9.136   7.770  67.192  1.00  0.00    -0.130 N  
HETATM    3  C   UNL     1      -9.042   6.894  68.284  1.00  0.00    -0.125 C  
HETATM    4  C   UNL     1      -8.024   8.166  66.238  1.00  0.00    -0.101 C  
HETATM    5  C   UNL     1      -7.234   6.950  65.636  1.00  0.00    -0.073 C  
HETATM    6  C   UNL     1      -8.561   8.971  65.015  1.00  0.00    -0.207 C  
HETATM    7  C   UNL     1      -7.055   9.154  66.935  1.00  0.00    -0.082 C  
HETATM    8  O   UNL     1     -10.063   6.517  68.872  1.00  0.00    -0.153 OA 
ENDROOT
BRANCH   3   9
HETATM    9  C   UNL     1      -7.660   6.372  68.706  1.00  0.00    -0.093 C  
BRANCH   9  10
HETATM   10  N   UNL     1      -7.639   5.061  69.392  1.00  0.00    -0.060 NA 
BRANCH  10  11
HETATM   11  C   UNL     1      -7.141   3.993  68.506  1.00  0.00    -0.055 C  
BRANCH  11  12
HETATM   12  C   UNL     1      -8.051   2.746  68.440  1.00  0.00    -0.060 C  
HETATM   13  H   UNL     1      -9.980   2.359  68.288  1.00  0.00     0.000 HD 
HETATM   14  O   UNL     1      -9.420   3.126  68.329  1.00  0.00    -0.193 OA 
ENDBRANCH  11  12
ENDBRANCH  10  11
BRANCH  10  15
HETATM   15  C   UNL     1      -6.925   5.095  70.699  1.00  0.00    -0.052 C  
BRANCH  15  16
HETATM   16  C   UNL     1      -7.761   5.700  71.871  1.00  0.00    -0.105 C  
HETATM   17  C   UNL     1      -9.964   5.842  73.129  1.00  0.00    -0.176 C  
HETATM   18  C   UNL     1      -9.516   3.970  71.452  1.00  0.00    -0.160 C  
HETATM   19  N   UNL     1      -9.054   5.198  72.095  1.00  0.00    -0.135 N  
HETATM   20  C   UNL     1      -9.835   7.406  73.273  1.00  0.00    -0.322 C  
HETATM   21  O   UNL     1      -7.329   6.630  72.556  1.00  0.00    -0.086 OA 
HETATM   22  C   UNL     1     -11.459   5.548  72.862  1.00  0.00    -0.327 C  
HETATM   23  C   UNL     1      -9.639   5.241  74.515  1.00  0.00    -0.164 C  
BRANCH  20  24
HETATM   24  C   UNL     1     -10.078   8.281  72.060  1.00  0.00    -0.331 A  
HETATM   25  C   UNL     1     -11.403   8.536  71.674  1.00  0.00    -0.362 A  
HETATM   26  C   UNL     1     -11.685   9.390  70.607  1.00  0.00    -0.302 A  
HETATM   27  C   UNL     1     -10.650  10.021  69.923  1.00  0.00    -0.324 A  
HETATM   28  C   UNL     1      -9.336   9.799  70.303  1.00  0.00    -0.236 A  
HETATM   29  C   UNL     1      -9.052   8.928  71.348  1.00  0.00    -0.318 A  
ENDBRANCH  20  24
ENDBRANCH  15  16
ENDBRANCH  10  15
ENDBRANCH   9  10
ENDBRANCH   3   9
BRANCH   5  30
HETATM   30  C   UNL     1      -8.066   5.900  64.923  1.00  0.00    -0.132 A  
HETATM   31  C   UNL     1      -9.788   4.173  64.893  1.00  0.00    -0.202 A  
HETATM   32  C   UNL     1      -7.887   5.689  63.550  1.00  0.00    -0.101 A  
HETATM   33  C   UNL     1      -9.019   5.111  65.581  1.00  0.00    -0.154 A  
HETATM   34  C   UNL     1      -9.569   3.949  63.542  1.00  0.00    -0.147 A  
HETATM   35  C   UNL     1      -8.623   4.714  62.870  1.00  0.00    -0.114 A  
ENDBRANCH   5  30
TORSDOF 8
ENDMDL
MODEL      153
REMARK 921   NORMALIZED FREE ENERGY PREDICTED BY IDOCK:   -4.28 KCAL/MOL
REMARK 922        TOTAL FREE ENERGY PREDICTED BY IDOCK:   -7.09 KCAL/MOL
REMARK 923 INTER-LIGAND FREE ENERGY PREDICTED BY IDOCK:   -6.58 KCAL/MOL
REMARK 924 INTRA-LIGAND FREE ENERGY PREDICTED BY IDOCK:   -0.51 KCAL/MOL
REMARK 927      BINDING AFFINITY PREDICTED BY RF-SCORE:    0.00 PKD
ROOT
HETATM    1  C   UNL     1      -9.033  11.449  65.000  1.00  0.00     0.068 C  
HETATM    2  N   UNL     1      -9.723  11.778  66.250  1.00  0.00    -0.216 N  
HETATM    3  C   UNL     1      -9.317  11.025  67.360  1.00  0.00    -0.155 C  
HETATM    4  C   UNL     1     -10.686  12.951  66.241  1.00  0.00    -0.274 C  
HETATM    5  C   UNL     1     -10.355  14.059  67.303  1.00  0.00    -0.264 C  
HETATM    6  C   UNL     1     -10.711  13.679  64.862  1.00  0.00    -0.400 C  
HETATM    7  C   UNL     1     -12.140  12.444  66.418  1.00  0.00    -0.215 C  
HETATM    8  O   UNL     1      -8.390  10.212  67.259  1.00  0.00    -0.121 OA 
ENDROOT
BRANCH   3   9
HETATM    9  C   UNL     1     -10.003  11.261  68.715  1.00  0.00    -0.193 C  
BRANCH   9  10
HETATM   10  N   UNL     1     -10.174  10.071  69.576  1.00  0.00    -0.219 NA 
BRANCH  10  11
HETATM   11  C   UNL     1     -11.105  10.334  70.688  1.00  0.00    -0.280 C  
BRANCH  11  12
HETATM   12  C   UNL     1     -12.084  11.502  70.434  1.00  0.00    -0.382 C  
HETATM   13  H   UNL     1     -13.375  12.571  71.475  1.00  0.00     0.000 HD 
HETATM   14  O   UNL     1     -12.773  11.853  71.631  1.00  0.00    -0.317 OA 
ENDBRANCH  11  12
ENDBRANCH  10  11
BRANCH  10  15
HETATM   15  C   UNL     1     -10.533   8.842  68.813  1.00  0.00    -0.200 C  
BRANCH  15  16
HETATM   16  C   UNL     1      -9.782   7.554  69.278  1.00  0.00    -0.163 C  
HETATM   17  C   UNL     1      -9.732   5.466  70.723  1.00  0.00    -0.180 C  
HETATM   18  C   UNL     1     -11.896   6.768  70.355  1.00  0.00    -0.338 C  
HETATM   19  N   UNL     1     -10.457   6.662  70.128  1.00  0.00    -0.202 N  
HETATM   20  C   UNL     1      -8.216   5.698  71.089  1.00  0.00    -0.121 C  
HETATM   21  O   UNL     1      -8.611   7.342  68.958  1.00  0.00    -0.129 OA 
HETATM   22  C   UNL     1     -10.417   4.942  72.007  1.00  0.00    -0.245 C  
HETATM   23  C   UNL     1      -9.768   4.307  69.702  1.00  0.00    -0.284 C  
BRANCH  20  24
HETATM   24  C   UNL     1      -7.854   6.799  72.066  1.00  0.00    -0.096 A  
HETATM   25  C   UNL     1      -8.318   6.699  73.386  1.00  0.00    -0.127 A  
HETATM   26  C   UNL     1      -7.958   7.648  74.345  1.00  0.00    -0.243 A  
HETATM   27  C   UNL     1      -7.108   8.697  74.006  1.00  0.00    -0.058 A  
HETATM   28  C   UNL     1      -6.621   8.800  72.712  1.00  0.00     0.017 A  
HETATM   29  C   UNL     1      -7.001   7.871  71.750  1.00  0.00    -0.068 A  
ENDBRANCH  20  24
ENDBRANCH  15  16
ENDBRANCH  10  15
ENDBRANCH   9  10
ENDBRANCH   3   9
BRANCH   5  30
HETATM   30  C   UNL     1      -8.955  14.644  67.245  1.00  0.00    -0.216 A  
HETATM   31  C   UNL     1      -6.547  14.505  67.602  1.00  0.00    -0.174 A  
HETATM   32  C   UNL     1      -8.764  15.931  66.727  1.00  0.00    -0.303 A  
HETATM   33  C   UNL     1      -7.823  13.952  67.695  1.00  0.00    -0.187 A  
HETATM   34  C   UNL     1      -6.381  15.795  67.124  1.00  0.00     0.003 A  
HETATM   35  C   UNL     1      -7.490  16.505  66.679  1.00  0.00    -0.296 A  
ENDBRANCH   5  30
TORSDOF 8
ENDMDL
MODEL      154
REMARK 921   NORMALIZED FREE ENERGY PREDICTED BY IDOCK:   -4.28 KCAL/MOL
REMARK 922        TOTAL FREE ENERGY PREDICTED BY IDOCK:   -7.09 KCAL/MOL
REMARK 923 INTER-LIGAND FREE ENERGY PREDICTED BY IDOCK:   -5.71 KCAL/MOL
REMARK 924 INTRA-LIGAND FREE ENERGY PREDICTED BY IDOCK:   -1.38 KCAL/MOL
REMARK 927      BINDING AFFINITY PREDICTED BY RF-SCORE:    0.00 PKD
ROOT
HETATM    1  C   UNL     1      -7.405   7.412  68.473  1.00  0.00    -0.100 C  
HETATM    2  N   UNL     1      -8.423   8.344  67.983  1.00  0.00    -0.131 N  
HETATM    3  C   UNL     1      -8.480   9.565  68.670  1.00  0.00    -0.119 C  
HETATM    4  C   UNL     1      -9.202   7.955  66.739  1.00  0.00    -0.166 C  
HETATM    5  C   UNL     1      -9.117   9.006  65.577  1.00  0.00    -0.271 C  
HETATM    6  C   UNL     1      -8.702   6.609  66.132  1.00  0.00    -0.154 C  
HETATM    7  C   UNL     1     -10.680   7.669  67.108  1.00  0.00    -0.361 C  
HETATM    8  O   UNL     1      -7.663   9.818  69.563  1.00  0.00    -0.093 OA 
ENDROOT
BRANCH   3   9
HETATM    9  C   UNL     1      -9.539  10.602  68.264  1.00  0.00    -0.162 C  
BRANCH   9  10
HETATM   10  N   UNL     1     -10.881  10.435  68.863  1.00  0.00    -0.221 NA 
BRANCH  10  11
HETATM   11  C   UNL     1     -10.956  11.039  70.206  1.00  0.00     0.122 C  
BRANCH  11  12
HETATM   12  C   UNL     1     -12.286  10.776  70.947  1.00  0.00    -0.384 C  
HETATM   13  H   UNL     1     -13.282   9.221  71.642  1.00  0.00     0.000 HD 
HETATM   14  O   UNL     1     -12.464   9.383  71.186  1.00  0.00    -0.308 OA 
ENDBRANCH  11  12
ENDBRANCH  10  11
BRANCH  10  15
HETATM   15  C   UNL     1     -11.982  10.895  67.971  1.00  0.00     0.216 C  
BRANCH  15  16
HETATM   16  C   UNL     1     -11.904  12.405  67.581  1.00  0.00    -0.295 C  
HETATM   17  C   UNL     1     -11.287  14.185  65.876  1.00  0.00    -0.323 C  
HETATM   18  C   UNL     1     -11.450  11.723  65.219  1.00  0.00    -0.186 C  
HETATM   19  N   UNL     1     -11.515  12.734  66.272  1.00  0.00    -0.334 N  
HETATM   20  C   UNL     1     -10.672  15.110  66.994  1.00  0.00    -0.307 C  
HETATM   21  O   UNL     1     -12.126  13.295  68.405  1.00  0.00    -0.333 OA 
HETATM   22  C   UNL     1     -10.366  14.320  64.641  1.00  0.00    -0.256 C  
HETATM   23  C   UNL     1     -12.644  14.808  65.483  1.00  0.00     0.032 C  
BRANCH  20  24
HETATM   24  C   UNL     1      -9.334  14.741  67.603  1.00  0.00    -0.195 A  
HETATM   25  C   UNL     1      -8.993  15.289  68.849  1.00  0.00    -0.209 A  
HETATM   26  C   UNL     1      -7.805  14.929  69.487  1.00  0.00    -0.102 A  
HETATM   27  C   UNL     1      -6.951  13.998  68.903  1.00  0.00    -0.110 A  
HETATM   28  C   UNL     1      -7.281  13.429  67.683  1.00  0.00    -0.167 A  
HETATM   29  C   UNL     1      -8.451  13.806  67.034  1.00  0.00    -0.150 A  
ENDBRANCH  20  24
ENDBRANCH  15  16
ENDBRANCH  10  15
ENDBRANCH   9  10
ENDBRANCH   3   9
BRANCH   5  30
HETATM   30  C   UNL     1      -7.720   9.382  65.117  1.00  0.00    -0.109 A  
HETATM   31  C   UNL     1      -5.642  10.638  65.347  1.00  0.00    -0.140 A  
HETATM   32  C   UNL     1      -7.177   8.768  63.981  1.00  0.00    -0.095 A  
HETATM   33  C   UNL     1      -6.933  10.334  65.778  1.00  0.00    -0.128 A  
HETATM   34  C   UNL     1      -5.136  10.050  64.199  1.00  0.00    -0.084 A  
HETATM   35  C   UNL     1      -5.901   9.109  63.520  1.00  0.00    -0.086 A  
ENDBRANCH   5  30
TORSDOF 8
ENDMDL
MODEL      155
REMARK 921   NORMALIZED FREE ENERGY PREDICTED BY IDOCK:   -4.27 KCAL/MOL
REMARK 922        TOTAL FREE ENERGY PREDICTED BY IDOCK:   -7.08 KCAL/MOL
REMARK 923 INTER-LIGAND FREE ENERGY PREDICTED BY IDOCK:   -6.34 KCAL/MOL
REMARK 924 INTRA-LIGAND FREE ENERGY PREDICTED BY IDOCK:   -0.73 KCAL/MOL
REMARK 927      BINDING AFFINITY PREDICTED BY RF-SCORE:    0.00 PKD
ROOT
HETATM    1  C   UNL     1      -6.408   5.437  70.102  1.00  0.00    -0.030 C  
HETATM    2  N   UNL     1      -7.307   6.462  69.567  1.00  0.00    -0.085 N  
HETATM    3  C   UNL     1      -8.181   6.011  68.567  1.00  0.00    -0.110 C  
HETATM    4  C   UNL     1      -7.289   7.833  70.218  1.00  0.00    -0.067 C  
HETATM    5  C   UNL     1      -8.688   8.309  70.746  1.00  0.00    -0.151 C  
HETATM    6  C   UNL     1      -6.331   7.885  71.447  1.00  0.00    -0.035 C  
HETATM    7  C   UNL     1      -6.693   8.876  69.238  1.00  0.00    -0.050 C  
HETATM    8  O   UNL     1      -8.205   4.816  68.251  1.00  0.00    -0.088 OA 
ENDROOT
BRANCH   3   9
HETATM    9  C   UNL     1      -9.142   7.012  67.907  1.00  0.00    -0.127 C  
BRANCH   9  10
HETATM   10  N   UNL     1      -8.670   7.643  66.655  1.00  0.00    -0.134 NA 
BRANCH  10  11
HETATM   11  C   UNL     1      -8.265   6.635  65.659  1.00  0.00    -0.137 C  
BRANCH  11  12
HETATM   12  C   UNL     1      -7.824   7.227  64.301  1.00  0.00    -0.125 C  
HETATM   13  H   UNL     1      -6.244   8.145  63.558  1.00  0.00     0.000 HD 
HETATM   14  O   UNL     1      -6.515   7.782  64.392  1.00  0.00    -0.051 OA 
ENDBRANCH  11  12
ENDBRANCH  10  11
BRANCH  10  15
HETATM   15  C   UNL     1      -9.632   8.636  66.101  1.00  0.00    -0.235 C  
BRANCH  15  16
HETATM   16  C   UNL     1      -9.217  10.126  66.323  1.00  0.00    -0.157 C  
HETATM   17  C   UNL     1      -9.588  12.333  67.524  1.00  0.00    -0.184 C  
HETATM   18  C   UNL     1     -10.660  10.174  68.364  1.00  0.00    -0.217 C  
HETATM   19  N   UNL     1      -9.849  10.845  67.351  1.00  0.00    -0.171 N  
HETATM   20  C   UNL     1      -9.370  13.148  66.193  1.00  0.00    -0.086 C  
HETATM   21  O   UNL     1      -8.396  10.681  65.590  1.00  0.00    -0.161 OA 
HETATM   22  C   UNL     1     -10.727  13.045  68.291  1.00  0.00    -0.261 C  
HETATM   23  C   UNL     1      -8.309  12.515  68.370  1.00  0.00    -0.132 C  
BRANCH  20  24
HETATM   24  C   UNL     1     -10.459  13.145  65.139  1.00  0.00    -0.339 A  
HETATM   25  C   UNL     1     -11.249  14.295  64.992  1.00  0.00    -0.364 A  
HETATM   26  C   UNL     1     -12.220  14.372  63.992  1.00  0.00    -0.300 A  
HETATM   27  C   UNL     1     -12.400  13.312  63.108  1.00  0.00    -0.163 A  
HETATM   28  C   UNL     1     -11.614  12.176  63.223  1.00  0.00    -0.418 A  
HETATM   29  C   UNL     1     -10.665  12.087  64.235  1.00  0.00    -0.382 A  
ENDBRANCH  20  24
ENDBRANCH  15  16
ENDBRANCH  10  15
ENDBRANCH   9  10
ENDBRANCH   3   9
BRANCH   5  30
HETATM   30  C   UNL     1      -9.389   7.375  71.716  1.00  0.00    -0.161 A  
HETATM   31  C   UNL     1     -10.832   5.473  72.212  1.00  0.00    -0.297 A  
HETATM   32  C   UNL     1      -9.212   7.549  73.095  1.00  0.00    -0.244 A  
HETATM   33  C   UNL     1     -10.224   6.331  71.297  1.00  0.00    -0.238 A  
HETATM   34  C   UNL     1     -10.678   5.684  73.573  1.00  0.00    -0.311 A  
HETATM   35  C   UNL     1      -9.861   6.719  74.014  1.00  0.00    -0.334 A  
ENDBRANCH   5  30
TORSDOF 8
ENDMDL
MODEL      156
REMARK 921   NORMALIZED FREE ENERGY PREDICTED BY IDOCK:   -4.26 KCAL/MOL
REMARK 922        TOTAL FREE ENERGY PREDICTED BY IDOCK:   -7.05 KCAL/MOL
REMARK 923 INTER-LIGAND FREE ENERGY PREDICTED BY IDOCK:   -7.82 KCAL/MOL
REMARK 924 INTRA-LIGAND FREE ENERGY PREDICTED BY IDOCK:    0.76 KCAL/MOL
REMARK 927      BINDING AFFINITY PREDICTED BY RF-SCORE:    0.00 PKD
ROOT
HETATM    1  C   UNL     1     -11.338  13.765  69.237  1.00  0.00    -0.273 C  
HETATM    2  N   UNL     1     -10.275  13.190  68.410  1.00  0.00    -0.248 N  
HETATM    3  C   UNL     1     -10.642  12.039  67.698  1.00  0.00    -0.210 C  
HETATM    4  C   UNL     1      -8.963  13.947  68.313  1.00  0.00    -0.187 C  
HETATM    5  C   UNL     1      -8.536  14.302  66.845  1.00  0.00    -0.133 C  
HETATM    6  C   UNL     1      -9.011  15.303  69.082  1.00  0.00    -0.233 C  
HETATM    7  C   UNL     1      -7.840  13.155  69.031  1.00  0.00     0.233 C  
HETATM    8  O   UNL     1     -11.807  11.625  67.737  1.00  0.00    -0.564 OA 
ENDROOT
BRANCH   3   9
HETATM    9  C   UNL     1      -9.592  11.330  66.829  1.00  0.00    -0.193 C  
BRANCH   9  10
HETATM   10  N   UNL     1     -10.099  10.288  65.911  1.00  0.00    -0.256 NA 
BRANCH  10  11
HETATM   11  C   UNL     1      -9.210  10.107  64.749  1.00  0.00    -0.242 C  
BRANCH  11  12
HETATM   12  C   UNL     1      -9.628  10.912  63.498  1.00  0.00    -0.319 C  
HETATM   13  H   UNL     1     -11.299  11.578  62.687  1.00  0.00     0.000 HD 
HETATM   14  O   UNL     1     -11.042  11.083  63.456  1.00  0.00    -0.193 OA 
ENDBRANCH  11  12
ENDBRANCH  10  11
BRANCH  10  15
HETATM   15  C   UNL     1     -10.406   9.001  66.598  1.00  0.00    -0.219 C  
BRANCH  15  16
HETATM   16  C   UNL     1      -9.634   8.790  67.939  1.00  0.00    -0.145 C  
HETATM   17  C   UNL     1      -8.686   7.198  69.678  1.00  0.00    -0.141 C  
HETATM   18  C   UNL     1      -9.435   6.360  67.386  1.00  0.00    -0.116 C  
HETATM   19  N   UNL     1      -9.312   7.476  68.320  1.00  0.00    -0.141 N  
HETATM   20  C   UNL     1      -9.177   8.122  70.858  1.00  0.00    -0.171 C  
HETATM   21  O   UNL     1      -9.355   9.737  68.677  1.00  0.00    -0.142 OA 
HETATM   22  C   UNL     1      -8.910   5.740  70.142  1.00  0.00    -0.144 C  
HETATM   23  C   UNL     1      -7.159   7.394  69.567  1.00  0.00    -0.069 C  
BRANCH  20  24
HETATM   24  C   UNL     1     -10.653   8.161  71.199  1.00  0.00    -0.242 A  
HETATM   25  C   UNL     1     -11.261   9.411  71.387  1.00  0.00    -0.452 A  
HETATM   26  C   UNL     1     -12.632   9.510  71.634  1.00  0.00    -0.476 A  
HETATM   27  C   UNL     1     -13.420   8.363  71.672  1.00  0.00    -0.363 A  
HETATM   28  C   UNL     1     -12.841   7.121  71.467  1.00  0.00    -0.434 A  
HETATM   29  C   UNL     1     -11.472   7.020  71.248  1.00  0.00    -0.324 A  
ENDBRANCH  20  24
ENDBRANCH  15  16
ENDBRANCH  10  15
ENDBRANCH   9  10
ENDBRANCH   3   9
BRANCH   5  30
HETATM   30  C   UNL     1      -9.549  15.079  66.024  1.00  0.00    -0.359 A  
HETATM   31  C   UNL     1     -11.423  15.198  64.468  1.00  0.00    -0.319 A  
HETATM   32  C   UNL     1      -9.562  16.479  66.085  1.00  0.00    -0.344 A  
HETATM   33  C   UNL     1     -10.487  14.458  65.189  1.00  0.00    -0.437 A  
HETATM   34  C   UNL     1     -11.395  16.583  64.509  1.00  0.00    -0.017 A  
HETATM   35  C   UNL     1     -10.469  17.223  65.324  1.00  0.00     0.054 A  
ENDBRANCH   5  30
TORSDOF 8
ENDMDL
MODEL      157
REMARK 921   NORMALIZED FREE ENERGY PREDICTED BY IDOCK:   -4.20 KCAL/MOL
REMARK 922        TOTAL FREE ENERGY PREDICTED BY IDOCK:   -6.98 KCAL/MOL
REMARK 923 INTER-LIGAND FREE ENERGY PREDICTED BY IDOCK:   -6.20 KCAL/MOL
REMARK 924 INTRA-LIGAND FREE ENERGY PREDICTED BY IDOCK:   -0.77 KCAL/MOL
REMARK 927      BINDING AFFINITY PREDICTED BY RF-SCORE:    0.00 PKD
ROOT
HETATM    1  C   UNL     1     -10.840  13.157  65.754  1.00  0.00    -0.273 C  
HETATM    2  N   UNL     1      -9.775  12.611  66.599  1.00  0.00    -0.243 N  
HETATM    3  C   UNL     1      -8.793  13.536  66.978  1.00  0.00    -0.211 C  
HETATM    4  C   UNL     1      -9.909  11.173  67.068  1.00  0.00    -0.185 C  
HETATM    5  C   UNL     1      -9.859  11.002  68.628  1.00  0.00    -0.197 C  
HETATM    6  C   UNL     1     -11.255  10.531  66.613  1.00  0.00     0.135 C  
HETATM    7  C   UNL     1      -8.830  10.292  66.389  1.00  0.00    -0.158 C  
HETATM    8  O   UNL     1      -8.901  14.727  66.661  1.00  0.00    -0.255 OA 
ENDROOT
BRANCH   3   9
HETATM    9  C   UNL     1      -7.607  13.061  67.832  1.00  0.00    -0.144 C  
BRANCH   9  10
HETATM   10  N   UNL     1      -6.971  14.083  68.691  1.00  0.00    -0.099 NA 
BRANCH  10  11
HETATM   11  C   UNL     1      -6.655  13.549  70.028  1.00  0.00     0.112 C  
BRANCH  11  12
HETATM   12  C   UNL     1      -5.229  12.967  70.159  1.00  0.00    -0.100 C  
HETATM   13  H   UNL     1      -4.397  11.195  70.407  1.00  0.00     0.000 HD 
HETATM   14  O   UNL     1      -5.274  11.553  70.326  1.00  0.00    -0.074 OA 
ENDBRANCH  11  12
ENDBRANCH  10  11
BRANCH  10  15
HETATM   15  C   UNL     1      -5.797  14.739  68.049  1.00  0.00    -0.146 C  
BRANCH  15  16
HETATM   16  C   UNL     1      -6.044  16.221  67.622  1.00  0.00    -0.149 C  
HETATM   17  C   UNL     1      -6.435  18.642  68.284  1.00  0.00    -0.215 C  
HETATM   18  C   UNL     1      -5.597  16.926  69.978  1.00  0.00    -0.222 C  
HETATM   19  N   UNL     1      -6.063  17.207  68.622  1.00  0.00    -0.149 N  
HETATM   20  C   UNL     1      -7.537  18.818  67.170  1.00  0.00    -0.239 C  
HETATM   21  O   UNL     1      -6.268  16.523  66.448  1.00  0.00    -0.231 OA 
HETATM   22  C   UNL     1      -6.934  19.427  69.520  1.00  0.00    -0.280 C  
HETATM   23  C   UNL     1      -5.173  19.374  67.778  1.00  0.00    -0.173 C  
BRANCH  20  24
HETATM   24  C   UNL     1      -8.898  18.183  67.373  1.00  0.00    -0.256 A  
HETATM   25  C   UNL     1      -9.668  17.878  66.240  1.00  0.00    -0.278 A  
HETATM   26  C   UNL     1     -10.898  17.230  66.364  1.00  0.00     0.061 A  
HETATM   27  C   UNL     1     -11.367  16.854  67.620  1.00  0.00     0.213 A  
HETATM   28  C   UNL     1     -10.611  17.127  68.749  1.00  0.00    -0.336 A  
HETATM   29  C   UNL     1      -9.398  17.796  68.629  1.00  0.00    -0.275 A  
ENDBRANCH  20  24
ENDBRANCH  15  16
ENDBRANCH  10  15
ENDBRANCH   9  10
ENDBRANCH   3   9
BRANCH   5  30
HETATM   30  C   UNL     1     -10.867  11.815  69.421  1.00  0.00    -0.120 A  
HETATM   31  C   UNL     1     -12.580  12.033  71.143  1.00  0.00    -0.372 A  
HETATM   32  C   UNL     1     -11.006  13.185  69.165  1.00  0.00    -0.194 A  
HETATM   33  C   UNL     1     -11.684  11.254  70.412  1.00  0.00    -0.398 A  
HETATM   34  C   UNL     1     -12.733  13.379  70.849  1.00  0.00    -0.349 A  
HETATM   35  C   UNL     1     -11.940  13.956  69.864  1.00  0.00    -0.405 A  
ENDBRANCH   5  30
TORSDOF 8
ENDMDL
MODEL      158
REMARK 921   NORMALIZED FREE ENERGY PREDICTED BY IDOCK:   -4.19 KCAL/MOL
REMARK 922        TOTAL FREE ENERGY PREDICTED BY IDOCK:   -6.96 KCAL/MOL
REMARK 923 INTER-LIGAND FREE ENERGY PREDICTED BY IDOCK:   -6.16 KCAL/MOL
REMARK 924 INTRA-LIGAND FREE ENERGY PREDICTED BY IDOCK:   -0.80 KCAL/MOL
REMARK 927      BINDING AFFINITY PREDICTED BY RF-SCORE:    0.00 PKD
ROOT
HETATM    1  C   UNL     1     -11.094  10.645  68.028  1.00  0.00    -0.301 C  
HETATM    2  N   UNL     1      -9.884   9.820  68.037  1.00  0.00    -0.145 N  
HETATM    3  C   UNL     1     -10.117   8.437  68.048  1.00  0.00    -0.199 C  
HETATM    4  C   UNL     1      -8.544  10.522  67.908  1.00  0.00    -0.123 C  
HETATM    5  C   UNL     1      -7.671  10.018  66.706  1.00  0.00    -0.103 C  
HETATM    6  C   UNL     1      -8.707  12.059  67.700  1.00  0.00    -0.166 C  
HETATM    7  C   UNL     1      -7.758  10.409  69.238  1.00  0.00    -0.140 C  
HETATM    8  O   UNL     1     -11.271   7.997  67.978  1.00  0.00     0.254 OA 
ENDROOT
BRANCH   3   9
HETATM    9  C   UNL     1      -8.918   7.477  68.097  1.00  0.00    -0.129 C  
BRANCH   9  10
HETATM   10  N   UNL     1      -9.225   6.065  68.411  1.00  0.00    -0.115 NA 
BRANCH  10  11
HETATM   11  C   UNL     1      -9.417   5.266  67.187  1.00  0.00    -0.127 C  
BRANCH  11  12
HETATM   12  C   UNL     1      -8.157   5.151  66.299  1.00  0.00    -0.108 C  
HETATM   13  H   UNL     1      -7.654   5.536  64.430  1.00  0.00     0.000 HD 
HETATM   14  O   UNL     1      -8.428   5.607  64.976  1.00  0.00    -0.144 OA 
ENDBRANCH  11  12
ENDBRANCH  10  11
BRANCH  10  15
HETATM   15  C   UNL     1      -8.243   5.446  69.345  1.00  0.00    -0.096 C  
BRANCH  15  16
HETATM   16  C   UNL     1      -8.479   5.797  70.849  1.00  0.00    -0.126 C  
HETATM   17  C   UNL     1      -9.587   5.243  73.067  1.00  0.00    -0.142 C  
HETATM   18  C   UNL     1      -9.504   3.540  71.167  1.00  0.00    -0.159 C  
HETATM   19  N   UNL     1      -9.208   4.891  71.637  1.00  0.00    -0.139 N  
HETATM   20  C   UNL     1      -9.925   6.759  73.330  1.00  0.00    -0.247 C  
HETATM   21  O   UNL     1      -8.085   6.862  71.330  1.00  0.00    -0.107 OA 
HETATM   22  C   UNL     1     -10.802   4.429  73.571  1.00  0.00    -0.358 C  
HETATM   23  C   UNL     1      -8.404   4.885  73.993  1.00  0.00    -0.104 C  
BRANCH  20  24
HETATM   24  C   UNL     1     -11.043   7.413  72.543  1.00  0.00    -0.350 A  
HETATM   25  C   UNL     1     -10.940   8.780  72.247  1.00  0.00    -0.336 A  
HETATM   26  C   UNL     1     -11.906   9.418  71.466  1.00  0.00    -0.456 A  
HETATM   27  C   UNL     1     -12.977   8.694  70.949  1.00  0.00     0.165 A  
HETATM   28  C   UNL     1     -13.083   7.338  71.212  1.00  0.00    -0.363 A  
HETATM   29  C   UNL     1     -12.137   6.708  72.011  1.00  0.00    -0.353 A  
ENDBRANCH  20  24
ENDBRANCH  15  16
ENDBRANCH  10  15
ENDBRANCH   9  10
ENDBRANCH   3   9
BRANCH   5  30
HETATM   30  C   UNL     1      -8.324  10.071  65.336  1.00  0.00    -0.154 A  
HETATM   31  C   UNL     1      -9.935  10.990  63.754  1.00  0.00    -0.404 A  
HETATM   32  C   UNL     1      -7.878   9.213  64.322  1.00  0.00    -0.127 A  
HETATM   33  C   UNL     1      -9.374  10.946  65.029  1.00  0.00    -0.260 A  
HETATM   34  C   UNL     1      -9.508  10.107  62.774  1.00  0.00    -0.287 A  
HETATM   35  C   UNL     1      -8.474   9.224  63.057  1.00  0.00    -0.212 A  
ENDBRANCH   5  30
TORSDOF 8
ENDMDL
MODEL      159
REMARK 921   NORMALIZED FREE ENERGY PREDICTED BY IDOCK:   -4.19 KCAL/MOL
REMARK 922        TOTAL FREE ENERGY PREDICTED BY IDOCK:   -6.95 KCAL/MOL
REMARK 923 INTER-LIGAND FREE ENERGY PREDICTED BY IDOCK:   -7.01 KCAL/MOL
REMARK 924 INTRA-LIGAND FREE ENERGY PREDICTED BY IDOCK:    0.06 KCAL/MOL
REMARK 927      BINDING AFFINITY PREDICTED BY RF-SCORE:    0.00 PKD
ROOT
HETATM    1  C   UNL     1      -9.977  12.584  63.744  1.00  0.00    -0.128 C  
HETATM    2  N   UNL     1     -10.637  12.614  65.051  1.00  0.00    -0.294 N  
HETATM    3  C   UNL     1     -10.270  11.575  65.918  1.00  0.00    -0.244 C  
HETATM    4  C   UNL     1     -11.525  13.802  65.371  1.00  0.00    -0.311 C  
HETATM    5  C   UNL     1     -11.119  14.572  66.677  1.00  0.00    -0.333 C  
HETATM    6  C   UNL     1     -11.514  14.866  64.231  1.00  0.00    -0.141 C  
HETATM    7  C   UNL     1     -13.006  13.351  65.443  1.00  0.00    -0.240 C  
HETATM    8  O   UNL     1      -9.396  10.764  65.586  1.00  0.00    -0.189 OA 
ENDROOT
BRANCH   3   9
HETATM    9  C   UNL     1     -10.930  11.487  67.303  1.00  0.00    -0.271 C  
BRANCH   9  10
HETATM   10  N   UNL     1     -10.607  10.287  68.105  1.00  0.00    -0.204 NA 
BRANCH  10  11
HETATM   11  C   UNL     1     -11.360  10.263  69.372  1.00  0.00    -0.221 C  
BRANCH  11  12
HETATM   12  C   UNL     1     -11.609  11.657  69.990  1.00  0.00    -0.255 C  
HETATM   13  H   UNL     1     -12.911  12.495  71.213  1.00  0.00     0.000 HD 
HETATM   14  O   UNL     1     -12.758  11.638  70.833  1.00  0.00    -0.326 OA 
ENDBRANCH  11  12
ENDBRANCH  10  11
BRANCH  10  15
HETATM   15  C   UNL     1     -10.742   9.016  67.339  1.00  0.00    -0.161 C  
BRANCH  15  16
HETATM   16  C   UNL     1     -10.327   7.739  68.137  1.00  0.00    -0.200 C  
HETATM   17  C   UNL     1      -8.488   6.269  69.091  1.00  0.00    -0.120 C  
HETATM   18  C   UNL     1      -7.999   8.639  68.275  1.00  0.00    -0.110 C  
HETATM   19  N   UNL     1      -8.968   7.557  68.441  1.00  0.00    -0.129 N  
HETATM   20  C   UNL     1      -9.240   4.957  68.645  1.00  0.00    -0.159 C  
HETATM   21  O   UNL     1     -11.154   6.880  68.451  1.00  0.00    -0.164 OA 
HETATM   22  C   UNL     1      -6.982   6.014  68.849  1.00  0.00    -0.068 C  
HETATM   23  C   UNL     1      -8.673   6.389  70.619  1.00  0.00    -0.144 C  
BRANCH  20  24
HETATM   24  C   UNL     1      -9.254   4.578  67.178  1.00  0.00    -0.148 A  
HETATM   25  C   UNL     1      -8.130   3.932  66.644  1.00  0.00    -0.097 A  
HETATM   26  C   UNL     1      -8.116   3.498  65.317  1.00  0.00    -0.097 A  
HETATM   27  C   UNL     1      -9.236   3.682  64.510  1.00  0.00    -0.141 A  
HETATM   28  C   UNL     1     -10.364   4.298  65.026  1.00  0.00    -0.203 A  
HETATM   29  C   UNL     1     -10.369   4.755  66.339  1.00  0.00    -0.312 A  
ENDBRANCH  20  24
ENDBRANCH  15  16
ENDBRANCH  10  15
ENDBRANCH   9  10
ENDBRANCH   3   9
BRANCH   5  30
HETATM   30  C   UNL     1      -9.686  15.070  66.741  1.00  0.00    -0.253 A  
HETATM   31  C   UNL     1      -7.338  14.801  67.342  1.00  0.00    -0.214 A  
HETATM   32  C   UNL     1      -9.364  16.324  66.206  1.00  0.00    -0.360 A  
HETATM   33  C   UNL     1      -8.649  14.328  67.323  1.00  0.00    -0.229 A  
HETATM   34  C   UNL     1      -7.045  16.061  66.844  1.00  0.00    -0.182 A  
HETATM   35  C   UNL     1      -8.058  16.819  66.269  1.00  0.00    -0.365 A  
ENDBRANCH   5  30
TORSDOF 8
ENDMDL
MODEL      160
REMARK 921   NORMALIZED FREE ENERGY PREDICTED BY IDOCK:   -4.17 KCAL/MOL
REMARK 922        TOTAL FREE ENERGY PREDICTED BY IDOCK:   -6.92 KCAL/MOL
REMARK 923 INTER-LIGAND FREE ENERGY PREDICTED BY IDOCK:   -6.68 KCAL/MOL
REMARK 924 INTRA-LIGAND FREE ENERGY PREDICTED BY IDOCK:   -0.25 KCAL/MOL
REMARK 927      BINDING AFFINITY PREDICTED BY RF-SCORE:    0.00 PKD
ROOT
HETATM    1  C   UNL     1     -12.410   6.473  70.885  1.00  0.00    -0.078 C  
HETATM    2  N   UNL     1     -10.952   6.612  70.873  1.00  0.00    -0.254 N  
HETATM    3  C   UNL     1     -10.328   6.148  69.706  1.00  0.00    -0.211 C  
HETATM    4  C   UNL     1     -10.298   7.338  72.035  1.00  0.00    -0.192 C  
HETATM    5  C   UNL     1      -9.414   8.563  71.608  1.00  0.00    -0.316 C  
HETATM    6  C   UNL     1     -11.349   7.901  73.039  1.00  0.00    -0.298 C  
HETATM    7  C   UNL     1      -9.471   6.339  72.884  1.00  0.00    -0.147 C  
HETATM    8  O   UNL     1     -11.006   5.733  68.758  1.00  0.00    -0.271 OA 
ENDROOT
BRANCH   3   9
HETATM    9  C   UNL     1      -8.796   6.209  69.602  1.00  0.00    -0.134 C  
BRANCH   9  10
HETATM   10  N   UNL     1      -8.238   6.326  68.238  1.00  0.00    -0.115 NA 
BRANCH  10  11
HETATM   11  C   UNL     1      -8.076   5.007  67.602  1.00  0.00    -0.098 C  
BRANCH  11  12
HETATM   12  C   UNL     1      -8.051   3.822  68.593  1.00  0.00    -0.073 C  
HETATM   13  H   UNL     1      -8.870   2.033  68.744  1.00  0.00     0.000 HD 
HETATM   14  O   UNL     1      -8.885   2.761  68.134  1.00  0.00    -0.096 OA 
ENDBRANCH  11  12
ENDBRANCH  10  11
BRANCH  10  15
HETATM   15  C   UNL     1      -8.990   7.283  67.378  1.00  0.00    -0.122 C  
BRANCH  15  16
HETATM   16  C   UNL     1      -8.171   7.842  66.171  1.00  0.00    -0.123 C  
HETATM   17  C   UNL     1      -6.477   9.508  65.273  1.00  0.00    -0.078 C  
HETATM   18  C   UNL     1      -6.768   9.139  67.782  1.00  0.00    -0.065 C  
HETATM   19  N   UNL     1      -7.205   8.830  66.423  1.00  0.00    -0.083 N  
HETATM   20  C   UNL     1      -7.330   9.745  63.969  1.00  0.00    -0.128 C  
HETATM   21  O   UNL     1      -8.394   7.471  65.016  1.00  0.00    -0.131 OA 
HETATM   22  C   UNL     1      -5.900  10.886  65.674  1.00  0.00    -0.086 C  
HETATM   23  C   UNL     1      -5.274   8.631  64.863  1.00  0.00    -0.039 C  
BRANCH  20  24
HETATM   24  C   UNL     1      -8.602  10.564  64.058  1.00  0.00    -0.149 A  
HETATM   25  C   UNL     1      -9.171  11.046  62.869  1.00  0.00    -0.362 A  
HETATM   26  C   UNL     1     -10.378  11.746  62.887  1.00  0.00    -0.045 A  
HETATM   27  C   UNL     1     -11.049  11.955  64.089  1.00  0.00    -0.441 A  
HETATM   28  C   UNL     1     -10.514  11.467  65.270  1.00  0.00    -0.340 A  
HETATM   29  C   UNL     1      -9.299  10.793  65.258  1.00  0.00    -0.247 A  
ENDBRANCH  20  24
ENDBRANCH  15  16
ENDBRANCH  10  15
ENDBRANCH   9  10
ENDBRANCH   3   9
BRANCH   5  30
HETATM   30  C   UNL     1     -10.102   9.621  70.765  1.00  0.00    -0.293 A  
HETATM   31  C   UNL     1     -11.989  11.082  70.262  1.00  0.00    -0.452 A  
HETATM   32  C   UNL     1      -9.438  10.164  69.657  1.00  0.00    -0.226 A  
HETATM   33  C   UNL     1     -11.394  10.089  71.038  1.00  0.00    -0.434 A  
HETATM   34  C   UNL     1     -11.333  11.579  69.146  1.00  0.00    -0.351 A  
HETATM   35  C   UNL     1     -10.053  11.125  68.849  1.00  0.00    -0.199 A  
ENDBRANCH   5  30
TORSDOF 8
ENDMDL
MODEL      161
REMARK 921   NORMALIZED FREE ENERGY PREDICTED BY IDOCK:   -4.15 KCAL/MOL
REMARK 922        TOTAL FREE ENERGY PREDICTED BY IDOCK:   -6.89 KCAL/MOL
REMARK 923 INTER-LIGAND FREE ENERGY PREDICTED BY IDOCK:   -7.00 KCAL/MOL
REMARK 924 INTRA-LIGAND FREE ENERGY PREDICTED BY IDOCK:    0.11 KCAL/MOL
REMARK 927      BINDING AFFINITY PREDICTED BY RF-SCORE:    0.00 PKD
ROOT
HETATM    1  C   UNL     1     -12.140  12.054  66.093  1.00  0.00     0.167 C  
HETATM    2  N   UNL     1     -10.832  12.066  66.752  1.00  0.00    -0.253 N  
HETATM    3  C   UNL     1      -9.912  12.978  66.215  1.00  0.00    -0.283 C  
HETATM    4  C   UNL     1     -10.652  11.207  67.991  1.00  0.00    -0.198 C  
HETATM    5  C   UNL     1     -10.179  12.003  69.258  1.00  0.00     0.245 C  
HETATM    6  C   UNL     1     -11.976  10.494  68.406  1.00  0.00     0.246 C  
HETATM    7  C   UNL     1      -9.681  10.037  67.688  1.00  0.00    -0.185 C  
HETATM    8  O   UNL     1     -10.252  13.745  65.306  1.00  0.00    -0.332 OA 
ENDROOT
BRANCH   3   9
HETATM    9  C   UNL     1      -8.495  13.047  66.805  1.00  0.00     0.003 C  
BRANCH   9  10
HETATM   10  N   UNL     1      -8.105  14.334  67.419  1.00  0.00    -0.189 NA 
BRANCH  10  11
HETATM   11  C   UNL     1      -6.762  14.264  68.022  1.00  0.00    -0.148 C  
BRANCH  11  12
HETATM   12  C   UNL     1      -6.752  14.344  69.565  1.00  0.00    -0.141 C  
HETATM   13  H   UNL     1      -6.323  15.682  70.950  1.00  0.00     0.000 HD 
HETATM   14  O   UNL     1      -6.329  15.632  70.002  1.00  0.00    -0.169 OA 
ENDBRANCH  11  12
ENDBRANCH  10  11
BRANCH  10  15
HETATM   15  C   UNL     1      -8.253  15.493  66.494  1.00  0.00    -0.132 C  
BRANCH  15  16
HETATM   16  C   UNL     1      -8.510  16.857  67.210  1.00  0.00    -0.196 C  
HETATM   17  C   UNL     1      -9.671  19.117  67.238  1.00  0.00    -0.319 C  
HETATM   18  C   UNL     1     -10.414  17.267  65.643  1.00  0.00    -0.181 C  
HETATM   19  N   UNL     1      -9.476  17.721  66.668  1.00  0.00    -0.283 N  
HETATM   20  C   UNL     1      -8.363  19.835  67.747  1.00  0.00    -0.344 C  
HETATM   21  O   UNL     1      -7.851  17.201  68.194  1.00  0.00    -0.193 OA 
HETATM   22  C   UNL     1     -10.333  20.079  66.224  1.00  0.00    -0.570 C  
HETATM   23  C   UNL     1     -10.626  19.028  68.448  1.00  0.00    -0.146 C  
BRANCH  20  24
HETATM   24  C   UNL     1      -7.217  20.052  66.779  1.00  0.00    -0.270 A  
HETATM   25  C   UNL     1      -7.152  19.249  65.631  1.00  0.00    -0.278 A  
HETATM   26  C   UNL     1      -6.158  19.451  64.672  1.00  0.00    -0.292 A  
HETATM   27  C   UNL     1      -5.228  20.475  64.833  1.00  0.00    -0.203 A  
HETATM   28  C   UNL     1      -5.290  21.293  65.950  1.00  0.00    -0.245 A  
HETATM   29  C   UNL     1      -6.262  21.075  66.919  1.00  0.00    -0.361 A  
ENDBRANCH  20  24
ENDBRANCH  15  16
ENDBRANCH  10  15
ENDBRANCH   9  10
ENDBRANCH   3   9
BRANCH   5  30
HETATM   30  C   UNL     1     -11.043  13.183  69.667  1.00  0.00     0.014 A  
HETATM   31  C   UNL     1     -12.953  14.150  70.834  1.00  0.00    -0.374 A  
HETATM   32  C   UNL     1     -10.695  14.473  69.249  1.00  0.00    -0.241 A  
HETATM   33  C   UNL     1     -12.195  13.044  70.452  1.00  0.00    -0.386 A  
HETATM   34  C   UNL     1     -12.616  15.416  70.378  1.00  0.00    -0.433 A  
HETATM   35  C   UNL     1     -11.482  15.577  69.591  1.00  0.00    -0.337 A  
ENDBRANCH   5  30
TORSDOF 8
ENDMDL
MODEL      162
REMARK 921   NORMALIZED FREE ENERGY PREDICTED BY IDOCK:   -4.15 KCAL/MOL
REMARK 922        TOTAL FREE ENERGY PREDICTED BY IDOCK:   -6.89 KCAL/MOL
REMARK 923 INTER-LIGAND FREE ENERGY PREDICTED BY IDOCK:   -6.67 KCAL/MOL
REMARK 924 INTRA-LIGAND FREE ENERGY PREDICTED BY IDOCK:   -0.22 KCAL/MOL
REMARK 927      BINDING AFFINITY PREDICTED BY RF-SCORE:    0.00 PKD
ROOT
HETATM    1  C   UNL     1     -11.028  13.603  69.198  1.00  0.00    -0.194 C  
HETATM    2  N   UNL     1      -9.880  13.329  68.331  1.00  0.00    -0.235 N  
HETATM    3  C   UNL     1      -9.417  12.006  68.369  1.00  0.00    -0.181 C  
HETATM    4  C   UNL     1      -9.404  14.440  67.412  1.00  0.00    -0.199 C  
HETATM    5  C   UNL     1      -9.371  14.043  65.893  1.00  0.00    -0.006 C  
HETATM    6  C   UNL     1     -10.313  15.704  67.501  1.00  0.00    -0.277 C  
HETATM    7  C   UNL     1      -8.015  14.949  67.872  1.00  0.00    -0.145 C  
HETATM    8  O   UNL     1     -10.013  11.155  69.041  1.00  0.00    -0.199 OA 
ENDROOT
BRANCH   3   9
HETATM    9  C   UNL     1      -8.192  11.618  67.528  1.00  0.00    -0.148 C  
BRANCH   9  10
HETATM   10  N   UNL     1      -8.336  10.413  66.682  1.00  0.00    -0.125 NA 
BRANCH  10  11
HETATM   11  C   UNL     1      -7.581  10.540  65.423  1.00  0.00    -0.097 C  
BRANCH  11  12
HETATM   12  C   UNL     1      -6.052  10.676  65.609  1.00  0.00    -0.124 C  
HETATM   13  H   UNL     1      -4.415   9.993  64.745  1.00  0.00     0.000 HD 
HETATM   14  O   UNL     1      -5.354   9.910  64.631  1.00  0.00    -0.060 OA 
ENDBRANCH  11  12
ENDBRANCH  10  11
BRANCH  10  15
HETATM   15  C   UNL     1      -8.025   9.148  67.406  1.00  0.00    -0.103 C  
BRANCH  15  16
HETATM   16  C   UNL     1      -9.269   8.452  68.046  1.00  0.00    -0.136 C  
HETATM   17  C   UNL     1     -10.234   6.954  69.855  1.00  0.00    -0.199 C  
HETATM   18  C   UNL     1      -7.878   7.915  70.052  1.00  0.00    -0.105 C  
HETATM   19  N   UNL     1      -9.095   7.765  69.259  1.00  0.00    -0.146 N  
HETATM   20  C   UNL     1     -11.171   6.225  68.818  1.00  0.00    -0.357 C  
HETATM   21  O   UNL     1     -10.367   8.455  67.485  1.00  0.00    -0.229 OA 
HETATM   22  C   UNL     1      -9.732   5.864  70.832  1.00  0.00    -0.211 C  
HETATM   23  C   UNL     1     -11.136   7.899  70.678  1.00  0.00    -0.263 C  
BRANCH  20  24
HETATM   24  C   UNL     1     -10.563   5.236  67.843  1.00  0.00    -0.098 A  
HETATM   25  C   UNL     1     -10.852   5.380  66.478  1.00  0.00    -0.222 A  
HETATM   26  C   UNL     1     -10.265   4.541  65.530  1.00  0.00    -0.251 A  
HETATM   27  C   UNL     1      -9.359   3.561  65.928  1.00  0.00    -0.159 A  
HETATM   28  C   UNL     1      -9.044   3.418  67.269  1.00  0.00    -0.200 A  
HETATM   29  C   UNL     1      -9.649   4.235  68.217  1.00  0.00    -0.197 A  
ENDBRANCH  20  24
ENDBRANCH  15  16
ENDBRANCH  10  15
ENDBRANCH   9  10
ENDBRANCH   3   9
BRANCH   5  30
HETATM   30  C   UNL     1     -10.673  13.523  65.310  1.00  0.00    -0.328 A  
HETATM   31  C   UNL     1     -11.937  12.001  63.885  1.00  0.00    -0.542 A  
HETATM   32  C   UNL     1     -11.887  14.104  65.699  1.00  0.00    -0.377 A  
HETATM   33  C   UNL     1     -10.724  12.475  64.381  1.00  0.00    -0.379 A  
HETATM   34  C   UNL     1     -13.126  12.614  64.250  1.00  0.00    -0.053 A  
HETATM   35  C   UNL     1     -13.100  13.661  65.163  1.00  0.00    -0.127 A  
ENDBRANCH   5  30
TORSDOF 8
ENDMDL
MODEL      163
REMARK 921   NORMALIZED FREE ENERGY PREDICTED BY IDOCK:   -4.11 KCAL/MOL
REMARK 922        TOTAL FREE ENERGY PREDICTED BY IDOCK:   -6.83 KCAL/MOL
REMARK 923 INTER-LIGAND FREE ENERGY PREDICTED BY IDOCK:   -5.68 KCAL/MOL
REMARK 924 INTRA-LIGAND FREE ENERGY PREDICTED BY IDOCK:   -1.15 KCAL/MOL
REMARK 927      BINDING AFFINITY PREDICTED BY RF-SCORE:    0.00 PKD
ROOT
HETATM    1  C   UNL     1      -9.836  12.122  63.317  1.00  0.00    -0.092 C  
HETATM    2  N   UNL     1     -10.623  11.990  64.545  1.00  0.00    -0.294 N  
HETATM    3  C   UNL     1     -10.154  11.019  65.441  1.00  0.00    -0.269 C  
HETATM    4  C   UNL     1     -11.755  12.975  64.772  1.00  0.00    -0.345 C  
HETATM    5  C   UNL     1     -11.647  13.775  66.118  1.00  0.00    -0.369 C  
HETATM    6  C   UNL     1     -11.831  14.050  63.644  1.00  0.00    -0.026 C  
HETATM    7  C   UNL     1     -13.119  12.245  64.680  1.00  0.00     0.221 C  
HETATM    8  O   UNL     1      -9.109  10.401  65.203  1.00  0.00    -0.174 OA 
ENDROOT
BRANCH   3   9
HETATM    9  C   UNL     1     -10.927  10.769  66.745  1.00  0.00    -0.148 C  
BRANCH   9  10
HETATM   10  N   UNL     1     -10.425   9.674  67.603  1.00  0.00    -0.245 NA 
BRANCH  10  11
HETATM   11  C   UNL     1     -10.845   9.846  69.005  1.00  0.00    -0.215 C  
BRANCH  11  12
HETATM   12  C   UNL     1      -9.677  10.029  70.000  1.00  0.00    -0.175 C  
HETATM   13  H   UNL     1      -8.893   9.046  71.522  1.00  0.00     0.000 HD 
HETATM   14  O   UNL     1      -9.611   8.934  70.910  1.00  0.00    -0.196 OA 
ENDBRANCH  11  12
ENDBRANCH  10  11
BRANCH  10  15
HETATM   15  C   UNL     1     -10.751   8.320  67.074  1.00  0.00    -0.155 C  
BRANCH  15  16
HETATM   16  C   UNL     1      -9.601   7.275  67.231  1.00  0.00    -0.152 C  
HETATM   17  C   UNL     1      -8.601   5.311  68.494  1.00  0.00    -0.094 C  
HETATM   18  C   UNL     1     -11.026   6.020  68.856  1.00  0.00    -0.325 C  
HETATM   19  N   UNL     1      -9.744   6.269  68.201  1.00  0.00    -0.121 N  
HETATM   20  C   UNL     1      -7.152   5.925  68.398  1.00  0.00    -0.081 C  
HETATM   21  O   UNL     1      -8.567   7.351  66.563  1.00  0.00    -0.120 OA 
HETATM   22  C   UNL     1      -8.713   4.673  69.899  1.00  0.00    -0.116 C  
HETATM   23  C   UNL     1      -8.657   4.149  67.479  1.00  0.00    -0.107 C  
BRANCH  20  24
HETATM   24  C   UNL     1      -6.795   7.111  69.271  1.00  0.00    -0.057 A  
HETATM   25  C   UNL     1      -6.611   6.897  70.645  1.00  0.00    -0.052 A  
HETATM   26  C   UNL     1      -6.214   7.939  71.485  1.00  0.00    -0.035 A  
HETATM   27  C   UNL     1      -5.970   9.206  70.960  1.00  0.00    -0.055 A  
HETATM   28  C   UNL     1      -6.125   9.431  69.602  1.00  0.00    -0.039 A  
HETATM   29  C   UNL     1      -6.547   8.401  68.770  1.00  0.00    -0.054 A  
ENDBRANCH  20  24
ENDBRANCH  15  16
ENDBRANCH  10  15
ENDBRANCH   9  10
ENDBRANCH   3   9
BRANCH   5  30
HETATM   30  C   UNL     1     -10.353  14.539  66.340  1.00  0.00    -0.296 A  
HETATM   31  C   UNL     1      -8.950  16.516  66.082  1.00  0.00    -0.344 A  
HETATM   32  C   UNL     1      -9.315  13.945  67.069  1.00  0.00    -0.255 A  
HETATM   33  C   UNL     1     -10.138  15.829  65.838  1.00  0.00    -0.381 A  
HETATM   34  C   UNL     1      -7.918  15.898  66.772  1.00  0.00    -0.287 A  
HETATM   35  C   UNL     1      -8.104  14.615  67.272  1.00  0.00    -0.230 A  
ENDBRANCH   5  30
TORSDOF 8
ENDMDL
MODEL      164
REMARK 921   NORMALIZED FREE ENERGY PREDICTED BY IDOCK:   -4.09 KCAL/MOL
REMARK 922        TOTAL FREE ENERGY PREDICTED BY IDOCK:   -6.81 KCAL/MOL
REMARK 923 INTER-LIGAND FREE ENERGY PREDICTED BY IDOCK:   -5.65 KCAL/MOL
REMARK 924 INTRA-LIGAND FREE ENERGY PREDICTED BY IDOCK:   -1.16 KCAL/MOL
REMARK 927      BINDING AFFINITY PREDICTED BY RF-SCORE:    0.00 PKD
ROOT
HETATM    1  C   UNL     1      -7.465   9.965  64.679  1.00  0.00    -0.140 C  
HETATM    2  N   UNL     1      -7.983   9.558  65.987  1.00  0.00    -0.106 N  
HETATM    3  C   UNL     1      -7.003   9.173  66.913  1.00  0.00    -0.081 C  
HETATM    4  C   UNL     1      -9.472   9.711  66.241  1.00  0.00    -0.199 C  
HETATM    5  C   UNL     1      -9.821  10.589  67.494  1.00  0.00    -0.196 C  
HETATM    6  C   UNL     1     -10.205  10.379  65.037  1.00  0.00    -0.334 C  
HETATM    7  C   UNL     1     -10.137   8.316  66.351  1.00  0.00    -0.222 C  
HETATM    8  O   UNL     1      -5.803   9.261  66.625  1.00  0.00    -0.053 OA 
ENDROOT
BRANCH   3   9
HETATM    9  C   UNL     1      -7.438   8.689  68.305  1.00  0.00    -0.095 C  
BRANCH   9  10
HETATM   10  N   UNL     1      -6.388   8.059  69.135  1.00  0.00    -0.038 NA 
BRANCH  10  11
HETATM   11  C   UNL     1      -6.817   7.916  70.537  1.00  0.00    -0.041 C  
BRANCH  11  12
HETATM   12  C   UNL     1      -7.959   8.870  70.953  1.00  0.00    -0.148 C  
HETATM   13  H   UNL     1      -9.032   9.240  72.568  1.00  0.00     0.000 HD 
HETATM   14  O   UNL     1      -8.330   8.654  72.312  1.00  0.00    -0.317 OA 
ENDBRANCH  11  12
ENDBRANCH  10  11
BRANCH  10  15
HETATM   15  C   UNL     1      -5.880   6.780  68.563  1.00  0.00    -0.018 C  
BRANCH  15  16
HETATM   16  C   UNL     1      -6.740   5.528  68.924  1.00  0.00    -0.053 C  
HETATM   17  C   UNL     1      -8.552   3.869  68.274  1.00  0.00    -0.096 C  
HETATM   18  C   UNL     1      -7.485   5.411  66.541  1.00  0.00    -0.087 C  
HETATM   19  N   UNL     1      -7.590   4.998  67.938  1.00  0.00    -0.082 N  
HETATM   20  C   UNL     1      -9.174   3.909  69.722  1.00  0.00    -0.213 C  
HETATM   21  O   UNL     1      -6.722   5.039  70.056  1.00  0.00    -0.035 OA 
HETATM   22  C   UNL     1      -9.742   3.798  67.288  1.00  0.00    -0.144 C  
HETATM   23  C   UNL     1      -7.799   2.527  68.151  1.00  0.00    -0.059 C  
BRANCH  20  24
HETATM   24  C   UNL     1      -9.964   5.128  70.151  1.00  0.00    -0.324 A  
HETATM   25  C   UNL     1     -10.303   5.261  71.506  1.00  0.00    -0.287 A  
HETATM   26  C   UNL     1     -10.970   6.397  71.969  1.00  0.00    -0.289 A  
HETATM   27  C   UNL     1     -11.287   7.429  71.090  1.00  0.00    -0.291 A  
HETATM   28  C   UNL     1     -10.940   7.326  69.752  1.00  0.00    -0.235 A  
HETATM   29  C   UNL     1     -10.301   6.183  69.285  1.00  0.00    -0.276 A  
ENDBRANCH  20  24
ENDBRANCH  15  16
ENDBRANCH  10  15
ENDBRANCH   9  10
ENDBRANCH   3   9
BRANCH   5  30
HETATM   30  C   UNL     1      -9.229  11.987  67.517  1.00  0.00    -0.180 A  
HETATM   31  C   UNL     1      -9.199  14.324  66.821  1.00  0.00    -0.282 A  
HETATM   32  C   UNL     1      -8.111  12.253  68.319  1.00  0.00    -0.166 A  
HETATM   33  C   UNL     1      -9.748  13.044  66.758  1.00  0.00    -0.248 A  
HETATM   34  C   UNL     1      -8.069  14.560  67.590  1.00  0.00    -0.190 A  
HETATM   35  C   UNL     1      -7.530  13.524  68.344  1.00  0.00    -0.124 A  
ENDBRANCH   5  30
TORSDOF 8
ENDMDL
MODEL      165
REMARK 921   NORMALIZED FREE ENERGY PREDICTED BY IDOCK:   -4.08 KCAL/MOL
REMARK 922        TOTAL FREE ENERGY PREDICTED BY IDOCK:   -6.80 KCAL/MOL
REMARK 923 INTER-LIGAND FREE ENERGY PREDICTED BY IDOCK:   -6.82 KCAL/MOL
REMARK 924 INTRA-LIGAND FREE ENERGY PREDICTED BY IDOCK:    0.02 KCAL/MOL
REMARK 927      BINDING AFFINITY PREDICTED BY RF-SCORE:    0.00 PKD
ROOT
HETATM    1  C   UNL     1     -12.772  12.110  65.215  1.00  0.00     0.630 C  
HETATM    2  N   UNL     1     -11.467  12.569  65.695  1.00  0.00    -0.342 N  
HETATM    3  C   UNL     1     -11.510  13.334  66.870  1.00  0.00    -0.338 C  
HETATM    4  C   UNL     1     -10.228  12.079  64.967  1.00  0.00    -0.276 C  
HETATM    5  C   UNL     1      -9.190  11.349  65.889  1.00  0.00    -0.231 C  
HETATM    6  C   UNL     1     -10.578  11.065  63.835  1.00  0.00    -0.382 C  
HETATM    7  C   UNL     1      -9.557  13.256  64.215  1.00  0.00     0.856 C  
HETATM    8  O   UNL     1     -12.582  13.514  67.459  1.00  0.00     0.004 OA 
ENDROOT
BRANCH   3   9
HETATM    9  C   UNL     1     -10.201  13.901  67.442  1.00  0.00    -0.252 C  
BRANCH   9  10
HETATM   10  N   UNL     1      -9.952  15.339  67.201  1.00  0.00    -0.232 NA 
BRANCH  10  11
HETATM   11  C   UNL     1     -11.114  15.994  66.574  1.00  0.00     0.024 C  
BRANCH  11  12
HETATM   12  C   UNL     1     -10.932  16.308  65.072  1.00  0.00    -0.298 C  
HETATM   13  H   UNL     1     -10.815  17.908  63.923  1.00  0.00     0.000 HD 
HETATM   14  O   UNL     1     -10.927  17.715  64.846  1.00  0.00    -0.886 OA 
ENDBRANCH  11  12
ENDBRANCH  10  11
BRANCH  10  15
HETATM   15  C   UNL     1      -9.479  16.062  68.415  1.00  0.00    -0.207 C  
BRANCH  15  16
HETATM   16  C   UNL     1      -8.985  17.519  68.142  1.00  0.00    -0.266 C  
HETATM   17  C   UNL     1      -7.340  19.083  67.003  1.00  0.00    -0.213 C  
HETATM   18  C   UNL     1      -7.536  16.635  66.307  1.00  0.00    -0.191 C  
HETATM   19  N   UNL     1      -7.955  17.708  67.207  1.00  0.00    -0.204 N  
HETATM   20  C   UNL     1      -7.222  19.978  68.296  1.00  0.00    -0.312 C  
HETATM   21  O   UNL     1      -9.444  18.480  68.764  1.00  0.00    -0.332 OA 
HETATM   22  C   UNL     1      -5.920  19.009  66.392  1.00  0.00    -0.184 C  
HETATM   23  C   UNL     1      -8.209  19.870  65.998  1.00  0.00    -0.310 C  
BRANCH  20  24
HETATM   24  C   UNL     1      -6.435  19.458  69.483  1.00  0.00    -0.356 A  
HETATM   25  C   UNL     1      -6.313  20.279  70.614  1.00  0.00    -0.190 A  
HETATM   26  C   UNL     1      -5.659  19.825  71.761  1.00  0.00    -0.388 A  
HETATM   27  C   UNL     1      -5.139  18.534  71.804  1.00  0.00    -0.026 A  
HETATM   28  C   UNL     1      -5.269  17.701  70.705  1.00  0.00    -0.273 A  
HETATM   29  C   UNL     1      -5.896  18.162  69.553  1.00  0.00    -0.234 A  
ENDBRANCH  20  24
ENDBRANCH  15  16
ENDBRANCH  10  15
ENDBRANCH   9  10
ENDBRANCH   3   9
BRANCH   5  30
HETATM   30  C   UNL     1      -9.719  10.172  66.690  1.00  0.00    -0.242 A  
HETATM   31  C   UNL     1     -10.731   9.209  68.688  1.00  0.00    -0.156 A  
HETATM   32  C   UNL     1      -9.702   8.889  66.128  1.00  0.00    -0.338 A  
HETATM   33  C   UNL     1     -10.227  10.304  67.989  1.00  0.00    -0.200 A  
HETATM   34  C   UNL     1     -10.670   7.940  68.132  1.00  0.00    -0.101 A  
HETATM   35  C   UNL     1     -10.162   7.783  66.848  1.00  0.00    -0.373 A  
ENDBRANCH   5  30
TORSDOF 8
ENDMDL
MODEL      166
REMARK 921   NORMALIZED FREE ENERGY PREDICTED BY IDOCK:   -4.07 KCAL/MOL
REMARK 922        TOTAL FREE ENERGY PREDICTED BY IDOCK:   -6.78 KCAL/MOL
REMARK 923 INTER-LIGAND FREE ENERGY PREDICTED BY IDOCK:   -6.53 KCAL/MOL
REMARK 924 INTRA-LIGAND FREE ENERGY PREDICTED BY IDOCK:   -0.25 KCAL/MOL
REMARK 927      BINDING AFFINITY PREDICTED BY RF-SCORE:    0.00 PKD
ROOT
HETATM    1  C   UNL     1      -8.608  13.969  68.733  1.00  0.00    -0.032 C  
HETATM    2  N   UNL     1      -9.185  12.873  67.950  1.00  0.00    -0.200 N  
HETATM    3  C   UNL     1      -8.549  11.635  68.117  1.00  0.00    -0.158 C  
HETATM    4  C   UNL     1     -10.450  13.154  67.161  1.00  0.00    -0.247 C  
HETATM    5  C   UNL     1     -11.646  12.198  67.509  1.00  0.00    -0.413 C  
HETATM    6  C   UNL     1     -10.980  14.601  67.398  1.00  0.00    -0.309 C  
HETATM    7  C   UNL     1     -10.146  13.115  65.641  1.00  0.00    -0.279 C  
HETATM    8  O   UNL     1      -7.625  11.511  68.931  1.00  0.00    -0.128 OA 
ENDROOT
BRANCH   3   9
HETATM    9  C   UNL     1      -9.046  10.424  67.313  1.00  0.00    -0.135 C  
BRANCH   9  10
HETATM   10  N   UNL     1      -9.526   9.269  68.102  1.00  0.00    -0.137 NA 
BRANCH  10  11
HETATM   11  C   UNL     1     -10.581   8.525  67.390  1.00  0.00    -0.234 C  
BRANCH  11  12
HETATM   12  C   UNL     1     -10.254   7.034  67.148  1.00  0.00    -0.248 C  
HETATM   13  H   UNL     1     -11.166   5.295  67.342  1.00  0.00     0.000 HD 
HETATM   14  O   UNL     1     -11.367   6.211  67.490  1.00  0.00    -0.193 OA 
ENDBRANCH  11  12
ENDBRANCH  10  11
BRANCH  10  15
HETATM   15  C   UNL     1      -8.424   8.383  68.572  1.00  0.00    -0.132 C  
BRANCH  15  16
HETATM   16  C   UNL     1      -8.471   8.053  70.098  1.00  0.00    -0.128 C  
HETATM   17  C   UNL     1      -7.274   7.253  72.191  1.00  0.00    -0.068 C  
HETATM   18  C   UNL     1      -5.975   7.934  70.102  1.00  0.00    -0.022 C  
HETATM   19  N   UNL     1      -7.269   7.718  70.743  1.00  0.00    -0.057 N  
HETATM   20  C   UNL     1      -8.515   6.383  72.625  1.00  0.00    -0.122 C  
HETATM   21  O   UNL     1      -9.537   8.033  70.719  1.00  0.00    -0.161 OA 
HETATM   22  C   UNL     1      -6.015   6.429  72.549  1.00  0.00    -0.038 C  
HETATM   23  C   UNL     1      -7.261   8.496  73.108  1.00  0.00    -0.045 C  
BRANCH  20  24
HETATM   24  C   UNL     1      -8.807   5.094  71.884  1.00  0.00    -0.143 A  
HETATM   25  C   UNL     1      -9.153   5.167  70.527  1.00  0.00    -0.177 A  
HETATM   26  C   UNL     1      -9.364   4.008  69.779  1.00  0.00    -0.242 A  
HETATM   27  C   UNL     1      -9.209   2.756  70.369  1.00  0.00    -0.206 A  
HETATM   28  C   UNL     1      -8.846   2.663  71.703  1.00  0.00    -0.123 A  
HETATM   29  C   UNL     1      -8.662   3.817  72.456  1.00  0.00    -0.104 A  
ENDBRANCH  20  24
ENDBRANCH  15  16
ENDBRANCH  10  15
ENDBRANCH   9  10
ENDBRANCH   3   9
BRANCH   5  30
HETATM   30  C   UNL     1     -12.049  12.138  68.971  1.00  0.00    -0.208 A  
HETATM   31  C   UNL     1     -12.475  10.916  71.038  1.00  0.00    -0.514 A  
HETATM   32  C   UNL     1     -12.364  13.321  69.652  1.00  0.00    -0.154 A  
HETATM   33  C   UNL     1     -12.129  10.936  69.688  1.00  0.00    -0.400 A  
HETATM   34  C   UNL     1     -12.822  12.091  71.686  1.00  0.00    -0.399 A  
HETATM   35  C   UNL     1     -12.759  13.295  70.993  1.00  0.00    -0.374 A  
ENDBRANCH   5  30
TORSDOF 8
ENDMDL
MODEL      167
REMARK 921   NORMALIZED FREE ENERGY PREDICTED BY IDOCK:   -4.03 KCAL/MOL
REMARK 922        TOTAL FREE ENERGY PREDICTED BY IDOCK:   -6.72 KCAL/MOL
REMARK 923 INTER-LIGAND FREE ENERGY PREDICTED BY IDOCK:   -6.22 KCAL/MOL
REMARK 924 INTRA-LIGAND FREE ENERGY PREDICTED BY IDOCK:   -0.50 KCAL/MOL
REMARK 927      BINDING AFFINITY PREDICTED BY RF-SCORE:    0.00 PKD
ROOT
HETATM    1  C   UNL     1     -10.449   4.917  64.860  1.00  0.00     0.392 C  
HETATM    2  N   UNL     1      -9.478   5.671  65.656  1.00  0.00    -0.029 N  
HETATM    3  C   UNL     1     -10.039   6.628  66.514  1.00  0.00    -0.072 C  
HETATM    4  C   UNL     1      -8.018   5.266  65.567  1.00  0.00    -0.107 C  
HETATM    5  C   UNL     1      -7.367   4.909  66.950  1.00  0.00    -0.085 C  
HETATM    6  C   UNL     1      -7.813   4.010  64.665  1.00  0.00    -0.085 C  
HETATM    7  C   UNL     1      -7.204   6.373  64.851  1.00  0.00    -0.067 C  
HETATM    8  O   UNL     1     -11.268   6.735  66.611  1.00  0.00    -0.205 OA 
ENDROOT
BRANCH   3   9
HETATM    9  C   UNL     1      -9.110   7.505  67.367  1.00  0.00    -0.126 C  
BRANCH   9  10
HETATM   10  N   UNL     1      -9.772   8.451  68.291  1.00  0.00    -0.151 NA 
BRANCH  10  11
HETATM   11  C   UNL     1     -10.046   7.831  69.600  1.00  0.00    -0.196 C  
BRANCH  11  12
HETATM   12  C   UNL     1      -8.780   7.425  70.388  1.00  0.00    -0.145 C  
HETATM   13  H   UNL     1      -8.189   7.384  72.270  1.00  0.00     0.000 HD 
HETATM   14  O   UNL     1      -8.966   7.634  71.785  1.00  0.00    -0.117 OA 
ENDBRANCH  11  12
ENDBRANCH  10  11
BRANCH  10  15
HETATM   15  C   UNL     1      -9.049   9.748  68.417  1.00  0.00    -0.123 C  
BRANCH  15  16
HETATM   16  C   UNL     1      -9.846  10.981  67.884  1.00  0.00    -0.171 C  
HETATM   17  C   UNL     1     -10.041  13.501  67.625  1.00  0.00    -0.229 C  
HETATM   18  C   UNL     1      -7.846  12.410  68.338  1.00  0.00    -0.142 C  
HETATM   19  N   UNL     1      -9.258  12.252  67.997  1.00  0.00    -0.190 N  
HETATM   20  C   UNL     1     -11.584  13.462  67.949  1.00  0.00    -0.374 C  
HETATM   21  O   UNL     1     -10.983  10.862  67.423  1.00  0.00    -0.260 OA 
HETATM   22  C   UNL     1      -9.483  14.772  68.308  1.00  0.00    -0.207 C  
HETATM   23  C   UNL     1      -9.914  13.728  66.103  1.00  0.00    -0.318 C  
BRANCH  20  24
HETATM   24  C   UNL     1     -12.031  13.230  69.378  1.00  0.00    -0.356 A  
HETATM   25  C   UNL     1     -12.499  14.326  70.118  1.00  0.00    -0.393 A  
HETATM   26  C   UNL     1     -12.988  14.157  71.414  1.00  0.00    -0.422 A  
HETATM   27  C   UNL     1     -13.041  12.888  71.983  1.00  0.00    -0.483 A  
HETATM   28  C   UNL     1     -12.604  11.790  71.259  1.00  0.00    -0.401 A  
HETATM   29  C   UNL     1     -12.091  11.960  69.978  1.00  0.00    -0.366 A  
ENDBRANCH  20  24
ENDBRANCH  15  16
ENDBRANCH  10  15
ENDBRANCH   9  10
ENDBRANCH   3   9
BRANCH   5  30
HETATM   30  C   UNL     1      -8.070   3.835  67.762  1.00  0.00    -0.088 A  
HETATM   31  C   UNL     1      -9.409   3.105  69.663  1.00  0.00    -0.222 A  
HETATM   32  C   UNL     1      -8.043   2.506  67.320  1.00  0.00    -0.071 A  
HETATM   33  C   UNL     1      -8.751   4.109  68.955  1.00  0.00    -0.125 A  
HETATM   34  C   UNL     1      -9.339   1.789  69.233  1.00  0.00    -0.173 A  
HETATM   35  C   UNL     1      -8.662   1.491  68.057  1.00  0.00    -0.113 A  
ENDBRANCH   5  30
TORSDOF 8
ENDMDL
MODEL      168
REMARK 921   NORMALIZED FREE ENERGY PREDICTED BY IDOCK:   -4.03 KCAL/MOL
REMARK 922        TOTAL FREE ENERGY PREDICTED BY IDOCK:   -6.71 KCAL/MOL
REMARK 923 INTER-LIGAND FREE ENERGY PREDICTED BY IDOCK:   -6.87 KCAL/MOL
REMARK 924 INTRA-LIGAND FREE ENERGY PREDICTED BY IDOCK:    0.15 KCAL/MOL
REMARK 927      BINDING AFFINITY PREDICTED BY RF-SCORE:    0.00 PKD
ROOT
HETATM    1  C   UNL     1      -9.635  14.290  67.758  1.00  0.00    -0.221 C  
HETATM    2  N   UNL     1      -9.677  12.843  67.976  1.00  0.00    -0.218 N  
HETATM    3  C   UNL     1      -8.633  12.336  68.763  1.00  0.00     0.130 C  
HETATM    4  C   UNL     1     -10.880  12.080  67.450  1.00  0.00    -0.242 C  
HETATM    5  C   UNL     1     -11.645  11.257  68.546  1.00  0.00    -0.384 C  
HETATM    6  C   UNL     1     -11.942  13.029  66.813  1.00  0.00    -0.434 C  
HETATM    7  C   UNL     1     -10.453  11.162  66.277  1.00  0.00    -0.312 C  
HETATM    8  O   UNL     1      -7.807  13.103  69.274  1.00  0.00     0.270 OA 
ENDROOT
BRANCH   3   9
HETATM    9  C   UNL     1      -8.557  10.824  69.022  1.00  0.00    -0.138 C  
BRANCH   9  10
HETATM   10  N   UNL     1      -7.820  10.025  68.020  1.00  0.00    -0.089 NA 
BRANCH  10  11
HETATM   11  C   UNL     1      -6.528  10.643  67.676  1.00  0.00    -0.057 C  
BRANCH  11  12
HETATM   12  C   UNL     1      -5.603   9.749  66.819  1.00  0.00    -0.046 C  
HETATM   13  H   UNL     1      -5.079   9.594  64.922  1.00  0.00     0.000 HD 
HETATM   14  O   UNL     1      -5.647  10.143  65.450  1.00  0.00    -0.062 OA 
ENDBRANCH  11  12
ENDBRANCH  10  11
BRANCH  10  15
HETATM   15  C   UNL     1      -7.681   8.591  68.401  1.00  0.00    -0.101 C  
BRANCH  15  16
HETATM   16  C   UNL     1      -8.902   8.013  69.184  1.00  0.00    -0.145 C  
HETATM   17  C   UNL     1      -9.890   7.182  71.373  1.00  0.00    -0.176 C  
HETATM   18  C   UNL     1      -7.693   8.482  71.322  1.00  0.00    -0.108 C  
HETATM   19  N   UNL     1      -8.790   7.867  70.577  1.00  0.00    -0.140 N  
HETATM   20  C   UNL     1     -10.617   5.987  70.645  1.00  0.00    -0.322 C  
HETATM   21  O   UNL     1      -9.923   7.643  68.601  1.00  0.00    -0.164 OA 
HETATM   22  C   UNL     1      -9.381   6.628  72.724  1.00  0.00    -0.149 C  
HETATM   23  C   UNL     1     -10.979   8.225  71.708  1.00  0.00    -0.342 C  
BRANCH  20  24
HETATM   24  C   UNL     1      -9.796   4.805  70.170  1.00  0.00    -0.308 A  
HETATM   25  C   UNL     1      -8.982   4.140  71.099  1.00  0.00    -0.168 A  
HETATM   26  C   UNL     1      -8.258   3.004  70.732  1.00  0.00    -0.073 A  
HETATM   27  C   UNL     1      -8.357   2.500  69.438  1.00  0.00    -0.081 A  
HETATM   28  C   UNL     1      -9.173   3.129  68.513  1.00  0.00    -0.230 A  
HETATM   29  C   UNL     1      -9.873   4.276  68.869  1.00  0.00    -0.131 A  
ENDBRANCH  20  24
ENDBRANCH  15  16
ENDBRANCH  10  15
ENDBRANCH   9  10
ENDBRANCH   3   9
BRANCH   5  30
HETATM   30  C   UNL     1     -12.119  12.038  69.759  1.00  0.00    -0.317 A  
HETATM   31  C   UNL     1     -13.070  12.165  72.000  1.00  0.00    -0.462 A  
HETATM   32  C   UNL     1     -12.018  13.435  69.765  1.00  0.00    -0.396 A  
HETATM   33  C   UNL     1     -12.668  11.422  70.891  1.00  0.00    -0.397 A  
HETATM   34  C   UNL     1     -13.000  13.549  71.974  1.00  0.00    -0.420 A  
HETATM   35  C   UNL     1     -12.467  14.183  70.858  1.00  0.00    -0.436 A  
ENDBRANCH   5  30
TORSDOF 8
ENDMDL
MODEL      169
REMARK 921   NORMALIZED FREE ENERGY PREDICTED BY IDOCK:   -4.03 KCAL/MOL
REMARK 922        TOTAL FREE ENERGY PREDICTED BY IDOCK:   -6.71 KCAL/MOL
REMARK 923 INTER-LIGAND FREE ENERGY PREDICTED BY IDOCK:   -6.33 KCAL/MOL
REMARK 924 INTRA-LIGAND FREE ENERGY PREDICTED BY IDOCK:   -0.39 KCAL/MOL
REMARK 927      BINDING AFFINITY PREDICTED BY RF-SCORE:    0.00 PKD
ROOT
HETATM    1  C   UNL     1     -11.152   9.923  68.647  1.00  0.00    -0.134 C  
HETATM    2  N   UNL     1      -9.891  10.197  67.953  1.00  0.00    -0.149 N  
HETATM    3  C   UNL     1      -9.361   9.108  67.247  1.00  0.00    -0.135 C  
HETATM    4  C   UNL     1      -9.369  11.623  67.964  1.00  0.00    -0.178 C  
HETATM    5  C   UNL     1      -9.126  12.226  66.535  1.00  0.00    -0.188 C  
HETATM    6  C   UNL     1     -10.354  12.601  68.676  1.00  0.00    -0.192 C  
HETATM    7  C   UNL     1      -8.079  11.708  68.819  1.00  0.00    -0.072 C  
HETATM    8  O   UNL     1      -9.985   8.042  67.183  1.00  0.00    -0.187 OA 
ENDROOT
BRANCH   3   9
HETATM    9  C   UNL     1      -8.020   9.272  66.515  1.00  0.00    -0.104 C  
BRANCH   9  10
HETATM   10  N   UNL     1      -6.923   8.382  66.953  1.00  0.00    -0.073 NA 
BRANCH  10  11
HETATM   11  C   UNL     1      -6.918   8.206  68.416  1.00  0.00    -0.073 C  
BRANCH  11  12
HETATM   12  C   UNL     1      -5.801   8.985  69.147  1.00  0.00    -0.039 C  
HETATM   13  H   UNL     1      -4.699   8.770  70.769  1.00  0.00     0.000 HD 
HETATM   14  O   UNL     1      -5.385   8.291  70.320  1.00  0.00    -0.023 OA 
ENDBRANCH  11  12
ENDBRANCH  10  11
BRANCH  10  15
HETATM   15  C   UNL     1      -6.896   7.083  66.223  1.00  0.00    -0.061 C  
BRANCH  15  16
HETATM   16  C   UNL     1      -6.962   5.826  67.148  1.00  0.00    -0.065 C  
HETATM   17  C   UNL     1      -8.099   3.643  67.776  1.00  0.00    -0.084 C  
HETATM   18  C   UNL     1      -8.587   4.796  65.552  1.00  0.00    -0.131 C  
HETATM   19  N   UNL     1      -7.893   4.821  66.837  1.00  0.00    -0.098 N  
HETATM   20  C   UNL     1      -7.972   3.965  69.314  1.00  0.00    -0.058 C  
HETATM   21  O   UNL     1      -6.258   5.731  68.155  1.00  0.00    -0.035 OA 
HETATM   22  C   UNL     1      -9.478   2.970  67.582  1.00  0.00    -0.187 C  
HETATM   23  C   UNL     1      -7.038   2.567  67.459  1.00  0.00    -0.049 C  
BRANCH  20  24
HETATM   24  C   UNL     1      -8.881   5.012  69.926  1.00  0.00    -0.130 A  
HETATM   25  C   UNL     1      -8.337   5.902  70.864  1.00  0.00    -0.126 A  
HETATM   26  C   UNL     1      -9.110   6.929  71.407  1.00  0.00    -0.148 A  
HETATM   27  C   UNL     1     -10.431   7.099  71.002  1.00  0.00    -0.230 A  
HETATM   28  C   UNL     1     -10.980   6.244  70.060  1.00  0.00    -0.422 A  
HETATM   29  C   UNL     1     -10.219   5.204  69.539  1.00  0.00    -0.318 A  
ENDBRANCH  20  24
ENDBRANCH  15  16
ENDBRANCH  10  15
ENDBRANCH   9  10
ENDBRANCH   3   9
BRANCH   5  30
HETATM   30  C   UNL     1     -10.313  12.203  65.589  1.00  0.00    -0.289 A  
HETATM   31  C   UNL     1     -12.605  12.785  64.997  1.00  0.00    -0.538 A  
HETATM   32  C   UNL     1     -10.198  11.560  64.350  1.00  0.00    -0.350 A  
HETATM   33  C   UNL     1     -11.542  12.798  65.899  1.00  0.00    -0.428 A  
HETATM   34  C   UNL     1     -12.487  12.109  63.792  1.00  0.00    -0.620 A  
HETATM   35  C   UNL     1     -11.280  11.503  63.466  1.00  0.00    -0.412 A  
ENDBRANCH   5  30
TORSDOF 8
ENDMDL
MODEL      170
REMARK 921   NORMALIZED FREE ENERGY PREDICTED BY IDOCK:   -3.99 KCAL/MOL
REMARK 922        TOTAL FREE ENERGY PREDICTED BY IDOCK:   -6.65 KCAL/MOL
REMARK 923 INTER-LIGAND FREE ENERGY PREDICTED BY IDOCK:   -6.97 KCAL/MOL
REMARK 924 INTRA-LIGAND FREE ENERGY PREDICTED BY IDOCK:    0.31 KCAL/MOL
REMARK 927      BINDING AFFINITY PREDICTED BY RF-SCORE:    0.00 PKD
ROOT
HETATM    1  C   UNL     1      -9.744  12.864  64.471  1.00  0.00     0.143 C  
HETATM    2  N   UNL     1     -10.211  13.091  65.840  1.00  0.00    -0.288 N  
HETATM    3  C   UNL     1      -9.500  12.391  66.826  1.00  0.00    -0.228 C  
HETATM    4  C   UNL     1     -11.299  14.127  66.058  1.00  0.00    -0.330 C  
HETATM    5  C   UNL     1     -10.910  15.260  67.071  1.00  0.00    -0.321 C  
HETATM    6  C   UNL     1     -11.688  14.854  64.735  1.00  0.00    -0.402 C  
HETATM    7  C   UNL     1     -12.612  13.430  66.497  1.00  0.00    -0.101 C  
HETATM    8  O   UNL     1      -8.515  11.707  66.519  1.00  0.00    -0.172 OA 
ENDROOT
BRANCH   3   9
HETATM    9  C   UNL     1      -9.930  12.524  68.295  1.00  0.00    -0.229 C  
BRANCH   9  10
HETATM   10  N   UNL     1     -10.266  11.265  68.994  1.00  0.00    -0.187 NA 
BRANCH  10  11
HETATM   11  C   UNL     1     -11.706  10.964  68.910  1.00  0.00    -0.306 C  
BRANCH  11  12
HETATM   12  C   UNL     1     -12.449  11.026  70.263  1.00  0.00    -0.285 C  
HETATM   13  H   UNL     1     -12.987  12.407  71.566  1.00  0.00     0.000 HD 
HETATM   14  O   UNL     1     -12.531  12.369  70.734  1.00  0.00    -0.349 OA 
ENDBRANCH  11  12
ENDBRANCH  10  11
BRANCH  10  15
HETATM   15  C   UNL     1      -9.419  10.115  68.569  1.00  0.00    -0.158 C  
BRANCH  15  16
HETATM   16  C   UNL     1     -10.044   8.714  68.864  1.00  0.00    -0.202 C  
HETATM   17  C   UNL     1     -10.367   6.767  70.463  1.00  0.00    -0.201 C  
HETATM   18  C   UNL     1      -9.441   9.005  71.272  1.00  0.00    -0.269 C  
HETATM   19  N   UNL     1      -9.903   8.182  70.156  1.00  0.00    -0.183 N  
HETATM   20  C   UNL     1     -10.180   5.719  69.301  1.00  0.00    -0.292 C  
HETATM   21  O   UNL     1     -10.602   8.060  67.980  1.00  0.00    -0.200 OA 
HETATM   22  C   UNL     1      -9.662   6.173  71.705  1.00  0.00    -0.171 C  
HETATM   23  C   UNL     1     -11.876   6.802  70.790  1.00  0.00    -0.446 C  
BRANCH  20  24
HETATM   24  C   UNL     1      -8.792   5.477  68.743  1.00  0.00    -0.109 A  
HETATM   25  C   UNL     1      -8.061   4.380  69.223  1.00  0.00    -0.069 A  
HETATM   26  C   UNL     1      -6.807   4.069  68.695  1.00  0.00    -0.047 A  
HETATM   27  C   UNL     1      -6.274   4.835  67.662  1.00  0.00    -0.035 A  
HETATM   28  C   UNL     1      -6.990   5.909  67.159  1.00  0.00    -0.069 A  
HETATM   29  C   UNL     1      -8.227   6.236  67.702  1.00  0.00    -0.117 A  
ENDBRANCH  20  24
ENDBRANCH  15  16
ENDBRANCH  10  15
ENDBRANCH   9  10
ENDBRANCH   3   9
BRANCH   5  30
HETATM   30  C   UNL     1      -9.636  16.026  66.760  1.00  0.00    -0.248 A  
HETATM   31  C   UNL     1      -8.452  18.001  65.959  1.00  0.00    -0.043 A  
HETATM   32  C   UNL     1      -8.392  15.437  67.025  1.00  0.00    -0.268 A  
HETATM   33  C   UNL     1      -9.639  17.313  66.207  1.00  0.00    -0.268 A  
HETATM   34  C   UNL     1      -7.230  17.388  66.189  1.00  0.00    -0.327 A  
HETATM   35  C   UNL     1      -7.202  16.108  66.729  1.00  0.00    -0.190 A  
ENDBRANCH   5  30
TORSDOF 8
ENDMDL
MODEL      171
REMARK 921   NORMALIZED FREE ENERGY PREDICTED BY IDOCK:   -3.92 KCAL/MOL
REMARK 922        TOTAL FREE ENERGY PREDICTED BY IDOCK:   -6.55 KCAL/MOL
REMARK 923 INTER-LIGAND FREE ENERGY PREDICTED BY IDOCK:   -6.35 KCAL/MOL
REMARK 924 INTRA-LIGAND FREE ENERGY PREDICTED BY IDOCK:   -0.20 KCAL/MOL
REMARK 927      BINDING AFFINITY PREDICTED BY RF-SCORE:    0.00 PKD
ROOT
HETATM    1  C   UNL     1      -8.167  11.432  67.782  1.00  0.00    -0.125 C  
HETATM    2  N   UNL     1      -9.027  10.397  67.203  1.00  0.00    -0.139 N  
HETATM    3  C   UNL     1      -9.978   9.865  68.084  1.00  0.00    -0.151 C  
HETATM    4  C   UNL     1      -8.889  10.106  65.720  1.00  0.00    -0.158 C  
HETATM    5  C   UNL     1     -10.226  10.255  64.911  1.00  0.00    -0.261 C  
HETATM    6  C   UNL     1      -7.866  11.060  65.029  1.00  0.00     0.349 C  
HETATM    7  C   UNL     1      -8.280   8.697  65.511  1.00  0.00    -0.135 C  
HETATM    8  O   UNL     1     -10.095  10.320  69.229  1.00  0.00    -0.203 OA 
ENDROOT
BRANCH   3   9
HETATM    9  C   UNL     1     -10.908   8.743  67.593  1.00  0.00    -0.022 C  
BRANCH   9  10
HETATM   10  N   UNL     1     -10.786   7.443  68.287  1.00  0.00    -0.146 NA 
BRANCH  10  11
HETATM   11  C   UNL     1     -11.087   6.316  67.386  1.00  0.00    -0.287 C  
BRANCH  11  12
HETATM   12  C   UNL     1      -9.844   5.688  66.717  1.00  0.00    -0.164 C  
HETATM   13  H   UNL     1      -9.110   3.881  66.416  1.00  0.00     0.000 HD 
HETATM   14  O   UNL     1      -9.874   4.268  66.828  1.00  0.00    -0.210 OA 
ENDBRANCH  11  12
ENDBRANCH  10  11
BRANCH  10  15
HETATM   15  C   UNL     1      -9.483   7.275  68.992  1.00  0.00    -0.147 C  
BRANCH  15  16
HETATM   16  C   UNL     1      -9.556   6.386  70.273  1.00  0.00    -0.164 C  
HETATM   17  C   UNL     1     -10.206   6.136  72.717  1.00  0.00    -0.185 C  
HETATM   18  C   UNL     1     -11.062   8.089  71.313  1.00  0.00    -0.247 C  
HETATM   19  N   UNL     1     -10.223   6.896  71.400  1.00  0.00    -0.197 N  
HETATM   20  C   UNL     1      -8.873   5.360  73.041  1.00  0.00    -0.120 C  
HETATM   21  O   UNL     1      -9.003   5.285  70.325  1.00  0.00    -0.122 OA 
HETATM   22  C   UNL     1     -10.483   7.055  73.930  1.00  0.00    -0.332 C  
HETATM   23  C   UNL     1     -11.337   5.085  72.695  1.00  0.00    -0.209 C  
BRANCH  20  24
HETATM   24  C   UNL     1      -7.569   6.130  73.110  1.00  0.00    -0.097 A  
HETATM   25  C   UNL     1      -6.425   5.559  72.532  1.00  0.00    -0.060 A  
HETATM   26  C   UNL     1      -5.215   6.255  72.506  1.00  0.00    -0.031 A  
HETATM   27  C   UNL     1      -5.135   7.540  73.034  1.00  0.00    -0.037 A  
HETATM   28  C   UNL     1      -6.259   8.129  73.589  1.00  0.00    -0.103 A  
HETATM   29  C   UNL     1      -7.458   7.428  73.640  1.00  0.00    -0.118 A  
ENDBRANCH  20  24
ENDBRANCH  15  16
ENDBRANCH  10  15
ENDBRANCH   9  10
ENDBRANCH   3   9
BRANCH   5  30
HETATM   30  C   UNL     1     -10.932  11.594  65.029  1.00  0.00    -0.334 A  
HETATM   31  C   UNL     1     -11.764  13.680  64.079  1.00  0.00    -0.405 A  
HETATM   32  C   UNL     1     -11.456  11.994  66.265  1.00  0.00    -0.408 A  
HETATM   33  C   UNL     1     -11.086  12.470  63.946  1.00  0.00    -0.476 A  
HETATM   34  C   UNL     1     -12.241  14.078  65.319  1.00  0.00    -0.451 A  
HETATM   35  C   UNL     1     -12.093  13.230  66.410  1.00  0.00    -0.454 A  
ENDBRANCH   5  30
TORSDOF 8
ENDMDL
MODEL      172
REMARK 921   NORMALIZED FREE ENERGY PREDICTED BY IDOCK:   -3.90 KCAL/MOL
REMARK 922        TOTAL FREE ENERGY PREDICTED BY IDOCK:   -6.53 KCAL/MOL
REMARK 923 INTER-LIGAND FREE ENERGY PREDICTED BY IDOCK:   -7.18 KCAL/MOL
REMARK 924 INTRA-LIGAND FREE ENERGY PREDICTED BY IDOCK:    0.65 KCAL/MOL
REMARK 927      BINDING AFFINITY PREDICTED BY RF-SCORE:    0.00 PKD
ROOT
HETATM    1  C   UNL     1     -11.743  11.872  68.652  1.00  0.00    -0.323 C  
HETATM    2  N   UNL     1     -10.473  11.608  67.972  1.00  0.00    -0.188 N  
HETATM    3  C   UNL     1     -10.332  10.303  67.479  1.00  0.00    -0.229 C  
HETATM    4  C   UNL     1      -9.521  12.772  67.766  1.00  0.00    -0.205 C  
HETATM    5  C   UNL     1      -9.121  13.014  66.268  1.00  0.00    -0.005 C  
HETATM    6  C   UNL     1     -10.128  14.119  68.266  1.00  0.00    -0.241 C  
HETATM    7  C   UNL     1      -8.258  12.586  68.644  1.00  0.00     0.001 C  
HETATM    8  O   UNL     1     -11.267   9.497  67.568  1.00  0.00    -0.061 OA 
ENDROOT
BRANCH   3   9
HETATM    9  C   UNL     1      -9.022   9.904  66.782  1.00  0.00    -0.138 C  
BRANCH   9  10
HETATM   10  N   UNL     1      -9.071   8.683  65.948  1.00  0.00    -0.201 NA 
BRANCH  10  11
HETATM   11  C   UNL     1      -7.745   8.345  65.401  1.00  0.00    -0.099 C  
BRANCH  11  12
HETATM   12  C   UNL     1      -7.777   7.314  64.251  1.00  0.00    -0.124 C  
HETATM   13  H   UNL     1      -8.249   7.284  62.335  1.00  0.00     0.000 HD 
HETATM   14  O   UNL     1      -8.229   7.918  63.042  1.00  0.00    -0.137 OA 
ENDBRANCH  11  12
ENDBRANCH  10  11
BRANCH  10  15
HETATM   15  C   UNL     1      -9.712   7.528  66.638  1.00  0.00    -0.203 C  
BRANCH  15  16
HETATM   16  C   UNL     1      -8.896   6.968  67.846  1.00  0.00    -0.124 C  
HETATM   17  C   UNL     1      -8.359   5.031  69.400  1.00  0.00    -0.085 C  
HETATM   18  C   UNL     1      -9.656   4.667  67.231  1.00  0.00    -0.175 C  
HETATM   19  N   UNL     1      -9.018   5.603  68.155  1.00  0.00    -0.111 N  
HETATM   20  C   UNL     1      -8.325   5.985  70.654  1.00  0.00    -0.125 C  
HETATM   21  O   UNL     1      -8.201   7.704  68.550  1.00  0.00    -0.122 OA 
HETATM   22  C   UNL     1      -9.026   3.717  69.868  1.00  0.00    -0.170 C  
HETATM   23  C   UNL     1      -6.891   4.684  69.067  1.00  0.00    -0.050 C  
BRANCH  20  24
HETATM   24  C   UNL     1      -9.630   6.518  71.211  1.00  0.00    -0.175 A  
HETATM   25  C   UNL     1     -10.765   6.499  70.386  1.00  0.00    -0.306 A  
HETATM   26  C   UNL     1     -12.007   6.913  70.870  1.00  0.00    -0.430 A  
HETATM   27  C   UNL     1     -12.140   7.329  72.192  1.00  0.00    -0.287 A  
HETATM   28  C   UNL     1     -11.035   7.335  73.028  1.00  0.00    -0.388 A  
HETATM   29  C   UNL     1      -9.792   6.948  72.539  1.00  0.00    -0.174 A  
ENDBRANCH  20  24
ENDBRANCH  15  16
ENDBRANCH  10  15
ENDBRANCH   9  10
ENDBRANCH   3   9
BRANCH   5  30
HETATM   30  C   UNL     1     -10.268  13.210  65.293  1.00  0.00    -0.299 A  
HETATM   31  C   UNL     1     -11.810  12.393  63.590  1.00  0.00    -0.610 A  
HETATM   32  C   UNL     1     -10.897  14.459  65.206  1.00  0.00    -0.370 A  
HETATM   33  C   UNL     1     -10.736  12.189  64.455  1.00  0.00    -0.353 A  
HETATM   34  C   UNL     1     -12.395  13.646  63.488  1.00  0.00    -0.265 A  
HETATM   35  C   UNL     1     -11.942  14.677  64.303  1.00  0.00    -0.406 A  
ENDBRANCH   5  30
TORSDOF 8
ENDMDL
MODEL      173
REMARK 921   NORMALIZED FREE ENERGY PREDICTED BY IDOCK:   -3.90 KCAL/MOL
REMARK 922        TOTAL FREE ENERGY PREDICTED BY IDOCK:   -6.53 KCAL/MOL
REMARK 923 INTER-LIGAND FREE ENERGY PREDICTED BY IDOCK:   -4.92 KCAL/MOL
REMARK 924 INTRA-LIGAND FREE ENERGY PREDICTED BY IDOCK:   -1.61 KCAL/MOL
REMARK 927      BINDING AFFINITY PREDICTED BY RF-SCORE:    0.00 PKD
ROOT
HETATM    1  C   UNL     1      -7.832   7.773  69.281  1.00  0.00    -0.116 C  
HETATM    2  N   UNL     1      -8.722   6.663  68.933  1.00  0.00    -0.129 N  
HETATM    3  C   UNL     1      -8.136   5.392  69.016  1.00  0.00    -0.094 C  
HETATM    4  C   UNL     1     -10.179   6.982  68.650  1.00  0.00    -0.176 C  
HETATM    5  C   UNL     1     -11.194   6.194  69.552  1.00  0.00    -0.482 C  
HETATM    6  C   UNL     1     -10.500   8.492  68.867  1.00  0.00    -0.207 C  
HETATM    7  C   UNL     1     -10.490   6.750  67.149  1.00  0.00    -0.364 C  
HETATM    8  O   UNL     1      -6.977   5.265  69.430  1.00  0.00    -0.052 OA 
ENDROOT
BRANCH   3   9
HETATM    9  C   UNL     1      -8.967   4.157  68.635  1.00  0.00    -0.114 C  
BRANCH   9  10
HETATM   10  N   UNL     1      -8.231   3.045  67.998  1.00  0.00    -0.076 NA 
BRANCH  10  11
HETATM   11  C   UNL     1      -7.605   2.163  69.000  1.00  0.00    -0.043 C  
BRANCH  11  12
HETATM   12  C   UNL     1      -6.136   1.796  68.695  1.00  0.00    -0.024 C  
HETATM   13  H   UNL     1      -4.654   2.509  67.604  1.00  0.00     0.000 HD 
HETATM   14  O   UNL     1      -5.558   2.734  67.792  1.00  0.00    -0.017 OA 
ENDBRANCH  11  12
ENDBRANCH  10  11
BRANCH  10  15
HETATM   15  C   UNL     1      -9.050   2.290  67.009  1.00  0.00    -0.106 C  
BRANCH  15  16
HETATM   16  C   UNL     1      -9.180   2.986  65.617  1.00  0.00    -0.129 C  
HETATM   17  C   UNL     1      -8.228   3.417  63.302  1.00  0.00    -0.085 C  
HETATM   18  C   UNL     1      -7.330   1.533  64.772  1.00  0.00    -0.053 C  
HETATM   19  N   UNL     1      -8.236   2.670  64.626  1.00  0.00    -0.086 N  
HETATM   20  C   UNL     1      -8.613   4.944  63.376  1.00  0.00    -0.128 C  
HETATM   21  O   UNL     1     -10.051   3.830  65.399  1.00  0.00    -0.132 OA 
HETATM   22  C   UNL     1      -6.855   3.346  62.594  1.00  0.00    -0.031 C  
HETATM   23  C   UNL     1      -9.247   2.749  62.352  1.00  0.00    -0.083 C  
BRANCH  20  24
HETATM   24  C   UNL     1      -7.797   5.867  64.259  1.00  0.00    -0.116 A  
HETATM   25  C   UNL     1      -8.020   7.249  64.165  1.00  0.00    -0.084 A  
HETATM   26  C   UNL     1      -7.347   8.141  65.003  1.00  0.00    -0.082 A  
HETATM   27  C   UNL     1      -6.460   7.663  65.964  1.00  0.00    -0.042 A  
HETATM   28  C   UNL     1      -6.244   6.300  66.087  1.00  0.00    -0.037 A  
HETATM   29  C   UNL     1      -6.893   5.414  65.235  1.00  0.00    -0.053 A  
ENDBRANCH  20  24
ENDBRANCH  15  16
ENDBRANCH  10  15
ENDBRANCH   9  10
ENDBRANCH   3   9
BRANCH   5  30
HETATM   30  C   UNL     1     -11.001   6.332  71.052  1.00  0.00    -0.340 A  
HETATM   31  C   UNL     1     -11.034   7.629  73.116  1.00  0.00    -0.411 A  
HETATM   32  C   UNL     1     -10.609   5.218  71.805  1.00  0.00    -0.268 A  
HETATM   33  C   UNL     1     -11.192   7.541  71.734  1.00  0.00    -0.281 A  
HETATM   34  C   UNL     1     -10.608   6.526  73.840  1.00  0.00    -0.250 A  
HETATM   35  C   UNL     1     -10.403   5.318  73.184  1.00  0.00    -0.229 A  
ENDBRANCH   5  30
TORSDOF 8
ENDMDL
MODEL      174
REMARK 921   NORMALIZED FREE ENERGY PREDICTED BY IDOCK:   -3.90 KCAL/MOL
REMARK 922        TOTAL FREE ENERGY PREDICTED BY IDOCK:   -6.53 KCAL/MOL
REMARK 923 INTER-LIGAND FREE ENERGY PREDICTED BY IDOCK:   -6.63 KCAL/MOL
REMARK 924 INTRA-LIGAND FREE ENERGY PREDICTED BY IDOCK:    0.10 KCAL/MOL
REMARK 927      BINDING AFFINITY PREDICTED BY RF-SCORE:    0.00 PKD
ROOT
HETATM    1  C   UNL     1      -9.965  15.818  69.507  1.00  0.00    -0.283 C  
HETATM    2  N   UNL     1      -9.368  14.947  68.493  1.00  0.00    -0.190 N  
HETATM    3  C   UNL     1      -8.052  14.547  68.765  1.00  0.00    -0.146 C  
HETATM    4  C   UNL     1     -10.250  14.479  67.349  1.00  0.00    -0.240 C  
HETATM    5  C   UNL     1     -10.329  12.918  67.201  1.00  0.00    -0.239 C  
HETATM    6  C   UNL     1     -11.723  14.966  67.509  1.00  0.00    -0.328 C  
HETATM    7  C   UNL     1      -9.786  15.130  66.022  1.00  0.00    -0.349 C  
HETATM    8  O   UNL     1      -7.508  14.867  69.829  1.00  0.00    -0.172 OA 
ENDROOT
BRANCH   3   9
HETATM    9  C   UNL     1      -7.313  13.663  67.748  1.00  0.00    -0.166 C  
BRANCH   9  10
HETATM   10  N   UNL     1      -6.470  12.585  68.309  1.00  0.00    -0.061 NA 
BRANCH  10  11
HETATM   11  C   UNL     1      -5.578  13.090  69.368  1.00  0.00    -0.084 C  
BRANCH  11  12
HETATM   12  C   UNL     1      -5.399  12.126  70.562  1.00  0.00    -0.144 C  
HETATM   13  H   UNL     1      -5.318  12.246  72.530  1.00  0.00     0.000 HD 
HETATM   14  O   UNL     1      -5.428  12.839  71.796  1.00  0.00    -0.393 OA 
ENDBRANCH  11  12
ENDBRANCH  10  11
BRANCH  10  15
HETATM   15  C   UNL     1      -7.254  11.396  68.745  1.00  0.00    -0.107 C  
BRANCH  15  16
HETATM   16  C   UNL     1      -6.800  10.052  68.091  1.00  0.00    -0.064 C  
HETATM   17  C   UNL     1      -6.962   8.406  66.162  1.00  0.00    -0.072 C  
HETATM   18  C   UNL     1      -7.898  10.773  65.964  1.00  0.00    -0.149 C  
HETATM   19  N   UNL     1      -7.256   9.757  66.795  1.00  0.00    -0.090 N  
HETATM   20  C   UNL     1      -6.955   7.177  67.149  1.00  0.00    -0.078 C  
HETATM   21  O   UNL     1      -6.104   9.240  68.704  1.00  0.00    -0.044 OA 
HETATM   22  C   UNL     1      -7.960   8.055  65.034  1.00  0.00    -0.126 C  
HETATM   23  C   UNL     1      -5.563   8.460  65.510  1.00  0.00    -0.043 C  
BRANCH  20  24
HETATM   24  C   UNL     1      -8.198   6.876  67.961  1.00  0.00    -0.115 A  
HETATM   25  C   UNL     1      -9.450   7.147  67.389  1.00  0.00    -0.156 A  
HETATM   26  C   UNL     1     -10.629   6.825  68.065  1.00  0.00    -0.283 A  
HETATM   27  C   UNL     1     -10.575   6.205  69.310  1.00  0.00    -0.348 A  
HETATM   28  C   UNL     1      -9.348   5.909  69.880  1.00  0.00    -0.173 A  
HETATM   29  C   UNL     1      -8.174   6.254  69.221  1.00  0.00    -0.114 A  
ENDBRANCH  20  24
ENDBRANCH  15  16
ENDBRANCH  10  15
ENDBRANCH   9  10
ENDBRANCH   3   9
BRANCH   5  30
HETATM   30  C   UNL     1     -10.770  12.151  68.434  1.00  0.00    -0.252 A  
HETATM   31  C   UNL     1     -11.987  11.975  70.539  1.00  0.00    -0.338 A  
HETATM   32  C   UNL     1     -10.360  10.822  68.606  1.00  0.00    -0.208 A  
HETATM   33  C   UNL     1     -11.576  12.714  69.431  1.00  0.00    -0.369 A  
HETATM   34  C   UNL     1     -11.540  10.675  70.713  1.00  0.00    -0.388 A  
HETATM   35  C   UNL     1     -10.731  10.096  69.742  1.00  0.00    -0.317 A  
ENDBRANCH   5  30
TORSDOF 8
ENDMDL
MODEL      175
REMARK 921   NORMALIZED FREE ENERGY PREDICTED BY IDOCK:   -3.90 KCAL/MOL
REMARK 922        TOTAL FREE ENERGY PREDICTED BY IDOCK:   -6.52 KCAL/MOL
REMARK 923 INTER-LIGAND FREE ENERGY PREDICTED BY IDOCK:   -6.26 KCAL/MOL
REMARK 924 INTRA-LIGAND FREE ENERGY PREDICTED BY IDOCK:   -0.26 KCAL/MOL
REMARK 927      BINDING AFFINITY PREDICTED BY RF-SCORE:    0.00 PKD
ROOT
HETATM    1  C   UNL     1      -7.647   4.656  69.538  1.00  0.00    -0.055 C  
HETATM    2  N   UNL     1      -8.286   5.810  68.902  1.00  0.00    -0.101 N  
HETATM    3  C   UNL     1      -7.598   7.022  69.058  1.00  0.00    -0.104 C  
HETATM    4  C   UNL     1      -9.522   5.561  68.056  1.00  0.00    -0.114 C  
HETATM    5  C   UNL     1      -9.403   6.081  66.580  1.00  0.00    -0.156 C  
HETATM    6  C   UNL     1      -9.860   4.043  67.946  1.00  0.00    -0.078 C  
HETATM    7  C   UNL     1     -10.768   6.169  68.749  1.00  0.00    -0.370 C  
HETATM    8  O   UNL     1      -6.503   7.049  69.632  1.00  0.00    -0.041 OA 
ENDROOT
BRANCH   3   9
HETATM    9  C   UNL     1      -8.200   8.306  68.465  1.00  0.00    -0.131 C  
BRANCH   9  10
HETATM   10  N   UNL     1      -9.250   8.967  69.268  1.00  0.00    -0.144 NA 
BRANCH  10  11
HETATM   11  C   UNL     1      -8.671   9.831  70.313  1.00  0.00    -0.129 C  
BRANCH  11  12
HETATM   12  C   UNL     1      -7.207  10.253  70.050  1.00  0.00    -0.158 C  
HETATM   13  H   UNL     1      -5.431   9.911  70.838  1.00  0.00     0.000 HD 
HETATM   14  O   UNL     1      -6.331   9.652  71.000  1.00  0.00    -0.098 OA 
ENDBRANCH  11  12
ENDBRANCH  10  11
BRANCH  10  15
HETATM   15  C   UNL     1     -10.261   9.679  68.438  1.00  0.00    -0.188 C  
BRANCH  15  16
HETATM   16  C   UNL     1      -9.851  11.130  68.030  1.00  0.00    -0.174 C  
HETATM   17  C   UNL     1     -10.326  13.625  68.088  1.00  0.00    -0.245 C  
HETATM   18  C   UNL     1     -11.527  12.012  69.661  1.00  0.00    -0.252 C  
HETATM   19  N   UNL     1     -10.590  12.203  68.557  1.00  0.00    -0.228 N  
HETATM   20  C   UNL     1      -9.936  13.783  66.569  1.00  0.00    -0.290 C  
HETATM   21  O   UNL     1      -8.939  11.339  67.227  1.00  0.00    -0.146 OA 
HETATM   22  C   UNL     1     -11.537  14.557  68.328  1.00  0.00    -0.358 C  
HETATM   23  C   UNL     1      -9.155  14.207  68.909  1.00  0.00     0.008 C  
BRANCH  20  24
HETATM   24  C   UNL     1     -10.891  13.277  65.506  1.00  0.00    -0.297 A  
HETATM   25  C   UNL     1     -10.375  12.498  64.460  1.00  0.00    -0.362 A  
HETATM   26  C   UNL     1     -11.218  11.949  63.493  1.00  0.00    -0.501 A  
HETATM   27  C   UNL     1     -12.594  12.149  63.570  1.00  0.00    -0.621 A  
HETATM   28  C   UNL     1     -13.125  12.897  64.608  1.00  0.00    -0.030 A  
HETATM   29  C   UNL     1     -12.284  13.467  65.556  1.00  0.00    -0.499 A  
ENDBRANCH  20  24
ENDBRANCH  15  16
ENDBRANCH  10  15
ENDBRANCH   9  10
ENDBRANCH   3   9
BRANCH   5  30
HETATM   30  C   UNL     1      -8.218   5.565  65.783  1.00  0.00    -0.124 A  
HETATM   31  C   UNL     1      -5.919   5.734  64.990  1.00  0.00    -0.025 A  
HETATM   32  C   UNL     1      -8.330   4.358  65.080  1.00  0.00    -0.116 A  
HETATM   33  C   UNL     1      -6.997   6.248  65.708  1.00  0.00    -0.057 A  
HETATM   34  C   UNL     1      -6.060   4.559  64.268  1.00  0.00    -0.018 A  
HETATM   35  C   UNL     1      -7.264   3.867  64.320  1.00  0.00    -0.058 A  
ENDBRANCH   5  30
TORSDOF 8
ENDMDL
MODEL      176
REMARK 921   NORMALIZED FREE ENERGY PREDICTED BY IDOCK:   -3.85 KCAL/MOL
REMARK 922        TOTAL FREE ENERGY PREDICTED BY IDOCK:   -6.46 KCAL/MOL
REMARK 923 INTER-LIGAND FREE ENERGY PREDICTED BY IDOCK:   -6.28 KCAL/MOL
REMARK 924 INTRA-LIGAND FREE ENERGY PREDICTED BY IDOCK:   -0.17 KCAL/MOL
REMARK 927      BINDING AFFINITY PREDICTED BY RF-SCORE:    0.00 PKD
ROOT
HETATM    1  C   UNL     1      -9.321   6.109  66.295  1.00  0.00    -0.134 C  
HETATM    2  N   UNL     1      -9.178   7.566  66.289  1.00  0.00    -0.168 N  
HETATM    3  C   UNL     1     -10.120   8.252  67.069  1.00  0.00    -0.283 C  
HETATM    4  C   UNL     1      -7.984   8.160  65.564  1.00  0.00    -0.112 C  
HETATM    5  C   UNL     1      -7.082   9.078  66.462  1.00  0.00    -0.081 C  
HETATM    6  C   UNL     1      -7.036   7.058  64.997  1.00  0.00    -0.064 C  
HETATM    7  C   UNL     1      -8.457   8.925  64.303  1.00  0.00    -0.165 C  
HETATM    8  O   UNL     1     -10.940   7.626  67.751  1.00  0.00    -0.102 OA 
ENDROOT
BRANCH   3   9
HETATM    9  C   UNL     1     -10.087   9.788  67.104  1.00  0.00    -0.211 C  
BRANCH   9  10
HETATM   10  N   UNL     1     -10.226  10.414  68.436  1.00  0.00    -0.159 NA 
BRANCH  10  11
HETATM   11  C   UNL     1     -10.465   9.408  69.487  1.00  0.00    -0.218 C  
BRANCH  11  12
HETATM   12  C   UNL     1     -11.631   9.751  70.441  1.00  0.00    -0.258 C  
HETATM   13  H   UNL     1     -13.288  10.821  70.388  1.00  0.00     0.000 HD 
HETATM   14  O   UNL     1     -12.571  10.610  69.802  1.00  0.00    -0.244 OA 
ENDBRANCH  11  12
ENDBRANCH  10  11
BRANCH  10  15
HETATM   15  C   UNL     1      -9.101  11.331  68.772  1.00  0.00    -0.116 C  
BRANCH  15  16
HETATM   16  C   UNL     1      -9.040  12.621  67.895  1.00  0.00    -0.200 C  
HETATM   17  C   UNL     1     -10.053  14.855  67.233  1.00  0.00    -0.235 C  
HETATM   18  C   UNL     1     -10.802  13.637  69.348  1.00  0.00    -0.009 C  
HETATM   19  N   UNL     1      -9.975  13.639  68.143  1.00  0.00    -0.240 N  
HETATM   20  C   UNL     1      -9.771  14.585  65.706  1.00  0.00    -0.306 C  
HETATM   21  O   UNL     1      -8.230  12.734  66.971  1.00  0.00    -0.169 OA 
HETATM   22  C   UNL     1     -11.430  15.557  67.305  1.00  0.00    -0.102 C  
HETATM   23  C   UNL     1      -9.008  15.890  67.701  1.00  0.00    -0.193 C  
BRANCH  20  24
HETATM   24  C   UNL     1     -10.632  13.584  64.962  1.00  0.00    -0.382 A  
HETATM   25  C   UNL     1     -11.914  13.981  64.553  1.00  0.00    -0.470 A  
HETATM   26  C   UNL     1     -12.724  13.124  63.805  1.00  0.00    -0.110 A  
HETATM   27  C   UNL     1     -12.255  11.867  63.433  1.00  0.00    -0.561 A  
HETATM   28  C   UNL     1     -10.983  11.466  63.809  1.00  0.00    -0.448 A  
HETATM   29  C   UNL     1     -10.187  12.307  64.576  1.00  0.00    -0.322 A  
ENDBRANCH  20  24
ENDBRANCH  15  16
ENDBRANCH  10  15
ENDBRANCH   9  10
ENDBRANCH   3   9
BRANCH   5  30
HETATM   30  C   UNL     1      -6.550   8.451  67.737  1.00  0.00    -0.062 A  
HETATM   31  C   UNL     1      -6.341   8.354  70.165  1.00  0.00    -0.038 A  
HETATM   32  C   UNL     1      -5.744   7.307  67.663  1.00  0.00    -0.029 A  
HETATM   33  C   UNL     1      -6.822   8.969  69.010  1.00  0.00    -0.055 A  
HETATM   34  C   UNL     1      -5.513   7.246  70.071  1.00  0.00    -0.023 A  
HETATM   35  C   UNL     1      -5.221   6.718  68.818  1.00  0.00    -0.016 A  
ENDBRANCH   5  30
TORSDOF 8
ENDMDL
MODEL      177
REMARK 921   NORMALIZED FREE ENERGY PREDICTED BY IDOCK:   -3.84 KCAL/MOL
REMARK 922        TOTAL FREE ENERGY PREDICTED BY IDOCK:   -6.45 KCAL/MOL
REMARK 923 INTER-LIGAND FREE ENERGY PREDICTED BY IDOCK:   -6.68 KCAL/MOL
REMARK 924 INTRA-LIGAND FREE ENERGY PREDICTED BY IDOCK:    0.23 KCAL/MOL
REMARK 927      BINDING AFFINITY PREDICTED BY RF-SCORE:    0.00 PKD
ROOT
HETATM    1  C   UNL     1     -12.207  14.033  68.962  1.00  0.00    -0.245 C  
HETATM    2  N   UNL     1     -10.890  13.542  68.551  1.00  0.00    -0.257 N  
HETATM    3  C   UNL     1     -10.707  12.160  68.697  1.00  0.00    -0.233 C  
HETATM    4  C   UNL     1      -9.932  14.530  67.910  1.00  0.00    -0.226 C  
HETATM    5  C   UNL     1      -9.425  14.099  66.488  1.00  0.00    -0.303 C  
HETATM    6  C   UNL     1     -10.579  15.936  67.723  1.00  0.00    -0.302 C  
HETATM    7  C   UNL     1      -8.734  14.797  68.857  1.00  0.00    -0.161 C  
HETATM    8  O   UNL     1     -11.641  11.442  69.075  1.00  0.00    -0.257 OA 
ENDROOT
BRANCH   3   9
HETATM    9  C   UNL     1      -9.348  11.542  68.332  1.00  0.00    -0.194 C  
BRANCH   9  10
HETATM   10  N   UNL     1      -9.260  10.068  68.406  1.00  0.00    -0.129 NA 
BRANCH  10  11
HETATM   11  C   UNL     1     -10.140   9.523  69.455  1.00  0.00    -0.198 C  
BRANCH  11  12
HETATM   12  C   UNL     1      -9.391   8.862  70.634  1.00  0.00    -0.212 C  
HETATM   13  H   UNL     1      -9.790   7.570  72.071  1.00  0.00     0.000 HD 
HETATM   14  O   UNL     1     -10.251   7.976  71.346  1.00  0.00    -0.190 OA 
ENDBRANCH  11  12
ENDBRANCH  10  11
BRANCH  10  15
HETATM   15  C   UNL     1      -9.465   9.402  67.089  1.00  0.00    -0.145 C  
BRANCH  15  16
HETATM   16  C   UNL     1      -8.166   8.801  66.464  1.00  0.00    -0.111 C  
HETATM   17  C   UNL     1      -6.903   8.013  64.405  1.00  0.00    -0.064 C  
HETATM   18  C   UNL     1      -9.033   9.404  64.199  1.00  0.00    -0.144 C  
HETATM   19  N   UNL     1      -8.080   8.713  65.064  1.00  0.00    -0.134 N  
HETATM   20  C   UNL     1      -6.335   6.760  65.175  1.00  0.00    -0.042 C  
HETATM   21  O   UNL     1      -7.254   8.364  67.170  1.00  0.00    -0.081 OA 
HETATM   22  C   UNL     1      -7.231   7.533  62.972  1.00  0.00    -0.083 C  
HETATM   23  C   UNL     1      -5.738   9.018  64.276  1.00  0.00    -0.069 C  
BRANCH  20  24
HETATM   24  C   UNL     1      -7.260   5.597  65.476  1.00  0.00    -0.067 A  
HETATM   25  C   UNL     1      -7.147   4.958  66.720  1.00  0.00    -0.068 A  
HETATM   26  C   UNL     1      -8.019   3.928  67.076  1.00  0.00    -0.095 A  
HETATM   27  C   UNL     1      -9.033   3.537  66.206  1.00  0.00    -0.145 A  
HETATM   28  C   UNL     1      -9.175   4.171  64.982  1.00  0.00    -0.154 A  
HETATM   29  C   UNL     1      -8.290   5.179  64.615  1.00  0.00    -0.140 A  
ENDBRANCH  20  24
ENDBRANCH  15  16
ENDBRANCH  10  15
ENDBRANCH   9  10
ENDBRANCH   3   9
BRANCH   5  30
HETATM   30  C   UNL     1     -10.500  13.803  65.458  1.00  0.00    -0.327 A  
HETATM   31  C   UNL     1     -11.667  12.297  63.936  1.00  0.00    -0.536 A  
HETATM   32  C   UNL     1     -11.385  14.817  65.069  1.00  0.00    -0.391 A  
HETATM   33  C   UNL     1     -10.652  12.545  64.859  1.00  0.00    -0.330 A  
HETATM   34  C   UNL     1     -12.508  13.322  63.533  1.00  0.00    -0.328 A  
HETATM   35  C   UNL     1     -12.372  14.581  64.107  1.00  0.00    -0.317 A  
ENDBRANCH   5  30
TORSDOF 8
ENDMDL
MODEL      178
REMARK 921   NORMALIZED FREE ENERGY PREDICTED BY IDOCK:   -3.84 KCAL/MOL
REMARK 922        TOTAL FREE ENERGY PREDICTED BY IDOCK:   -6.43 KCAL/MOL
REMARK 923 INTER-LIGAND FREE ENERGY PREDICTED BY IDOCK:   -6.25 KCAL/MOL
REMARK 924 INTRA-LIGAND FREE ENERGY PREDICTED BY IDOCK:   -0.19 KCAL/MOL
REMARK 927      BINDING AFFINITY PREDICTED BY RF-SCORE:    0.00 PKD
ROOT
HETATM    1  C   UNL     1      -8.203  12.581  68.504  1.00  0.00    -0.079 C  
HETATM    2  N   UNL     1      -8.422  11.135  68.438  1.00  0.00    -0.145 N  
HETATM    3  C   UNL     1      -7.688  10.387  69.370  1.00  0.00    -0.158 C  
HETATM    4  C   UNL     1      -9.484  10.619  67.484  1.00  0.00    -0.153 C  
HETATM    5  C   UNL     1     -10.591   9.745  68.171  1.00  0.00    -0.276 C  
HETATM    6  C   UNL     1     -10.242  11.780  66.769  1.00  0.00    -0.240 C  
HETATM    7  C   UNL     1      -8.818   9.841  66.321  1.00  0.00    -0.165 C  
HETATM    8  O   UNL     1      -6.982  10.957  70.211  1.00  0.00    -0.213 OA 
ENDROOT
BRANCH   3   9
HETATM    9  C   UNL     1      -7.811   8.856  69.364  1.00  0.00    -0.098 C  
BRANCH   9  10
HETATM   10  N   UNL     1      -7.395   8.162  70.603  1.00  0.00    -0.051 NA 
BRANCH  10  11
HETATM   11  C   UNL     1      -6.112   8.680  71.110  1.00  0.00    -0.043 C  
BRANCH  11  12
HETATM   12  C   UNL     1      -5.908   8.492  72.631  1.00  0.00    -0.072 C  
HETATM   13  H   UNL     1      -5.556   9.630  74.204  1.00  0.00     0.000 HD 
HETATM   14  O   UNL     1      -5.681   9.745  73.269  1.00  0.00    -0.309 OA 
ENDBRANCH  11  12
ENDBRANCH  10  11
BRANCH  10  15
HETATM   15  C   UNL     1      -8.456   8.146  71.649  1.00  0.00    -0.136 C  
BRANCH  15  16
HETATM   16  C   UNL     1      -9.354   6.868  71.633  1.00  0.00    -0.154 C  
HETATM   17  C   UNL     1     -10.011   4.655  72.692  1.00  0.00    -0.163 C  
HETATM   18  C   UNL     1      -8.579   6.351  73.952  1.00  0.00    -0.123 C  
HETATM   19  N   UNL     1      -9.266   5.980  72.717  1.00  0.00    -0.142 N  
HETATM   20  C   UNL     1     -10.117   3.958  71.282  1.00  0.00    -0.098 C  
HETATM   21  O   UNL     1     -10.087   6.609  70.675  1.00  0.00    -0.183 OA 
HETATM   22  C   UNL     1      -9.388   3.611  73.649  1.00  0.00    -0.115 C  
HETATM   23  C   UNL     1     -11.457   4.891  73.180  1.00  0.00    -0.362 C  
BRANCH  20  24
HETATM   24  C   UNL     1      -8.846   3.614  70.531  1.00  0.00    -0.139 A  
HETATM   25  C   UNL     1      -8.813   3.822  69.144  1.00  0.00    -0.152 A  
HETATM   26  C   UNL     1      -7.647   3.588  68.413  1.00  0.00    -0.056 A  
HETATM   27  C   UNL     1      -6.488   3.168  69.061  1.00  0.00    -0.030 A  
HETATM   28  C   UNL     1      -6.495   2.979  70.433  1.00  0.00    -0.032 A  
HETATM   29  C   UNL     1      -7.663   3.185  71.158  1.00  0.00    -0.047 A  
ENDBRANCH  20  24
ENDBRANCH  15  16
ENDBRANCH  10  15
ENDBRANCH   9  10
ENDBRANCH   3   9
BRANCH   5  30
HETATM   30  C   UNL     1     -11.326  10.389  69.334  1.00  0.00    -0.310 A  
HETATM   31  C   UNL     1     -12.399  12.294  70.412  1.00  0.00    -0.309 A  
HETATM   32  C   UNL     1     -11.646   9.621  70.460  1.00  0.00    -0.341 A  
HETATM   33  C   UNL     1     -11.701  11.738  69.341  1.00  0.00    -0.405 A  
HETATM   34  C   UNL     1     -12.673  11.529  71.536  1.00  0.00    -0.439 A  
HETATM   35  C   UNL     1     -12.303  10.190  71.556  1.00  0.00    -0.505 A  
ENDBRANCH   5  30
TORSDOF 8
ENDMDL
MODEL      179
REMARK 921   NORMALIZED FREE ENERGY PREDICTED BY IDOCK:   -3.83 KCAL/MOL
REMARK 922        TOTAL FREE ENERGY PREDICTED BY IDOCK:   -6.42 KCAL/MOL
REMARK 923 INTER-LIGAND FREE ENERGY PREDICTED BY IDOCK:   -5.69 KCAL/MOL
REMARK 924 INTRA-LIGAND FREE ENERGY PREDICTED BY IDOCK:   -0.72 KCAL/MOL
REMARK 927      BINDING AFFINITY PREDICTED BY RF-SCORE:    0.00 PKD
ROOT
HETATM    1  C   UNL     1      -9.901  10.611  65.048  1.00  0.00    -0.293 C  
HETATM    2  N   UNL     1     -10.408  10.932  66.384  1.00  0.00    -0.245 N  
HETATM    3  C   UNL     1     -10.780   9.820  67.153  1.00  0.00    -0.202 C  
HETATM    4  C   UNL     1     -10.361  12.381  66.833  1.00  0.00    -0.224 C  
HETATM    5  C   UNL     1      -9.574  12.611  68.171  1.00  0.00    -0.219 C  
HETATM    6  C   UNL     1      -9.676  13.300  65.774  1.00  0.00    -0.149 C  
HETATM    7  C   UNL     1     -11.799  12.949  66.941  1.00  0.00    -0.444 C  
HETATM    8  O   UNL     1     -10.603   8.674  66.721  1.00  0.00    -0.269 OA 
ENDROOT
BRANCH   3   9
HETATM    9  C   UNL     1     -11.362  10.043  68.557  1.00  0.00    -0.052 C  
BRANCH   9  10
HETATM   10  N   UNL     1     -10.572   9.505  69.685  1.00  0.00    -0.218 NA 
BRANCH  10  11
HETATM   11  C   UNL     1     -11.102   9.956  70.984  1.00  0.00    -0.331 C  
BRANCH  11  12
HETATM   12  C   UNL     1     -12.645   9.957  71.075  1.00  0.00    -0.336 C  
HETATM   13  H   UNL     1     -14.057  11.105  71.838  1.00  0.00     0.000 HD 
HETATM   14  O   UNL     1     -13.109  11.104  71.782  1.00  0.00    -0.467 OA 
ENDBRANCH  11  12
ENDBRANCH  10  11
BRANCH  10  15
HETATM   15  C   UNL     1     -10.397   8.026  69.625  1.00  0.00    -0.220 C  
BRANCH  15  16
HETATM   16  C   UNL     1      -9.163   7.492  70.419  1.00  0.00    -0.157 C  
HETATM   17  C   UNL     1      -6.810   6.534  70.401  1.00  0.00    -0.062 C  
HETATM   18  C   UNL     1      -7.819   7.604  68.314  1.00  0.00    -0.121 C  
HETATM   19  N   UNL     1      -7.993   7.186  69.703  1.00  0.00    -0.122 N  
HETATM   20  C   UNL     1      -7.170   5.503  71.538  1.00  0.00    -0.081 C  
HETATM   21  O   UNL     1      -9.218   7.291  71.635  1.00  0.00    -0.146 OA 
HETATM   22  C   UNL     1      -5.883   5.789  69.413  1.00  0.00    -0.016 C  
HETATM   23  C   UNL     1      -5.954   7.638  71.059  1.00  0.00    -0.035 C  
BRANCH  20  24
HETATM   24  C   UNL     1      -8.031   4.303  71.199  1.00  0.00    -0.072 A  
HETATM   25  C   UNL     1      -8.559   3.541  72.253  1.00  0.00    -0.095 A  
HETATM   26  C   UNL     1      -9.414   2.467  72.000  1.00  0.00    -0.185 A  
HETATM   27  C   UNL     1      -9.776   2.153  70.693  1.00  0.00    -0.080 A  
HETATM   28  C   UNL     1      -9.283   2.908  69.641  1.00  0.00    -0.217 A  
HETATM   29  C   UNL     1      -8.410   3.960  69.889  1.00  0.00    -0.079 A  
ENDBRANCH  20  24
ENDBRANCH  15  16
ENDBRANCH  10  15
ENDBRANCH   9  10
ENDBRANCH   3   9
BRANCH   5  30
HETATM   30  C   UNL     1      -8.145  12.098  68.203  1.00  0.00    -0.161 A  
HETATM   31  C   UNL     1      -5.874  11.998  67.322  1.00  0.00    -0.142 A  
HETATM   32  C   UNL     1      -7.748  11.216  69.216  1.00  0.00    -0.027 A  
HETATM   33  C   UNL     1      -7.185  12.464  67.250  1.00  0.00    -0.125 A  
HETATM   34  C   UNL     1      -5.509  11.095  68.308  1.00  0.00    -0.039 A  
HETATM   35  C   UNL     1      -6.446  10.710  69.260  1.00  0.00    -0.062 A  
ENDBRANCH   5  30
TORSDOF 8
ENDMDL
MODEL      180
REMARK 921   NORMALIZED FREE ENERGY PREDICTED BY IDOCK:   -3.82 KCAL/MOL
REMARK 922        TOTAL FREE ENERGY PREDICTED BY IDOCK:   -6.41 KCAL/MOL
REMARK 923 INTER-LIGAND FREE ENERGY PREDICTED BY IDOCK:   -5.05 KCAL/MOL
REMARK 924 INTRA-LIGAND FREE ENERGY PREDICTED BY IDOCK:   -1.35 KCAL/MOL
REMARK 927      BINDING AFFINITY PREDICTED BY RF-SCORE:    0.00 PKD
ROOT
HETATM    1  C   UNL     1     -11.464   9.453  70.428  1.00  0.00    -0.223 C  
HETATM    2  N   UNL     1     -10.493   8.673  69.657  1.00  0.00    -0.219 N  
HETATM    3  C   UNL     1      -9.486   9.431  69.043  1.00  0.00    -0.160 C  
HETATM    4  C   UNL     1     -10.600   7.160  69.705  1.00  0.00    -0.234 C  
HETATM    5  C   UNL     1      -9.289   6.441  70.184  1.00  0.00    -0.164 C  
HETATM    6  C   UNL     1     -11.725   6.683  70.674  1.00  0.00    -0.452 C  
HETATM    7  C   UNL     1     -11.046   6.616  68.324  1.00  0.00    -0.283 C  
HETATM    8  O   UNL     1      -9.421  10.653  69.230  1.00  0.00    -0.197 OA 
ENDROOT
BRANCH   3   9
HETATM    9  C   UNL     1      -8.437   8.718  68.176  1.00  0.00    -0.130 C  
BRANCH   9  10
HETATM   10  N   UNL     1      -8.707   8.680  66.722  1.00  0.00    -0.122 NA 
BRANCH  10  11
HETATM   11  C   UNL     1      -9.892   9.483  66.369  1.00  0.00    -0.253 C  
BRANCH  11  12
HETATM   12  C   UNL     1      -9.571  10.784  65.600  1.00  0.00    -0.216 C  
HETATM   13  H   UNL     1     -10.315  11.797  64.079  1.00  0.00     0.000 HD 
HETATM   14  O   UNL     1     -10.513  10.997  64.552  1.00  0.00    -0.330 OA 
ENDBRANCH  11  12
ENDBRANCH  10  11
BRANCH  10  15
HETATM   15  C   UNL     1      -7.518   9.027  65.896  1.00  0.00    -0.094 C  
BRANCH  15  16
HETATM   16  C   UNL     1      -6.822   7.801  65.223  1.00  0.00    -0.051 C  
HETATM   17  C   UNL     1      -6.783   6.069  63.365  1.00  0.00    -0.036 C  
HETATM   18  C   UNL     1      -8.285   8.128  63.223  1.00  0.00    -0.073 C  
HETATM   19  N   UNL     1      -7.328   7.340  63.996  1.00  0.00    -0.081 N  
HETATM   20  C   UNL     1      -6.369   4.929  64.372  1.00  0.00    -0.034 C  
HETATM   21  O   UNL     1      -5.887   7.212  65.770  1.00  0.00    -0.034 OA 
HETATM   22  C   UNL     1      -7.780   5.432  62.369  1.00  0.00    -0.067 C  
HETATM   23  C   UNL     1      -5.518   6.424  62.554  1.00  0.00    -0.023 C  
BRANCH  20  24
HETATM   24  C   UNL     1      -7.406   4.379  65.330  1.00  0.00    -0.073 A  
HETATM   25  C   UNL     1      -6.973   3.871  66.564  1.00  0.00    -0.059 A  
HETATM   26  C   UNL     1      -7.891   3.416  67.513  1.00  0.00    -0.077 A  
HETATM   27  C   UNL     1      -9.257   3.485  67.253  1.00  0.00    -0.221 A  
HETATM   28  C   UNL     1      -9.705   4.004  66.049  1.00  0.00    -0.195 A  
HETATM   29  C   UNL     1      -8.791   4.432  65.093  1.00  0.00    -0.138 A  
ENDBRANCH  20  24
ENDBRANCH  15  16
ENDBRANCH  10  15
ENDBRANCH   9  10
ENDBRANCH   3   9
BRANCH   5  30
HETATM   30  C   UNL     1      -8.738   6.882  71.529  1.00  0.00    -0.122 A  
HETATM   31  C   UNL     1      -7.434   8.393  72.930  1.00  0.00    -0.117 A  
HETATM   32  C   UNL     1      -9.063   6.156  72.682  1.00  0.00    -0.140 A  
HETATM   33  C   UNL     1      -7.902   7.996  71.678  1.00  0.00    -0.116 A  
HETATM   34  C   UNL     1      -7.733   7.639  74.055  1.00  0.00    -0.182 A  
HETATM   35  C   UNL     1      -8.554   6.525  73.931  1.00  0.00    -0.136 A  
ENDBRANCH   5  30
TORSDOF 8
ENDMDL
MODEL      181
REMARK 921   NORMALIZED FREE ENERGY PREDICTED BY IDOCK:   -3.77 KCAL/MOL
REMARK 922        TOTAL FREE ENERGY PREDICTED BY IDOCK:   -6.33 KCAL/MOL
REMARK 923 INTER-LIGAND FREE ENERGY PREDICTED BY IDOCK:   -6.17 KCAL/MOL
REMARK 924 INTRA-LIGAND FREE ENERGY PREDICTED BY IDOCK:   -0.16 KCAL/MOL
REMARK 927      BINDING AFFINITY PREDICTED BY RF-SCORE:    0.00 PKD
ROOT
HETATM    1  C   UNL     1     -10.080  12.553  65.255  1.00  0.00    -0.257 C  
HETATM    2  N   UNL     1     -10.106  12.628  66.718  1.00  0.00    -0.233 N  
HETATM    3  C   UNL     1      -9.198  11.777  67.364  1.00  0.00    -0.174 C  
HETATM    4  C   UNL     1     -10.994  13.678  67.360  1.00  0.00    -0.276 C  
HETATM    5  C   UNL     1     -10.234  14.656  68.324  1.00  0.00    -0.227 C  
HETATM    6  C   UNL     1     -11.691  14.583  66.299  1.00  0.00    -0.364 C  
HETATM    7  C   UNL     1     -12.174  12.994  68.097  1.00  0.00    -0.037 C  
HETATM    8  O   UNL     1      -8.406  11.092  66.706  1.00  0.00    -0.136 OA 
ENDROOT
BRANCH   3   9
HETATM    9  C   UNL     1      -9.168  11.744  68.900  1.00  0.00     0.103 C  
BRANCH   9  10
HETATM   10  N   UNL     1      -9.469  10.442  69.532  1.00  0.00    -0.182 NA 
BRANCH  10  11
HETATM   11  C   UNL     1     -10.884  10.067  69.356  1.00  0.00    -0.239 C  
BRANCH  11  12
HETATM   12  C   UNL     1     -11.763  10.297  70.606  1.00  0.00    -0.348 C  
HETATM   13  H   UNL     1     -12.937   9.227  71.777  1.00  0.00     0.000 HD 
HETATM   14  O   UNL     1     -12.396   9.086  71.009  1.00  0.00    -0.280 OA 
ENDBRANCH  11  12
ENDBRANCH  10  11
BRANCH  10  15
HETATM   15  C   UNL     1      -8.538   9.357  69.113  1.00  0.00    -0.140 C  
BRANCH  15  16
HETATM   16  C   UNL     1      -7.804   8.648  70.295  1.00  0.00    -0.097 C  
HETATM   17  C   UNL     1      -6.593   6.603  71.193  1.00  0.00    -0.053 C  
HETATM   18  C   UNL     1      -7.008   6.903  68.693  1.00  0.00    -0.076 C  
HETATM   19  N   UNL     1      -7.199   7.404  70.052  1.00  0.00    -0.072 N  
HETATM   20  C   UNL     1      -7.345   6.706  72.575  1.00  0.00    -0.088 C  
HETATM   21  O   UNL     1      -7.794   9.132  71.429  1.00  0.00    -0.310 OA 
HETATM   22  C   UNL     1      -6.487   5.096  70.864  1.00  0.00    -0.027 C  
HETATM   23  C   UNL     1      -5.152   7.102  71.436  1.00  0.00    -0.027 C  
BRANCH  20  24
HETATM   24  C   UNL     1      -8.804   6.301  72.652  1.00  0.00    -0.126 A  
HETATM   25  C   UNL     1      -9.759   7.293  72.922  1.00  0.00    -0.212 A  
HETATM   26  C   UNL     1     -11.121   6.989  72.936  1.00  0.00    -0.314 A  
HETATM   27  C   UNL     1     -11.552   5.695  72.655  1.00  0.00    -0.307 A  
HETATM   28  C   UNL     1     -10.625   4.707  72.364  1.00  0.00    -0.225 A  
HETATM   29  C   UNL     1      -9.267   5.002  72.377  1.00  0.00    -0.150 A  
ENDBRANCH  20  24
ENDBRANCH  15  16
ENDBRANCH  10  15
ENDBRANCH   9  10
ENDBRANCH   3   9
BRANCH   5  30
HETATM   30  C   UNL     1      -9.048  15.393  67.729  1.00  0.00    -0.178 A  
HETATM   31  C   UNL     1      -8.078  17.060  66.237  1.00  0.00    -0.332 A  
HETATM   32  C   UNL     1      -7.752  15.085  68.163  1.00  0.00    -0.115 A  
HETATM   33  C   UNL     1      -9.184  16.381  66.744  1.00  0.00    -0.259 A  
HETATM   34  C   UNL     1      -6.800  16.715  66.649  1.00  0.00    -0.219 A  
HETATM   35  C   UNL     1      -6.638  15.732  67.618  1.00  0.00    -0.196 A  
ENDBRANCH   5  30
TORSDOF 8
ENDMDL
MODEL      182
REMARK 921   NORMALIZED FREE ENERGY PREDICTED BY IDOCK:   -3.76 KCAL/MOL
REMARK 922        TOTAL FREE ENERGY PREDICTED BY IDOCK:   -6.32 KCAL/MOL
REMARK 923 INTER-LIGAND FREE ENERGY PREDICTED BY IDOCK:   -4.98 KCAL/MOL
REMARK 924 INTRA-LIGAND FREE ENERGY PREDICTED BY IDOCK:   -1.34 KCAL/MOL
REMARK 927      BINDING AFFINITY PREDICTED BY RF-SCORE:    0.00 PKD
ROOT
HETATM    1  C   UNL     1      -9.874   3.159  64.401  1.00  0.00    -0.146 C  
HETATM    2  N   UNL     1      -9.149   4.407  64.651  1.00  0.00    -0.149 N  
HETATM    3  C   UNL     1      -9.655   5.178  65.707  1.00  0.00    -0.122 C  
HETATM    4  C   UNL     1      -7.887   4.669  63.849  1.00  0.00    -0.087 C  
HETATM    5  C   UNL     1      -6.612   4.925  64.727  1.00  0.00    -0.043 C  
HETATM    6  C   UNL     1      -7.527   3.472  62.916  1.00  0.00    -0.054 C  
HETATM    7  C   UNL     1      -8.118   5.846  62.868  1.00  0.00    -0.104 C  
HETATM    8  O   UNL     1     -10.594   4.757  66.394  1.00  0.00    -0.284 OA 
ENDROOT
BRANCH   3   9
HETATM    9  C   UNL     1      -8.994   6.527  66.032  1.00  0.00    -0.122 C  
BRANCH   9  10
HETATM   10  N   UNL     1      -8.863   6.862  67.466  1.00  0.00    -0.119 NA 
BRANCH  10  11
HETATM   11  C   UNL     1      -7.514   7.360  67.787  1.00  0.00    -0.101 C  
BRANCH  11  12
HETATM   12  C   UNL     1      -7.403   8.901  67.846  1.00  0.00    -0.084 C  
HETATM   13  H   UNL     1      -6.619  10.346  66.755  1.00  0.00     0.000 HD 
HETATM   14  O   UNL     1      -6.687   9.399  66.719  1.00  0.00    -0.071 OA 
ENDBRANCH  11  12
ENDBRANCH  10  11
BRANCH  10  15
HETATM   15  C   UNL     1      -9.937   7.772  67.956  1.00  0.00    -0.175 C  
BRANCH  15  16
HETATM   16  C   UNL     1     -10.682   7.260  69.229  1.00  0.00    -0.198 C  
HETATM   17  C   UNL     1     -11.014   7.361  71.746  1.00  0.00    -0.234 C  
HETATM   18  C   UNL     1      -9.712   9.175  70.510  1.00  0.00    -0.236 C  
HETATM   19  N   UNL     1     -10.426   7.902  70.452  1.00  0.00    -0.214 N  
HETATM   20  C   UNL     1     -11.126   5.791  71.841  1.00  0.00    -0.308 C  
HETATM   21  O   UNL     1     -11.437   6.287  69.185  1.00  0.00    -0.394 OA 
HETATM   22  C   UNL     1     -10.219   7.819  72.991  1.00  0.00    -0.393 C  
HETATM   23  C   UNL     1     -12.445   7.918  71.910  1.00  0.00    -0.352 C  
BRANCH  20  24
HETATM   24  C   UNL     1      -9.873   4.952  71.695  1.00  0.00    -0.245 A  
HETATM   25  C   UNL     1      -8.630   5.562  71.922  1.00  0.00    -0.131 A  
HETATM   26  C   UNL     1      -7.449   4.821  71.869  1.00  0.00    -0.087 A  
HETATM   27  C   UNL     1      -7.492   3.453  71.612  1.00  0.00    -0.051 A  
HETATM   28  C   UNL     1      -8.712   2.828  71.407  1.00  0.00    -0.115 A  
HETATM   29  C   UNL     1      -9.887   3.570  71.433  1.00  0.00    -0.214 A  
ENDBRANCH  20  24
ENDBRANCH  15  16
ENDBRANCH  10  15
ENDBRANCH   9  10
ENDBRANCH   3   9
BRANCH   5  30
HETATM   30  C   UNL     1      -6.270   3.845  65.739  1.00  0.00    -0.032 A  
HETATM   31  C   UNL     1      -5.155   1.774  66.383  1.00  0.00    -0.005 A  
HETATM   32  C   UNL     1      -6.763   3.940  67.046  1.00  0.00    -0.047 A  
HETATM   33  C   UNL     1      -5.475   2.735  65.425  1.00  0.00    -0.009 A  
HETATM   34  C   UNL     1      -5.685   1.863  67.661  1.00  0.00    -0.019 A  
HETATM   35  C   UNL     1      -6.483   2.951  67.994  1.00  0.00    -0.036 A  
ENDBRANCH   5  30
TORSDOF 8
ENDMDL
MODEL      183
REMARK 921   NORMALIZED FREE ENERGY PREDICTED BY IDOCK:   -3.74 KCAL/MOL
REMARK 922        TOTAL FREE ENERGY PREDICTED BY IDOCK:   -6.30 KCAL/MOL
REMARK 923 INTER-LIGAND FREE ENERGY PREDICTED BY IDOCK:   -5.93 KCAL/MOL
REMARK 924 INTRA-LIGAND FREE ENERGY PREDICTED BY IDOCK:   -0.37 KCAL/MOL
REMARK 927      BINDING AFFINITY PREDICTED BY RF-SCORE:    0.00 PKD
ROOT
HETATM    1  C   UNL     1     -11.645  11.901  68.648  1.00  0.00    -0.310 C  
HETATM    2  N   UNL     1     -10.376  11.745  67.933  1.00  0.00    -0.189 N  
HETATM    3  C   UNL     1     -10.033  10.419  67.631  1.00  0.00    -0.174 C  
HETATM    4  C   UNL     1      -9.649  13.002  67.493  1.00  0.00    -0.204 C  
HETATM    5  C   UNL     1      -9.357  13.066  65.952  1.00  0.00     0.047 C  
HETATM    6  C   UNL     1     -10.458  14.293  67.826  1.00  0.00    -0.245 C  
HETATM    7  C   UNL     1      -8.339  13.167  68.304  1.00  0.00    -0.152 C  
HETATM    8  O   UNL     1     -10.810   9.495  67.901  1.00  0.00    -0.245 OA 
ENDROOT
BRANCH   3   9
HETATM    9  C   UNL     1      -8.702  10.136  66.916  1.00  0.00    -0.129 C  
BRANCH   9  10
HETATM   10  N   UNL     1      -8.310   8.714  66.806  1.00  0.00    -0.107 NA 
BRANCH  10  11
HETATM   11  C   UNL     1      -7.291   8.511  65.761  1.00  0.00    -0.080 C  
BRANCH  11  12
HETATM   12  C   UNL     1      -7.087   7.035  65.350  1.00  0.00    -0.068 C  
HETATM   13  H   UNL     1      -8.044   5.674  64.290  1.00  0.00     0.000 HD 
HETATM   14  O   UNL     1      -8.169   6.581  64.542  1.00  0.00    -0.111 OA 
ENDBRANCH  11  12
ENDBRANCH  10  11
BRANCH  10  15
HETATM   15  C   UNL     1      -7.913   8.114  68.111  1.00  0.00    -0.127 C  
BRANCH  15  16
HETATM   16  C   UNL     1      -8.944   7.092  68.688  1.00  0.00    -0.131 C  
HETATM   17  C   UNL     1     -10.173   6.138  70.696  1.00  0.00    -0.199 C  
HETATM   18  C   UNL     1      -8.918   8.356  70.844  1.00  0.00    -0.160 C  
HETATM   19  N   UNL     1      -9.285   7.188  70.048  1.00  0.00    -0.145 N  
HETATM   20  C   UNL     1      -9.986   4.664  70.170  1.00  0.00    -0.304 C  
HETATM   21  O   UNL     1      -9.414   6.190  67.992  1.00  0.00    -0.115 OA 
HETATM   22  C   UNL     1      -9.993   6.081  72.231  1.00  0.00    -0.189 C  
HETATM   23  C   UNL     1     -11.649   6.515  70.441  1.00  0.00    -0.470 C  
BRANCH  20  24
HETATM   24  C   UNL     1      -8.620   4.016  70.265  1.00  0.00    -0.106 A  
HETATM   25  C   UNL     1      -7.506   4.836  70.497  1.00  0.00    -0.057 A  
HETATM   26  C   UNL     1      -6.233   4.286  70.663  1.00  0.00    -0.018 A  
HETATM   27  C   UNL     1      -6.058   2.905  70.624  1.00  0.00    -0.019 A  
HETATM   28  C   UNL     1      -7.150   2.077  70.418  1.00  0.00    -0.033 A  
HETATM   29  C   UNL     1      -8.413   2.625  70.226  1.00  0.00    -0.087 A  
ENDBRANCH  20  24
ENDBRANCH  15  16
ENDBRANCH  10  15
ENDBRANCH   9  10
ENDBRANCH   3   9
BRANCH   5  30
HETATM   30  C   UNL     1     -10.559  12.915  65.037  1.00  0.00    -0.333 A  
HETATM   31  C   UNL     1     -11.998  11.600  63.572  1.00  0.00    -0.359 A  
HETATM   32  C   UNL     1     -11.403  14.011  64.816  1.00  0.00    -0.366 A  
HETATM   33  C   UNL     1     -10.871  11.715  64.385  1.00  0.00    -0.399 A  
HETATM   34  C   UNL     1     -12.799  12.706  63.333  1.00  0.00    -0.083 A  
HETATM   35  C   UNL     1     -12.505  13.910  63.962  1.00  0.00    -0.263 A  
ENDBRANCH   5  30
TORSDOF 8
ENDMDL
MODEL      184
REMARK 921   NORMALIZED FREE ENERGY PREDICTED BY IDOCK:   -3.65 KCAL/MOL
REMARK 922        TOTAL FREE ENERGY PREDICTED BY IDOCK:   -6.17 KCAL/MOL
REMARK 923 INTER-LIGAND FREE ENERGY PREDICTED BY IDOCK:   -4.99 KCAL/MOL
REMARK 924 INTRA-LIGAND FREE ENERGY PREDICTED BY IDOCK:   -1.18 KCAL/MOL
REMARK 927      BINDING AFFINITY PREDICTED BY RF-SCORE:    0.00 PKD
ROOT
HETATM    1  C   UNL     1     -11.019   6.960  66.985  1.00  0.00    -0.334 C  
HETATM    2  N   UNL     1      -9.622   7.160  67.375  1.00  0.00    -0.132 N  
HETATM    3  C   UNL     1      -8.925   5.984  67.687  1.00  0.00    -0.111 C  
HETATM    4  C   UNL     1      -9.052   8.564  67.280  1.00  0.00    -0.133 C  
HETATM    5  C   UNL     1      -7.770   8.675  66.381  1.00  0.00    -0.095 C  
HETATM    6  C   UNL     1     -10.079   9.574  66.683  1.00  0.00    -0.321 C  
HETATM    7  C   UNL     1      -8.771   9.118  68.700  1.00  0.00    -0.129 C  
HETATM    8  O   UNL     1      -9.470   4.881  67.555  1.00  0.00    -0.127 OA 
ENDROOT
BRANCH   3   9
HETATM    9  C   UNL     1      -7.462   6.080  68.147  1.00  0.00    -0.089 C  
BRANCH   9  10
HETATM   10  N   UNL     1      -7.096   5.279  69.335  1.00  0.00    -0.055 NA 
BRANCH  10  11
HETATM   11  C   UNL     1      -6.702   3.908  68.964  1.00  0.00    -0.045 C  
BRANCH  11  12
HETATM   12  C   UNL     1      -7.703   2.817  69.407  1.00  0.00    -0.043 C  
HETATM   13  H   UNL     1      -7.664   0.888  69.822  1.00  0.00     0.000 HD 
HETATM   14  O   UNL     1      -7.049   1.559  69.550  1.00  0.00    -0.036 OA 
ENDBRANCH  11  12
ENDBRANCH  10  11
BRANCH  10  15
HETATM   15  C   UNL     1      -6.086   5.946  70.203  1.00  0.00    -0.026 C  
BRANCH  15  16
HETATM   16  C   UNL     1      -6.696   6.791  71.366  1.00  0.00    -0.061 C  
HETATM   17  C   UNL     1      -7.837   6.869  73.635  1.00  0.00    -0.096 C  
HETATM   18  C   UNL     1      -6.740   4.729  72.778  1.00  0.00    -0.060 C  
HETATM   19  N   UNL     1      -7.110   6.120  72.529  1.00  0.00    -0.082 N  
HETATM   20  C   UNL     1      -8.809   8.015  73.159  1.00  0.00    -0.318 C  
HETATM   21  O   UNL     1      -6.863   8.007  71.258  1.00  0.00    -0.044 OA 
HETATM   22  C   UNL     1      -8.676   5.927  74.530  1.00  0.00    -0.120 C  
HETATM   23  C   UNL     1      -6.788   7.531  74.555  1.00  0.00    -0.114 C  
BRANCH  20  24
HETATM   24  C   UNL     1      -9.945   7.674  72.217  1.00  0.00    -0.242 A  
HETATM   25  C   UNL     1     -10.940   8.638  71.994  1.00  0.00    -0.432 A  
HETATM   26  C   UNL     1     -11.972   8.403  71.083  1.00  0.00    -0.301 A  
HETATM   27  C   UNL     1     -12.012   7.213  70.362  1.00  0.00    -0.190 A  
HETATM   28  C   UNL     1     -11.026   6.258  70.552  1.00  0.00    -0.374 A  
HETATM   29  C   UNL     1     -10.013   6.479  71.479  1.00  0.00    -0.193 A  
ENDBRANCH  20  24
ENDBRANCH  15  16
ENDBRANCH  10  15
ENDBRANCH   9  10
ENDBRANCH   3   9
BRANCH   5  30
HETATM   30  C   UNL     1      -7.906   8.163  64.958  1.00  0.00    -0.128 A  
HETATM   31  C   UNL     1      -8.118   8.515  62.555  1.00  0.00    -0.175 A  
HETATM   32  C   UNL     1      -7.923   6.783  64.718  1.00  0.00    -0.120 A  
HETATM   33  C   UNL     1      -8.023   9.015  63.852  1.00  0.00    -0.146 A  
HETATM   34  C   UNL     1      -8.174   7.147  62.339  1.00  0.00    -0.071 A  
HETATM   35  C   UNL     1      -8.068   6.281  63.421  1.00  0.00    -0.048 A  
ENDBRANCH   5  30
TORSDOF 8
ENDMDL
MODEL      185
REMARK 921   NORMALIZED FREE ENERGY PREDICTED BY IDOCK:   -3.65 KCAL/MOL
REMARK 922        TOTAL FREE ENERGY PREDICTED BY IDOCK:   -6.16 KCAL/MOL
REMARK 923 INTER-LIGAND FREE ENERGY PREDICTED BY IDOCK:   -4.90 KCAL/MOL
REMARK 924 INTRA-LIGAND FREE ENERGY PREDICTED BY IDOCK:   -1.26 KCAL/MOL
REMARK 927      BINDING AFFINITY PREDICTED BY RF-SCORE:    0.00 PKD
ROOT
HETATM    1  C   UNL     1     -10.420   8.221  67.133  1.00  0.00    -0.316 C  
HETATM    2  N   UNL     1      -9.234   8.298  67.990  1.00  0.00    -0.137 N  
HETATM    3  C   UNL     1      -8.825   7.074  68.537  1.00  0.00    -0.124 C  
HETATM    4  C   UNL     1      -8.518   9.632  68.093  1.00  0.00    -0.118 C  
HETATM    5  C   UNL     1      -6.998   9.574  67.704  1.00  0.00    -0.080 C  
HETATM    6  C   UNL     1      -9.153  10.711  67.163  1.00  0.00    -0.154 C  
HETATM    7  C   UNL     1      -8.694  10.219  69.516  1.00  0.00    -0.155 C  
HETATM    8  O   UNL     1      -9.406   6.026  68.229  1.00  0.00    -0.117 OA 
ENDROOT
BRANCH   3   9
HETATM    9  C   UNL     1      -7.615   7.044  69.484  1.00  0.00    -0.098 C  
BRANCH   9  10
HETATM   10  N   UNL     1      -6.947   5.736  69.650  1.00  0.00    -0.061 NA 
BRANCH  10  11
HETATM   11  C   UNL     1      -6.070   5.425  68.507  1.00  0.00    -0.026 C  
BRANCH  11  12
HETATM   12  C   UNL     1      -6.433   4.120  67.763  1.00  0.00    -0.038 C  
HETATM   13  H   UNL     1      -5.722   3.054  66.262  1.00  0.00     0.000 HD 
HETATM   14  O   UNL     1      -5.499   3.856  66.719  1.00  0.00    -0.015 OA 
ENDBRANCH  11  12
ENDBRANCH  10  11
BRANCH  10  15
HETATM   15  C   UNL     1      -6.247   5.597  70.958  1.00  0.00    -0.034 C  
BRANCH  15  16
HETATM   16  C   UNL     1      -7.201   5.454  72.185  1.00  0.00    -0.088 C  
HETATM   17  C   UNL     1      -9.126   4.243  73.317  1.00  0.00    -0.106 C  
HETATM   18  C   UNL     1      -7.933   3.235  71.299  1.00  0.00    -0.059 C  
HETATM   19  N   UNL     1      -8.080   4.359  72.220  1.00  0.00    -0.095 N  
HETATM   20  C   UNL     1      -9.755   5.603  73.808  1.00  0.00    -0.157 C  
HETATM   21  O   UNL     1      -7.229   6.302  73.081  1.00  0.00    -0.086 OA 
HETATM   22  C   UNL     1     -10.310   3.336  72.909  1.00  0.00    -0.246 C  
HETATM   23  C   UNL     1      -8.475   3.585  74.553  1.00  0.00    -0.084 C  
BRANCH  20  24
HETATM   24  C   UNL     1     -10.456   6.496  72.804  1.00  0.00    -0.240 A  
HETATM   25  C   UNL     1     -10.229   7.879  72.867  1.00  0.00    -0.397 A  
HETATM   26  C   UNL     1     -10.793   8.740  71.924  1.00  0.00    -0.431 A  
HETATM   27  C   UNL     1     -11.573   8.231  70.890  1.00  0.00    -0.282 A  
HETATM   28  C   UNL     1     -11.790   6.866  70.798  1.00  0.00    -0.427 A  
HETATM   29  C   UNL     1     -11.251   6.010  71.751  1.00  0.00    -0.333 A  
ENDBRANCH  20  24
ENDBRANCH  15  16
ENDBRANCH  10  15
ENDBRANCH   9  10
ENDBRANCH   3   9
BRANCH   5  30
HETATM   30  C   UNL     1      -6.682   9.013  66.329  1.00  0.00    -0.070 A  
HETATM   31  C   UNL     1      -6.662   9.163  63.895  1.00  0.00    -0.089 A  
HETATM   32  C   UNL     1      -6.059   7.763  66.217  1.00  0.00    -0.045 A  
HETATM   33  C   UNL     1      -6.991   9.692  65.142  1.00  0.00    -0.106 A  
HETATM   34  C   UNL     1      -6.082   7.908  63.801  1.00  0.00    -0.058 A  
HETATM   35  C   UNL     1      -5.774   7.211  64.964  1.00  0.00    -0.033 A  
ENDBRANCH   5  30
TORSDOF 8
ENDMDL
MODEL      186
REMARK 921   NORMALIZED FREE ENERGY PREDICTED BY IDOCK:   -3.53 KCAL/MOL
REMARK 922        TOTAL FREE ENERGY PREDICTED BY IDOCK:   -5.99 KCAL/MOL
REMARK 923 INTER-LIGAND FREE ENERGY PREDICTED BY IDOCK:   -5.37 KCAL/MOL
REMARK 924 INTRA-LIGAND FREE ENERGY PREDICTED BY IDOCK:   -0.61 KCAL/MOL
REMARK 927      BINDING AFFINITY PREDICTED BY RF-SCORE:    0.00 PKD
ROOT
HETATM    1  C   UNL     1      -7.850   3.398  69.541  1.00  0.00    -0.050 C  
HETATM    2  N   UNL     1      -8.259   4.782  69.789  1.00  0.00    -0.068 N  
HETATM    3  C   UNL     1      -9.440   5.170  69.142  1.00  0.00    -0.134 C  
HETATM    4  C   UNL     1      -7.455   5.591  70.791  1.00  0.00    -0.088 C  
HETATM    5  C   UNL     1      -8.310   6.185  71.965  1.00  0.00    -0.114 C  
HETATM    6  C   UNL     1      -6.336   4.741  71.467  1.00  0.00    -0.022 C  
HETATM    7  C   UNL     1      -6.676   6.715  70.061  1.00  0.00    -0.049 C  
HETATM    8  O   UNL     1     -10.092   4.349  68.485  1.00  0.00    -0.056 OA 
ENDROOT
BRANCH   3   9
HETATM    9  C   UNL     1      -9.941   6.615  69.301  1.00  0.00    -0.158 C  
BRANCH   9  10
HETATM   10  N   UNL     1      -9.554   7.561  68.232  1.00  0.00    -0.150 NA 
BRANCH  10  11
HETATM   11  C   UNL     1      -9.906   7.046  66.897  1.00  0.00    -0.199 C  
BRANCH  11  12
HETATM   12  C   UNL     1      -8.691   6.662  66.023  1.00  0.00    -0.147 C  
HETATM   13  H   UNL     1      -6.806   7.212  65.829  1.00  0.00     0.000 HD 
HETATM   14  O   UNL     1      -7.553   7.448  66.366  1.00  0.00    -0.085 OA 
ENDBRANCH  11  12
ENDBRANCH  10  11
BRANCH  10  15
HETATM   15  C   UNL     1     -10.064   8.942  68.461  1.00  0.00    -0.188 C  
BRANCH  15  16
HETATM   16  C   UNL     1      -9.215  10.061  67.778  1.00  0.00    -0.134 C  
HETATM   17  C   UNL     1      -7.415  11.845  67.958  1.00  0.00    -0.107 C  
HETATM   18  C   UNL     1      -7.719  10.083  69.780  1.00  0.00    -0.168 C  
HETATM   19  N   UNL     1      -8.182  10.658  68.520  1.00  0.00    -0.121 N  
HETATM   20  C   UNL     1      -8.256  12.849  67.081  1.00  0.00    -0.142 C  
HETATM   21  O   UNL     1      -9.468  10.455  66.637  1.00  0.00    -0.159 OA 
HETATM   22  C   UNL     1      -6.743  12.689  69.067  1.00  0.00    -0.097 C  
HETATM   23  C   UNL     1      -6.277  11.317  67.058  1.00  0.00    -0.108 C  
BRANCH  20  24
HETATM   24  C   UNL     1      -9.468  13.524  67.691  1.00  0.00    -0.222 A  
HETATM   25  C   UNL     1      -9.270  14.664  68.485  1.00  0.00    -0.193 A  
HETATM   26  C   UNL     1     -10.355  15.365  69.014  1.00  0.00    -0.243 A  
HETATM   27  C   UNL     1     -11.656  14.952  68.738  1.00  0.00    -0.348 A  
HETATM   28  C   UNL     1     -11.872  13.842  67.938  1.00  0.00    -0.413 A  
HETATM   29  C   UNL     1     -10.792  13.127  67.433  1.00  0.00    -0.269 A  
ENDBRANCH  20  24
ENDBRANCH  15  16
ENDBRANCH  10  15
ENDBRANCH   9  10
ENDBRANCH   3   9
BRANCH   5  30
HETATM   30  C   UNL     1      -9.129   5.189  72.766  1.00  0.00    -0.139 A  
HETATM   31  C   UNL     1     -11.219   4.049  73.291  1.00  0.00    -0.277 A  
HETATM   32  C   UNL     1      -8.509   4.428  73.766  1.00  0.00    -0.100 A  
HETATM   33  C   UNL     1     -10.500   4.991  72.557  1.00  0.00    -0.270 A  
HETATM   34  C   UNL     1     -10.599   3.333  74.303  1.00  0.00    -0.251 A  
HETATM   35  C   UNL     1      -9.241   3.518  74.535  1.00  0.00    -0.107 A  
ENDBRANCH   5  30
TORSDOF 8
ENDMDL
MODEL      187
REMARK 921   NORMALIZED FREE ENERGY PREDICTED BY IDOCK:   -3.53 KCAL/MOL
REMARK 922        TOTAL FREE ENERGY PREDICTED BY IDOCK:   -5.98 KCAL/MOL
REMARK 923 INTER-LIGAND FREE ENERGY PREDICTED BY IDOCK:   -5.12 KCAL/MOL
REMARK 924 INTRA-LIGAND FREE ENERGY PREDICTED BY IDOCK:   -0.86 KCAL/MOL
REMARK 927      BINDING AFFINITY PREDICTED BY RF-SCORE:    0.00 PKD
ROOT
HETATM    1  C   UNL     1      -7.787   8.649  70.735  1.00  0.00    -0.107 C  
HETATM    2  N   UNL     1      -8.780   7.891  69.969  1.00  0.00    -0.139 N  
HETATM    3  C   UNL     1      -8.284   6.737  69.346  1.00  0.00    -0.128 C  
HETATM    4  C   UNL     1     -10.225   8.349  70.031  1.00  0.00    -0.202 C  
HETATM    5  C   UNL     1     -11.227   7.242  70.514  1.00  0.00    -0.305 C  
HETATM    6  C   UNL     1     -10.418   9.551  71.006  1.00  0.00    -0.377 C  
HETATM    7  C   UNL     1     -10.661   8.915  68.655  1.00  0.00    -0.182 C  
HETATM    8  O   UNL     1      -7.111   6.386  69.523  1.00  0.00    -0.068 OA 
ENDROOT
BRANCH   3   9
HETATM    9  C   UNL     1      -9.230   5.887  68.484  1.00  0.00    -0.117 C  
BRANCH   9  10
HETATM   10  N   UNL     1      -8.947   4.436  68.439  1.00  0.00    -0.109 NA 
BRANCH  10  11
HETATM   11  C   UNL     1      -9.367   3.762  69.681  1.00  0.00    -0.175 C  
BRANCH  11  12
HETATM   12  C   UNL     1      -8.797   2.337  69.855  1.00  0.00    -0.079 C  
HETATM   13  H   UNL     1      -9.210   0.723  70.912  1.00  0.00     0.000 HD 
HETATM   14  O   UNL     1      -9.561   1.599  70.805  1.00  0.00    -0.116 OA 
ENDBRANCH  11  12
ENDBRANCH  10  11
BRANCH  10  15
HETATM   15  C   UNL     1      -9.488   3.771  67.221  1.00  0.00    -0.200 C  
BRANCH  15  16
HETATM   16  C   UNL     1      -8.877   4.291  65.880  1.00  0.00    -0.120 C  
HETATM   17  C   UNL     1      -6.836   4.643  64.410  1.00  0.00    -0.045 C  
HETATM   18  C   UNL     1      -6.753   3.099  66.442  1.00  0.00    -0.048 C  
HETATM   19  N   UNL     1      -7.518   4.043  65.629  1.00  0.00    -0.080 N  
HETATM   20  C   UNL     1      -7.327   6.081  63.991  1.00  0.00    -0.066 C  
HETATM   21  O   UNL     1      -9.547   4.947  65.080  1.00  0.00    -0.107 OA 
HETATM   22  C   UNL     1      -5.301   4.737  64.580  1.00  0.00    -0.013 C  
HETATM   23  C   UNL     1      -7.087   3.718  63.199  1.00  0.00    -0.048 C  
BRANCH  20  24
HETATM   24  C   UNL     1      -7.228   7.214  64.991  1.00  0.00    -0.074 A  
HETATM   25  C   UNL     1      -8.280   8.140  65.059  1.00  0.00    -0.157 A  
HETATM   26  C   UNL     1      -8.274   9.163  66.009  1.00  0.00    -0.115 A  
HETATM   27  C   UNL     1      -7.227   9.263  66.922  1.00  0.00    -0.086 A  
HETATM   28  C   UNL     1      -6.190   8.345  66.885  1.00  0.00    -0.055 A  
HETATM   29  C   UNL     1      -6.182   7.342  65.923  1.00  0.00    -0.041 A  
ENDBRANCH  20  24
ENDBRANCH  15  16
ENDBRANCH  10  15
ENDBRANCH   9  10
ENDBRANCH   3   9
BRANCH   5  30
HETATM   30  C   UNL     1     -10.916   6.598  71.853  1.00  0.00    -0.277 A  
HETATM   31  C   UNL     1     -10.889   4.688  73.369  1.00  0.00    -0.349 A  
HETATM   32  C   UNL     1     -10.314   7.358  72.864  1.00  0.00    -0.328 A  
HETATM   33  C   UNL     1     -11.211   5.258  72.139  1.00  0.00    -0.139 A  
HETATM   34  C   UNL     1     -10.329   5.465  74.371  1.00  0.00    -0.293 A  
HETATM   35  C   UNL     1     -10.035   6.799  74.115  1.00  0.00    -0.373 A  
ENDBRANCH   5  30
TORSDOF 8
ENDMDL
MODEL      188
REMARK 921   NORMALIZED FREE ENERGY PREDICTED BY IDOCK:   -3.50 KCAL/MOL
REMARK 922        TOTAL FREE ENERGY PREDICTED BY IDOCK:   -5.95 KCAL/MOL
REMARK 923 INTER-LIGAND FREE ENERGY PREDICTED BY IDOCK:   -5.98 KCAL/MOL
REMARK 924 INTRA-LIGAND FREE ENERGY PREDICTED BY IDOCK:    0.03 KCAL/MOL
REMARK 927      BINDING AFFINITY PREDICTED BY RF-SCORE:    0.00 PKD
ROOT
HETATM    1  C   UNL     1      -7.578  12.020  68.623  1.00  0.00    -0.112 C  
HETATM    2  N   UNL     1      -7.698  10.562  68.687  1.00  0.00    -0.099 N  
HETATM    3  C   UNL     1      -7.116   9.974  69.820  1.00  0.00    -0.119 C  
HETATM    4  C   UNL     1      -8.526   9.869  67.619  1.00  0.00    -0.114 C  
HETATM    5  C   UNL     1      -9.693   8.987  68.187  1.00  0.00    -0.172 C  
HETATM    6  C   UNL     1      -9.196  10.887  66.647  1.00  0.00    -0.184 C  
HETATM    7  C   UNL     1      -7.605   9.028  66.699  1.00  0.00    -0.089 C  
HETATM    8  O   UNL     1      -6.619  10.682  70.705  1.00  0.00    -0.332 OA 
ENDROOT
BRANCH   3   9
HETATM    9  C   UNL     1      -7.149   8.445  69.970  1.00  0.00    -0.047 C  
BRANCH   9  10
HETATM   10  N   UNL     1      -6.754   7.910  71.291  1.00  0.00    -0.041 NA 
BRANCH  10  11
HETATM   11  C   UNL     1      -5.704   8.732  71.918  1.00  0.00    -0.058 C  
BRANCH  11  12
HETATM   12  C   UNL     1      -5.618   8.589  73.454  1.00  0.00    -0.085 C  
HETATM   13  H   UNL     1      -5.770   9.761  75.035  1.00  0.00     0.000 HD 
HETATM   14  O   UNL     1      -5.823   9.848  74.091  1.00  0.00    -0.325 OA 
ENDBRANCH  11  12
ENDBRANCH  10  11
BRANCH  10  15
HETATM   15  C   UNL     1      -7.913   7.679  72.199  1.00  0.00    -0.105 C  
BRANCH  15  16
HETATM   16  C   UNL     1      -8.816   6.471  71.792  1.00  0.00    -0.138 C  
HETATM   17  C   UNL     1      -9.035   3.996  71.265  1.00  0.00    -0.107 C  
HETATM   18  C   UNL     1      -6.944   4.928  72.395  1.00  0.00    -0.074 C  
HETATM   19  N   UNL     1      -8.246   5.187  71.784  1.00  0.00    -0.115 N  
HETATM   20  C   UNL     1     -10.001   4.291  70.055  1.00  0.00    -0.196 C  
HETATM   21  O   UNL     1      -9.985   6.634  71.436  1.00  0.00    -0.183 OA 
HETATM   22  C   UNL     1      -8.119   2.832  70.819  1.00  0.00    -0.061 C  
HETATM   23  C   UNL     1      -9.915   3.449  72.410  1.00  0.00    -0.235 C  
BRANCH  20  24
HETATM   24  C   UNL     1      -9.426   4.864  68.775  1.00  0.00    -0.202 A  
HETATM   25  C   UNL     1      -8.035   4.834  68.596  1.00  0.00    -0.080 A  
HETATM   26  C   UNL     1      -7.457   5.284  67.408  1.00  0.00    -0.084 A  
HETATM   27  C   UNL     1      -8.261   5.749  66.370  1.00  0.00    -0.107 A  
HETATM   28  C   UNL     1      -9.638   5.765  66.520  1.00  0.00    -0.175 A  
HETATM   29  C   UNL     1     -10.214   5.343  67.713  1.00  0.00    -0.230 A  
ENDBRANCH  20  24
ENDBRANCH  15  16
ENDBRANCH  10  15
ENDBRANCH   9  10
ENDBRANCH   3   9
BRANCH   5  30
HETATM   30  C   UNL     1     -10.673   9.689  69.110  1.00  0.00    -0.237 A  
HETATM   31  C   UNL     1     -11.896   9.874  71.212  1.00  0.00    -0.479 A  
HETATM   32  C   UNL     1     -11.279  10.883  68.699  1.00  0.00    -0.326 A  
HETATM   33  C   UNL     1     -11.014   9.192  70.375  1.00  0.00    -0.290 A  
HETATM   34  C   UNL     1     -12.517  11.033  70.772  1.00  0.00    -0.491 A  
HETATM   35  C   UNL     1     -12.201  11.542  69.518  1.00  0.00    -0.287 A  
ENDBRANCH   5  30
TORSDOF 8
ENDMDL
MODEL      189
REMARK 921   NORMALIZED FREE ENERGY PREDICTED BY IDOCK:   -3.49 KCAL/MOL
REMARK 922        TOTAL FREE ENERGY PREDICTED BY IDOCK:   -5.93 KCAL/MOL
REMARK 923 INTER-LIGAND FREE ENERGY PREDICTED BY IDOCK:   -6.33 KCAL/MOL
REMARK 924 INTRA-LIGAND FREE ENERGY PREDICTED BY IDOCK:    0.41 KCAL/MOL
REMARK 927      BINDING AFFINITY PREDICTED BY RF-SCORE:    0.00 PKD
ROOT
HETATM    1  C   UNL     1     -11.588  15.862  68.469  1.00  0.00    -0.349 C  
HETATM    2  N   UNL     1     -10.621  14.784  68.250  1.00  0.00    -0.237 N  
HETATM    3  C   UNL     1      -9.438  14.896  68.994  1.00  0.00    -0.196 C  
HETATM    4  C   UNL     1     -11.038  13.625  67.362  1.00  0.00    -0.282 C  
HETATM    5  C   UNL     1     -10.934  12.220  68.054  1.00  0.00    -0.265 C  
HETATM    6  C   UNL     1     -12.517  13.756  66.886  1.00  0.00    -0.196 C  
HETATM    7  C   UNL     1     -10.221  13.646  66.045  1.00  0.00    -0.312 C  
HETATM    8  O   UNL     1      -9.301  15.811  69.816  1.00  0.00    -0.241 OA 
ENDROOT
BRANCH   3   9
HETATM    9  C   UNL     1      -8.336  13.840  68.812  1.00  0.00     0.014 C  
BRANCH   9  10
HETATM   10  N   UNL     1      -7.414  14.048  67.675  1.00  0.00    -0.161 NA 
BRANCH  10  11
HETATM   11  C   UNL     1      -6.718  15.344  67.769  1.00  0.00    -0.166 C  
BRANCH  11  12
HETATM   12  C   UNL     1      -7.029  16.318  66.611  1.00  0.00    -0.021 C  
HETATM   13  H   UNL     1      -8.626  17.106  65.761  1.00  0.00     0.000 HD 
HETATM   14  O   UNL     1      -8.435  16.507  66.473  1.00  0.00    -0.233 OA 
ENDBRANCH  11  12
ENDBRANCH  10  11
BRANCH  10  15
HETATM   15  C   UNL     1      -6.473  12.911  67.469  1.00  0.00    -0.160 C  
BRANCH  15  16
HETATM   16  C   UNL     1      -7.168  11.519  67.329  1.00  0.00    -0.132 C  
HETATM   17  C   UNL     1      -7.089   9.003  67.665  1.00  0.00    -0.076 C  
HETATM   18  C   UNL     1      -5.408  10.544  68.812  1.00  0.00    -0.041 C  
HETATM   19  N   UNL     1      -6.532  10.399  67.889  1.00  0.00    -0.060 N  
HETATM   20  C   UNL     1      -7.742   8.746  66.253  1.00  0.00    -0.098 C  
HETATM   21  O   UNL     1      -8.220  11.386  66.701  1.00  0.00    -0.159 OA 
HETATM   22  C   UNL     1      -6.018   7.904  67.857  1.00  0.00    -0.042 C  
HETATM   23  C   UNL     1      -8.187   8.734  68.717  1.00  0.00    -0.116 C  
BRANCH  20  24
HETATM   24  C   UNL     1      -6.906   8.951  65.006  1.00  0.00    -0.073 A  
HETATM   25  C   UNL     1      -7.000  10.179  64.334  1.00  0.00    -0.106 A  
HETATM   26  C   UNL     1      -6.202  10.448  63.221  1.00  0.00    -0.108 A  
HETATM   27  C   UNL     1      -5.280   9.504  62.776  1.00  0.00    -0.082 A  
HETATM   28  C   UNL     1      -5.158   8.294  63.440  1.00  0.00    -0.049 A  
HETATM   29  C   UNL     1      -5.971   8.015  64.532  1.00  0.00    -0.052 A  
ENDBRANCH  20  24
ENDBRANCH  15  16
ENDBRANCH  10  15
ENDBRANCH   9  10
ENDBRANCH   3   9
BRANCH   5  30
HETATM   30  C   UNL     1     -11.689  12.062  69.362  1.00  0.00    -0.402 A  
HETATM   31  C   UNL     1     -12.622  12.953  71.431  1.00  0.00    -0.319 A  
HETATM   32  C   UNL     1     -12.199  10.807  69.719  1.00  0.00    -0.359 A  
HETATM   33  C   UNL     1     -11.901  13.124  70.250  1.00  0.00    -0.299 A  
HETATM   34  C   UNL     1     -13.085  11.696  71.788  1.00  0.00    -0.487 A  
HETATM   35  C   UNL     1     -12.879  10.624  70.927  1.00  0.00    -0.473 A  
ENDBRANCH   5  30
TORSDOF 8
ENDMDL
MODEL      190
REMARK 921   NORMALIZED FREE ENERGY PREDICTED BY IDOCK:   -3.44 KCAL/MOL
REMARK 922        TOTAL FREE ENERGY PREDICTED BY IDOCK:   -5.86 KCAL/MOL
REMARK 923 INTER-LIGAND FREE ENERGY PREDICTED BY IDOCK:   -5.95 KCAL/MOL
REMARK 924 INTRA-LIGAND FREE ENERGY PREDICTED BY IDOCK:    0.09 KCAL/MOL
REMARK 927      BINDING AFFINITY PREDICTED BY RF-SCORE:    0.00 PKD
ROOT
HETATM    1  C   UNL     1     -11.949  11.152  63.094  1.00  0.00     0.914 C  
HETATM    2  N   UNL     1     -10.707  11.733  63.608  1.00  0.00    -0.399 N  
HETATM    3  C   UNL     1     -10.880  12.867  64.415  1.00  0.00    -0.380 C  
HETATM    4  C   UNL     1      -9.409  10.998  63.329  1.00  0.00    -0.308 C  
HETATM    5  C   UNL     1      -8.592  10.629  64.617  1.00  0.00    -0.125 C  
HETATM    6  C   UNL     1      -9.649   9.652  62.578  1.00  0.00     0.264 C  
HETATM    7  C   UNL     1      -8.537  11.819  62.346  1.00  0.00     0.749 C  
HETATM    8  O   UNL     1     -12.017  13.261  64.704  1.00  0.00    -0.361 OA 
ENDROOT
BRANCH   3   9
HETATM    9  C   UNL     1      -9.641  13.581  64.977  1.00  0.00     0.285 C  
BRANCH   9  10
HETATM   10  N   UNL     1      -9.838  14.344  66.229  1.00  0.00    -0.291 NA 
BRANCH  10  11
HETATM   11  C   UNL     1     -10.981  15.269  66.127  1.00  0.00    -0.307 C  
BRANCH  11  12
HETATM   12  C   UNL     1     -10.665  16.591  65.394  1.00  0.00    -0.259 C  
HETATM   13  H   UNL     1     -11.123  17.448  63.676  1.00  0.00     0.000 HD 
HETATM   14  O   UNL     1     -11.317  16.635  64.128  1.00  0.00    -1.141 OA 
ENDBRANCH  11  12
ENDBRANCH  10  11
BRANCH  10  15
HETATM   15  C   UNL     1      -9.914  13.475  67.437  1.00  0.00    -0.234 C  
BRANCH  15  16
HETATM   16  C   UNL     1     -11.175  13.721  68.326  1.00  0.00    -0.273 C  
HETATM   17  C   UNL     1     -12.172  14.581  70.498  1.00  0.00    -0.332 C  
HETATM   18  C   UNL     1      -9.781  15.161  69.820  1.00  0.00    -0.079 C  
HETATM   19  N   UNL     1     -11.012  14.431  69.528  1.00  0.00    -0.230 N  
HETATM   20  C   UNL     1     -13.146  13.345  70.595  1.00  0.00     0.050 C  
HETATM   21  O   UNL     1     -12.278  13.265  68.018  1.00  0.00    -0.275 OA 
HETATM   22  C   UNL     1     -11.699  14.877  71.941  1.00  0.00    -0.386 C  
HETATM   23  C   UNL     1     -13.031  15.788  70.061  1.00  0.00     0.353 C  
BRANCH  20  24
HETATM   24  C   UNL     1     -12.585  11.993  70.987  1.00  0.00    -0.370 A  
HETATM   25  C   UNL     1     -13.344  11.177  71.840  1.00  0.00    -0.409 A  
HETATM   26  C   UNL     1     -12.908   9.895  72.178  1.00  0.00    -0.435 A  
HETATM   27  C   UNL     1     -11.719   9.398  71.649  1.00  0.00    -0.468 A  
HETATM   28  C   UNL     1     -10.968  10.180  70.787  1.00  0.00    -0.313 A  
HETATM   29  C   UNL     1     -11.387  11.467  70.472  1.00  0.00     0.297 A  
ENDBRANCH  20  24
ENDBRANCH  15  16
ENDBRANCH  10  15
ENDBRANCH   9  10
ENDBRANCH   3   9
BRANCH   5  30
HETATM   30  C   UNL     1      -9.332   9.823  65.670  1.00  0.00    -0.285 A  
HETATM   31  C   UNL     1     -10.776   9.649  67.627  1.00  0.00    -0.324 A  
HETATM   32  C   UNL     1      -9.268   8.424  65.641  1.00  0.00    -0.118 A  
HETATM   33  C   UNL     1     -10.085  10.417  66.691  1.00  0.00    -0.279 A  
HETATM   34  C   UNL     1     -10.669   8.266  67.608  1.00  0.00    -0.195 A  
HETATM   35  C   UNL     1      -9.921   7.654  66.609  1.00  0.00    -0.284 A  
ENDBRANCH   5  30
TORSDOF 8
ENDMDL
MODEL      191
REMARK 921   NORMALIZED FREE ENERGY PREDICTED BY IDOCK:   -3.44 KCAL/MOL
REMARK 922        TOTAL FREE ENERGY PREDICTED BY IDOCK:   -5.86 KCAL/MOL
REMARK 923 INTER-LIGAND FREE ENERGY PREDICTED BY IDOCK:   -5.42 KCAL/MOL
REMARK 924 INTRA-LIGAND FREE ENERGY PREDICTED BY IDOCK:   -0.43 KCAL/MOL
REMARK 927      BINDING AFFINITY PREDICTED BY RF-SCORE:    0.00 PKD
ROOT
HETATM    1  C   UNL     1      -6.620  13.308  69.761  1.00  0.00     0.052 C  
HETATM    2  N   UNL     1      -6.645  12.014  69.077  1.00  0.00    -0.086 N  
HETATM    3  C   UNL     1      -6.343  10.913  69.891  1.00  0.00    -0.132 C  
HETATM    4  C   UNL     1      -7.107  11.984  67.631  1.00  0.00    -0.118 C  
HETATM    5  C   UNL     1      -8.316  11.019  67.365  1.00  0.00    -0.126 C  
HETATM    6  C   UNL     1      -7.569  13.389  67.135  1.00  0.00     0.030 C  
HETATM    7  C   UNL     1      -5.917  11.636  66.702  1.00  0.00    -0.099 C  
HETATM    8  O   UNL     1      -6.151  11.067  71.103  1.00  0.00    -0.357 OA 
ENDROOT
BRANCH   3   9
HETATM    9  C   UNL     1      -6.302   9.510  69.266  1.00  0.00    -0.044 C  
BRANCH   9  10
HETATM   10  N   UNL     1      -6.387   8.373  70.209  1.00  0.00    -0.035 NA 
BRANCH  10  11
HETATM   11  C   UNL     1      -5.141   8.213  70.980  1.00  0.00    -0.026 C  
BRANCH  11  12
HETATM   12  C   UNL     1      -5.248   7.222  72.161  1.00  0.00    -0.036 C  
HETATM   13  H   UNL     1      -5.351   7.311  74.130  1.00  0.00     0.000 HD 
HETATM   14  O   UNL     1      -5.285   7.919  73.403  1.00  0.00    -0.041 OA 
ENDBRANCH  11  12
ENDBRANCH  10  11
BRANCH  10  15
HETATM   15  C   UNL     1      -7.593   8.424  71.081  1.00  0.00    -0.086 C  
BRANCH  15  16
HETATM   16  C   UNL     1      -8.712   7.406  70.692  1.00  0.00    -0.142 C  
HETATM   17  C   UNL     1     -10.878   6.219  71.285  1.00  0.00    -0.265 C  
HETATM   18  C   UNL     1     -10.090   8.266  72.592  1.00  0.00    -0.295 C  
HETATM   19  N   UNL     1      -9.828   7.289  71.538  1.00  0.00    -0.174 N  
HETATM   20  C   UNL     1     -10.337   4.850  70.722  1.00  0.00    -0.228 C  
HETATM   21  O   UNL     1      -8.605   6.681  69.700  1.00  0.00    -0.131 OA 
HETATM   22  C   UNL     1     -11.689   5.879  72.558  1.00  0.00    -0.288 C  
HETATM   23  C   UNL     1     -11.891   6.755  70.250  1.00  0.00    -0.359 C  
BRANCH  20  24
HETATM   24  C   UNL     1      -9.299   4.084  71.518  1.00  0.00    -0.207 A  
HETATM   25  C   UNL     1      -9.194   2.699  71.321  1.00  0.00    -0.193 A  
HETATM   26  C   UNL     1      -8.210   1.956  71.975  1.00  0.00    -0.049 A  
HETATM   27  C   UNL     1      -7.299   2.588  72.816  1.00  0.00    -0.040 A  
HETATM   28  C   UNL     1      -7.372   3.959  73.006  1.00  0.00    -0.068 A  
HETATM   29  C   UNL     1      -8.369   4.696  72.376  1.00  0.00    -0.115 A  
ENDBRANCH  20  24
ENDBRANCH  15  16
ENDBRANCH  10  15
ENDBRANCH   9  10
ENDBRANCH   3   9
BRANCH   5  30
HETATM   30  C   UNL     1      -9.554  11.248  68.214  1.00  0.00    -0.193 A  
HETATM   31  C   UNL     1     -11.380  12.647  69.023  1.00  0.00    -0.345 A  
HETATM   32  C   UNL     1     -10.057  10.205  69.001  1.00  0.00    -0.216 A  
HETATM   33  C   UNL     1     -10.230  12.475  68.255  1.00  0.00    -0.235 A  
HETATM   34  C   UNL     1     -11.841  11.616  69.827  1.00  0.00    -0.428 A  
HETATM   35  C   UNL     1     -11.182  10.392  69.810  1.00  0.00    -0.353 A  
ENDBRANCH   5  30
TORSDOF 8
ENDMDL
MODEL      192
REMARK 921   NORMALIZED FREE ENERGY PREDICTED BY IDOCK:   -3.44 KCAL/MOL
REMARK 922        TOTAL FREE ENERGY PREDICTED BY IDOCK:   -5.85 KCAL/MOL
REMARK 923 INTER-LIGAND FREE ENERGY PREDICTED BY IDOCK:   -5.99 KCAL/MOL
REMARK 924 INTRA-LIGAND FREE ENERGY PREDICTED BY IDOCK:    0.13 KCAL/MOL
REMARK 927      BINDING AFFINITY PREDICTED BY RF-SCORE:    0.00 PKD
ROOT
HETATM    1  C   UNL     1      -9.637  13.973  66.112  1.00  0.00    -0.241 C  
HETATM    2  N   UNL     1      -9.668  12.824  67.020  1.00  0.00    -0.219 N  
HETATM    3  C   UNL     1      -8.554  12.713  67.864  1.00  0.00    -0.181 C  
HETATM    4  C   UNL     1     -10.923  11.970  67.042  1.00  0.00    -0.274 C  
HETATM    5  C   UNL     1     -11.580  11.836  68.460  1.00  0.00    -0.380 C  
HETATM    6  C   UNL     1     -12.035  12.540  66.110  1.00  0.00    -0.432 C  
HETATM    7  C   UNL     1     -10.621  10.571  66.446  1.00  0.00    -0.218 C  
HETATM    8  O   UNL     1      -7.677  13.585  67.859  1.00  0.00    -0.122 OA 
ENDROOT
BRANCH   3   9
HETATM    9  C   UNL     1      -8.464  11.522  68.831  1.00  0.00     0.017 C  
BRANCH   9  10
HETATM   10  N   UNL     1      -7.554  10.426  68.435  1.00  0.00    -0.090 NA 
BRANCH  10  11
HETATM   11  C   UNL     1      -6.147  10.758  68.720  1.00  0.00    -0.040 C  
BRANCH  11  12
HETATM   12  C   UNL     1      -5.936  11.564  70.022  1.00  0.00    -0.143 C  
HETATM   13  H   UNL     1      -5.703  11.188  71.945  1.00  0.00     0.000 HD 
HETATM   14  O   UNL     1      -5.833  10.693  71.145  1.00  0.00    -0.293 OA 
ENDBRANCH  11  12
ENDBRANCH  10  11
BRANCH  10  15
HETATM   15  C   UNL     1      -7.952   9.104  68.994  1.00  0.00    -0.101 C  
BRANCH  15  16
HETATM   16  C   UNL     1      -7.758   7.906  68.012  1.00  0.00    -0.125 C  
HETATM   17  C   UNL     1      -8.740   5.896  66.807  1.00  0.00    -0.117 C  
HETATM   18  C   UNL     1     -10.240   7.624  67.940  1.00  0.00    -0.198 C  
HETATM   19  N   UNL     1      -8.888   7.155  67.648  1.00  0.00    -0.120 N  
HETATM   20  C   UNL     1      -7.446   5.040  67.080  1.00  0.00    -0.087 C  
HETATM   21  O   UNL     1      -6.640   7.586  67.600  1.00  0.00    -0.057 OA 
HETATM   22  C   UNL     1      -9.942   4.936  66.969  1.00  0.00    -0.238 C  
HETATM   23  C   UNL     1      -8.698   6.300  65.317  1.00  0.00    -0.007 C  
BRANCH  20  24
HETATM   24  C   UNL     1      -7.193   4.511  68.478  1.00  0.00    -0.060 A  
HETATM   25  C   UNL     1      -5.893   4.105  68.813  1.00  0.00    -0.022 A  
HETATM   26  C   UNL     1      -5.589   3.675  70.106  1.00  0.00    -0.016 A  
HETATM   27  C   UNL     1      -6.573   3.668  71.091  1.00  0.00    -0.030 A  
HETATM   28  C   UNL     1      -7.858   4.087  70.785  1.00  0.00    -0.051 A  
HETATM   29  C   UNL     1      -8.168   4.489  69.491  1.00  0.00    -0.067 A  
ENDBRANCH  20  24
ENDBRANCH  15  16
ENDBRANCH  10  15
ENDBRANCH   9  10
ENDBRANCH   3   9
BRANCH   5  30
HETATM   30  C   UNL     1     -11.927  13.137  69.162  1.00  0.00    -0.329 A  
HETATM   31  C   UNL     1     -12.585  14.409  71.135  1.00  0.00    -0.422 A  
HETATM   32  C   UNL     1     -11.883  14.341  68.449  1.00  0.00    -0.373 A  
HETATM   33  C   UNL     1     -12.300  13.196  70.511  1.00  0.00    -0.380 A  
HETATM   34  C   UNL     1     -12.576  15.587  70.404  1.00  0.00    -0.421 A  
HETATM   35  C   UNL     1     -12.217  15.553  69.061  1.00  0.00    -0.147 A  
ENDBRANCH   5  30
TORSDOF 8
ENDMDL
MODEL      193
REMARK 921   NORMALIZED FREE ENERGY PREDICTED BY IDOCK:   -3.41 KCAL/MOL
REMARK 922        TOTAL FREE ENERGY PREDICTED BY IDOCK:   -5.81 KCAL/MOL
REMARK 923 INTER-LIGAND FREE ENERGY PREDICTED BY IDOCK:   -4.83 KCAL/MOL
REMARK 924 INTRA-LIGAND FREE ENERGY PREDICTED BY IDOCK:   -0.98 KCAL/MOL
REMARK 927      BINDING AFFINITY PREDICTED BY RF-SCORE:    0.00 PKD
ROOT
HETATM    1  C   UNL     1      -6.872   9.060  68.238  1.00  0.00    -0.065 C  
HETATM    2  N   UNL     1      -7.923   8.190  67.707  1.00  0.00    -0.124 N  
HETATM    3  C   UNL     1      -7.637   6.819  67.770  1.00  0.00    -0.107 C  
HETATM    4  C   UNL     1      -9.227   8.834  67.273  1.00  0.00    -0.139 C  
HETATM    5  C   UNL     1     -10.498   8.252  67.987  1.00  0.00    -0.239 C  
HETATM    6  C   UNL     1      -9.246  10.367  67.557  1.00  0.00    -0.156 C  
HETATM    7  C   UNL     1      -9.377   8.741  65.733  1.00  0.00    -0.259 C  
HETATM    8  O   UNL     1      -6.598   6.421  68.311  1.00  0.00    -0.060 OA 
ENDROOT
BRANCH   3   9
HETATM    9  C   UNL     1      -8.654   5.815  67.204  1.00  0.00    -0.109 C  
BRANCH   9  10
HETATM   10  N   UNL     1      -8.413   4.391  67.522  1.00  0.00    -0.103 NA 
BRANCH  10  11
HETATM   11  C   UNL     1      -8.303   4.169  68.975  1.00  0.00    -0.077 C  
BRANCH  11  12
HETATM   12  C   UNL     1      -9.612   3.697  69.646  1.00  0.00    -0.141 C  
HETATM   13  H   UNL     1     -10.231   2.145  70.697  1.00  0.00     0.000 HD 
HETATM   14  O   UNL     1      -9.426   2.436  70.284  1.00  0.00    -0.130 OA 
ENDBRANCH  11  12
ENDBRANCH  10  11
BRANCH  10  15
HETATM   15  C   UNL     1      -9.395   3.473  66.879  1.00  0.00    -0.188 C  
BRANCH  15  16
HETATM   16  C   UNL     1      -9.456   3.585  65.323  1.00  0.00    -0.154 C  
HETATM   17  C   UNL     1      -8.469   2.994  63.057  1.00  0.00    -0.085 C  
HETATM   18  C   UNL     1      -7.763   1.751  65.173  1.00  0.00    -0.071 C  
HETATM   19  N   UNL     1      -8.550   2.822  64.566  1.00  0.00    -0.091 N  
HETATM   20  C   UNL     1      -8.697   4.459  62.523  1.00  0.00    -0.105 C  
HETATM   21  O   UNL     1     -10.237   4.356  64.763  1.00  0.00    -0.155 OA 
HETATM   22  C   UNL     1      -7.111   2.525  62.484  1.00  0.00    -0.032 C  
HETATM   23  C   UNL     1      -9.551   2.109  62.400  1.00  0.00    -0.089 C  
BRANCH  20  24
HETATM   24  C   UNL     1      -7.791   5.571  63.011  1.00  0.00    -0.089 A  
HETATM   25  C   UNL     1      -7.996   6.867  62.514  1.00  0.00    -0.109 A  
HETATM   26  C   UNL     1      -7.237   7.941  62.981  1.00  0.00    -0.091 A  
HETATM   27  C   UNL     1      -6.277   7.742  63.970  1.00  0.00    -0.057 A  
HETATM   28  C   UNL     1      -6.075   6.474  64.490  1.00  0.00    -0.034 A  
HETATM   29  C   UNL     1      -6.812   5.399  64.006  1.00  0.00    -0.046 A  
ENDBRANCH  20  24
ENDBRANCH  15  16
ENDBRANCH  10  15
ENDBRANCH   9  10
ENDBRANCH   3   9
BRANCH   5  30
HETATM   30  C   UNL     1     -10.482   8.279  69.505  1.00  0.00    -0.228 A  
HETATM   31  C   UNL     1     -10.007   7.266  71.672  1.00  0.00    -0.192 A  
HETATM   32  C   UNL     1     -10.935   9.419  70.182  1.00  0.00    -0.282 A  
HETATM   33  C   UNL     1     -10.035   7.200  70.279  1.00  0.00    -0.191 A  
HETATM   34  C   UNL     1     -10.496   8.386  72.326  1.00  0.00    -0.407 A  
HETATM   35  C   UNL     1     -10.953   9.466  71.579  1.00  0.00    -0.429 A  
ENDBRANCH   5  30
TORSDOF 8
ENDMDL
MODEL      194
REMARK 921   NORMALIZED FREE ENERGY PREDICTED BY IDOCK:   -3.39 KCAL/MOL
REMARK 922        TOTAL FREE ENERGY PREDICTED BY IDOCK:   -5.77 KCAL/MOL
REMARK 923 INTER-LIGAND FREE ENERGY PREDICTED BY IDOCK:   -4.74 KCAL/MOL
REMARK 924 INTRA-LIGAND FREE ENERGY PREDICTED BY IDOCK:   -1.03 KCAL/MOL
REMARK 927      BINDING AFFINITY PREDICTED BY RF-SCORE:    0.00 PKD
ROOT
HETATM    1  C   UNL     1     -10.981   7.675  68.955  1.00  0.00     0.060 C  
HETATM    2  N   UNL     1      -9.642   8.244  68.787  1.00  0.00    -0.148 N  
HETATM    3  C   UNL     1      -8.933   7.757  67.680  1.00  0.00    -0.127 C  
HETATM    4  C   UNL     1      -9.222   9.361  69.725  1.00  0.00    -0.196 C  
HETATM    5  C   UNL     1      -8.781  10.678  68.994  1.00  0.00    -0.152 C  
HETATM    6  C   UNL     1     -10.372   9.777  70.692  1.00  0.00    -0.330 C  
HETATM    7  C   UNL     1      -8.102   8.863  70.673  1.00  0.00    -0.161 C  
HETATM    8  O   UNL     1      -9.468   6.966  66.893  1.00  0.00    -0.146 OA 
ENDROOT
BRANCH   3   9
HETATM    9  C   UNL     1      -7.501   8.257  67.430  1.00  0.00    -0.094 C  
BRANCH   9  10
HETATM   10  N   UNL     1      -6.431   7.240  67.514  1.00  0.00    -0.053 NA 
BRANCH  10  11
HETATM   11  C   UNL     1      -6.768   6.173  68.473  1.00  0.00    -0.064 C  
BRANCH  11  12
HETATM   12  C   UNL     1      -5.734   5.985  69.605  1.00  0.00    -0.016 C  
HETATM   13  H   UNL     1      -5.749   5.698  71.557  1.00  0.00     0.000 HD 
HETATM   14  O   UNL     1      -6.385   5.813  70.861  1.00  0.00    -0.033 OA 
ENDBRANCH  11  12
ENDBRANCH  10  11
BRANCH  10  15
HETATM   15  C   UNL     1      -6.028   6.703  66.184  1.00  0.00    -0.033 C  
BRANCH  15  16
HETATM   16  C   UNL     1      -6.287   5.173  66.004  1.00  0.00    -0.039 C  
HETATM   17  C   UNL     1      -7.773   3.303  65.138  1.00  0.00    -0.081 C  
HETATM   18  C   UNL     1      -8.119   5.720  64.394  1.00  0.00    -0.133 C  
HETATM   19  N   UNL     1      -7.391   4.772  65.233  1.00  0.00    -0.071 N  
HETATM   20  C   UNL     1      -7.542   2.451  66.444  1.00  0.00    -0.071 C  
HETATM   21  O   UNL     1      -5.579   4.331  66.561  1.00  0.00    -0.016 OA 
HETATM   22  C   UNL     1      -9.255   3.105  64.743  1.00  0.00    -0.145 C  
HETATM   23  C   UNL     1      -6.930   2.644  64.024  1.00  0.00    -0.041 C  
BRANCH  20  24
HETATM   24  C   UNL     1      -8.230   2.868  67.728  1.00  0.00    -0.087 A  
HETATM   25  C   UNL     1      -7.645   2.500  68.949  1.00  0.00    -0.046 A  
HETATM   26  C   UNL     1      -8.198   2.917  70.162  1.00  0.00    -0.068 A  
HETATM   27  C   UNL     1      -9.330   3.728  70.172  1.00  0.00    -0.244 A  
HETATM   28  C   UNL     1      -9.909   4.120  68.976  1.00  0.00    -0.106 A  
HETATM   29  C   UNL     1      -9.375   3.684  67.769  1.00  0.00    -0.242 A  
ENDBRANCH  20  24
ENDBRANCH  15  16
ENDBRANCH  10  15
ENDBRANCH   9  10
ENDBRANCH   3   9
BRANCH   5  30
HETATM   30  C   UNL     1      -9.788  11.276  68.028  1.00  0.00    -0.186 A  
HETATM   31  C   UNL     1     -11.710  12.689  67.523  1.00  0.00    -0.429 A  
HETATM   32  C   UNL     1      -9.708  10.965  66.664  1.00  0.00    -0.222 A  
HETATM   33  C   UNL     1     -10.817  12.134  68.438  1.00  0.00    -0.255 A  
HETATM   34  C   UNL     1     -11.641  12.339  66.183  1.00  0.00    -0.450 A  
HETATM   35  C   UNL     1     -10.634  11.483  65.753  1.00  0.00    -0.315 A  
ENDBRANCH   5  30
TORSDOF 8
ENDMDL
MODEL      195
REMARK 921   NORMALIZED FREE ENERGY PREDICTED BY IDOCK:   -3.37 KCAL/MOL
REMARK 922        TOTAL FREE ENERGY PREDICTED BY IDOCK:   -5.75 KCAL/MOL
REMARK 923 INTER-LIGAND FREE ENERGY PREDICTED BY IDOCK:   -4.54 KCAL/MOL
REMARK 924 INTRA-LIGAND FREE ENERGY PREDICTED BY IDOCK:   -1.21 KCAL/MOL
REMARK 927      BINDING AFFINITY PREDICTED BY RF-SCORE:    0.00 PKD
ROOT
HETATM    1  C   UNL     1      -8.657   5.256  63.825  1.00  0.00    -0.050 C  
HETATM    2  N   UNL     1      -8.284   5.913  65.079  1.00  0.00    -0.135 N  
HETATM    3  C   UNL     1      -9.216   5.768  66.117  1.00  0.00    -0.156 C  
HETATM    4  C   UNL     1      -6.911   6.555  65.164  1.00  0.00    -0.052 C  
HETATM    5  C   UNL     1      -6.028   6.022  66.346  1.00  0.00    -0.025 C  
HETATM    6  C   UNL     1      -6.075   6.321  63.869  1.00  0.00    -0.022 C  
HETATM    7  C   UNL     1      -7.052   8.097  65.241  1.00  0.00    -0.063 C  
HETATM    8  O   UNL     1     -10.223   5.067  65.960  1.00  0.00    -0.216 OA 
ENDROOT
BRANCH   3   9
HETATM    9  C   UNL     1      -8.944   6.451  67.467  1.00  0.00    -0.116 C  
BRANCH   9  10
HETATM   10  N   UNL     1     -10.038   7.287  68.008  1.00  0.00    -0.165 NA 
BRANCH  10  11
HETATM   11  C   UNL     1     -10.496   8.284  67.024  1.00  0.00    -0.314 C  
BRANCH  11  12
HETATM   12  C   UNL     1     -10.099   9.739  67.362  1.00  0.00    -0.208 C  
HETATM   13  H   UNL     1     -10.575  11.103  68.705  1.00  0.00     0.000 HD 
HETATM   14  O   UNL     1     -10.819  10.209  68.497  1.00  0.00    -0.217 OA 
ENDBRANCH  11  12
ENDBRANCH  10  11
BRANCH  10  15
HETATM   15  C   UNL     1     -11.161   6.488  68.573  1.00  0.00    -0.265 C  
BRANCH  15  16
HETATM   16  C   UNL     1     -10.845   5.822  69.950  1.00  0.00    -0.347 C  
HETATM   17  C   UNL     1     -10.674   6.021  72.477  1.00  0.00    -0.227 C  
HETATM   18  C   UNL     1     -11.868   7.799  71.088  1.00  0.00    -0.291 C  
HETATM   19  N   UNL     1     -11.090   6.562  71.119  1.00  0.00    -0.268 N  
HETATM   20  C   UNL     1      -9.337   5.185  72.500  1.00  0.00    -0.152 C  
HETATM   21  O   UNL     1     -10.346   4.696  70.021  1.00  0.00    -0.205 OA 
HETATM   22  C   UNL     1     -10.508   7.140  73.531  1.00  0.00    -0.422 C  
HETATM   23  C   UNL     1     -11.788   5.087  72.999  1.00  0.00    -0.141 C  
BRANCH  20  24
HETATM   24  C   UNL     1      -8.055   5.833  72.017  1.00  0.00    -0.112 A  
HETATM   25  C   UNL     1      -7.366   6.684  72.895  1.00  0.00    -0.081 A  
HETATM   26  C   UNL     1      -6.145   7.253  72.528  1.00  0.00    -0.040 A  
HETATM   27  C   UNL     1      -5.581   6.960  71.289  1.00  0.00    -0.028 A  
HETATM   28  C   UNL     1      -6.235   6.104  70.418  1.00  0.00    -0.035 A  
HETATM   29  C   UNL     1      -7.464   5.559  70.771  1.00  0.00    -0.088 A  
ENDBRANCH  20  24
ENDBRANCH  15  16
ENDBRANCH  10  15
ENDBRANCH   9  10
ENDBRANCH   3   9
BRANCH   5  30
HETATM   30  C   UNL     1      -5.810   4.520  66.394  1.00  0.00    -0.023 A  
HETATM   31  C   UNL     1      -5.180   2.403  65.362  1.00  0.00    -0.008 A  
HETATM   32  C   UNL     1      -6.029   3.826  67.591  1.00  0.00    -0.027 A  
HETATM   33  C   UNL     1      -5.398   3.777  65.280  1.00  0.00    -0.009 A  
HETATM   34  C   UNL     1      -5.440   1.726  66.543  1.00  0.00    -0.013 A  
HETATM   35  C   UNL     1      -5.858   2.440  67.660  1.00  0.00    -0.019 A  
ENDBRANCH   5  30
TORSDOF 8
ENDMDL
MODEL      196
REMARK 921   NORMALIZED FREE ENERGY PREDICTED BY IDOCK:   -3.34 KCAL/MOL
REMARK 922        TOTAL FREE ENERGY PREDICTED BY IDOCK:   -5.71 KCAL/MOL
REMARK 923 INTER-LIGAND FREE ENERGY PREDICTED BY IDOCK:   -6.28 KCAL/MOL
REMARK 924 INTRA-LIGAND FREE ENERGY PREDICTED BY IDOCK:    0.57 KCAL/MOL
REMARK 927      BINDING AFFINITY PREDICTED BY RF-SCORE:    0.00 PKD
ROOT
HETATM    1  C   UNL     1     -10.046   4.827  73.688  1.00  0.00    -0.167 C  
HETATM    2  N   UNL     1      -9.131   5.392  72.694  1.00  0.00    -0.135 N  
HETATM    3  C   UNL     1      -9.157   4.757  71.444  1.00  0.00    -0.135 C  
HETATM    4  C   UNL     1      -8.365   6.649  73.066  1.00  0.00    -0.117 C  
HETATM    5  C   UNL     1      -8.582   7.847  72.077  1.00  0.00    -0.173 C  
HETATM    6  C   UNL     1      -8.766   7.183  74.475  1.00  0.00    -0.228 C  
HETATM    7  C   UNL     1      -6.856   6.326  73.209  1.00  0.00    -0.075 C  
HETATM    8  O   UNL     1      -9.962   3.843  71.224  1.00  0.00    -0.179 OA 
ENDROOT
BRANCH   3   9
HETATM    9  C   UNL     1      -8.208   5.243  70.338  1.00  0.00    -0.103 C  
BRANCH   9  10
HETATM   10  N   UNL     1      -8.827   5.525  69.024  1.00  0.00    -0.105 NA 
BRANCH  10  11
HETATM   11  C   UNL     1      -9.589   4.367  68.523  1.00  0.00    -0.143 C  
BRANCH  11  12
HETATM   12  C   UNL     1      -8.939   3.653  67.316  1.00  0.00    -0.141 C  
HETATM   13  H   UNL     1      -7.396   3.933  66.118  1.00  0.00     0.000 HD 
HETATM   14  O   UNL     1      -7.795   4.371  66.860  1.00  0.00    -0.096 OA 
ENDBRANCH  11  12
ENDBRANCH  10  11
BRANCH  10  15
HETATM   15  C   UNL     1      -9.628   6.781  69.012  1.00  0.00    -0.135 C  
BRANCH  15  16
HETATM   16  C   UNL     1      -9.712   7.475  67.615  1.00  0.00    -0.147 C  
HETATM   17  C   UNL     1      -8.622   8.921  65.833  1.00  0.00    -0.158 C  
HETATM   18  C   UNL     1      -7.253   7.907  67.735  1.00  0.00    -0.091 C  
HETATM   19  N   UNL     1      -8.562   8.111  67.119  1.00  0.00    -0.123 N  
HETATM   20  C   UNL     1      -9.964   9.708  65.583  1.00  0.00    -0.321 C  
HETATM   21  O   UNL     1     -10.768   7.516  66.980  1.00  0.00    -0.346 OA 
HETATM   22  C   UNL     1      -7.481   9.961  65.739  1.00  0.00    -0.110 C  
HETATM   23  C   UNL     1      -8.441   7.962  64.637  1.00  0.00     0.029 C  
BRANCH  20  24
HETATM   24  C   UNL     1     -10.427  10.722  66.610  1.00  0.00    -0.302 A  
HETATM   25  C   UNL     1      -9.676  10.872  67.786  1.00  0.00    -0.183 A  
HETATM   26  C   UNL     1     -10.017  11.838  68.734  1.00  0.00    -0.128 A  
HETATM   27  C   UNL     1     -11.098  12.687  68.511  1.00  0.00    -0.300 A  
HETATM   28  C   UNL     1     -11.838  12.569  67.345  1.00  0.00    -0.381 A  
HETATM   29  C   UNL     1     -11.516  11.589  66.413  1.00  0.00    -0.150 A  
ENDBRANCH  20  24
ENDBRANCH  15  16
ENDBRANCH  10  15
ENDBRANCH   9  10
ENDBRANCH   3   9
BRANCH   5  30
HETATM   30  C   UNL     1     -10.022   8.268  71.842  1.00  0.00    -0.299 A  
HETATM   31  C   UNL     1     -12.407   7.787  71.688  1.00  0.00    -0.348 A  
HETATM   32  C   UNL     1     -10.315   9.610  71.570  1.00  0.00     0.099 A  
HETATM   33  C   UNL     1     -11.093   7.365  71.880  1.00  0.00    -0.276 A  
HETATM   34  C   UNL     1     -12.676   9.111  71.380  1.00  0.00    -0.383 A  
HETATM   35  C   UNL     1     -11.629  10.025  71.328  1.00  0.00    -0.430 A  
ENDBRANCH   5  30
TORSDOF 8
ENDMDL
MODEL      197
REMARK 921   NORMALIZED FREE ENERGY PREDICTED BY IDOCK:   -3.33 KCAL/MOL
REMARK 922        TOTAL FREE ENERGY PREDICTED BY IDOCK:   -5.69 KCAL/MOL
REMARK 923 INTER-LIGAND FREE ENERGY PREDICTED BY IDOCK:   -7.22 KCAL/MOL
REMARK 924 INTRA-LIGAND FREE ENERGY PREDICTED BY IDOCK:    1.53 KCAL/MOL
REMARK 927      BINDING AFFINITY PREDICTED BY RF-SCORE:    0.00 PKD
ROOT
HETATM    1  C   UNL     1     -10.750  15.344  67.773  1.00  0.00    -0.289 C  
HETATM    2  N   UNL     1     -10.248  14.022  67.391  1.00  0.00    -0.247 N  
HETATM    3  C   UNL     1      -8.969  13.717  67.878  1.00  0.00    -0.195 C  
HETATM    4  C   UNL     1     -11.186  13.096  66.638  1.00  0.00    -0.304 C  
HETATM    5  C   UNL     1     -11.406  11.705  67.332  1.00  0.00    -0.367 C  
HETATM    6  C   UNL     1     -12.607  13.715  66.467  1.00  0.00    -0.225 C  
HETATM    7  C   UNL     1     -10.688  12.906  65.183  1.00  0.00    -0.326 C  
HETATM    8  O   UNL     1      -8.383  14.504  68.630  1.00  0.00    -0.157 OA 
ENDROOT
BRANCH   3   9
HETATM    9  C   UNL     1      -8.328  12.370  67.505  1.00  0.00    -0.173 C  
BRANCH   9  10
HETATM   10  N   UNL     1      -7.310  11.850  68.442  1.00  0.00    -0.089 NA 
BRANCH  10  11
HETATM   11  C   UNL     1      -6.366  12.903  68.858  1.00  0.00    -0.090 C  
BRANCH  11  12
HETATM   12  C   UNL     1      -5.930  12.817  70.339  1.00  0.00    -0.104 C  
HETATM   13  H   UNL     1      -5.707  14.050  71.864  1.00  0.00     0.000 HD 
HETATM   14  O   UNL     1      -5.975  14.102  70.954  1.00  0.00    -0.200 OA 
ENDBRANCH  11  12
ENDBRANCH  10  11
BRANCH  10  15
HETATM   15  C   UNL     1      -7.899  11.124  69.602  1.00  0.00     0.323 C  
BRANCH  15  16
HETATM   16  C   UNL     1      -7.711   9.574  69.552  1.00  0.00    -0.100 C  
HETATM   17  C   UNL     1      -8.313   7.341  68.502  1.00  0.00    -0.125 C  
HETATM   18  C   UNL     1      -8.931   9.544  67.371  1.00  0.00    -0.131 C  
HETATM   19  N   UNL     1      -8.345   8.860  68.521  1.00  0.00    -0.123 N  
HETATM   20  C   UNL     1      -8.364   6.638  69.912  1.00  0.00    -0.132 C  
HETATM   21  O   UNL     1      -7.069   8.975  70.418  1.00  0.00    -0.049 OA 
HETATM   22  C   UNL     1      -9.470   6.738  67.670  1.00  0.00    -0.126 C  
HETATM   23  C   UNL     1      -7.002   6.883  67.826  1.00  0.00    -0.083 C  
BRANCH  20  24
HETATM   24  C   UNL     1      -9.538   6.912  70.830  1.00  0.00    -0.167 A  
HETATM   25  C   UNL     1      -9.478   8.029  71.676  1.00  0.00    -0.213 A  
HETATM   26  C   UNL     1     -10.559   8.368  72.492  1.00  0.00    -0.368 A  
HETATM   27  C   UNL     1     -11.727   7.611  72.456  1.00  0.00    -0.352 A  
HETATM   28  C   UNL     1     -11.814   6.517  71.610  1.00  0.00    -0.384 A  
HETATM   29  C   UNL     1     -10.728   6.162  70.818  1.00  0.00    -0.326 A  
ENDBRANCH  20  24
ENDBRANCH  15  16
ENDBRANCH  10  15
ENDBRANCH   9  10
ENDBRANCH   3   9
BRANCH   5  30
HETATM   30  C   UNL     1     -11.894  11.746  68.769  1.00  0.00    -0.380 A  
HETATM   31  C   UNL     1     -12.502  12.944  70.804  1.00  0.00    -0.370 A  
HETATM   32  C   UNL     1     -12.229  10.551  69.420  1.00  0.00    -0.094 A  
HETATM   33  C   UNL     1     -12.025  12.937  69.494  1.00  0.00    -0.346 A  
HETATM   34  C   UNL     1     -12.790  11.750  71.446  1.00  0.00    -0.440 A  
HETATM   35  C   UNL     1     -12.661  10.554  70.750  1.00  0.00    -0.474 A  
ENDBRANCH   5  30
TORSDOF 8
ENDMDL
MODEL      198
REMARK 921   NORMALIZED FREE ENERGY PREDICTED BY IDOCK:   -3.32 KCAL/MOL
REMARK 922        TOTAL FREE ENERGY PREDICTED BY IDOCK:   -5.68 KCAL/MOL
REMARK 923 INTER-LIGAND FREE ENERGY PREDICTED BY IDOCK:   -4.98 KCAL/MOL
REMARK 924 INTRA-LIGAND FREE ENERGY PREDICTED BY IDOCK:   -0.70 KCAL/MOL
REMARK 927      BINDING AFFINITY PREDICTED BY RF-SCORE:    0.00 PKD
ROOT
HETATM    1  C   UNL     1      -8.272  10.799  63.534  1.00  0.00     0.066 C  
HETATM    2  N   UNL     1      -8.423  10.494  64.959  1.00  0.00    -0.175 N  
HETATM    3  C   UNL     1      -7.217  10.332  65.655  1.00  0.00    -0.148 C  
HETATM    4  C   UNL     1      -9.823  10.511  65.545  1.00  0.00    -0.265 C  
HETATM    5  C   UNL     1      -9.995  11.487  66.762  1.00  0.00    -0.235 C  
HETATM    6  C   UNL     1     -10.891  10.948  64.496  1.00  0.00    -0.145 C  
HETATM    7  C   UNL     1     -10.252   9.074  65.934  1.00  0.00     0.127 C  
HETATM    8  O   UNL     1      -6.135  10.516  65.083  1.00  0.00    -0.129 OA 
ENDROOT
BRANCH   3   9
HETATM    9  C   UNL     1      -7.257   9.971  67.148  1.00  0.00    -0.090 C  
BRANCH   9  10
HETATM   10  N   UNL     1      -6.128   9.161  67.655  1.00  0.00    -0.053 NA 
BRANCH  10  11
HETATM   11  C   UNL     1      -6.205   8.976  69.116  1.00  0.00    -0.042 C  
BRANCH  11  12
HETATM   12  C   UNL     1      -7.135   9.979  69.835  1.00  0.00    -0.130 C  
HETATM   13  H   UNL     1      -7.640  10.423  71.690  1.00  0.00     0.000 HD 
HETATM   14  O   UNL     1      -7.068   9.806  71.248  1.00  0.00    -0.326 OA 
ENDBRANCH  11  12
ENDBRANCH  10  11
BRANCH  10  15
HETATM   15  C   UNL     1      -5.958   7.872  66.927  1.00  0.00    -0.052 C  
BRANCH  15  16
HETATM   16  C   UNL     1      -6.772   6.683  67.528  1.00  0.00    -0.067 C  
HETATM   17  C   UNL     1      -8.827   5.191  67.448  1.00  0.00    -0.105 C  
HETATM   18  C   UNL     1      -8.202   6.688  65.478  1.00  0.00    -0.138 C  
HETATM   19  N   UNL     1      -7.919   6.249  66.842  1.00  0.00    -0.108 N  
HETATM   20  C   UNL     1      -8.982   5.241  69.016  1.00  0.00    -0.126 C  
HETATM   21  O   UNL     1      -6.458   6.165  68.602  1.00  0.00    -0.041 OA 
HETATM   22  C   UNL     1     -10.259   5.239  66.865  1.00  0.00    -0.279 C  
HETATM   23  C   UNL     1      -8.259   3.796  67.104  1.00  0.00    -0.095 C  
BRANCH  20  24
HETATM   24  C   UNL     1      -9.504   6.507  69.665  1.00  0.00    -0.149 A  
HETATM   25  C   UNL     1     -10.370   7.327  68.927  1.00  0.00    -0.207 A  
HETATM   26  C   UNL     1     -10.935   8.469  69.500  1.00  0.00    -0.057 A  
HETATM   27  C   UNL     1     -10.663   8.794  70.826  1.00  0.00    -0.277 A  
HETATM   28  C   UNL     1      -9.828   7.984  71.578  1.00  0.00    -0.217 A  
HETATM   29  C   UNL     1      -9.243   6.862  71.001  1.00  0.00    -0.156 A  
ENDBRANCH  20  24
ENDBRANCH  15  16
ENDBRANCH  10  15
ENDBRANCH   9  10
ENDBRANCH   3   9
BRANCH   5  30
HETATM   30  C   UNL     1      -9.607  12.935  66.519  1.00  0.00    -0.259 A  
HETATM   31  C   UNL     1      -8.081  14.822  66.750  1.00  0.00     0.037 A  
HETATM   32  C   UNL     1     -10.457  13.763  65.775  1.00  0.00    -0.303 A  
HETATM   33  C   UNL     1      -8.423  13.497  67.013  1.00  0.00    -0.137 A  
HETATM   34  C   UNL     1      -8.952  15.639  66.046  1.00  0.00    -0.297 A  
HETATM   35  C   UNL     1     -10.137  15.106  65.552  1.00  0.00    -0.402 A  
ENDBRANCH   5  30
TORSDOF 8
ENDMDL
MODEL      199
REMARK 921   NORMALIZED FREE ENERGY PREDICTED BY IDOCK:   -3.29 KCAL/MOL
REMARK 922        TOTAL FREE ENERGY PREDICTED BY IDOCK:   -5.64 KCAL/MOL
REMARK 923 INTER-LIGAND FREE ENERGY PREDICTED BY IDOCK:   -5.83 KCAL/MOL
REMARK 924 INTRA-LIGAND FREE ENERGY PREDICTED BY IDOCK:    0.19 KCAL/MOL
REMARK 927      BINDING AFFINITY PREDICTED BY RF-SCORE:    0.00 PKD
ROOT
HETATM    1  C   UNL     1      -5.263   4.134  69.518  1.00  0.00    -0.008 C  
HETATM    2  N   UNL     1      -6.051   5.367  69.450  1.00  0.00    -0.023 N  
HETATM    3  C   UNL     1      -6.783   5.530  68.266  1.00  0.00    -0.054 C  
HETATM    4  C   UNL     1      -6.093   6.252  70.682  1.00  0.00    -0.034 C  
HETATM    5  C   UNL     1      -7.541   6.543  71.212  1.00  0.00    -0.094 C  
HETATM    6  C   UNL     1      -5.319   5.624  71.881  1.00  0.00    -0.017 C  
HETATM    7  C   UNL     1      -5.337   7.577  70.407  1.00  0.00    -0.023 C  
HETATM    8  O   UNL     1      -6.791   4.638  67.408  1.00  0.00    -0.057 OA 
ENDROOT
BRANCH   3   9
HETATM    9  C   UNL     1      -7.615   6.807  68.070  1.00  0.00    -0.107 C  
BRANCH   9  10
HETATM   10  N   UNL     1      -8.124   7.053  66.704  1.00  0.00    -0.108 NA 
BRANCH  10  11
HETATM   11  C   UNL     1      -9.514   6.588  66.550  1.00  0.00    -0.154 C  
BRANCH  11  12
HETATM   12  C   UNL     1      -9.658   5.257  65.779  1.00  0.00    -0.089 C  
HETATM   13  H   UNL     1     -11.095   3.978  65.340  1.00  0.00     0.000 HD 
HETATM   14  O   UNL     1     -11.006   4.796  65.814  1.00  0.00    -0.255 OA 
ENDBRANCH  11  12
ENDBRANCH  10  11
BRANCH  10  15
HETATM   15  C   UNL     1      -7.942   8.462  66.256  1.00  0.00    -0.099 C  
BRANCH  15  16
HETATM   16  C   UNL     1      -9.175   9.384  66.519  1.00  0.00    -0.159 C  
HETATM   17  C   UNL     1     -10.098  11.605  67.336  1.00  0.00    -0.198 C  
HETATM   18  C   UNL     1      -7.609  11.303  66.856  1.00  0.00    -0.148 C  
HETATM   19  N   UNL     1      -8.940  10.706  66.932  1.00  0.00    -0.137 N  
HETATM   20  C   UNL     1     -11.292  10.890  68.077  1.00  0.00    -0.382 C  
HETATM   21  O   UNL     1     -10.328   8.959  66.421  1.00  0.00    -0.259 OA 
HETATM   22  C   UNL     1      -9.648  12.767  68.253  1.00  0.00    -0.211 C  
HETATM   23  C   UNL     1     -10.689  12.252  66.065  1.00  0.00    -0.296 C  
BRANCH  20  24
HETATM   24  C   UNL     1     -11.018  10.139  69.364  1.00  0.00    -0.285 A  
HETATM   25  C   UNL     1      -9.720   9.660  69.593  1.00  0.00    -0.230 A  
HETATM   26  C   UNL     1      -9.394   9.022  70.792  1.00  0.00    -0.305 A  
HETATM   27  C   UNL     1     -10.354   8.876  71.790  1.00  0.00    -0.426 A  
HETATM   28  C   UNL     1     -11.636   9.363  71.591  1.00  0.00    -0.466 A  
HETATM   29  C   UNL     1     -11.968   9.974  70.387  1.00  0.00    -0.318 A  
ENDBRANCH  20  24
ENDBRANCH  15  16
ENDBRANCH  10  15
ENDBRANCH   9  10
ENDBRANCH   3   9
BRANCH   5  30
HETATM   30  C   UNL     1      -8.396   5.327  71.520  1.00  0.00    -0.121 A  
HETATM   31  C   UNL     1      -9.891   3.520  70.850  1.00  0.00    -0.135 A  
HETATM   32  C   UNL     1      -8.468   4.846  72.834  1.00  0.00    -0.108 A  
HETATM   33  C   UNL     1      -9.136   4.651  70.541  1.00  0.00    -0.174 A  
HETATM   34  C   UNL     1      -9.982   3.082  72.162  1.00  0.00    -0.233 A  
HETATM   35  C   UNL     1      -9.264   3.741  73.153  1.00  0.00    -0.118 A  
ENDBRANCH   5  30
TORSDOF 8
ENDMDL
MODEL      200
REMARK 921   NORMALIZED FREE ENERGY PREDICTED BY IDOCK:   -3.18 KCAL/MOL
REMARK 922        TOTAL FREE ENERGY PREDICTED BY IDOCK:   -5.48 KCAL/MOL
REMARK 923 INTER-LIGAND FREE ENERGY PREDICTED BY IDOCK:   -4.90 KCAL/MOL
REMARK 924 INTRA-LIGAND FREE ENERGY PREDICTED BY IDOCK:   -0.57 KCAL/MOL
REMARK 927      BINDING AFFINITY PREDICTED BY RF-SCORE:    0.00 PKD
ROOT
HETATM    1  C   UNL     1     -11.586   9.414  70.394  1.00  0.00    -0.192 C  
HETATM    2  N   UNL     1     -10.589   8.604  69.690  1.00  0.00    -0.222 N  
HETATM    3  C   UNL     1      -9.581   9.339  69.050  1.00  0.00    -0.159 C  
HETATM    4  C   UNL     1     -10.676   7.095  69.827  1.00  0.00    -0.239 C  
HETATM    5  C   UNL     1      -9.365   6.426  70.373  1.00  0.00    -0.169 C  
HETATM    6  C   UNL     1     -11.813   6.659  70.802  1.00  0.00    -0.441 C  
HETATM    7  C   UNL     1     -11.087   6.463  68.473  1.00  0.00    -0.385 C  
HETATM    8  O   UNL     1      -9.537  10.570  69.165  1.00  0.00    -0.198 OA 
ENDROOT
BRANCH   3   9
HETATM    9  C   UNL     1      -8.505   8.591  68.247  1.00  0.00    -0.135 C  
BRANCH   9  10
HETATM   10  N   UNL     1      -7.176   9.235  68.180  1.00  0.00    -0.078 NA 
BRANCH  10  11
HETATM   11  C   UNL     1      -6.109   8.252  67.918  1.00  0.00    -0.047 C  
BRANCH  11  12
HETATM   12  C   UNL     1      -5.804   7.314  69.107  1.00  0.00    -0.019 C  
HETATM   13  H   UNL     1      -5.867   5.378  69.486  1.00  0.00     0.000 HD 
HETATM   14  O   UNL     1      -6.054   5.956  68.756  1.00  0.00    -0.022 OA 
ENDBRANCH  11  12
ENDBRANCH  10  11
BRANCH  10  15
HETATM   15  C   UNL     1      -7.131  10.388  67.237  1.00  0.00    -0.088 C  
BRANCH  15  16
HETATM   16  C   UNL     1      -6.794   9.999  65.762  1.00  0.00    -0.111 C  
HETATM   17  C   UNL     1      -7.588   9.575  63.386  1.00  0.00    -0.116 C  
HETATM   18  C   UNL     1      -9.082  10.749  65.091  1.00  0.00    -0.203 C  
HETATM   19  N   UNL     1      -7.819  10.073  64.804  1.00  0.00    -0.141 N  
HETATM   20  C   UNL     1      -6.654   8.313  63.249  1.00  0.00    -0.085 C  
HETATM   21  O   UNL     1      -5.676   9.586  65.445  1.00  0.00    -0.055 OA 
HETATM   22  C   UNL     1      -8.910   9.222  62.664  1.00  0.00    -0.210 C  
HETATM   23  C   UNL     1      -6.929  10.706  62.567  1.00  0.00    -0.100 C  
BRANCH  20  24
HETATM   24  C   UNL     1      -7.032   7.034  63.969  1.00  0.00    -0.056 A  
HETATM   25  C   UNL     1      -6.204   5.912  63.814  1.00  0.00    -0.025 A  
HETATM   26  C   UNL     1      -6.466   4.729  64.509  1.00  0.00    -0.039 A  
HETATM   27  C   UNL     1      -7.544   4.658  65.387  1.00  0.00    -0.081 A  
HETATM   28  C   UNL     1      -8.359   5.763  65.570  1.00  0.00    -0.140 A  
HETATM   29  C   UNL     1      -8.116   6.932  64.858  1.00  0.00    -0.109 A  
ENDBRANCH  20  24
ENDBRANCH  15  16
ENDBRANCH  10  15
ENDBRANCH   9  10
ENDBRANCH   3   9
BRANCH   5  30
HETATM   30  C   UNL     1      -8.847   6.955  71.698  1.00  0.00    -0.128 A  
HETATM   31  C   UNL     1      -8.984   7.199  74.120  1.00  0.00    -0.255 A  
HETATM   32  C   UNL     1      -7.670   7.715  71.728  1.00  0.00    -0.089 A  
HETATM   33  C   UNL     1      -9.499   6.723  72.916  1.00  0.00    -0.156 A  
HETATM   34  C   UNL     1      -7.840   7.983  74.127  1.00  0.00    -0.270 A  
HETATM   35  C   UNL     1      -7.180   8.234  72.930  1.00  0.00    -0.139 A  
ENDBRANCH   5  30
TORSDOF 8
ENDMDL
MODEL      201
REMARK 921   NORMALIZED FREE ENERGY PREDICTED BY IDOCK:   -3.17 KCAL/MOL
REMARK 922        TOTAL FREE ENERGY PREDICTED BY IDOCK:   -5.46 KCAL/MOL
REMARK 923 INTER-LIGAND FREE ENERGY PREDICTED BY IDOCK:   -5.86 KCAL/MOL
REMARK 924 INTRA-LIGAND FREE ENERGY PREDICTED BY IDOCK:    0.40 KCAL/MOL
REMARK 927      BINDING AFFINITY PREDICTED BY RF-SCORE:    0.00 PKD
ROOT
HETATM    1  C   UNL     1     -11.534  13.556  68.804  1.00  0.00    -0.311 C  
HETATM    2  N   UNL     1     -10.440  12.797  68.195  1.00  0.00    -0.229 N  
HETATM    3  C   UNL     1     -10.677  11.421  68.070  1.00  0.00    -0.200 C  
HETATM    4  C   UNL     1      -9.249  13.573  67.661  1.00  0.00    -0.214 C  
HETATM    5  C   UNL     1      -8.940  13.308  66.145  1.00  0.00     0.215 C  
HETATM    6  C   UNL     1      -9.449  15.114  67.791  1.00  0.00    -0.194 C  
HETATM    7  C   UNL     1      -7.998  13.287  68.530  1.00  0.00    -0.097 C  
HETATM    8  O   UNL     1     -11.772  10.944  68.393  1.00  0.00    -0.436 OA 
ENDROOT
BRANCH   3   9
HETATM    9  C   UNL     1      -9.579  10.523  67.479  1.00  0.00    -0.160 C  
BRANCH   9  10
HETATM   10  N   UNL     1      -8.385  10.309  68.325  1.00  0.00    -0.114 NA 
BRANCH  10  11
HETATM   11  C   UNL     1      -8.582   9.197  69.272  1.00  0.00    -0.137 C  
BRANCH  11  12
HETATM   12  C   UNL     1      -9.350   9.584  70.556  1.00  0.00    -0.237 C  
HETATM   13  H   UNL     1     -10.402   8.671  71.953  1.00  0.00     0.000 HD 
HETATM   14  O   UNL     1      -9.930   8.433  71.164  1.00  0.00    -0.178 OA 
ENDBRANCH  11  12
ENDBRANCH  10  11
BRANCH  10  15
HETATM   15  C   UNL     1      -7.128  10.170  67.538  1.00  0.00    -0.087 C  
BRANCH  15  16
HETATM   16  C   UNL     1      -6.850   8.722  67.021  1.00  0.00    -0.070 C  
HETATM   17  C   UNL     1      -7.361   6.867  65.363  1.00  0.00    -0.080 C  
HETATM   18  C   UNL     1      -8.156   9.259  64.958  1.00  0.00    -0.127 C  
HETATM   19  N   UNL     1      -7.483   8.306  65.838  1.00  0.00    -0.079 N  
HETATM   20  C   UNL     1      -7.312   5.774  66.498  1.00  0.00    -0.079 C  
HETATM   21  O   UNL     1      -6.138   7.939  67.654  1.00  0.00    -0.047 OA 
HETATM   22  C   UNL     1      -8.513   6.461  64.415  1.00  0.00     0.140 C  
HETATM   23  C   UNL     1      -6.054   6.723  64.553  1.00  0.00    -0.035 C  
BRANCH  20  24
HETATM   24  C   UNL     1      -8.461   5.681  67.482  1.00  0.00    -0.102 A  
HETATM   25  C   UNL     1      -9.548   6.554  67.324  1.00  0.00    -0.148 A  
HETATM   26  C   UNL     1     -10.664   6.465  68.158  1.00  0.00    -0.359 A  
HETATM   27  C   UNL     1     -10.722   5.486  69.147  1.00  0.00    -0.260 A  
HETATM   28  C   UNL     1      -9.668   4.601  69.303  1.00  0.00    -0.266 A  
HETATM   29  C   UNL     1      -8.545   4.705  68.491  1.00  0.00    -0.106 A  
ENDBRANCH  20  24
ENDBRANCH  15  16
ENDBRANCH  10  15
ENDBRANCH   9  10
ENDBRANCH   3   9
BRANCH   5  30
HETATM   30  C   UNL     1     -10.086  13.548  65.178  1.00  0.00    -0.278 A  
HETATM   31  C   UNL     1     -11.853  14.940  64.236  1.00  0.00    -0.312 A  
HETATM   32  C   UNL     1     -10.441  12.548  64.264  1.00  0.00    -0.404 A  
HETATM   33  C   UNL     1     -10.824  14.739  65.155  1.00  0.00    -0.417 A  
HETATM   34  C   UNL     1     -12.217  13.924  63.366  1.00  0.00     0.005 A  
HETATM   35  C   UNL     1     -11.505  12.730  63.375  1.00  0.00    -0.454 A  
ENDBRANCH   5  30
TORSDOF 8
ENDMDL
MODEL      202
REMARK 921   NORMALIZED FREE ENERGY PREDICTED BY IDOCK:   -3.17 KCAL/MOL
REMARK 922        TOTAL FREE ENERGY PREDICTED BY IDOCK:   -5.46 KCAL/MOL
REMARK 923 INTER-LIGAND FREE ENERGY PREDICTED BY IDOCK:   -4.68 KCAL/MOL
REMARK 924 INTRA-LIGAND FREE ENERGY PREDICTED BY IDOCK:   -0.77 KCAL/MOL
REMARK 927      BINDING AFFINITY PREDICTED BY RF-SCORE:    0.00 PKD
ROOT
HETATM    1  C   UNL     1     -10.622   9.143  70.832  1.00  0.00    -0.273 C  
HETATM    2  N   UNL     1     -10.130   7.991  70.074  1.00  0.00    -0.193 N  
HETATM    3  C   UNL     1      -8.794   8.087  69.659  1.00  0.00    -0.141 C  
HETATM    4  C   UNL     1     -11.049   6.791  69.930  1.00  0.00    -0.323 C  
HETATM    5  C   UNL     1     -10.431   5.445  70.448  1.00  0.00    -0.345 C  
HETATM    6  C   UNL     1     -12.382   6.977  70.717  1.00  0.00    -0.307 C  
HETATM    7  C   UNL     1     -11.506   6.649  68.456  1.00  0.00     0.025 C  
HETATM    8  O   UNL     1      -8.103   9.057  69.998  1.00  0.00    -0.102 OA 
ENDROOT
BRANCH   3   9
HETATM    9  C   UNL     1      -8.186   6.951  68.823  1.00  0.00    -0.121 C  
BRANCH   9  10
HETATM   10  N   UNL     1      -7.889   7.267  67.409  1.00  0.00    -0.110 NA 
BRANCH  10  11
HETATM   11  C   UNL     1      -8.411   8.592  67.028  1.00  0.00    -0.110 C  
BRANCH  11  12
HETATM   12  C   UNL     1      -9.749   8.550  66.256  1.00  0.00    -0.229 C  
HETATM   13  H   UNL     1     -10.857   9.791  65.194  1.00  0.00     0.000 HD 
HETATM   14  O   UNL     1     -10.034   9.816  65.669  1.00  0.00    -0.301 OA 
ENDBRANCH  11  12
ENDBRANCH  10  11
BRANCH  10  15
HETATM   15  C   UNL     1      -6.450   7.102  67.062  1.00  0.00    -0.058 C  
BRANCH  15  16
HETATM   16  C   UNL     1      -6.088   5.703  66.469  1.00  0.00    -0.030 C  
HETATM   17  C   UNL     1      -6.590   3.847  64.808  1.00  0.00    -0.043 C  
HETATM   18  C   UNL     1      -7.654   6.155  64.573  1.00  0.00    -0.094 C  
HETATM   19  N   UNL     1      -6.800   5.254  65.344  1.00  0.00    -0.059 N  
HETATM   20  C   UNL     1      -6.312   2.737  65.893  1.00  0.00    -0.024 C  
HETATM   21  O   UNL     1      -5.239   4.981  66.996  1.00  0.00    -0.007 OA 
HETATM   22  C   UNL     1      -7.792   3.349  63.971  1.00  0.00    -0.081 C  
HETATM   23  C   UNL     1      -5.369   3.856  63.862  1.00  0.00    -0.009 C  
BRANCH  20  24
HETATM   24  C   UNL     1      -7.335   2.503  66.987  1.00  0.00    -0.061 A  
HETATM   25  C   UNL     1      -6.875   2.213  68.280  1.00  0.00    -0.039 A  
HETATM   26  C   UNL     1      -7.771   2.057  69.340  1.00  0.00    -0.045 A  
HETATM   27  C   UNL     1      -9.138   2.214  69.129  1.00  0.00    -0.180 A  
HETATM   28  C   UNL     1      -9.610   2.523  67.863  1.00  0.00    -0.061 A  
HETATM   29  C   UNL     1      -8.721   2.651  66.802  1.00  0.00    -0.132 A  
ENDBRANCH  20  24
ENDBRANCH  15  16
ENDBRANCH  10  15
ENDBRANCH   9  10
ENDBRANCH   3   9
BRANCH   5  30
HETATM   30  C   UNL     1      -9.937   5.445  71.884  1.00  0.00    -0.233 A  
HETATM   31  C   UNL     1     -10.304   5.248  74.286  1.00  0.00    -0.308 A  
HETATM   32  C   UNL     1      -8.574   5.633  72.148  1.00  0.00    -0.126 A  
HETATM   33  C   UNL     1     -10.791   5.270  72.981  1.00  0.00    -0.332 A  
HETATM   34  C   UNL     1      -8.959   5.475  74.531  1.00  0.00    -0.121 A  
HETATM   35  C   UNL     1      -8.093   5.660  73.460  1.00  0.00    -0.113 A  
ENDBRANCH   5  30
TORSDOF 8
ENDMDL
MODEL      203
REMARK 921   NORMALIZED FREE ENERGY PREDICTED BY IDOCK:   -3.16 KCAL/MOL
REMARK 922        TOTAL FREE ENERGY PREDICTED BY IDOCK:   -5.45 KCAL/MOL
REMARK 923 INTER-LIGAND FREE ENERGY PREDICTED BY IDOCK:   -4.88 KCAL/MOL
REMARK 924 INTRA-LIGAND FREE ENERGY PREDICTED BY IDOCK:   -0.57 KCAL/MOL
REMARK 927      BINDING AFFINITY PREDICTED BY RF-SCORE:    0.00 PKD
ROOT
HETATM    1  C   UNL     1     -10.595  15.596  71.204  1.00  0.00     0.310 C  
HETATM    2  N   UNL     1     -10.521  15.245  69.785  1.00  0.00    -0.274 N  
HETATM    3  C   UNL     1      -9.224  15.010  69.305  1.00  0.00    -0.159 C  
HETATM    4  C   UNL     1     -11.824  15.052  69.031  1.00  0.00    -0.300 C  
HETATM    5  C   UNL     1     -11.962  13.649  68.341  1.00  0.00    -0.391 C  
HETATM    6  C   UNL     1     -13.066  15.190  69.965  1.00  0.00     0.076 C  
HETATM    7  C   UNL     1     -12.011  16.189  67.996  1.00  0.00     0.430 C  
HETATM    8  O   UNL     1      -8.258  15.035  70.078  1.00  0.00     0.049 OA 
ENDROOT
BRANCH   3   9
HETATM    9  C   UNL     1      -9.026  14.672  67.819  1.00  0.00    -0.181 C  
BRANCH   9  10
HETATM   10  N   UNL     1      -7.858  13.825  67.492  1.00  0.00    -0.172 NA 
BRANCH  10  11
HETATM   11  C   UNL     1      -6.593  14.570  67.624  1.00  0.00    -0.153 C  
BRANCH  11  12
HETATM   12  C   UNL     1      -6.644  16.012  67.072  1.00  0.00    -0.053 C  
HETATM   13  H   UNL     1      -6.361  17.842  67.753  1.00  0.00     0.000 HD 
HETATM   14  O   UNL     1      -6.330  16.955  68.093  1.00  0.00    -0.135 OA 
ENDBRANCH  11  12
ENDBRANCH  10  11
BRANCH  10  15
HETATM   15  C   UNL     1      -7.841  12.538  68.241  1.00  0.00    -0.144 C  
BRANCH  15  16
HETATM   16  C   UNL     1      -7.455  11.296  67.376  1.00  0.00    -0.116 C  
HETATM   17  C   UNL     1      -8.033   9.687  65.497  1.00  0.00    -0.115 C  
HETATM   18  C   UNL     1      -9.303  11.882  65.797  1.00  0.00    -0.155 C  
HETATM   19  N   UNL     1      -8.280  10.962  66.288  1.00  0.00    -0.162 N  
HETATM   20  C   UNL     1      -7.518   8.453  66.331  1.00  0.00    -0.083 C  
HETATM   21  O   UNL     1      -6.485  10.590  67.660  1.00  0.00    -0.057 OA 
HETATM   22  C   UNL     1      -9.297   9.209  64.744  1.00  0.00     0.021 C  
HETATM   23  C   UNL     1      -6.963   9.973  64.421  1.00  0.00    -0.129 C  
BRANCH  20  24
HETATM   24  C   UNL     1      -8.354   7.944  67.488  1.00  0.00    -0.124 A  
HETATM   25  C   UNL     1      -9.682   7.567  67.236  1.00  0.00    -0.217 A  
HETATM   26  C   UNL     1     -10.476   7.026  68.249  1.00  0.00    -0.237 A  
HETATM   27  C   UNL     1      -9.949   6.830  69.522  1.00  0.00    -0.172 A  
HETATM   28  C   UNL     1      -8.632   7.175  69.784  1.00  0.00    -0.141 A  
HETATM   29  C   UNL     1      -7.849   7.739  68.784  1.00  0.00    -0.123 A  
ENDBRANCH  20  24
ENDBRANCH  15  16
ENDBRANCH  10  15
ENDBRANCH   9  10
ENDBRANCH   3   9
BRANCH   5  30
HETATM   30  C   UNL     1     -11.798  12.440  69.245  1.00  0.00    -0.361 A  
HETATM   31  C   UNL     1     -12.431  11.095  71.178  1.00  0.00    -0.498 A  
HETATM   32  C   UNL     1     -10.817  11.484  68.951  1.00  0.00    -0.263 A  
HETATM   33  C   UNL     1     -12.588  12.229  70.383  1.00  0.00    -0.106 A  
HETATM   34  C   UNL     1     -11.429  10.180  70.895  1.00  0.00    -0.444 A  
HETATM   35  C   UNL     1     -10.627  10.371  69.776  1.00  0.00    -0.302 A  
ENDBRANCH   5  30
TORSDOF 8
ENDMDL
MODEL      204
REMARK 921   NORMALIZED FREE ENERGY PREDICTED BY IDOCK:   -2.99 KCAL/MOL
REMARK 922        TOTAL FREE ENERGY PREDICTED BY IDOCK:   -5.19 KCAL/MOL
REMARK 923 INTER-LIGAND FREE ENERGY PREDICTED BY IDOCK:   -4.62 KCAL/MOL
REMARK 924 INTRA-LIGAND FREE ENERGY PREDICTED BY IDOCK:   -0.58 KCAL/MOL
REMARK 927      BINDING AFFINITY PREDICTED BY RF-SCORE:    0.00 PKD
ROOT
HETATM    1  C   UNL     1     -10.054  17.999  66.734  1.00  0.00    -0.356 C  
HETATM    2  N   UNL     1      -9.971  16.566  67.026  1.00  0.00    -0.261 N  
HETATM    3  C   UNL     1      -9.560  15.771  65.947  1.00  0.00    -0.347 C  
HETATM    4  C   UNL     1     -10.207  16.118  68.457  1.00  0.00    -0.241 C  
HETATM    5  C   UNL     1      -9.024  15.291  69.071  1.00  0.00    -0.225 C  
HETATM    6  C   UNL     1     -10.428  17.324  69.420  1.00  0.00    -0.142 C  
HETATM    7  C   UNL     1     -11.534  15.322  68.549  1.00  0.00    -0.355 C  
HETATM    8  O   UNL     1      -9.232  16.294  64.875  1.00  0.00     0.767 OA 
ENDROOT
BRANCH   3   9
HETATM    9  C   UNL     1      -9.476  14.248  66.130  1.00  0.00    -0.222 C  
BRANCH   9  10
HETATM   10  N   UNL     1     -10.752  13.506  66.031  1.00  0.00    -0.277 NA 
BRANCH  10  11
HETATM   11  C   UNL     1     -11.276  13.508  64.654  1.00  0.00    -0.363 C  
BRANCH  11  12
HETATM   12  C   UNL     1     -12.622  14.248  64.487  1.00  0.00    -0.216 C  
HETATM   13  H   UNL     1     -13.518  15.347  63.115  1.00  0.00     0.000 HD 
HETATM   14  O   UNL     1     -12.691  14.892  63.218  1.00  0.00    -0.078 OA 
ENDBRANCH  11  12
ENDBRANCH  10  11
BRANCH  10  15
HETATM   15  C   UNL     1     -10.679  12.135  66.611  1.00  0.00    -0.246 C  
BRANCH  15  16
HETATM   16  C   UNL     1      -9.363  11.840  67.398  1.00  0.00    -0.174 C  
HETATM   17  C   UNL     1      -7.081  10.726  67.485  1.00  0.00    -0.089 C  
HETATM   18  C   UNL     1      -8.346  10.979  65.282  1.00  0.00     0.056 C  
HETATM   19  N   UNL     1      -8.327  11.163  66.732  1.00  0.00    -0.146 N  
HETATM   20  C   UNL     1      -7.309  10.268  68.976  1.00  0.00    -0.092 C  
HETATM   21  O   UNL     1      -9.243  12.141  68.587  1.00  0.00    -0.135 OA 
HETATM   22  C   UNL     1      -6.344   9.564  66.779  1.00  0.00    -0.066 C  
HETATM   23  C   UNL     1      -6.091  11.910  67.532  1.00  0.00    -0.100 C  
BRANCH  20  24
HETATM   24  C   UNL     1      -8.260   9.123  69.259  1.00  0.00    -0.118 A  
HETATM   25  C   UNL     1      -7.993   7.874  68.677  1.00  0.00    -0.124 A  
HETATM   26  C   UNL     1      -8.797   6.768  68.958  1.00  0.00    -0.129 A  
HETATM   27  C   UNL     1      -9.864   6.885  69.844  1.00  0.00    -0.172 A  
HETATM   28  C   UNL     1     -10.130   8.105  70.446  1.00  0.00    -0.196 A  
HETATM   29  C   UNL     1      -9.348   9.214  70.146  1.00  0.00    -0.235 A  
ENDBRANCH  20  24
ENDBRANCH  15  16
ENDBRANCH  10  15
ENDBRANCH   9  10
ENDBRANCH   3   9
BRANCH   5  30
HETATM   30  C   UNL     1      -7.659  15.955  69.043  1.00  0.00    -0.202 A  
HETATM   31  C   UNL     1      -5.315  16.032  68.372  1.00  0.00    -0.104 A  
HETATM   32  C   UNL     1      -7.476  17.189  69.680  1.00  0.00     0.450 A  
HETATM   33  C   UNL     1      -6.549  15.384  68.405  1.00  0.00    -0.113 A  
HETATM   34  C   UNL     1      -5.142  17.233  69.041  1.00  0.00    -0.151 A  
HETATM   35  C   UNL     1      -6.225  17.815  69.689  1.00  0.00    -0.214 A  
ENDBRANCH   5  30
TORSDOF 8
ENDMDL
MODEL      205
REMARK 921   NORMALIZED FREE ENERGY PREDICTED BY IDOCK:   -2.94 KCAL/MOL
REMARK 922        TOTAL FREE ENERGY PREDICTED BY IDOCK:   -5.12 KCAL/MOL
REMARK 923 INTER-LIGAND FREE ENERGY PREDICTED BY IDOCK:   -6.12 KCAL/MOL
REMARK 924 INTRA-LIGAND FREE ENERGY PREDICTED BY IDOCK:    1.00 KCAL/MOL
REMARK 927      BINDING AFFINITY PREDICTED BY RF-SCORE:    0.00 PKD
ROOT
HETATM    1  C   UNL     1      -6.059  17.047  66.334  1.00  0.00    -0.071 C  
HETATM    2  N   UNL     1      -7.111  16.874  67.337  1.00  0.00    -0.148 N  
HETATM    3  C   UNL     1      -8.352  16.473  66.823  1.00  0.00    -0.239 C  
HETATM    4  C   UNL     1      -6.730  17.017  68.800  1.00  0.00    -0.193 C  
HETATM    5  C   UNL     1      -7.076  15.763  69.677  1.00  0.00    -0.150 C  
HETATM    6  C   UNL     1      -5.200  17.256  68.985  1.00  0.00    -0.152 C  
HETATM    7  C   UNL     1      -7.378  18.294  69.393  1.00  0.00     0.056 C  
HETATM    8  O   UNL     1      -8.478  16.224  65.617  1.00  0.00    -0.163 OA 
ENDROOT
BRANCH   3   9
HETATM    9  C   UNL     1      -9.539  16.298  67.783  1.00  0.00    -0.223 C  
BRANCH   9  10
HETATM   10  N   UNL     1      -9.875  17.466  68.626  1.00  0.00    -0.307 NA 
BRANCH  10  11
HETATM   11  C   UNL     1     -10.741  18.421  67.912  1.00  0.00    -0.305 C  
BRANCH  11  12
HETATM   12  C   UNL     1      -9.996  19.326  66.905  1.00  0.00    -0.356 C  
HETATM   13  H   UNL     1     -10.337  20.119  65.131  1.00  0.00     0.000 HD 
HETATM   14  O   UNL     1     -10.795  19.563  65.750  1.00  0.00    -0.453 OA 
ENDBRANCH  11  12
ENDBRANCH  10  11
BRANCH  10  15
HETATM   15  C   UNL     1     -10.423  17.088  69.959  1.00  0.00     0.215 C  
BRANCH  15  16
HETATM   16  C   UNL     1     -11.600  16.064  69.902  1.00  0.00    -0.299 C  
HETATM   17  C   UNL     1     -12.985  14.272  71.053  1.00  0.00    -0.342 C  
HETATM   18  C   UNL     1     -11.420  15.791  72.380  1.00  0.00    -0.286 C  
HETATM   19  N   UNL     1     -11.943  15.378  71.080  1.00  0.00    -0.323 N  
HETATM   20  C   UNL     1     -13.008  13.386  69.750  1.00  0.00     0.712 C  
HETATM   21  O   UNL     1     -12.188  15.817  68.846  1.00  0.00    -0.258 OA 
HETATM   22  C   UNL     1     -12.837  13.295  72.243  1.00  0.00    -0.259 C  
HETATM   23  C   UNL     1     -14.386  14.909  71.181  1.00  0.00    -0.331 C  
BRANCH  20  24
HETATM   24  C   UNL     1     -11.753  12.640  69.343  1.00  0.00    -0.387 A  
HETATM   25  C   UNL     1     -10.830  13.291  68.511  1.00  0.00    -0.286 A  
HETATM   26  C   UNL     1      -9.625  12.677  68.162  1.00  0.00    -0.219 A  
HETATM   27  C   UNL     1      -9.314  11.414  68.658  1.00  0.00    -0.155 A  
HETATM   28  C   UNL     1     -10.203  10.765  69.498  1.00  0.00    -0.146 A  
HETATM   29  C   UNL     1     -11.415  11.363  69.825  1.00  0.00    -0.376 A  
ENDBRANCH  20  24
ENDBRANCH  15  16
ENDBRANCH  10  15
ENDBRANCH   9  10
ENDBRANCH   3   9
BRANCH   5  30
HETATM   30  C   UNL     1      -6.503  14.438  69.205  1.00  0.00    -0.117 A  
HETATM   31  C   UNL     1      -5.939  12.839  67.454  1.00  0.00    -0.110 A  
HETATM   32  C   UNL     1      -5.957  13.548  70.139  1.00  0.00    -0.145 A  
HETATM   33  C   UNL     1      -6.497  14.050  67.859  1.00  0.00    -0.170 A  
HETATM   34  C   UNL     1      -5.439  11.953  68.395  1.00  0.00    -0.049 A  
HETATM   35  C   UNL     1      -5.442  12.312  69.738  1.00  0.00    -0.091 A  
ENDBRANCH   5  30
TORSDOF 8
ENDMDL
MODEL      206
REMARK 921   NORMALIZED FREE ENERGY PREDICTED BY IDOCK:   -2.81 KCAL/MOL
REMARK 922        TOTAL FREE ENERGY PREDICTED BY IDOCK:   -4.93 KCAL/MOL
REMARK 923 INTER-LIGAND FREE ENERGY PREDICTED BY IDOCK:   -4.45 KCAL/MOL
REMARK 924 INTRA-LIGAND FREE ENERGY PREDICTED BY IDOCK:   -0.48 KCAL/MOL
REMARK 927      BINDING AFFINITY PREDICTED BY RF-SCORE:    0.00 PKD
ROOT
HETATM    1  C   UNL     1      -8.030  10.328  65.310  1.00  0.00    -0.148 C  
HETATM    2  N   UNL     1      -8.656  10.680  66.587  1.00  0.00    -0.135 N  
HETATM    3  C   UNL     1      -9.906  11.303  66.475  1.00  0.00    -0.208 C  
HETATM    4  C   UNL     1      -7.965  10.235  67.863  1.00  0.00    -0.102 C  
HETATM    5  C   UNL     1      -8.867   9.364  68.808  1.00  0.00    -0.132 C  
HETATM    6  C   UNL     1      -6.698   9.373  67.573  1.00  0.00    -0.068 C  
HETATM    7  C   UNL     1      -7.410  11.466  68.622  1.00  0.00    -0.104 C  
HETATM    8  O   UNL     1     -10.434  11.452  65.365  1.00  0.00    -0.264 OA 
ENDROOT
BRANCH   3   9
HETATM    9  C   UNL     1     -10.635  11.753  67.751  1.00  0.00    -0.200 C  
BRANCH   9  10
HETATM   10  N   UNL     1     -10.915  13.200  67.869  1.00  0.00    -0.241 NA 
BRANCH  10  11
HETATM   11  C   UNL     1     -12.133  13.456  68.658  1.00  0.00    -0.246 C  
BRANCH  11  12
HETATM   12  C   UNL     1     -12.078  12.915  70.105  1.00  0.00    -0.302 C  
HETATM   13  H   UNL     1     -12.544  13.550  71.914  1.00  0.00     0.000 HD 
HETATM   14  O   UNL     1     -12.578  13.882  71.025  1.00  0.00    -0.333 OA 
ENDBRANCH  11  12
ENDBRANCH  10  11
BRANCH  10  15
HETATM   15  C   UNL     1      -9.746  13.984  68.357  1.00  0.00    -0.223 C  
BRANCH  15  16
HETATM   16  C   UNL     1      -9.982  15.527  68.404  1.00  0.00    -0.214 C  
HETATM   17  C   UNL     1     -10.362  17.711  67.163  1.00  0.00    -0.343 C  
HETATM   18  C   UNL     1     -10.598  15.460  65.983  1.00  0.00    -0.322 C  
HETATM   19  N   UNL     1     -10.261  16.194  67.200  1.00  0.00    -0.275 N  
HETATM   20  C   UNL     1      -9.385  18.485  68.128  1.00  0.00    -0.336 C  
HETATM   21  O   UNL     1      -9.877  16.162  69.456  1.00  0.00    -0.246 OA 
HETATM   22  C   UNL     1     -10.120  18.283  65.746  1.00  0.00    -0.022 C  
HETATM   23  C   UNL     1     -11.796  18.121  67.563  1.00  0.00     2.132 C  
BRANCH  20  24
HETATM   24  C   UNL     1      -7.891  18.269  67.993  1.00  0.00    -0.274 A  
HETATM   25  C   UNL     1      -7.099  18.331  69.150  1.00  0.00    -0.200 A  
HETATM   26  C   UNL     1      -5.729  18.072  69.093  1.00  0.00    -0.214 A  
HETATM   27  C   UNL     1      -5.132  17.723  67.885  1.00  0.00    -0.137 A  
HETATM   28  C   UNL     1      -5.901  17.635  66.736  1.00  0.00    -0.203 A  
HETATM   29  C   UNL     1      -7.261  17.919  66.785  1.00  0.00    -0.235 A  
ENDBRANCH  20  24
ENDBRANCH  15  16
ENDBRANCH  10  15
ENDBRANCH   9  10
ENDBRANCH   3   9
BRANCH   5  30
HETATM   30  C   UNL     1      -9.481   8.122  68.187  1.00  0.00    -0.150 A  
HETATM   31  C   UNL     1     -11.355   6.904  67.213  1.00  0.00    -0.013 A  
HETATM   32  C   UNL     1      -8.688   6.985  67.984  1.00  0.00    -0.126 A  
HETATM   33  C   UNL     1     -10.827   8.050  67.805  1.00  0.00    -0.081 A  
HETATM   34  C   UNL     1     -10.566   5.775  67.056  1.00  0.00    -0.373 A  
HETATM   35  C   UNL     1      -9.230   5.819  67.435  1.00  0.00    -0.109 A  
ENDBRANCH   5  30
TORSDOF 8
ENDMDL
MODEL      207
REMARK 921   NORMALIZED FREE ENERGY PREDICTED BY IDOCK:   -2.80 KCAL/MOL
REMARK 922        TOTAL FREE ENERGY PREDICTED BY IDOCK:   -4.91 KCAL/MOL
REMARK 923 INTER-LIGAND FREE ENERGY PREDICTED BY IDOCK:   -4.61 KCAL/MOL
REMARK 924 INTRA-LIGAND FREE ENERGY PREDICTED BY IDOCK:   -0.30 KCAL/MOL
REMARK 927      BINDING AFFINITY PREDICTED BY RF-SCORE:    0.00 PKD
ROOT
HETATM    1  C   UNL     1      -5.800  14.972  67.206  1.00  0.00     0.424 C  
HETATM    2  N   UNL     1      -7.008  14.579  67.936  1.00  0.00    -0.144 N  
HETATM    3  C   UNL     1      -8.195  15.151  67.457  1.00  0.00    -0.178 C  
HETATM    4  C   UNL     1      -6.871  13.528  69.023  1.00  0.00    -0.107 C  
HETATM    5  C   UNL     1      -7.797  12.277  68.823  1.00  0.00     0.006 C  
HETATM    6  C   UNL     1      -5.418  12.971  69.118  1.00  0.00    -0.071 C  
HETATM    7  C   UNL     1      -7.113  14.170  70.413  1.00  0.00     0.544 C  
HETATM    8  O   UNL     1      -8.182  15.864  66.446  1.00  0.00    -0.283 OA 
ENDROOT
BRANCH   3   9
HETATM    9  C   UNL     1      -9.518  14.839  68.174  1.00  0.00    -0.208 C  
BRANCH   9  10
HETATM   10  N   UNL     1     -10.005  15.864  69.121  1.00  0.00    -0.229 NA 
BRANCH  10  11
HETATM   11  C   UNL     1      -9.100  17.026  69.177  1.00  0.00    -0.058 C  
BRANCH  11  12
HETATM   12  C   UNL     1      -9.782  18.378  68.868  1.00  0.00    -0.291 C  
HETATM   13  H   UNL     1      -9.821  19.683  67.388  1.00  0.00     0.000 HD 
HETATM   14  O   UNL     1      -9.402  18.852  67.579  1.00  0.00    -0.290 OA 
ENDBRANCH  11  12
ENDBRANCH  10  11
BRANCH  10  15
HETATM   15  C   UNL     1     -11.422  16.258  68.882  1.00  0.00    -0.282 C  
BRANCH  15  16
HETATM   16  C   UNL     1     -12.442  15.626  69.881  1.00  0.00    -0.161 C  
HETATM   17  C   UNL     1     -13.000  14.887  72.247  1.00  0.00    -0.341 C  
HETATM   18  C   UNL     1     -10.996  16.395  71.770  1.00  0.00     0.842 C  
HETATM   19  N   UNL     1     -12.112  15.610  71.247  1.00  0.00    -0.373 N  
HETATM   20  C   UNL     1     -13.684  13.566  71.723  1.00  0.00    -0.379 C  
HETATM   21  O   UNL     1     -13.489  15.106  69.489  1.00  0.00     0.928 OA 
HETATM   22  C   UNL     1     -12.240  14.503  73.538  1.00  0.00    -0.177 C  
HETATM   23  C   UNL     1     -14.140  15.837  72.674  1.00  0.00    -0.482 C  
BRANCH  20  24
HETATM   24  C   UNL     1     -12.812  12.439  71.208  1.00  0.00    -0.337 A  
HETATM   25  C   UNL     1     -12.928  11.177  71.811  1.00  0.00    -0.526 A  
HETATM   26  C   UNL     1     -12.201  10.086  71.332  1.00  0.00    -0.510 A  
HETATM   27  C   UNL     1     -11.365  10.233  70.228  1.00  0.00    -0.398 A  
HETATM   28  C   UNL     1     -11.254  11.466  69.606  1.00  0.00    -0.301 A  
HETATM   29  C   UNL     1     -11.957  12.559  70.099  1.00  0.00    -0.377 A  
ENDBRANCH  20  24
ENDBRANCH  15  16
ENDBRANCH  10  15
ENDBRANCH   9  10
ENDBRANCH   3   9
BRANCH   5  30
HETATM   30  C   UNL     1      -7.663  11.552  67.496  1.00  0.00    -0.132 A  
HETATM   31  C   UNL     1      -6.343  10.441  65.773  1.00  0.00    -0.123 A  
HETATM   32  C   UNL     1      -8.808  11.288  66.733  1.00  0.00    -0.170 A  
HETATM   33  C   UNL     1      -6.430  11.130  66.982  1.00  0.00    -0.107 A  
HETATM   34  C   UNL     1      -7.481  10.224  65.012  1.00  0.00    -0.120 A  
HETATM   35  C   UNL     1      -8.715  10.641  65.496  1.00  0.00    -0.199 A  
ENDBRANCH   5  30
TORSDOF 8
ENDMDL
MODEL      208
REMARK 921   NORMALIZED FREE ENERGY PREDICTED BY IDOCK:   -2.80 KCAL/MOL
REMARK 922        TOTAL FREE ENERGY PREDICTED BY IDOCK:   -4.91 KCAL/MOL
REMARK 923 INTER-LIGAND FREE ENERGY PREDICTED BY IDOCK:   -5.50 KCAL/MOL
REMARK 924 INTRA-LIGAND FREE ENERGY PREDICTED BY IDOCK:    0.59 KCAL/MOL
REMARK 927      BINDING AFFINITY PREDICTED BY RF-SCORE:    0.00 PKD
ROOT
HETATM    1  C   UNL     1     -11.186  10.351  66.801  1.00  0.00     0.210 C  
HETATM    2  N   UNL     1     -10.284  11.482  67.028  1.00  0.00    -0.209 N  
HETATM    3  C   UNL     1     -10.509  12.589  66.197  1.00  0.00    -0.249 C  
HETATM    4  C   UNL     1      -9.310  11.392  68.189  1.00  0.00    -0.181 C  
HETATM    5  C   UNL     1      -9.428  12.574  69.216  1.00  0.00     0.827 C  
HETATM    6  C   UNL     1      -9.508  10.087  69.019  1.00  0.00    -0.190 C  
HETATM    7  C   UNL     1      -7.860  11.276  67.656  1.00  0.00    -0.116 C  
HETATM    8  O   UNL     1     -11.457  12.591  65.402  1.00  0.00    -0.316 OA 
ENDROOT
BRANCH   3   9
HETATM    9  C   UNL     1      -9.594  13.817  66.322  1.00  0.00    -0.249 C  
BRANCH   9  10
HETATM   10  N   UNL     1     -10.146  15.096  65.825  1.00  0.00    -0.320 NA 
BRANCH  10  11
HETATM   11  C   UNL     1     -10.705  14.955  64.469  1.00  0.00    -0.070 C  
BRANCH  11  12
HETATM   12  C   UNL     1     -12.214  15.273  64.367  1.00  0.00    -0.210 C  
HETATM   13  H   UNL     1     -13.770  14.632  63.337  1.00  0.00     0.000 HD 
HETATM   14  O   UNL     1     -12.843  14.437  63.399  1.00  0.00    -0.532 OA 
ENDBRANCH  11  12
ENDBRANCH  10  11
BRANCH  10  15
HETATM   15  C   UNL     1     -11.107  15.727  66.773  1.00  0.00    -0.116 C  
BRANCH  15  16
HETATM   16  C   UNL     1     -10.501  16.892  67.620  1.00  0.00    -0.332 C  
HETATM   17  C   UNL     1      -9.463  19.209  67.708  1.00  0.00    -0.303 C  
HETATM   18  C   UNL     1     -10.643  18.367  65.607  1.00  0.00    -0.103 C  
HETATM   19  N   UNL     1     -10.181  18.093  66.965  1.00  0.00    -0.348 N  
HETATM   20  C   UNL     1      -8.405  18.745  68.780  1.00  0.00    -0.322 C  
HETATM   21  O   UNL     1     -10.258  16.755  68.821  1.00  0.00    -0.261 OA 
HETATM   22  C   UNL     1      -8.723  20.171  66.750  1.00  0.00    -0.390 C  
HETATM   23  C   UNL     1     -10.512  20.057  68.459  1.00  0.00    -0.315 C  
BRANCH  20  24
HETATM   24  C   UNL     1      -7.248  17.868  68.343  1.00  0.00    -0.256 A  
HETATM   25  C   UNL     1      -6.262  17.545  69.287  1.00  0.00    -0.239 A  
HETATM   26  C   UNL     1      -5.212  16.686  68.959  1.00  0.00    -0.120 A  
HETATM   27  C   UNL     1      -5.145  16.115  67.690  1.00  0.00    -0.147 A  
HETATM   28  C   UNL     1      -6.123  16.404  66.752  1.00  0.00     0.073 A  
HETATM   29  C   UNL     1      -7.153  17.282  67.069  1.00  0.00    -0.221 A  
ENDBRANCH  20  24
ENDBRANCH  15  16
ENDBRANCH  10  15
ENDBRANCH   9  10
ENDBRANCH   3   9
BRANCH   5  30
HETATM   30  C   UNL     1     -10.803  12.802  69.817  1.00  0.00     0.433 A  
HETATM   31  C   UNL     1     -12.614  14.258  70.558  1.00  0.00    -0.418 A  
HETATM   32  C   UNL     1     -11.588  11.703  70.188  1.00  0.00    -0.303 A  
HETATM   33  C   UNL     1     -11.336  14.080  70.029  1.00  0.00    -0.163 A  
HETATM   34  C   UNL     1     -13.361  13.159  70.956  1.00  0.00     0.094 A  
HETATM   35  C   UNL     1     -12.850  11.881  70.763  1.00  0.00    -0.138 A  
ENDBRANCH   5  30
TORSDOF 8
ENDMDL
MODEL      209
REMARK 921   NORMALIZED FREE ENERGY PREDICTED BY IDOCK:   -2.79 KCAL/MOL
REMARK 922        TOTAL FREE ENERGY PREDICTED BY IDOCK:   -4.90 KCAL/MOL
REMARK 923 INTER-LIGAND FREE ENERGY PREDICTED BY IDOCK:   -4.90 KCAL/MOL
REMARK 924 INTRA-LIGAND FREE ENERGY PREDICTED BY IDOCK:   -0.00 KCAL/MOL
REMARK 927      BINDING AFFINITY PREDICTED BY RF-SCORE:    0.00 PKD
ROOT
HETATM    1  C   UNL     1      -7.562   9.546  70.726  1.00  0.00    -0.071 C  
HETATM    2  N   UNL     1      -8.255   8.834  69.649  1.00  0.00    -0.110 N  
HETATM    3  C   UNL     1      -8.153   7.437  69.708  1.00  0.00    -0.127 C  
HETATM    4  C   UNL     1      -9.093   9.651  68.682  1.00  0.00    -0.132 C  
HETATM    5  C   UNL     1     -10.591   9.193  68.590  1.00  0.00    -0.207 C  
HETATM    6  C   UNL     1      -9.133  11.160  69.072  1.00  0.00    -0.036 C  
HETATM    7  C   UNL     1      -8.434   9.648  67.279  1.00  0.00    -0.132 C  
HETATM    8  O   UNL     1      -7.576   6.892  70.658  1.00  0.00    -0.090 OA 
ENDROOT
BRANCH   3   9
HETATM    9  C   UNL     1      -8.809   6.591  68.606  1.00  0.00    -0.121 C  
BRANCH   9  10
HETATM   10  N   UNL     1      -8.924   5.142  68.876  1.00  0.00    -0.099 NA 
BRANCH  10  11
HETATM   11  C   UNL     1      -8.877   4.853  70.320  1.00  0.00    -0.103 C  
BRANCH  11  12
HETATM   12  C   UNL     1      -8.920   3.348  70.669  1.00  0.00    -0.097 C  
HETATM   13  H   UNL     1     -10.060   2.130  71.723  1.00  0.00     0.000 HD 
HETATM   14  O   UNL     1     -10.034   3.056  71.509  1.00  0.00    -0.155 OA 
ENDBRANCH  11  12
ENDBRANCH  10  11
BRANCH  10  15
HETATM   15  C   UNL     1     -10.098   4.513  68.207  1.00  0.00     0.040 C  
BRANCH  15  16
HETATM   16  C   UNL     1      -9.983   4.430  66.652  1.00  0.00    -0.210 C  
HETATM   17  C   UNL     1      -9.019   3.289  64.598  1.00  0.00    -0.129 C  
HETATM   18  C   UNL     1      -8.905   2.188  66.898  1.00  0.00    -0.133 C  
HETATM   19  N   UNL     1      -9.282   3.348  66.094  1.00  0.00    -0.163 N  
HETATM   20  C   UNL     1      -8.753   4.674  63.895  1.00  0.00    -0.140 C  
HETATM   21  O   UNL     1     -10.447   5.311  65.925  1.00  0.00    -0.145 OA 
HETATM   22  C   UNL     1      -7.815   2.382  64.247  1.00  0.00    -0.076 C  
HETATM   23  C   UNL     1     -10.252   2.669  63.904  1.00  0.00    -0.124 C  
BRANCH  20  24
HETATM   24  C   UNL     1      -7.604   5.537  64.377  1.00  0.00    -0.074 A  
HETATM   25  C   UNL     1      -6.300   5.029  64.281  1.00  0.00    -0.033 A  
HETATM   26  C   UNL     1      -5.200   5.807  64.646  1.00  0.00    -0.010 A  
HETATM   27  C   UNL     1      -5.384   7.114  65.090  1.00  0.00    -0.028 A  
HETATM   28  C   UNL     1      -6.663   7.642  65.170  1.00  0.00    -0.047 A  
HETATM   29  C   UNL     1      -7.761   6.859  64.833  1.00  0.00    -0.113 A  
ENDBRANCH  20  24
ENDBRANCH  15  16
ENDBRANCH  10  15
ENDBRANCH   9  10
ENDBRANCH   3   9
BRANCH   5  30
HETATM   30  C   UNL     1     -11.358   9.147  69.899  1.00  0.00    -0.047 A  
HETATM   31  C   UNL     1     -12.686  10.197  71.654  1.00  0.00    -0.549 A  
HETATM   32  C   UNL     1     -11.472   7.935  70.593  1.00  0.00    -0.247 A  
HETATM   33  C   UNL     1     -11.965  10.277  70.464  1.00  0.00    -0.415 A  
HETATM   34  C   UNL     1     -12.755   8.998  72.348  1.00  0.00    -0.433 A  
HETATM   35  C   UNL     1     -12.153   7.866  71.812  1.00  0.00    -0.340 A  
ENDBRANCH   5  30
TORSDOF 8
ENDMDL
MODEL      210
REMARK 921   NORMALIZED FREE ENERGY PREDICTED BY IDOCK:   -2.76 KCAL/MOL
REMARK 922        TOTAL FREE ENERGY PREDICTED BY IDOCK:   -4.86 KCAL/MOL
REMARK 923 INTER-LIGAND FREE ENERGY PREDICTED BY IDOCK:   -4.45 KCAL/MOL
REMARK 924 INTRA-LIGAND FREE ENERGY PREDICTED BY IDOCK:   -0.41 KCAL/MOL
REMARK 927      BINDING AFFINITY PREDICTED BY RF-SCORE:    0.00 PKD
ROOT
HETATM    1  C   UNL     1      -9.093   7.286  65.020  1.00  0.00     0.678 C  
HETATM    2  N   UNL     1      -8.159   8.386  65.269  1.00  0.00    -0.131 N  
HETATM    3  C   UNL     1      -8.766   9.622  65.533  1.00  0.00    -0.153 C  
HETATM    4  C   UNL     1      -6.679   8.059  65.339  1.00  0.00    -0.055 C  
HETATM    5  C   UNL     1      -5.989   8.500  66.678  1.00  0.00    -0.053 C  
HETATM    6  C   UNL     1      -6.411   6.528  65.207  1.00  0.00    -0.034 C  
HETATM    7  C   UNL     1      -5.943   8.671  64.120  1.00  0.00    -0.067 C  
HETATM    8  O   UNL     1      -9.997   9.710  65.615  1.00  0.00    -0.305 OA 
ENDROOT
BRANCH   3   9
HETATM    9  C   UNL     1      -7.879  10.855  65.771  1.00  0.00    -0.057 C  
BRANCH   9  10
HETATM   10  N   UNL     1      -8.277  11.740  66.886  1.00  0.00    -0.168 NA 
BRANCH  10  11
HETATM   11  C   UNL     1      -7.130  12.505  67.408  1.00  0.00    -0.146 C  
BRANCH  11  12
HETATM   12  C   UNL     1      -6.216  11.706  68.364  1.00  0.00    -0.050 C  
HETATM   13  H   UNL     1      -6.202  11.185  70.268  1.00  0.00     0.000 HD 
HETATM   14  O   UNL     1      -6.764  11.676  69.680  1.00  0.00    -0.119 OA 
ENDBRANCH  11  12
ENDBRANCH  10  11
BRANCH  10  15
HETATM   15  C   UNL     1      -9.439  12.613  66.556  1.00  0.00    -0.247 C  
BRANCH  15  16
HETATM   16  C   UNL     1      -9.760  13.692  67.638  1.00  0.00    -0.228 C  
HETATM   17  C   UNL     1     -10.536  16.044  68.205  1.00  0.00    -0.269 C  
HETATM   18  C   UNL     1     -10.869  15.068  65.870  1.00  0.00    -0.337 C  
HETATM   19  N   UNL     1     -10.330  14.905  67.219  1.00  0.00    -0.250 N  
HETATM   20  C   UNL     1      -9.429  16.191  69.319  1.00  0.00    -0.224 C  
HETATM   21  O   UNL     1      -9.477  13.516  68.826  1.00  0.00    -0.104 OA 
HETATM   22  C   UNL     1     -10.637  17.419  67.505  1.00  0.00    -0.330 C  
HETATM   23  C   UNL     1     -11.877  15.825  68.940  1.00  0.00    -0.354 C  
BRANCH  20  24
HETATM   24  C   UNL     1      -7.987  16.397  68.902  1.00  0.00    -0.236 A  
HETATM   25  C   UNL     1      -6.992  15.649  69.548  1.00  0.00    -0.193 A  
HETATM   26  C   UNL     1      -5.655  15.748  69.157  1.00  0.00    -0.103 A  
HETATM   27  C   UNL     1      -5.296  16.578  68.098  1.00  0.00    -0.110 A  
HETATM   28  C   UNL     1      -6.268  17.308  67.434  1.00  0.00    -0.168 A  
HETATM   29  C   UNL     1      -7.595  17.231  67.840  1.00  0.00    -0.191 A  
ENDBRANCH  20  24
ENDBRANCH  15  16
ENDBRANCH  10  15
ENDBRANCH   9  10
ENDBRANCH   3   9
BRANCH   5  30
HETATM   30  C   UNL     1      -6.613   7.971  67.957  1.00  0.00    -0.057 A  
HETATM   31  C   UNL     1      -8.245   8.089  69.765  1.00  0.00    -0.120 A  
HETATM   32  C   UNL     1      -6.120   6.793  68.533  1.00  0.00    -0.026 A  
HETATM   33  C   UNL     1      -7.675   8.615  68.607  1.00  0.00    -0.099 A  
HETATM   34  C   UNL     1      -7.718   6.945  70.344  1.00  0.00    -0.100 A  
HETATM   35  C   UNL     1      -6.659   6.293  69.722  1.00  0.00    -0.044 A  
ENDBRANCH   5  30
TORSDOF 8
ENDMDL
MODEL      211
REMARK 921   NORMALIZED FREE ENERGY PREDICTED BY IDOCK:   -2.73 KCAL/MOL
REMARK 922        TOTAL FREE ENERGY PREDICTED BY IDOCK:   -4.81 KCAL/MOL
REMARK 923 INTER-LIGAND FREE ENERGY PREDICTED BY IDOCK:   -5.48 KCAL/MOL
REMARK 924 INTRA-LIGAND FREE ENERGY PREDICTED BY IDOCK:    0.67 KCAL/MOL
REMARK 927      BINDING AFFINITY PREDICTED BY RF-SCORE:    0.00 PKD
ROOT
HETATM    1  C   UNL     1      -9.328  13.608  65.166  1.00  0.00     0.724 C  
HETATM    2  N   UNL     1     -10.252  13.754  66.293  1.00  0.00    -0.290 N  
HETATM    3  C   UNL     1      -9.855  13.098  67.466  1.00  0.00    -0.216 C  
HETATM    4  C   UNL     1     -11.444  14.678  66.119  1.00  0.00    -0.339 C  
HETATM    5  C   UNL     1     -11.534  15.816  67.196  1.00  0.00     0.080 C  
HETATM    6  C   UNL     1     -11.428  15.401  64.737  1.00  0.00    -0.337 C  
HETATM    7  C   UNL     1     -12.755  13.851  66.089  1.00  0.00    -0.336 C  
HETATM    8  O   UNL     1      -8.763  12.517  67.518  1.00  0.00    -0.163 OA 
ENDROOT
BRANCH   3   9
HETATM    9  C   UNL     1     -10.769  13.152  68.700  1.00  0.00    -0.250 C  
BRANCH   9  10
HETATM   10  N   UNL     1     -10.945  11.883  69.439  1.00  0.00    -0.153 NA 
BRANCH  10  11
HETATM   11  C   UNL     1     -12.219  11.226  69.095  1.00  0.00    -0.183 C  
BRANCH  11  12
HETATM   12  C   UNL     1     -13.153  10.981  70.302  1.00  0.00     0.147 C  
HETATM   13  H   UNL     1     -13.082  11.188  72.263  1.00  0.00     0.000 HD 
HETATM   14  O   UNL     1     -12.508  11.339  71.521  1.00  0.00    -0.312 OA 
ENDBRANCH  11  12
ENDBRANCH  10  11
BRANCH  10  15
HETATM   15  C   UNL     1      -9.779  10.964  69.310  1.00  0.00    -0.064 C  
BRANCH  15  16
HETATM   16  C   UNL     1     -10.057   9.691  68.448  1.00  0.00    -0.176 C  
HETATM   17  C   UNL     1      -9.620   7.230  67.996  1.00  0.00    -0.139 C  
HETATM   18  C   UNL     1      -8.917   8.316  70.197  1.00  0.00    -0.142 C  
HETATM   19  N   UNL     1      -9.500   8.471  68.867  1.00  0.00    -0.146 N  
HETATM   20  C   UNL     1      -9.559   7.477  66.441  1.00  0.00    -0.194 C  
HETATM   21  O   UNL     1     -10.701   9.753  67.399  1.00  0.00    -0.268 OA 
HETATM   22  C   UNL     1      -8.528   6.181  68.315  1.00  0.00    -0.113 C  
HETATM   23  C   UNL     1     -10.977   6.553  68.285  1.00  0.00    -0.362 C  
BRANCH  20  24
HETATM   24  C   UNL     1      -8.340   8.156  65.849  1.00  0.00    -0.134 A  
HETATM   25  C   UNL     1      -8.344   8.459  64.479  1.00  0.00    -0.125 A  
HETATM   26  C   UNL     1      -7.277   9.145  63.896  1.00  0.00    -0.096 A  
HETATM   27  C   UNL     1      -6.202   9.561  64.676  1.00  0.00    -0.082 A  
HETATM   28  C   UNL     1      -6.190   9.290  66.035  1.00  0.00    -0.067 A  
HETATM   29  C   UNL     1      -7.239   8.583  66.612  1.00  0.00    -0.074 A  
ENDBRANCH  20  24
ENDBRANCH  15  16
ENDBRANCH  10  15
ENDBRANCH   9  10
ENDBRANCH   3   9
BRANCH   5  30
HETATM   30  C   UNL     1     -10.310  16.705  67.333  1.00  0.00    -0.292 A  
HETATM   31  C   UNL     1      -8.988  18.657  66.714  1.00  0.00    -0.297 A  
HETATM   32  C   UNL     1      -9.325  16.386  68.277  1.00  0.00    -0.210 A  
HETATM   33  C   UNL     1     -10.108  17.846  66.545  1.00  0.00    -0.370 A  
HETATM   34  C   UNL     1      -8.004  18.305  67.624  1.00  0.00    -0.245 A  
HETATM   35  C   UNL     1      -8.177  17.173  68.411  1.00  0.00    -0.253 A  
ENDBRANCH   5  30
TORSDOF 8
ENDMDL
MODEL      212
REMARK 921   NORMALIZED FREE ENERGY PREDICTED BY IDOCK:   -2.70 KCAL/MOL
REMARK 922        TOTAL FREE ENERGY PREDICTED BY IDOCK:   -4.76 KCAL/MOL
REMARK 923 INTER-LIGAND FREE ENERGY PREDICTED BY IDOCK:   -4.40 KCAL/MOL
REMARK 924 INTRA-LIGAND FREE ENERGY PREDICTED BY IDOCK:   -0.36 KCAL/MOL
REMARK 927      BINDING AFFINITY PREDICTED BY RF-SCORE:    0.00 PKD
ROOT
HETATM    1  C   UNL     1     -10.577  11.157  65.621  1.00  0.00    -0.223 C  
HETATM    2  N   UNL     1     -10.659  11.080  67.082  1.00  0.00    -0.236 N  
HETATM    3  C   UNL     1     -10.874   9.791  67.590  1.00  0.00    -0.239 C  
HETATM    4  C   UNL     1     -10.384  12.344  67.877  1.00  0.00    -0.210 C  
HETATM    5  C   UNL     1      -9.234  12.196  68.935  1.00  0.00     0.217 C  
HETATM    6  C   UNL     1      -9.966  13.533  66.959  1.00  0.00    -0.247 C  
HETATM    7  C   UNL     1     -11.687  12.838  68.553  1.00  0.00    -0.371 C  
HETATM    8  O   UNL     1     -10.909   8.817  66.828  1.00  0.00    -0.136 OA 
ENDROOT
BRANCH   3   9
HETATM    9  C   UNL     1     -11.016   9.599  69.108  1.00  0.00    -0.151 C  
BRANCH   9  10
HETATM   10  N   UNL     1     -10.117   8.601  69.727  1.00  0.00    -0.194 NA 
BRANCH  10  11
HETATM   11  C   UNL     1     -10.505   8.311  71.119  1.00  0.00    -0.209 C  
BRANCH  11  12
HETATM   12  C   UNL     1      -9.432   8.683  72.168  1.00  0.00    -0.303 C  
HETATM   13  H   UNL     1      -7.536   9.232  72.179  1.00  0.00     0.000 HD 
HETATM   14  O   UNL     1      -8.196   9.003  71.534  1.00  0.00    -0.303 OA 
ENDBRANCH  11  12
ENDBRANCH  10  11
BRANCH  10  15
HETATM   15  C   UNL     1      -9.965   7.365  68.910  1.00  0.00    -0.169 C  
BRANCH  15  16
HETATM   16  C   UNL     1      -8.613   6.613  69.128  1.00  0.00    -0.130 C  
HETATM   17  C   UNL     1      -6.353   5.890  68.222  1.00  0.00    -0.044 C  
HETATM   18  C   UNL     1      -7.733   7.690  67.051  1.00  0.00    -0.108 C  
HETATM   19  N   UNL     1      -7.630   6.709  68.129  1.00  0.00    -0.102 N  
HETATM   20  C   UNL     1      -6.507   4.453  68.852  1.00  0.00    -0.040 C  
HETATM   21  O   UNL     1      -8.422   5.909  70.122  1.00  0.00    -0.122 OA 
HETATM   22  C   UNL     1      -5.679   5.692  66.843  1.00  0.00    -0.017 C  
HETATM   23  C   UNL     1      -5.339   6.653  69.101  1.00  0.00    -0.013 C  
BRANCH  20  24
HETATM   24  C   UNL     1      -7.464   3.466  68.213  1.00  0.00    -0.053 A  
HETATM   25  C   UNL     1      -8.296   2.707  69.049  1.00  0.00    -0.084 A  
HETATM   26  C   UNL     1      -9.244   1.834  68.513  1.00  0.00    -0.223 A  
HETATM   27  C   UNL     1      -9.393   1.725  67.133  1.00  0.00    -0.011 A  
HETATM   28  C   UNL     1      -8.595   2.483  66.291  1.00  0.00    -0.110 A  
HETATM   29  C   UNL     1      -7.632   3.332  66.824  1.00  0.00    -0.076 A  
ENDBRANCH  20  24
ENDBRANCH  15  16
ENDBRANCH  10  15
ENDBRANCH   9  10
ENDBRANCH   3   9
BRANCH   5  30
HETATM   30  C   UNL     1      -7.895  11.714  68.405  1.00  0.00    -0.137 A  
HETATM   31  C   UNL     1      -5.911  10.302  68.532  1.00  0.00    -0.040 A  
HETATM   32  C   UNL     1      -7.388  12.252  67.215  1.00  0.00    -0.140 A  
HETATM   33  C   UNL     1      -7.124  10.744  69.059  1.00  0.00    -0.091 A  
HETATM   34  C   UNL     1      -5.405  10.874  67.375  1.00  0.00    -0.041 A  
HETATM   35  C   UNL     1      -6.148  11.844  66.713  1.00  0.00    -0.046 A  
ENDBRANCH   5  30
TORSDOF 8
ENDMDL
MODEL      213
REMARK 921   NORMALIZED FREE ENERGY PREDICTED BY IDOCK:   -2.28 KCAL/MOL
REMARK 922        TOTAL FREE ENERGY PREDICTED BY IDOCK:   -4.15 KCAL/MOL
REMARK 923 INTER-LIGAND FREE ENERGY PREDICTED BY IDOCK:   -3.62 KCAL/MOL
REMARK 924 INTRA-LIGAND FREE ENERGY PREDICTED BY IDOCK:   -0.54 KCAL/MOL
REMARK 927      BINDING AFFINITY PREDICTED BY RF-SCORE:    0.00 PKD
ROOT
HETATM    1  C   UNL     1     -10.297   4.709  69.731  1.00  0.00     0.090 C  
HETATM    2  N   UNL     1      -9.220   5.608  69.309  1.00  0.00    -0.115 N  
HETATM    3  C   UNL     1      -8.678   6.395  70.334  1.00  0.00    -0.147 C  
HETATM    4  C   UNL     1      -8.732   5.507  67.875  1.00  0.00    -0.106 C  
HETATM    5  C   UNL     1      -7.193   5.230  67.742  1.00  0.00    -0.071 C  
HETATM    6  C   UNL     1      -9.440   4.358  67.095  1.00  0.00    -0.193 C  
HETATM    7  C   UNL     1      -9.125   6.785  67.091  1.00  0.00    -0.130 C  
HETATM    8  O   UNL     1      -9.059   6.250  71.502  1.00  0.00    -0.145 OA 
ENDROOT
BRANCH   3   9
HETATM    9  C   UNL     1      -7.568   7.404  69.996  1.00  0.00    -0.089 C  
BRANCH   9  10
HETATM   10  N   UNL     1      -7.236   8.387  71.049  1.00  0.00    -0.057 NA 
BRANCH  10  11
HETATM   11  C   UNL     1      -5.778   8.551  71.198  1.00  0.00    -0.035 C  
BRANCH  11  12
HETATM   12  C   UNL     1      -5.129   7.579  72.209  1.00  0.00    -0.036 C  
HETATM   13  H   UNL     1      -5.429   7.003  74.073  1.00  0.00     0.000 HD 
HETATM   14  O   UNL     1      -5.828   7.601  73.451  1.00  0.00    -0.048 OA 
ENDBRANCH  11  12
ENDBRANCH  10  11
BRANCH  10  15
HETATM   15  C   UNL     1      -7.940   9.689  70.879  1.00  0.00     0.199 C  
BRANCH  15  16
HETATM   16  C   UNL     1      -8.133  10.125  69.392  1.00  0.00    -0.160 C  
HETATM   17  C   UNL     1      -7.520  11.686  67.484  1.00  0.00    -0.123 C  
HETATM   18  C   UNL     1      -6.091  11.553  69.595  1.00  0.00    -0.114 C  
HETATM   19  N   UNL     1      -7.289  11.123  68.877  1.00  0.00    -0.102 N  
HETATM   20  C   UNL     1      -9.026  11.808  67.037  1.00  0.00    -0.186 C  
HETATM   21  O   UNL     1      -9.032   9.651  68.694  1.00  0.00    -0.126 OA 
HETATM   22  C   UNL     1      -6.895  13.090  67.305  1.00  0.00    -0.038 C  
HETATM   23  C   UNL     1      -6.827  10.763  66.457  1.00  0.00    -0.130 C  
BRANCH  20  24
HETATM   24  C   UNL     1      -9.977  12.644  67.870  1.00  0.00    -0.228 A  
HETATM   25  C   UNL     1      -9.602  13.956  68.196  1.00  0.00    -0.218 A  
HETATM   26  C   UNL     1     -10.469  14.792  68.902  1.00  0.00    -0.249 A  
HETATM   27  C   UNL     1     -11.733  14.340  69.271  1.00  0.00    -0.363 A  
HETATM   28  C   UNL     1     -12.129  13.055  68.938  1.00  0.00    -0.207 A  
HETATM   29  C   UNL     1     -11.257  12.211  68.259  1.00  0.00    -0.319 A  
ENDBRANCH  20  24
ENDBRANCH  15  16
ENDBRANCH  10  15
ENDBRANCH   9  10
ENDBRANCH   3   9
BRANCH   5  30
HETATM   30  C   UNL     1      -6.669   4.004  68.468  1.00  0.00    -0.046 A  
HETATM   31  C   UNL     1      -5.645   2.917  70.396  1.00  0.00    -0.016 A  
HETATM   32  C   UNL     1      -6.752   2.747  67.854  1.00  0.00    -0.040 A  
HETATM   33  C   UNL     1      -6.091   4.065  69.743  1.00  0.00    -0.023 A  
HETATM   34  C   UNL     1      -5.698   1.688  69.757  1.00  0.00    -0.018 A  
HETATM   35  C   UNL     1      -6.260   1.603  68.489  1.00  0.00    -0.025 A  
ENDBRANCH   5  30
TORSDOF 8
ENDMDL
MODEL      214
REMARK 921   NORMALIZED FREE ENERGY PREDICTED BY IDOCK:   -2.28 KCAL/MOL
REMARK 922        TOTAL FREE ENERGY PREDICTED BY IDOCK:   -4.15 KCAL/MOL
REMARK 923 INTER-LIGAND FREE ENERGY PREDICTED BY IDOCK:   -3.73 KCAL/MOL
REMARK 924 INTRA-LIGAND FREE ENERGY PREDICTED BY IDOCK:   -0.43 KCAL/MOL
REMARK 927      BINDING AFFINITY PREDICTED BY RF-SCORE:    0.00 PKD
ROOT
HETATM    1  C   UNL     1      -5.905  16.847  66.514  1.00  0.00    -0.030 C  
HETATM    2  N   UNL     1      -7.018  16.615  67.437  1.00  0.00    -0.146 N  
HETATM    3  C   UNL     1      -8.263  16.427  66.820  1.00  0.00    -0.251 C  
HETATM    4  C   UNL     1      -6.699  16.478  68.915  1.00  0.00    -0.179 C  
HETATM    5  C   UNL     1      -7.201  15.137  69.557  1.00  0.00    -0.204 C  
HETATM    6  C   UNL     1      -5.165  16.533  69.190  1.00  0.00    -0.120 C  
HETATM    7  C   UNL     1      -7.258  17.697  69.692  1.00  0.00     0.338 C  
HETATM    8  O   UNL     1      -8.350  16.393  65.586  1.00  0.00    -0.140 OA 
ENDROOT
BRANCH   3   9
HETATM    9  C   UNL     1      -9.508  16.214  67.695  1.00  0.00    -0.220 C  
BRANCH   9  10
HETATM   10  N   UNL     1     -10.114  17.432  68.275  1.00  0.00    -0.317 NA 
BRANCH  10  11
HETATM   11  C   UNL     1     -10.670  18.312  67.232  1.00  0.00    -0.337 C  
BRANCH  11  12
HETATM   12  C   UNL     1     -10.222  19.787  67.340  1.00  0.00    -0.440 C  
HETATM   13  H   UNL     1      -8.846  20.824  68.303  1.00  0.00     0.000 HD 
HETATM   14  O   UNL     1      -9.122  19.917  68.237  1.00  0.00    -0.319 OA 
ENDBRANCH  11  12
ENDBRANCH  10  11
BRANCH  10  15
HETATM   15  C   UNL     1     -11.098  17.139  69.355  1.00  0.00     0.325 C  
BRANCH  15  16
HETATM   16  C   UNL     1     -11.777  15.737  69.243  1.00  0.00    -0.374 C  
HETATM   17  C   UNL     1     -11.622  13.215  69.507  1.00  0.00    -0.283 C  
HETATM   18  C   UNL     1      -9.873  14.764  70.538  1.00  0.00     0.985 C  
HETATM   19  N   UNL     1     -11.072  14.617  69.716  1.00  0.00    -0.255 N  
HETATM   20  C   UNL     1     -12.394  12.978  68.153  1.00  0.00     0.170 C  
HETATM   21  O   UNL     1     -12.879  15.597  68.707  1.00  0.00     0.618 OA 
HETATM   22  C   UNL     1     -10.517  12.134  69.576  1.00  0.00     0.411 C  
HETATM   23  C   UNL     1     -12.616  12.899  70.646  1.00  0.00    -0.256 C  
BRANCH  20  24
HETATM   24  C   UNL     1     -11.677  13.230  66.842  1.00  0.00    -0.437 A  
HETATM   25  C   UNL     1     -10.853  12.217  66.327  1.00  0.00    -0.313 A  
HETATM   26  C   UNL     1     -10.224  12.368  65.089  1.00  0.00    -0.305 A  
HETATM   27  C   UNL     1     -10.428  13.521  64.337  1.00  0.00    -0.366 A  
HETATM   28  C   UNL     1     -11.256  14.522  64.819  1.00  0.00    -0.395 A  
HETATM   29  C   UNL     1     -11.861  14.385  66.063  1.00  0.00    -0.379 A  
ENDBRANCH  20  24
ENDBRANCH  15  16
ENDBRANCH  10  15
ENDBRANCH   9  10
ENDBRANCH   3   9
BRANCH   5  30
HETATM   30  C   UNL     1      -6.728  13.858  68.889  1.00  0.00    -0.106 A  
HETATM   31  C   UNL     1      -6.765  12.242  67.064  1.00  0.00    -0.042 A  
HETATM   32  C   UNL     1      -5.742  13.078  69.507  1.00  0.00    -0.096 A  
HETATM   33  C   UNL     1      -7.240  13.406  67.666  1.00  0.00    -0.167 A  
HETATM   34  C   UNL     1      -5.818  11.461  67.709  1.00  0.00    -0.046 A  
HETATM   35  C   UNL     1      -5.301  11.884  68.928  1.00  0.00    -0.050 A  
ENDBRANCH   5  30
TORSDOF 8
ENDMDL
MODEL      215
REMARK 921   NORMALIZED FREE ENERGY PREDICTED BY IDOCK:   -2.22 KCAL/MOL
REMARK 922        TOTAL FREE ENERGY PREDICTED BY IDOCK:   -4.06 KCAL/MOL
REMARK 923 INTER-LIGAND FREE ENERGY PREDICTED BY IDOCK:   -4.34 KCAL/MOL
REMARK 924 INTRA-LIGAND FREE ENERGY PREDICTED BY IDOCK:    0.27 KCAL/MOL
REMARK 927      BINDING AFFINITY PREDICTED BY RF-SCORE:    0.00 PKD
ROOT
HETATM    1  C   UNL     1      -6.533  10.531  69.995  1.00  0.00    -0.135 C  
HETATM    2  N   UNL     1      -6.704  10.738  68.555  1.00  0.00    -0.055 N  
HETATM    3  C   UNL     1      -6.825   9.560  67.803  1.00  0.00    -0.078 C  
HETATM    4  C   UNL     1      -6.854  12.163  68.055  1.00  0.00    -0.081 C  
HETATM    5  C   UNL     1      -8.166  12.416  67.231  1.00  0.00    -0.184 C  
HETATM    6  C   UNL     1      -6.882  13.194  69.225  1.00  0.00    -0.024 C  
HETATM    7  C   UNL     1      -5.606  12.570  67.231  1.00  0.00    -0.066 C  
HETATM    8  O   UNL     1      -6.857   8.460  68.367  1.00  0.00    -0.063 OA 
ENDROOT
BRANCH   3   9
HETATM    9  C   UNL     1      -6.970   9.659  66.277  1.00  0.00    -0.092 C  
BRANCH   9  10
HETATM   10  N   UNL     1      -7.716   8.565  65.619  1.00  0.00    -0.092 NA 
BRANCH  10  11
HETATM   11  C   UNL     1      -8.296   8.998  64.335  1.00  0.00    -0.176 C  
BRANCH  11  12
HETATM   12  C   UNL     1      -8.872  10.432  64.349  1.00  0.00    -0.206 C  
HETATM   13  H   UNL     1     -10.638  11.288  64.554  1.00  0.00     0.000 HD 
HETATM   14  O   UNL     1     -10.284  10.407  64.545  1.00  0.00    -0.342 OA 
ENDBRANCH  11  12
ENDBRANCH  10  11
BRANCH  10  15
HETATM   15  C   UNL     1      -6.924   7.310  65.490  1.00  0.00    -0.060 C  
BRANCH  15  16
HETATM   16  C   UNL     1      -7.781   6.004  65.502  1.00  0.00    -0.093 C  
HETATM   17  C   UNL     1      -9.635   4.626  66.559  1.00  0.00    -0.182 C  
HETATM   18  C   UNL     1      -9.341   7.100  67.119  1.00  0.00    -0.140 C  
HETATM   19  N   UNL     1      -8.854   5.922  66.406  1.00  0.00    -0.130 N  
HETATM   20  C   UNL     1      -8.795   3.300  66.418  1.00  0.00    -0.144 C  
HETATM   21  O   UNL     1      -7.503   5.045  64.779  1.00  0.00    -0.072 OA 
HETATM   22  C   UNL     1     -10.366   4.538  67.920  1.00  0.00     0.142 C  
HETATM   23  C   UNL     1     -10.728   4.577  65.470  1.00  0.00    -0.170 C  
BRANCH  20  24
HETATM   24  C   UNL     1      -7.622   3.068  67.349  1.00  0.00    -0.066 A  
HETATM   25  C   UNL     1      -6.479   2.435  66.838  1.00  0.00    -0.035 A  
HETATM   26  C   UNL     1      -5.344   2.258  67.631  1.00  0.00    -0.017 A  
HETATM   27  C   UNL     1      -5.325   2.732  68.940  1.00  0.00    -0.013 A  
HETATM   28  C   UNL     1      -6.436   3.379  69.456  1.00  0.00    -0.033 A  
HETATM   29  C   UNL     1      -7.576   3.532  68.675  1.00  0.00    -0.053 A  
ENDBRANCH  20  24
ENDBRANCH  15  16
ENDBRANCH  10  15
ENDBRANCH   9  10
ENDBRANCH   3   9
BRANCH   5  30
HETATM   30  C   UNL     1      -9.469  12.057  67.921  1.00  0.00    -0.196 A  
HETATM   31  C   UNL     1     -11.087  10.434  68.757  1.00  0.00    -0.298 A  
HETATM   32  C   UNL     1     -10.298  13.075  68.410  1.00  0.00    -0.257 A  
HETATM   33  C   UNL     1      -9.898  10.734  68.094  1.00  0.00    -0.171 A  
HETATM   34  C   UNL     1     -11.913  11.456  69.199  1.00  0.00    -0.395 A  
HETATM   35  C   UNL     1     -11.514  12.776  69.032  1.00  0.00    -0.360 A  
ENDBRANCH   5  30
TORSDOF 8
ENDMDL
MODEL      216
REMARK 921   NORMALIZED FREE ENERGY PREDICTED BY IDOCK:   -2.15 KCAL/MOL
REMARK 922        TOTAL FREE ENERGY PREDICTED BY IDOCK:   -3.96 KCAL/MOL
REMARK 923 INTER-LIGAND FREE ENERGY PREDICTED BY IDOCK:   -3.04 KCAL/MOL
REMARK 924 INTRA-LIGAND FREE ENERGY PREDICTED BY IDOCK:   -0.92 KCAL/MOL
REMARK 927      BINDING AFFINITY PREDICTED BY RF-SCORE:    0.00 PKD
ROOT
HETATM    1  C   UNL     1      -6.133  13.826  71.156  1.00  0.00     0.028 C  
HETATM    2  N   UNL     1      -6.421  13.333  69.807  1.00  0.00    -0.069 N  
HETATM    3  C   UNL     1      -6.688  11.959  69.728  1.00  0.00     0.047 C  
HETATM    4  C   UNL     1      -6.524  14.352  68.686  1.00  0.00    -0.087 C  
HETATM    5  C   UNL     1      -7.886  14.311  67.907  1.00  0.00    -0.156 C  
HETATM    6  C   UNL     1      -6.377  15.814  69.208  1.00  0.00    -0.147 C  
HETATM    7  C   UNL     1      -5.332  14.186  67.709  1.00  0.00    -0.013 C  
HETATM    8  O   UNL     1      -6.739  11.273  70.756  1.00  0.00     0.019 OA 
ENDROOT
BRANCH   3   9
HETATM    9  C   UNL     1      -6.965  11.328  68.354  1.00  0.00    -0.070 C  
BRANCH   9  10
HETATM   10  N   UNL     1      -5.777  10.955  67.555  1.00  0.00    -0.043 NA 
BRANCH  10  11
HETATM   11  C   UNL     1      -5.206   9.671  67.999  1.00  0.00    -0.040 C  
BRANCH  11  12
HETATM   12  C   UNL     1      -6.231   8.706  68.638  1.00  0.00    -0.046 C  
HETATM   13  H   UNL     1      -6.814   6.837  68.398  1.00  0.00     0.000 HD 
HETATM   14  O   UNL     1      -6.185   7.430  68.006  1.00  0.00    -0.040 OA 
ENDBRANCH  11  12
ENDBRANCH  10  11
BRANCH  10  15
HETATM   15  C   UNL     1      -6.025  10.990  66.087  1.00  0.00    -0.132 C  
BRANCH  15  16
HETATM   16  C   UNL     1      -7.350  10.293  65.642  1.00  0.00    -0.149 C  
HETATM   17  C   UNL     1      -9.845  10.445  65.190  1.00  0.00    -0.313 C  
HETATM   18  C   UNL     1      -8.419  12.545  65.461  1.00  0.00     1.410 C  
HETATM   19  N   UNL     1      -8.498  11.087  65.485  1.00  0.00    -0.123 N  
HETATM   20  C   UNL     1     -10.102   9.049  65.876  1.00  0.00    -0.041 C  
HETATM   21  O   UNL     1      -7.411   9.072  65.480  1.00  0.00    -0.085 OA 
HETATM   22  C   UNL     1     -11.030  11.355  65.591  1.00  0.00    -0.254 C  
HETATM   23  C   UNL     1      -9.961  10.219  63.667  1.00  0.00    -0.065 C  
BRANCH  20  24
HETATM   24  C   UNL     1     -10.034   8.946  67.387  1.00  0.00    -0.267 A  
HETATM   25  C   UNL     1     -10.365  10.077  68.149  1.00  0.00    -0.228 A  
HETATM   26  C   UNL     1     -10.385  10.018  69.544  1.00  0.00    -0.256 A  
HETATM   27  C   UNL     1     -10.100   8.823  70.198  1.00  0.00    -0.203 A  
HETATM   28  C   UNL     1      -9.793   7.690  69.461  1.00  0.00    -0.178 A  
HETATM   29  C   UNL     1      -9.745   7.754  68.074  1.00  0.00    -0.176 A  
ENDBRANCH  20  24
ENDBRANCH  15  16
ENDBRANCH  10  15
ENDBRANCH   9  10
ENDBRANCH   3   9
BRANCH   5  30
HETATM   30  C   UNL     1      -9.141  14.460  68.748  1.00  0.00    -0.133 A  
HETATM   31  C   UNL     1     -10.486  15.615  70.422  1.00  0.00    -0.211 A  
HETATM   32  C   UNL     1     -10.186  13.539  68.602  1.00  0.00    -0.193 A  
HETATM   33  C   UNL     1      -9.310  15.489  69.685  1.00  0.00    -0.224 A  
HETATM   34  C   UNL     1     -11.493  14.672  70.294  1.00  0.00    -0.300 A  
HETATM   35  C   UNL     1     -11.346  13.637  69.378  1.00  0.00    -0.303 A  
ENDBRANCH   5  30
TORSDOF 8
ENDMDL
MODEL      217
REMARK 921   NORMALIZED FREE ENERGY PREDICTED BY IDOCK:   -2.12 KCAL/MOL
REMARK 922        TOTAL FREE ENERGY PREDICTED BY IDOCK:   -3.92 KCAL/MOL
REMARK 923 INTER-LIGAND FREE ENERGY PREDICTED BY IDOCK:   -4.33 KCAL/MOL
REMARK 924 INTRA-LIGAND FREE ENERGY PREDICTED BY IDOCK:    0.41 KCAL/MOL
REMARK 927      BINDING AFFINITY PREDICTED BY RF-SCORE:    0.00 PKD
ROOT
HETATM    1  C   UNL     1     -10.246  12.767  64.046  1.00  0.00    -0.298 C  
HETATM    2  N   UNL     1     -10.950  12.905  65.323  1.00  0.00    -0.279 N  
HETATM    3  C   UNL     1     -10.838  11.800  66.178  1.00  0.00    -0.291 C  
HETATM    4  C   UNL     1     -11.604  14.240  65.633  1.00  0.00    -0.346 C  
HETATM    5  C   UNL     1     -11.119  14.893  66.975  1.00  0.00    -0.338 C  
HETATM    6  C   UNL     1     -11.327  15.299  64.521  1.00  0.00    -0.307 C  
HETATM    7  C   UNL     1     -13.146  14.089  65.625  1.00  0.00    -0.189 C  
HETATM    8  O   UNL     1     -10.125  10.838  65.866  1.00  0.00    -0.237 OA 
ENDROOT
BRANCH   3   9
HETATM    9  C   UNL     1     -11.571  11.821  67.529  1.00  0.00    -0.291 C  
BRANCH   9  10
HETATM   10  N   UNL     1     -11.001  10.969  68.595  1.00  0.00    -0.204 NA 
BRANCH  10  11
HETATM   11  C   UNL     1     -11.440  11.407  69.932  1.00  0.00    -0.273 C  
BRANCH  11  12
HETATM   12  C   UNL     1     -11.586  10.261  70.959  1.00  0.00    -0.343 C  
HETATM   13  H   UNL     1     -12.035  10.069  72.871  1.00  0.00     0.000 HD 
HETATM   14  O   UNL     1     -11.945  10.773  72.239  1.00  0.00     0.961 OA 
ENDBRANCH  11  12
ENDBRANCH  10  11
BRANCH  10  15
HETATM   15  C   UNL     1     -11.233   9.515  68.368  1.00  0.00     0.125 C  
BRANCH  15  16
HETATM   16  C   UNL     1      -9.931   8.652  68.353  1.00  0.00    -0.184 C  
HETATM   17  C   UNL     1      -8.237   7.245  69.619  1.00  0.00    -0.131 C  
HETATM   18  C   UNL     1     -10.486   7.860  70.658  1.00  0.00    -0.213 C  
HETATM   19  N   UNL     1      -9.562   7.985  69.533  1.00  0.00    -0.163 N  
HETATM   20  C   UNL     1      -7.036   7.900  68.835  1.00  0.00    -0.074 C  
HETATM   21  O   UNL     1      -9.211   8.591  67.354  1.00  0.00    -0.137 OA 
HETATM   22  C   UNL     1      -7.758   7.063  71.079  1.00  0.00    -0.091 C  
HETATM   23  C   UNL     1      -8.424   5.827  69.039  1.00  0.00    -0.104 C  
BRANCH  20  24
HETATM   24  C   UNL     1      -6.623   9.319  69.171  1.00  0.00    -0.049 A  
HETATM   25  C   UNL     1      -5.513   9.865  68.510  1.00  0.00    -0.039 A  
HETATM   26  C   UNL     1      -5.130  11.190  68.729  1.00  0.00    -0.040 A  
HETATM   27  C   UNL     1      -5.865  11.997  69.594  1.00  0.00    -0.106 A  
HETATM   28  C   UNL     1      -6.978  11.482  70.239  1.00  0.00     0.791 A  
HETATM   29  C   UNL     1      -7.344  10.155  70.042  1.00  0.00    -0.172 A  
ENDBRANCH  20  24
ENDBRANCH  15  16
ENDBRANCH  10  15
ENDBRANCH   9  10
ENDBRANCH   3   9
BRANCH   5  30
HETATM   30  C   UNL     1      -9.621  15.097  67.117  1.00  0.00    -0.224 A  
HETATM   31  C   UNL     1      -7.541  16.237  66.551  1.00  0.00    -0.218 A  
HETATM   32  C   UNL     1      -8.896  14.303  68.014  1.00  0.00    -0.178 A  
HETATM   33  C   UNL     1      -8.912  16.054  66.379  1.00  0.00    -0.354 A  
HETATM   34  C   UNL     1      -6.833  15.415  67.414  1.00  0.00    -0.204 A  
HETATM   35  C   UNL     1      -7.513  14.452  68.151  1.00  0.00    -0.128 A  
ENDBRANCH   5  30
TORSDOF 8
ENDMDL
MODEL      218
REMARK 921   NORMALIZED FREE ENERGY PREDICTED BY IDOCK:   -2.02 KCAL/MOL
REMARK 922        TOTAL FREE ENERGY PREDICTED BY IDOCK:   -3.78 KCAL/MOL
REMARK 923 INTER-LIGAND FREE ENERGY PREDICTED BY IDOCK:   -3.93 KCAL/MOL
REMARK 924 INTRA-LIGAND FREE ENERGY PREDICTED BY IDOCK:    0.16 KCAL/MOL
REMARK 927      BINDING AFFINITY PREDICTED BY RF-SCORE:    0.00 PKD
ROOT
HETATM    1  C   UNL     1      -6.540  14.916  70.226  1.00  0.00    -0.095 C  
HETATM    2  N   UNL     1      -6.330  13.677  69.474  1.00  0.00    -0.113 N  
HETATM    3  C   UNL     1      -6.104  12.542  70.265  1.00  0.00    -0.066 C  
HETATM    4  C   UNL     1      -6.499  13.724  67.966  1.00  0.00    -0.140 C  
HETATM    5  C   UNL     1      -7.553  12.703  67.409  1.00  0.00    -0.150 C  
HETATM    6  C   UNL     1      -6.965  15.128  67.473  1.00  0.00    -0.220 C  
HETATM    7  C   UNL     1      -5.127  13.525  67.273  1.00  0.00     0.409 C  
HETATM    8  O   UNL     1      -6.164  12.617  71.499  1.00  0.00     0.426 OA 
ENDROOT
BRANCH   3   9
HETATM    9  C   UNL     1      -5.832  11.194  69.579  1.00  0.00    -0.061 C  
BRANCH   9  10
HETATM   10  N   UNL     1      -6.361   9.994  70.263  1.00  0.00    -0.092 NA 
BRANCH  10  11
HETATM   11  C   UNL     1      -5.882   9.906  71.654  1.00  0.00     0.096 C  
BRANCH  11  12
HETATM   12  C   UNL     1      -5.725   8.462  72.182  1.00  0.00    -0.047 C  
HETATM   13  H   UNL     1      -6.817   7.147  73.168  1.00  0.00     0.000 HD 
HETATM   14  O   UNL     1      -6.913   8.034  72.843  1.00  0.00    -0.082 OA 
ENDBRANCH  11  12
ENDBRANCH  10  11
BRANCH  10  15
HETATM   15  C   UNL     1      -7.843   9.869  70.163  1.00  0.00    -0.171 C  
BRANCH  15  16
HETATM   16  C   UNL     1      -8.328   8.696  69.253  1.00  0.00    -0.118 C  
HETATM   17  C   UNL     1     -10.062   6.912  68.740  1.00  0.00    -0.166 C  
HETATM   18  C   UNL     1     -10.553   8.799  70.387  1.00  0.00    -0.221 C  
HETATM   19  N   UNL     1      -9.595   8.142  69.502  1.00  0.00    -0.167 N  
HETATM   20  C   UNL     1      -8.943   5.857  68.393  1.00  0.00    -0.112 C  
HETATM   21  O   UNL     1      -7.607   8.227  68.369  1.00  0.00    -0.097 OA 
HETATM   22  C   UNL     1     -11.172   6.140  69.492  1.00  0.00    -0.482 C  
HETATM   23  C   UNL     1     -10.676   7.365  67.397  1.00  0.00    -0.348 C  
BRANCH  20  24
HETATM   24  C   UNL     1      -8.138   5.239  69.518  1.00  0.00    -0.094 A  
HETATM   25  C   UNL     1      -6.785   4.947  69.289  1.00  0.00    -0.048 A  
HETATM   26  C   UNL     1      -5.979   4.441  70.311  1.00  0.00    -0.018 A  
HETATM   27  C   UNL     1      -6.506   4.243  71.584  1.00  0.00    -0.019 A  
HETATM   28  C   UNL     1      -7.834   4.547  71.836  1.00  0.00    -0.097 A  
HETATM   29  C   UNL     1      -8.645   5.025  70.812  1.00  0.00    -0.132 A  
ENDBRANCH  20  24
ENDBRANCH  15  16
ENDBRANCH  10  15
ENDBRANCH   9  10
ENDBRANCH   3   9
BRANCH   5  30
HETATM   30  C   UNL     1      -8.946  12.787  68.007  1.00  0.00    -0.196 A  
HETATM   31  C   UNL     1     -10.824  14.045  68.922  1.00  0.00    -0.278 A  
HETATM   32  C   UNL     1      -9.694  11.616  68.186  1.00  0.00    -0.189 A  
HETATM   33  C   UNL     1      -9.531  13.997  68.401  1.00  0.00    -0.213 A  
HETATM   34  C   UNL     1     -11.534  12.873  69.129  1.00  0.00    -0.360 A  
HETATM   35  C   UNL     1     -10.971  11.659  68.754  1.00  0.00    -0.274 A  
ENDBRANCH   5  30
TORSDOF 8
ENDMDL
MODEL      219
REMARK 921   NORMALIZED FREE ENERGY PREDICTED BY IDOCK:   -1.93 KCAL/MOL
REMARK 922        TOTAL FREE ENERGY PREDICTED BY IDOCK:   -3.64 KCAL/MOL
REMARK 923 INTER-LIGAND FREE ENERGY PREDICTED BY IDOCK:   -3.92 KCAL/MOL
REMARK 924 INTRA-LIGAND FREE ENERGY PREDICTED BY IDOCK:    0.29 KCAL/MOL
REMARK 927      BINDING AFFINITY PREDICTED BY RF-SCORE:    0.00 PKD
ROOT
HETATM    1  C   UNL     1      -6.982  12.892  69.734  1.00  0.00     0.390 C  
HETATM    2  N   UNL     1      -6.986  11.596  69.053  1.00  0.00    -0.106 N  
HETATM    3  C   UNL     1      -6.596  10.512  69.852  1.00  0.00    -0.130 C  
HETATM    4  C   UNL     1      -7.516  11.541  67.632  1.00  0.00    -0.110 C  
HETATM    5  C   UNL     1      -8.694  10.524  67.427  1.00  0.00    -0.125 C  
HETATM    6  C   UNL     1      -8.062  12.923  67.157  1.00  0.00    -0.122 C  
HETATM    7  C   UNL     1      -6.359  11.241  66.646  1.00  0.00    -0.135 C  
HETATM    8  O   UNL     1      -6.352  10.677  71.054  1.00  0.00    -0.349 OA 
ENDROOT
BRANCH   3   9
HETATM    9  C   UNL     1      -6.526   9.109  69.229  1.00  0.00    -0.045 C  
BRANCH   9  10
HETATM   10  N   UNL     1      -6.455   7.976  70.176  1.00  0.00    -0.036 NA 
BRANCH  10  11
HETATM   11  C   UNL     1      -5.569   8.274  71.315  1.00  0.00    -0.033 C  
BRANCH  11  12
HETATM   12  C   UNL     1      -5.646   7.247  72.467  1.00  0.00    -0.037 C  
HETATM   13  H   UNL     1      -5.191   5.349  72.757  1.00  0.00     0.000 HD 
HETATM   14  O   UNL     1      -5.144   5.980  72.049  1.00  0.00    -0.020 OA 
ENDBRANCH  11  12
ENDBRANCH  10  11
BRANCH  10  15
HETATM   15  C   UNL     1      -7.795   7.491  70.610  1.00  0.00    -0.095 C  
BRANCH  15  16
HETATM   16  C   UNL     1      -8.480   6.510  69.606  1.00  0.00    -0.131 C  
HETATM   17  C   UNL     1      -8.433   4.311  68.335  1.00  0.00    -0.092 C  
HETATM   18  C   UNL     1      -6.841   4.748  70.282  1.00  0.00    -0.037 C  
HETATM   19  N   UNL     1      -7.891   5.251  69.400  1.00  0.00    -0.086 N  
HETATM   20  C   UNL     1      -8.976   5.002  67.026  1.00  0.00    -0.112 C  
HETATM   21  O   UNL     1      -9.482   6.839  68.967  1.00  0.00    -0.135 OA 
HETATM   22  C   UNL     1      -7.381   3.273  67.877  1.00  0.00    -0.054 C  
HETATM   23  C   UNL     1      -9.609   3.510  68.934  1.00  0.00    -0.140 C  
BRANCH  20  24
HETATM   24  C   UNL     1      -8.047   5.885  66.218  1.00  0.00    -0.104 A  
HETATM   25  C   UNL     1      -7.187   5.278  65.291  1.00  0.00    -0.067 A  
HETATM   26  C   UNL     1      -6.360   6.048  64.471  1.00  0.00    -0.033 A  
HETATM   27  C   UNL     1      -6.397   7.437  64.547  1.00  0.00    -0.040 A  
HETATM   28  C   UNL     1      -7.256   8.056  65.441  1.00  0.00    -0.064 A  
HETATM   29  C   UNL     1      -8.061   7.290  66.277  1.00  0.00    -0.121 A  
ENDBRANCH  20  24
ENDBRANCH  15  16
ENDBRANCH  10  15
ENDBRANCH   9  10
ENDBRANCH   3   9
BRANCH   5  30
HETATM   30  C   UNL     1      -9.897  10.703  68.336  1.00  0.00    -0.170 A  
HETATM   31  C   UNL     1     -11.091  10.323  70.428  1.00  0.00    -0.391 A  
HETATM   32  C   UNL     1     -10.981  11.478  67.904  1.00  0.00    -0.287 A  
HETATM   33  C   UNL     1      -9.984  10.117  69.606  1.00  0.00    -0.262 A  
HETATM   34  C   UNL     1     -12.172  11.060  69.968  1.00  0.00    -0.418 A  
HETATM   35  C   UNL     1     -12.113  11.644  68.708  1.00  0.00    -0.221 A  
ENDBRANCH   5  30
TORSDOF 8
ENDMDL
MODEL      220
REMARK 921   NORMALIZED FREE ENERGY PREDICTED BY IDOCK:   -1.83 KCAL/MOL
REMARK 922        TOTAL FREE ENERGY PREDICTED BY IDOCK:   -3.50 KCAL/MOL
REMARK 923 INTER-LIGAND FREE ENERGY PREDICTED BY IDOCK:   -4.92 KCAL/MOL
REMARK 924 INTRA-LIGAND FREE ENERGY PREDICTED BY IDOCK:    1.43 KCAL/MOL
REMARK 927      BINDING AFFINITY PREDICTED BY RF-SCORE:    0.00 PKD
ROOT
HETATM    1  C   UNL     1     -12.364   5.926  70.645  1.00  0.00     1.455 C  
HETATM    2  N   UNL     1     -11.042   6.527  70.455  1.00  0.00    -0.304 N  
HETATM    3  C   UNL     1     -10.644   6.656  69.117  1.00  0.00    -0.244 C  
HETATM    4  C   UNL     1     -10.315   7.047  71.681  1.00  0.00    -0.198 C  
HETATM    5  C   UNL     1      -9.909   8.561  71.590  1.00  0.00    -0.317 C  
HETATM    6  C   UNL     1     -11.179   6.917  72.973  1.00  0.00    -0.220 C  
HETATM    7  C   UNL     1      -9.074   6.167  71.975  1.00  0.00    -0.143 C  
HETATM    8  O   UNL     1     -11.416   6.344  68.202  1.00  0.00    -0.169 OA 
ENDROOT
BRANCH   3   9
HETATM    9  C   UNL     1      -9.256   7.238  68.802  1.00  0.00    -0.137 C  
BRANCH   9  10
HETATM   10  N   UNL     1      -8.914   7.373  67.370  1.00  0.00    -0.122 NA 
BRANCH  10  11
HETATM   11  C   UNL     1      -8.850   6.062  66.700  1.00  0.00    -0.125 C  
BRANCH  11  12
HETATM   12  C   UNL     1      -7.745   5.126  67.241  1.00  0.00    -0.092 C  
HETATM   13  H   UNL     1      -7.635   3.386  68.166  1.00  0.00     0.000 HD 
HETATM   14  O   UNL     1      -8.314   3.962  67.833  1.00  0.00    -0.091 OA 
ENDBRANCH  11  12
ENDBRANCH  10  11
BRANCH  10  15
HETATM   15  C   UNL     1      -9.790   8.338  66.647  1.00  0.00    -0.267 C  
BRANCH  15  16
HETATM   16  C   UNL     1      -9.102   9.697  66.302  1.00  0.00    -0.160 C  
HETATM   17  C   UNL     1      -8.192  11.936  67.083  1.00  0.00    -0.171 C  
HETATM   18  C   UNL     1      -8.735  10.077  68.746  1.00  0.00    -0.136 C  
HETATM   19  N   UNL     1      -8.737  10.545  67.361  1.00  0.00    -0.126 N  
HETATM   20  C   UNL     1      -8.812  12.676  65.836  1.00  0.00     0.423 C  
HETATM   21  O   UNL     1      -8.926  10.050  65.134  1.00  0.00    -0.165 OA 
HETATM   22  C   UNL     1      -8.368  12.889  68.289  1.00  0.00    -0.157 C  
HETATM   23  C   UNL     1      -6.673  11.830  66.826  1.00  0.00    -0.048 C  
BRANCH  20  24
HETATM   24  C   UNL     1     -10.308  12.913  65.788  1.00  0.00    -0.297 A  
HETATM   25  C   UNL     1     -10.939  13.431  66.928  1.00  0.00    -0.295 A  
HETATM   26  C   UNL     1     -12.302  13.733  66.916  1.00  0.00    -0.328 A  
HETATM   27  C   UNL     1     -13.050  13.546  65.757  1.00  0.00     0.055 A  
HETATM   28  C   UNL     1     -12.439  13.056  64.614  1.00  0.00    -0.460 A  
HETATM   29  C   UNL     1     -11.088  12.729  64.633  1.00  0.00    -0.349 A  
ENDBRANCH  20  24
ENDBRANCH  15  16
ENDBRANCH  10  15
ENDBRANCH   9  10
ENDBRANCH   3   9
BRANCH   5  30
HETATM   30  C   UNL     1     -11.034   9.538  71.302  1.00  0.00    -0.440 A  
HETATM   31  C   UNL     1     -13.090  10.695  71.917  1.00  0.00    -0.563 A  
HETATM   32  C   UNL     1     -11.044  10.246  70.093  1.00  0.00    -0.385 A  
HETATM   33  C   UNL     1     -12.086   9.771  72.198  1.00  0.00    -0.027 A  
HETATM   34  C   UNL     1     -13.107  11.357  70.699  1.00  0.00     0.097 A  
HETATM   35  C   UNL     1     -12.078  11.137  69.790  1.00  0.00    -0.414 A  
ENDBRANCH   5  30
TORSDOF 8
ENDMDL
MODEL      221
REMARK 921   NORMALIZED FREE ENERGY PREDICTED BY IDOCK:   -1.79 KCAL/MOL
REMARK 922        TOTAL FREE ENERGY PREDICTED BY IDOCK:   -3.44 KCAL/MOL
REMARK 923 INTER-LIGAND FREE ENERGY PREDICTED BY IDOCK:   -3.71 KCAL/MOL
REMARK 924 INTRA-LIGAND FREE ENERGY PREDICTED BY IDOCK:    0.28 KCAL/MOL
REMARK 927      BINDING AFFINITY PREDICTED BY RF-SCORE:    0.00 PKD
ROOT
HETATM    1  C   UNL     1      -8.399  10.837  68.307  1.00  0.00    -0.125 C  
HETATM    2  N   UNL     1      -8.854   9.544  67.792  1.00  0.00    -0.119 N  
HETATM    3  C   UNL     1      -7.910   8.511  67.882  1.00  0.00    -0.103 C  
HETATM    4  C   UNL     1     -10.300   9.427  67.344  1.00  0.00    -0.263 C  
HETATM    5  C   UNL     1     -11.104   8.290  68.068  1.00  0.00     0.318 C  
HETATM    6  C   UNL     1     -11.100  10.742  67.598  1.00  0.00    -0.384 C  
HETATM    7  C   UNL     1     -10.364   9.246  65.806  1.00  0.00     0.284 C  
HETATM    8  O   UNL     1      -6.820   8.708  68.432  1.00  0.00    -0.063 OA 
ENDROOT
BRANCH   3   9
HETATM    9  C   UNL     1      -8.268   7.121  67.335  1.00  0.00    -0.116 C  
BRANCH   9  10
HETATM   10  N   UNL     1      -8.061   5.983  68.256  1.00  0.00    -0.109 NA 
BRANCH  10  11
HETATM   11  C   UNL     1      -8.336   4.693  67.598  1.00  0.00    -0.103 C  
BRANCH  11  12
HETATM   12  C   UNL     1      -9.003   4.819  66.209  1.00  0.00    -0.119 C  
HETATM   13  H   UNL     1     -10.828   4.757  65.460  1.00  0.00     0.000 HD 
HETATM   14  O   UNL     1     -10.417   4.680  66.313  1.00  0.00    -0.284 OA 
ENDBRANCH  11  12
ENDBRANCH  10  11
BRANCH  10  15
HETATM   15  C   UNL     1      -6.730   6.006  68.926  1.00  0.00    -0.060 C  
BRANCH  15  16
HETATM   16  C   UNL     1      -6.789   6.267  70.464  1.00  0.00    -0.062 C  
HETATM   17  C   UNL     1      -6.241   5.504  72.825  1.00  0.00    -0.047 C  
HETATM   18  C   UNL     1      -5.142   4.416  70.794  1.00  0.00     0.000 C  
HETATM   19  N   UNL     1      -6.105   5.383  71.315  1.00  0.00    -0.031 N  
HETATM   20  C   UNL     1      -7.658   5.953  73.350  1.00  0.00    -0.098 C  
HETATM   21  O   UNL     1      -7.457   7.190  70.935  1.00  0.00    -0.078 OA 
HETATM   22  C   UNL     1      -5.903   4.183  73.554  1.00  0.00    -0.008 C  
HETATM   23  C   UNL     1      -5.228   6.555  73.329  1.00  0.00    -0.037 C  
BRANCH  20  24
HETATM   24  C   UNL     1      -8.873   5.121  72.995  1.00  0.00    -0.120 A  
HETATM   25  C   UNL     1     -10.024   5.248  73.787  1.00  0.00    -0.197 A  
HETATM   26  C   UNL     1     -11.194   4.558  73.465  1.00  0.00    -0.388 A  
HETATM   27  C   UNL     1     -11.240   3.749  72.332  1.00  0.00     0.540 A  
HETATM   28  C   UNL     1     -10.120   3.628  71.525  1.00  0.00    -0.102 A  
HETATM   29  C   UNL     1      -8.947   4.294  71.860  1.00  0.00    -0.152 A  
ENDBRANCH  20  24
ENDBRANCH  15  16
ENDBRANCH  10  15
ENDBRANCH   9  10
ENDBRANCH   3   9
BRANCH   5  30
HETATM   30  C   UNL     1     -11.121   8.346  69.585  1.00  0.00    -0.011 A  
HETATM   31  C   UNL     1     -11.444   9.530  71.692  1.00  0.00    -0.433 A  
HETATM   32  C   UNL     1     -10.835   7.191  70.323  1.00  0.00    -0.271 A  
HETATM   33  C   UNL     1     -11.408   9.517  70.299  1.00  0.00    -0.284 A  
HETATM   34  C   UNL     1     -11.119   8.388  72.407  1.00  0.00    -0.431 A  
HETATM   35  C   UNL     1     -10.822   7.216  71.721  1.00  0.00    -0.253 A  
ENDBRANCH   5  30
TORSDOF 8
ENDMDL
MODEL      222
REMARK 921   NORMALIZED FREE ENERGY PREDICTED BY IDOCK:   -1.76 KCAL/MOL
REMARK 922        TOTAL FREE ENERGY PREDICTED BY IDOCK:   -3.39 KCAL/MOL
REMARK 923 INTER-LIGAND FREE ENERGY PREDICTED BY IDOCK:   -5.45 KCAL/MOL
REMARK 924 INTRA-LIGAND FREE ENERGY PREDICTED BY IDOCK:    2.06 KCAL/MOL
REMARK 927      BINDING AFFINITY PREDICTED BY RF-SCORE:    0.00 PKD
ROOT
HETATM    1  C   UNL     1     -10.425   6.407  71.503  1.00  0.00    -0.219 C  
HETATM    2  N   UNL     1     -10.336   7.360  70.394  1.00  0.00    -0.206 N  
HETATM    3  C   UNL     1     -10.983   8.584  70.619  1.00  0.00    -0.239 C  
HETATM    4  C   UNL     1      -9.473   6.986  69.202  1.00  0.00    -0.143 C  
HETATM    5  C   UNL     1      -8.351   8.032  68.872  1.00  0.00    -0.126 C  
HETATM    6  C   UNL     1      -8.738   5.627  69.416  1.00  0.00    -0.109 C  
HETATM    7  C   UNL     1     -10.366   6.733  67.961  1.00  0.00    -0.224 C  
HETATM    8  O   UNL     1     -11.507   8.821  71.714  1.00  0.00    -0.296 OA 
ENDROOT
BRANCH   3   9
HETATM    9  C   UNL     1     -10.987   9.644  69.507  1.00  0.00    -0.208 C  
BRANCH   9  10
HETATM   10  N   UNL     1     -11.905  10.787  69.697  1.00  0.00    -0.307 NA 
BRANCH  10  11
HETATM   11  C   UNL     1     -12.803  10.577  70.847  1.00  0.00    -0.394 C  
BRANCH  11  12
HETATM   12  C   UNL     1     -14.185   9.994  70.476  1.00  0.00     1.428 C  
HETATM   13  H   UNL     1     -15.258   8.397  70.918  1.00  0.00     0.000 HD 
HETATM   14  O   UNL     1     -14.408   8.756  71.146  1.00  0.00    -0.257 OA 
ENDBRANCH  11  12
ENDBRANCH  10  11
BRANCH  10  15
HETATM   15  C   UNL     1     -11.203  12.099  69.757  1.00  0.00     0.002 C  
BRANCH  15  16
HETATM   16  C   UNL     1     -11.605  13.096  68.624  1.00  0.00    -0.321 C  
HETATM   17  C   UNL     1     -11.556  13.734  66.166  1.00  0.00    -0.352 C  
HETATM   18  C   UNL     1     -10.906  11.389  66.938  1.00  0.00    -0.285 C  
HETATM   19  N   UNL     1     -11.314  12.745  67.295  1.00  0.00    -0.295 N  
HETATM   20  C   UNL     1     -11.294  15.249  66.515  1.00  0.00    -0.168 C  
HETATM   21  O   UNL     1     -12.118  14.188  68.880  1.00  0.00    -0.345 OA 
HETATM   22  C   UNL     1     -10.701  13.419  64.916  1.00  0.00    -0.381 C  
HETATM   23  C   UNL     1     -13.032  13.630  65.725  1.00  0.00    -0.252 C  
BRANCH  20  24
HETATM   24  C   UNL     1      -9.922  15.666  67.005  1.00  0.00    -0.242 A  
HETATM   25  C   UNL     1      -8.938  15.971  66.052  1.00  0.00    -0.345 A  
HETATM   26  C   UNL     1      -7.678  16.427  66.446  1.00  0.00    -0.249 A  
HETATM   27  C   UNL     1      -7.391  16.609  67.796  1.00  0.00    -0.163 A  
HETATM   28  C   UNL     1      -8.358  16.335  68.750  1.00  0.00    -0.235 A  
HETATM   29  C   UNL     1      -9.603  15.855  68.361  1.00  0.00    -0.208 A  
ENDBRANCH  20  24
ENDBRANCH  15  16
ENDBRANCH  10  15
ENDBRANCH   9  10
ENDBRANCH   3   9
BRANCH   5  30
HETATM   30  C   UNL     1      -7.403   8.376  70.006  1.00  0.00    -0.059 A  
HETATM   31  C   UNL     1      -6.075   7.772  71.960  1.00  0.00    -0.039 A  
HETATM   32  C   UNL     1      -6.932   9.689  70.142  1.00  0.00    -0.105 A  
HETATM   33  C   UNL     1      -6.969   7.432  70.946  1.00  0.00    -0.059 A  
HETATM   34  C   UNL     1      -5.652   9.084  72.104  1.00  0.00    -0.068 A  
HETATM   35  C   UNL     1      -6.075  10.041  71.189  1.00  0.00     0.018 A  
ENDBRANCH   5  30
TORSDOF 8
ENDMDL
MODEL      223
REMARK 921   NORMALIZED FREE ENERGY PREDICTED BY IDOCK:   -1.76 KCAL/MOL
REMARK 922        TOTAL FREE ENERGY PREDICTED BY IDOCK:   -3.39 KCAL/MOL
REMARK 923 INTER-LIGAND FREE ENERGY PREDICTED BY IDOCK:   -2.89 KCAL/MOL
REMARK 924 INTRA-LIGAND FREE ENERGY PREDICTED BY IDOCK:   -0.49 KCAL/MOL
REMARK 927      BINDING AFFINITY PREDICTED BY RF-SCORE:    0.00 PKD
ROOT
HETATM    1  C   UNL     1      -9.409  11.514  69.807  1.00  0.00     1.446 C  
HETATM    2  N   UNL     1      -9.246  10.375  68.901  1.00  0.00    -0.168 N  
HETATM    3  C   UNL     1      -7.985   9.765  68.947  1.00  0.00    -0.092 C  
HETATM    4  C   UNL     1     -10.462   9.907  68.122  1.00  0.00    -0.215 C  
HETATM    5  C   UNL     1     -10.820   8.395  68.343  1.00  0.00     0.031 C  
HETATM    6  C   UNL     1     -11.745  10.708  68.502  1.00  0.00    -0.200 C  
HETATM    7  C   UNL     1     -10.271  10.207  66.613  1.00  0.00    -0.287 C  
HETATM    8  O   UNL     1      -7.135  10.147  69.761  1.00  0.00    -0.092 OA 
ENDROOT
BRANCH   3   9
HETATM    9  C   UNL     1      -7.690   8.584  68.009  1.00  0.00    -0.103 C  
BRANCH   9  10
HETATM   10  N   UNL     1      -7.793   7.234  68.605  1.00  0.00    -0.120 NA 
BRANCH  10  11
HETATM   11  C   UNL     1      -7.861   6.187  67.571  1.00  0.00    -0.102 C  
BRANCH  11  12
HETATM   12  C   UNL     1      -7.044   6.498  66.296  1.00  0.00    -0.067 C  
HETATM   13  H   UNL     1      -5.264   6.062  65.566  1.00  0.00     0.000 HD 
HETATM   14  O   UNL     1      -5.766   5.871  66.349  1.00  0.00    -0.016 OA 
ENDBRANCH  11  12
ENDBRANCH  10  11
BRANCH  10  15
HETATM   15  C   UNL     1      -6.738   6.962  69.622  1.00  0.00    -0.050 C  
BRANCH  15  16
HETATM   16  C   UNL     1      -7.279   6.778  71.075  1.00  0.00    -0.077 C  
HETATM   17  C   UNL     1      -6.926   7.031  73.578  1.00  0.00    -0.073 C  
HETATM   18  C   UNL     1      -5.414   8.223  71.902  1.00  0.00    -0.036 C  
HETATM   19  N   UNL     1      -6.521   7.300  72.138  1.00  0.00    -0.047 N  
HETATM   20  C   UNL     1      -7.556   5.613  73.858  1.00  0.00    -0.097 C  
HETATM   21  O   UNL     1      -8.315   6.149  71.301  1.00  0.00    -0.121 OA 
HETATM   22  C   UNL     1      -5.740   7.184  74.560  1.00  0.00    -0.070 C  
HETATM   23  C   UNL     1      -7.982   8.076  73.999  1.00  0.00    -0.285 C  
BRANCH  20  24
HETATM   24  C   UNL     1      -6.756   4.371  73.524  1.00  0.00    -0.058 A  
HETATM   25  C   UNL     1      -5.978   3.785  74.534  1.00  0.00    -0.020 A  
HETATM   26  C   UNL     1      -5.276   2.602  74.301  1.00  0.00     0.000 A  
HETATM   27  C   UNL     1      -5.359   1.971  73.062  1.00  0.00     0.000 A  
HETATM   28  C   UNL     1      -6.140   2.523  72.059  1.00  0.00    -0.013 A  
HETATM   29  C   UNL     1      -6.818   3.716  72.281  1.00  0.00    -0.033 A  
ENDBRANCH  20  24
ENDBRANCH  15  16
ENDBRANCH  10  15
ENDBRANCH   9  10
ENDBRANCH   3   9
BRANCH   5  30
HETATM   30  C   UNL     1     -11.032   7.962  69.783  1.00  0.00    -0.148 A  
HETATM   31  C   UNL     1     -11.048   8.399  72.182  1.00  0.00    -0.415 A  
HETATM   32  C   UNL     1     -11.454   6.655  70.058  1.00  0.00    -0.434 A  
HETATM   33  C   UNL     1     -10.818   8.817  70.872  1.00  0.00    -0.293 A  
HETATM   34  C   UNL     1     -11.427   7.090  72.438  1.00  0.00    -0.300 A  
HETATM   35  C   UNL     1     -11.637   6.221  71.375  1.00  0.00    -0.338 A  
ENDBRANCH   5  30
TORSDOF 8
ENDMDL
MODEL      224
REMARK 921   NORMALIZED FREE ENERGY PREDICTED BY IDOCK:   -1.68 KCAL/MOL
REMARK 922        TOTAL FREE ENERGY PREDICTED BY IDOCK:   -3.28 KCAL/MOL
REMARK 923 INTER-LIGAND FREE ENERGY PREDICTED BY IDOCK:   -3.36 KCAL/MOL
REMARK 924 INTRA-LIGAND FREE ENERGY PREDICTED BY IDOCK:    0.08 KCAL/MOL
REMARK 927      BINDING AFFINITY PREDICTED BY RF-SCORE:    0.00 PKD
ROOT
HETATM    1  C   UNL     1      -7.637   9.118  65.727  1.00  0.00    -0.091 C  
HETATM    2  N   UNL     1      -7.011   9.955  66.752  1.00  0.00    -0.087 N  
HETATM    3  C   UNL     1      -6.900  11.312  66.415  1.00  0.00    -0.055 C  
HETATM    4  C   UNL     1      -6.674   9.313  68.086  1.00  0.00    -0.060 C  
HETATM    5  C   UNL     1      -7.322  10.029  69.323  1.00  0.00    -0.091 C  
HETATM    6  C   UNL     1      -7.148   7.829  68.157  1.00  0.00    -0.085 C  
HETATM    7  C   UNL     1      -5.136   9.220  68.254  1.00  0.00    -0.030 C  
HETATM    8  O   UNL     1      -7.377  11.733  65.353  1.00  0.00     1.080 OA 
ENDROOT
BRANCH   3   9
HETATM    9  C   UNL     1      -6.223  12.275  67.402  1.00  0.00    -0.153 C  
BRANCH   9  10
HETATM   10  N   UNL     1      -6.989  13.488  67.760  1.00  0.00    -0.144 NA 
BRANCH  10  11
HETATM   11  C   UNL     1      -7.705  13.322  69.037  1.00  0.00     0.166 C  
BRANCH  11  12
HETATM   12  C   UNL     1      -7.383  14.404  70.092  1.00  0.00     0.389 C  
HETATM   13  H   UNL     1      -8.367  15.767  71.125  1.00  0.00     0.000 HD 
HETATM   14  O   UNL     1      -8.565  15.102  70.477  1.00  0.00     0.748 OA 
ENDBRANCH  11  12
ENDBRANCH  10  11
BRANCH  10  15
HETATM   15  C   UNL     1      -6.168  14.731  67.726  1.00  0.00    -0.139 C  
BRANCH  15  16
HETATM   16  C   UNL     1      -6.925  15.987  67.188  1.00  0.00    -0.207 C  
HETATM   17  C   UNL     1      -7.867  18.308  67.610  1.00  0.00    -0.229 C  
HETATM   18  C   UNL     1      -6.226  17.230  69.241  1.00  0.00    -0.237 C  
HETATM   19  N   UNL     1      -7.026  17.111  68.024  1.00  0.00    -0.167 N  
HETATM   20  C   UNL     1      -9.178  17.974  66.800  1.00  0.00    -0.285 C  
HETATM   21  O   UNL     1      -7.468  15.985  66.081  1.00  0.00     0.101 OA 
HETATM   22  C   UNL     1      -8.307  19.166  68.820  1.00  0.00    -0.377 C  
HETATM   23  C   UNL     1      -7.012  19.225  66.709  1.00  0.00    -0.210 C  
BRANCH  20  24
HETATM   24  C   UNL     1     -10.218  17.064  67.423  1.00  0.00    -0.314 A  
HETATM   25  C   UNL     1     -10.608  15.916  66.718  1.00  0.00    -0.309 A  
HETATM   26  C   UNL     1     -11.510  15.007  67.275  1.00  0.00    -0.312 A  
HETATM   27  C   UNL     1     -12.016  15.219  68.555  1.00  0.00    -0.228 A  
HETATM   28  C   UNL     1     -11.626  16.336  69.275  1.00  0.00    -0.196 A  
HETATM   29  C   UNL     1     -10.749  17.255  68.711  1.00  0.00    -0.247 A  
ENDBRANCH  20  24
ENDBRANCH  15  16
ENDBRANCH  10  15
ENDBRANCH   9  10
ENDBRANCH   3   9
BRANCH   5  30
HETATM   30  C   UNL     1      -8.832  10.191  69.286  1.00  0.00    -0.191 A  
HETATM   31  C   UNL     1     -10.885  11.010  68.257  1.00  0.00    -0.261 A  
HETATM   32  C   UNL     1      -9.614   9.616  70.296  1.00  0.00    -0.307 A  
HETATM   33  C   UNL     1      -9.495  10.903  68.278  1.00  0.00    -0.168 A  
HETATM   34  C   UNL     1     -11.640  10.470  69.286  1.00  0.00    -0.308 A  
HETATM   35  C   UNL     1     -11.004   9.766  70.302  1.00  0.00    -0.352 A  
ENDBRANCH   5  30
TORSDOF 8
ENDMDL
MODEL      225
REMARK 921   NORMALIZED FREE ENERGY PREDICTED BY IDOCK:   -1.06 KCAL/MOL
REMARK 922        TOTAL FREE ENERGY PREDICTED BY IDOCK:   -2.36 KCAL/MOL
REMARK 923 INTER-LIGAND FREE ENERGY PREDICTED BY IDOCK:   -4.74 KCAL/MOL
REMARK 924 INTRA-LIGAND FREE ENERGY PREDICTED BY IDOCK:    2.38 KCAL/MOL
REMARK 927      BINDING AFFINITY PREDICTED BY RF-SCORE:    0.00 PKD
ROOT
HETATM    1  C   UNL     1      -7.865  16.469  66.376  1.00  0.00    -0.289 C  
HETATM    2  N   UNL     1      -9.314  16.561  66.182  1.00  0.00    -0.303 N  
HETATM    3  C   UNL     1      -9.901  15.428  65.600  1.00  0.00    -0.352 C  
HETATM    4  C   UNL     1     -10.028  17.783  66.730  1.00  0.00    -0.333 C  
HETATM    5  C   UNL     1     -11.192  17.450  67.728  1.00  0.00     0.167 C  
HETATM    6  C   UNL     1      -9.060  18.727  67.507  1.00  0.00    -0.296 C  
HETATM    7  C   UNL     1     -10.545  18.661  65.563  1.00  0.00    -0.010 C  
HETATM    8  O   UNL     1      -9.219  14.425  65.358  1.00  0.00     0.233 OA 
ENDROOT
BRANCH   3   9
HETATM    9  C   UNL     1     -11.411  15.431  65.315  1.00  0.00    -0.243 C  
BRANCH   9  10
HETATM   10  N   UNL     1     -12.040  14.109  65.111  1.00  0.00    -0.394 NA 
BRANCH  10  11
HETATM   11  C   UNL     1     -11.210  13.238  64.259  1.00  0.00    -0.387 C  
BRANCH  11  12
HETATM   12  C   UNL     1     -11.994  12.500  63.150  1.00  0.00    -0.265 C  
HETATM   13  H   UNL     1     -11.764  10.893  62.029  1.00  0.00     0.000 HD 
HETATM   14  O   UNL     1     -11.282  11.347  62.710  1.00  0.00     0.227 OA 
ENDBRANCH  11  12
ENDBRANCH  10  11
BRANCH  10  15
HETATM   15  C   UNL     1     -12.437  13.446  66.385  1.00  0.00    -0.236 C  
BRANCH  15  16
HETATM   16  C   UNL     1     -11.252  12.793  67.165  1.00  0.00    -0.292 C  
HETATM   17  C   UNL     1      -9.847  10.737  67.668  1.00  0.00    -0.171 C  
HETATM   18  C   UNL     1     -11.413  10.808  65.654  1.00  0.00     0.819 C  
HETATM   19  N   UNL     1     -10.897  11.470  66.849  1.00  0.00    -0.270 N  
HETATM   20  C   UNL     1      -9.826  11.070  69.209  1.00  0.00    -0.060 C  
HETATM   21  O   UNL     1     -10.670  13.392  68.071  1.00  0.00    -0.237 OA 
HETATM   22  C   UNL     1      -9.980   9.200  67.555  1.00  0.00    -0.258 C  
HETATM   23  C   UNL     1      -8.450  11.098  67.118  1.00  0.00    -0.137 C  
BRANCH  20  24
HETATM   24  C   UNL     1     -11.078  10.838  70.030  1.00  0.00    -0.327 A  
HETATM   25  C   UNL     1     -11.233   9.603  70.677  1.00  0.00    -0.385 A  
HETATM   26  C   UNL     1     -12.333   9.360  71.502  1.00  0.00    -0.452 A  
HETATM   27  C   UNL     1     -13.281  10.357  71.714  1.00  0.00    -0.529 A  
HETATM   28  C   UNL     1     -13.134  11.592  71.102  1.00  0.00    -0.188 A  
HETATM   29  C   UNL     1     -12.053  11.825  70.259  1.00  0.00    -0.426 A  
ENDBRANCH  20  24
ENDBRANCH  15  16
ENDBRANCH  10  15
ENDBRANCH   9  10
ENDBRANCH   3   9
BRANCH   5  30
HETATM   30  C   UNL     1     -10.823  16.588  68.923  1.00  0.00    -0.336 A  
HETATM   31  C   UNL     1      -9.207  15.357  70.272  1.00  0.00     0.627 A  
HETATM   32  C   UNL     1     -11.811  16.226  69.847  1.00  0.00     0.026 A  
HETATM   33  C   UNL     1      -9.521  16.124  69.150  1.00  0.00    -0.251 A  
HETATM   34  C   UNL     1     -10.205  14.975  71.155  1.00  0.00     0.984 A  
HETATM   35  C   UNL     1     -11.506  15.416  70.945  1.00  0.00    -0.396 A  
ENDBRANCH   5  30
TORSDOF 8
ENDMDL
MODEL      226
REMARK 921   NORMALIZED FREE ENERGY PREDICTED BY IDOCK:   -1.02 KCAL/MOL
REMARK 922        TOTAL FREE ENERGY PREDICTED BY IDOCK:   -2.30 KCAL/MOL
REMARK 923 INTER-LIGAND FREE ENERGY PREDICTED BY IDOCK:   -6.12 KCAL/MOL
REMARK 924 INTRA-LIGAND FREE ENERGY PREDICTED BY IDOCK:    3.82 KCAL/MOL
REMARK 927      BINDING AFFINITY PREDICTED BY RF-SCORE:    0.00 PKD
ROOT
HETATM    1  C   UNL     1     -10.788  10.337  66.870  1.00  0.00    -0.135 C  
HETATM    2  N   UNL     1     -10.472  11.127  68.061  1.00  0.00    -0.181 N  
HETATM    3  C   UNL     1     -11.346  12.197  68.304  1.00  0.00    -0.289 C  
HETATM    4  C   UNL     1      -9.343  10.647  68.954  1.00  0.00    -0.184 C  
HETATM    5  C   UNL     1      -9.763  10.413  70.448  1.00  0.00     0.528 C  
HETATM    6  C   UNL     1      -8.745   9.292  68.464  1.00  0.00    -0.128 C  
HETATM    7  C   UNL     1      -8.148  11.631  68.872  1.00  0.00    -0.005 C  
HETATM    8  O   UNL     1     -12.336  12.371  67.583  1.00  0.00    -0.305 OA 
ENDROOT
BRANCH   3   9
HETATM    9  C   UNL     1     -11.086  13.117  69.507  1.00  0.00    -0.003 C  
BRANCH   9  10
HETATM   10  N   UNL     1     -11.937  14.322  69.604  1.00  0.00    -0.317 NA 
BRANCH  10  11
HETATM   11  C   UNL     1     -13.136  14.076  70.424  1.00  0.00     0.054 C  
BRANCH  11  12
HETATM   12  C   UNL     1     -13.712  15.339  71.104  1.00  0.00    -0.443 C  
HETATM   13  H   UNL     1     -14.562  15.808  72.822  1.00  0.00     0.000 HD 
HETATM   14  O   UNL     1     -14.208  15.032  72.404  1.00  0.00    -0.477 OA 
ENDBRANCH  11  12
ENDBRANCH  10  11
BRANCH  10  15
HETATM   15  C   UNL     1     -11.189  15.535  70.040  1.00  0.00    -0.315 C  
BRANCH  15  16
HETATM   16  C   UNL     1     -10.676  16.429  68.867  1.00  0.00    -0.319 C  
HETATM   17  C   UNL     1     -10.063  16.662  66.413  1.00  0.00    -0.315 C  
HETATM   18  C   UNL     1     -11.387  14.650  67.261  1.00  0.00    -0.353 C  
HETATM   19  N   UNL     1     -10.679  15.891  67.569  1.00  0.00    -0.315 N  
HETATM   20  C   UNL     1      -8.786  17.517  66.764  1.00  0.00    -0.275 C  
HETATM   21  O   UNL     1     -10.230  17.561  69.069  1.00  0.00    -0.345 OA 
HETATM   22  C   UNL     1      -9.662  15.739  65.238  1.00  0.00    -0.005 C  
HETATM   23  C   UNL     1     -11.117  17.645  65.858  1.00  0.00     0.470 C  
BRANCH  20  24
HETATM   24  C   UNL     1      -7.575  16.824  67.355  1.00  0.00    -0.188 A  
HETATM   25  C   UNL     1      -7.755  15.581  67.980  1.00  0.00    -0.134 A  
HETATM   26  C   UNL     1      -6.665  14.867  68.481  1.00  0.00    -0.092 A  
HETATM   27  C   UNL     1      -5.375  15.372  68.342  1.00  0.00    -0.104 A  
HETATM   28  C   UNL     1      -5.174  16.587  67.707  1.00  0.00    -0.138 A  
HETATM   29  C   UNL     1      -6.262  17.312  67.233  1.00  0.00    -0.181 A  
ENDBRANCH  20  24
ENDBRANCH  15  16
ENDBRANCH  10  15
ENDBRANCH   9  10
ENDBRANCH   3   9
BRANCH   5  30
HETATM   30  C   UNL     1     -10.930   9.468  70.674  1.00  0.00    -0.370 A  
HETATM   31  C   UNL     1     -13.298   9.021  71.047  1.00  0.00    -0.037 A  
HETATM   32  C   UNL     1     -10.706   8.085  70.698  1.00  0.00    -0.235 A  
HETATM   33  C   UNL     1     -12.243   9.915  70.870  1.00  0.00    -0.420 A  
HETATM   34  C   UNL     1     -13.052   7.658  71.108  1.00  0.00    -0.198 A  
HETATM   35  C   UNL     1     -11.756   7.191  70.925  1.00  0.00    -0.367 A  
ENDBRANCH   5  30
TORSDOF 8
ENDMDL
MODEL      227
REMARK 921   NORMALIZED FREE ENERGY PREDICTED BY IDOCK:   -0.73 KCAL/MOL
REMARK 922        TOTAL FREE ENERGY PREDICTED BY IDOCK:   -1.88 KCAL/MOL
REMARK 923 INTER-LIGAND FREE ENERGY PREDICTED BY IDOCK:   -3.36 KCAL/MOL
REMARK 924 INTRA-LIGAND FREE ENERGY PREDICTED BY IDOCK:    1.48 KCAL/MOL
REMARK 927      BINDING AFFINITY PREDICTED BY RF-SCORE:    0.00 PKD
ROOT
HETATM    1  C   UNL     1      -9.712   8.458  73.159  1.00  0.00    -0.014 C  
HETATM    2  N   UNL     1     -10.218   8.984  71.889  1.00  0.00    -0.335 N  
HETATM    3  C   UNL     1      -9.243   9.557  71.061  1.00  0.00     0.041 C  
HETATM    4  C   UNL     1     -11.679   8.747  71.554  1.00  0.00    -0.309 C  
HETATM    5  C   UNL     1     -11.912   8.009  70.189  1.00  0.00     0.401 C  
HETATM    6  C   UNL     1     -12.394   7.878  72.635  1.00  0.00    -0.108 C  
HETATM    7  C   UNL     1     -12.454  10.089  71.587  1.00  0.00    -0.513 C  
HETATM    8  O   UNL     1      -8.050   9.528  71.388  1.00  0.00    -0.252 OA 
ENDROOT
BRANCH   3   9
HETATM    9  C   UNL     1      -9.669  10.176  69.721  1.00  0.00    -0.196 C  
BRANCH   9  10
HETATM   10  N   UNL     1      -9.098   9.557  68.505  1.00  0.00    -0.131 NA 
BRANCH  10  11
HETATM   11  C   UNL     1     -10.139   9.271  67.501  1.00  0.00    -0.218 C  
BRANCH  11  12
HETATM   12  C   UNL     1     -11.536   9.826  67.858  1.00  0.00     0.855 C  
HETATM   13  H   UNL     1     -12.645  11.389  67.385  1.00  0.00     0.000 HD 
HETATM   14  O   UNL     1     -11.786  11.047  67.166  1.00  0.00    -0.397 OA 
ENDBRANCH  11  12
ENDBRANCH  10  11
BRANCH  10  15
HETATM   15  C   UNL     1      -7.957  10.328  67.936  1.00  0.00    -0.102 C  
BRANCH  15  16
HETATM   16  C   UNL     1      -6.818   9.442  67.338  1.00  0.00    -0.080 C  
HETATM   17  C   UNL     1      -6.105   7.591  65.750  1.00  0.00    -0.038 C  
HETATM   18  C   UNL     1      -8.406   8.682  65.563  1.00  0.00    -0.150 C  
HETATM   19  N   UNL     1      -7.136   8.576  66.279  1.00  0.00    -0.077 N  
HETATM   20  C   UNL     1      -5.130   6.979  66.827  1.00  0.00    -0.017 C  
HETATM   21  O   UNL     1      -5.678   9.456  67.808  1.00  0.00    -0.041 OA 
HETATM   22  C   UNL     1      -6.755   6.394  65.017  1.00  0.00    -0.039 C  
HETATM   23  C   UNL     1      -5.219   8.314  64.712  1.00  0.00    -0.036 C  
BRANCH  20  24
HETATM   24  C   UNL     1      -5.713   6.217  68.001  1.00  0.00    -0.012 A  
HETATM   25  C   UNL     1      -6.425   6.934  68.974  1.00  0.00    -0.036 A  
HETATM   26  C   UNL     1      -7.042   6.275  70.039  1.00  0.00    -0.072 A  
HETATM   27  C   UNL     1      -6.978   4.887  70.134  1.00  0.00    -0.049 A  
HETATM   28  C   UNL     1      -6.299   4.160  69.170  1.00  0.00    -0.029 A  
HETATM   29  C   UNL     1      -5.661   4.818  68.124  1.00  0.00    -0.017 A  
ENDBRANCH  20  24
ENDBRANCH  15  16
ENDBRANCH  10  15
ENDBRANCH   9  10
ENDBRANCH   3   9
BRANCH   5  30
HETATM   30  C   UNL     1     -11.205   6.675  70.022  1.00  0.00    -0.425 A  
HETATM   31  C   UNL     1     -10.456   4.514  70.868  1.00  0.00     0.063 A  
HETATM   32  C   UNL     1     -10.633   6.345  68.786  1.00  0.00    -0.295 A  
HETATM   33  C   UNL     1     -11.088   5.742  71.060  1.00  0.00    -0.264 A  
HETATM   34  C   UNL     1      -9.861   4.221  69.651  1.00  0.00    -0.244 A  
HETATM   35  C   UNL     1      -9.957   5.134  68.608  1.00  0.00    -0.227 A  
ENDBRANCH   5  30
TORSDOF 8
ENDMDL
MODEL      228
REMARK 921   NORMALIZED FREE ENERGY PREDICTED BY IDOCK:   -0.35 KCAL/MOL
REMARK 922        TOTAL FREE ENERGY PREDICTED BY IDOCK:   -1.31 KCAL/MOL
REMARK 923 INTER-LIGAND FREE ENERGY PREDICTED BY IDOCK:   -2.29 KCAL/MOL
REMARK 924 INTRA-LIGAND FREE ENERGY PREDICTED BY IDOCK:    0.97 KCAL/MOL
REMARK 927      BINDING AFFINITY PREDICTED BY RF-SCORE:    0.00 PKD
ROOT
HETATM    1  C   UNL     1      -8.895   6.607  65.429  1.00  0.00     0.085 C  
HETATM    2  N   UNL     1      -8.045   7.773  65.179  1.00  0.00    -0.133 N  
HETATM    3  C   UNL     1      -8.730   8.995  65.118  1.00  0.00    -0.189 C  
HETATM    4  C   UNL     1      -6.543   7.562  65.138  1.00  0.00    -0.044 C  
HETATM    5  C   UNL     1      -5.744   8.453  66.154  1.00  0.00    -0.043 C  
HETATM    6  C   UNL     1      -6.150   6.089  65.465  1.00  0.00    -0.029 C  
HETATM    7  C   UNL     1      -6.017   7.774  63.696  1.00  0.00    -0.058 C  
HETATM    8  O   UNL     1      -9.946   9.042  65.341  1.00  0.00     0.016 OA 
ENDROOT
BRANCH   3   9
HETATM    9  C   UNL     1      -7.941  10.280  64.820  1.00  0.00    -0.141 C  
BRANCH   9  10
HETATM   10  N   UNL     1      -8.416  11.508  65.493  1.00  0.00     0.152 NA 
BRANCH  10  11
HETATM   11  C   UNL     1      -9.877  11.493  65.684  1.00  0.00    -0.236 C  
BRANCH  11  12
HETATM   12  C   UNL     1     -10.683  11.995  64.465  1.00  0.00    -0.312 C  
HETATM   13  H   UNL     1     -10.965  13.697  63.508  1.00  0.00     0.000 HD 
HETATM   14  O   UNL     1     -10.470  13.388  64.257  1.00  0.00    -0.429 OA 
ENDBRANCH  11  12
ENDBRANCH  10  11
BRANCH  10  15
HETATM   15  C   UNL     1      -7.681  11.807  66.754  1.00  0.00    -0.086 C  
BRANCH  15  16
HETATM   16  C   UNL     1      -7.529  13.330  67.064  1.00  0.00     0.220 C  
HETATM   17  C   UNL     1      -6.880  15.166  68.696  1.00  0.00    -0.105 C  
HETATM   18  C   UNL     1      -6.216  12.736  69.106  1.00  0.00    -0.098 C  
HETATM   19  N   UNL     1      -6.929  13.705  68.278  1.00  0.00    -0.095 N  
HETATM   20  C   UNL     1      -8.130  16.036  68.287  1.00  0.00    -0.150 C  
HETATM   21  O   UNL     1      -7.967  14.190  66.296  1.00  0.00     0.898 OA 
HETATM   22  C   UNL     1      -6.710  15.336  70.224  1.00  0.00     0.044 C  
HETATM   23  C   UNL     1      -5.648  15.827  68.041  1.00  0.00    -0.140 C  
BRANCH  20  24
HETATM   24  C   UNL     1      -9.506  15.621  68.768  1.00  0.00    -0.214 A  
HETATM   25  C   UNL     1     -10.566  15.632  67.849  1.00  0.00    -0.278 A  
HETATM   26  C   UNL     1     -11.839  15.193  68.220  1.00  0.00    -0.275 A  
HETATM   27  C   UNL     1     -12.066  14.714  69.507  1.00  0.00    -0.335 A  
HETATM   28  C   UNL     1     -11.026  14.675  70.422  1.00  0.00    -0.027 A  
HETATM   29  C   UNL     1      -9.765  15.136  70.063  1.00  0.00     0.059 A  
ENDBRANCH  20  24
ENDBRANCH  15  16
ENDBRANCH  10  15
ENDBRANCH   9  10
ENDBRANCH   3   9
BRANCH   5  30
HETATM   30  C   UNL     1      -6.161   8.344  67.610  1.00  0.00    -0.052 A  
HETATM   31  C   UNL     1      -6.153   9.135  69.917  1.00  0.00    -0.038 A  
HETATM   32  C   UNL     1      -7.007   7.302  68.012  1.00  0.00    -0.079 A  
HETATM   33  C   UNL     1      -5.731   9.245  68.593  1.00  0.00    -0.041 A  
HETATM   34  C   UNL     1      -6.958   8.075  70.305  1.00  0.00    -0.044 A  
HETATM   35  C   UNL     1      -7.391   7.163  69.349  1.00  0.00    -0.090 A  
ENDBRANCH   5  30
TORSDOF 8
ENDMDL
MODEL      229
REMARK 921   NORMALIZED FREE ENERGY PREDICTED BY IDOCK:    0.12 KCAL/MOL
REMARK 922        TOTAL FREE ENERGY PREDICTED BY IDOCK:   -0.63 KCAL/MOL
REMARK 923 INTER-LIGAND FREE ENERGY PREDICTED BY IDOCK:   -0.84 KCAL/MOL
REMARK 924 INTRA-LIGAND FREE ENERGY PREDICTED BY IDOCK:    0.21 KCAL/MOL
REMARK 927      BINDING AFFINITY PREDICTED BY RF-SCORE:    0.00 PKD
ROOT
HETATM    1  C   UNL     1     -11.079   9.237  65.982  1.00  0.00     1.833 C  
HETATM    2  N   UNL     1     -10.221  10.107  66.791  1.00  0.00    -0.221 N  
HETATM    3  C   UNL     1      -8.928  10.294  66.281  1.00  0.00    -0.153 C  
HETATM    4  C   UNL     1     -10.841  10.798  67.992  1.00  0.00    -0.255 C  
HETATM    5  C   UNL     1     -10.703  12.361  67.972  1.00  0.00    -0.247 C  
HETATM    6  C   UNL     1     -12.369  10.508  68.110  1.00  0.00     1.675 C  
HETATM    7  C   UNL     1     -10.251  10.215  69.301  1.00  0.00    -0.238 C  
HETATM    8  O   UNL     1      -8.609   9.803  65.192  1.00  0.00    -0.139 OA 
ENDROOT
BRANCH   3   9
HETATM    9  C   UNL     1      -7.931  11.157  67.070  1.00  0.00    -0.145 C  
BRANCH   9  10
HETATM   10  N   UNL     1      -6.862  10.430  67.787  1.00  0.00    -0.073 NA 
BRANCH  10  11
HETATM   11  C   UNL     1      -6.039  11.340  68.603  1.00  0.00    -0.043 C  
BRANCH  11  12
HETATM   12  C   UNL     1      -6.313  11.255  70.122  1.00  0.00    -0.120 C  
HETATM   13  H   UNL     1      -6.308  12.476  71.672  1.00  0.00     0.000 HD 
HETATM   14  O   UNL     1      -6.140  12.528  70.739  1.00  0.00    -0.237 OA 
ENDBRANCH  11  12
ENDBRANCH  10  11
BRANCH  10  15
HETATM   15  C   UNL     1      -7.367   9.266  68.568  1.00  0.00    -0.076 C  
BRANCH  15  16
HETATM   16  C   UNL     1      -6.670   7.911  68.225  1.00  0.00    -0.063 C  
HETATM   17  C   UNL     1      -6.859   5.419  67.772  1.00  0.00    -0.060 C  
HETATM   18  C   UNL     1      -8.920   6.926  67.759  1.00  0.00    -0.117 C  
HETATM   19  N   UNL     1      -7.481   6.791  67.973  1.00  0.00    -0.096 N  
HETATM   20  C   UNL     1      -5.575   5.116  68.634  1.00  0.00    -0.015 C  
HETATM   21  O   UNL     1      -5.442   7.802  68.223  1.00  0.00    -0.029 OA 
HETATM   22  C   UNL     1      -7.858   4.273  68.058  1.00  0.00    -0.079 C  
HETATM   23  C   UNL     1      -6.442   5.277  66.291  1.00  0.00    -0.044 C  
BRANCH  20  24
HETATM   24  C   UNL     1      -5.666   5.197  70.145  1.00  0.00    -0.016 A  
HETATM   25  C   UNL     1      -5.968   6.436  70.730  1.00  0.00    -0.027 A  
HETATM   26  C   UNL     1      -6.132   6.553  72.112  1.00  0.00    -0.038 A  
HETATM   27  C   UNL     1      -6.022   5.431  72.927  1.00  0.00    -0.024 A  
HETATM   28  C   UNL     1      -5.747   4.194  72.365  1.00  0.00    -0.011 A  
HETATM   29  C   UNL     1      -5.556   4.081  70.993  1.00  0.00    -0.012 A  
ENDBRANCH  20  24
ENDBRANCH  15  16
ENDBRANCH  10  15
ENDBRANCH   9  10
ENDBRANCH   3   9
BRANCH   5  30
HETATM   30  C   UNL     1     -11.241  13.064  66.739  1.00  0.00    -0.333 A  
HETATM   31  C   UNL     1     -11.379  13.371  64.324  1.00  0.00    -0.420 A  
HETATM   32  C   UNL     1     -12.170  14.103  66.884  1.00  0.00    -0.400 A  
HETATM   33  C   UNL     1     -10.846  12.726  65.438  1.00  0.00    -0.313 A  
HETATM   34  C   UNL     1     -12.267  14.424  64.488  1.00  0.00    -0.483 A  
HETATM   35  C   UNL     1     -12.668  14.784  65.769  1.00  0.00     0.181 A  
ENDBRANCH   5  30
TORSDOF 8
ENDMDL
MODEL      230
REMARK 921   NORMALIZED FREE ENERGY PREDICTED BY IDOCK:    0.28 KCAL/MOL
REMARK 922        TOTAL FREE ENERGY PREDICTED BY IDOCK:   -0.39 KCAL/MOL
REMARK 923 INTER-LIGAND FREE ENERGY PREDICTED BY IDOCK:   -0.71 KCAL/MOL
REMARK 924 INTRA-LIGAND FREE ENERGY PREDICTED BY IDOCK:    0.32 KCAL/MOL
REMARK 927      BINDING AFFINITY PREDICTED BY RF-SCORE:    0.00 PKD
ROOT
HETATM    1  C   UNL     1      -5.697   4.226  69.140  1.00  0.00    -0.017 C  
HETATM    2  N   UNL     1      -6.268   5.530  68.798  1.00  0.00    -0.032 N  
HETATM    3  C   UNL     1      -6.975   5.563  67.588  1.00  0.00    -0.066 C  
HETATM    4  C   UNL     1      -6.150   6.647  69.820  1.00  0.00    -0.026 C  
HETATM    5  C   UNL     1      -7.524   7.277  70.241  1.00  0.00    -0.084 C  
HETATM    6  C   UNL     1      -5.481   6.162  71.142  1.00  0.00    -0.018 C  
HETATM    7  C   UNL     1      -5.186   7.742  69.297  1.00  0.00    -0.018 C  
HETATM    8  O   UNL     1      -7.140   4.526  66.932  1.00  0.00    -0.065 OA 
ENDROOT
BRANCH   3   9
HETATM    9  C   UNL     1      -7.583   6.891  67.112  1.00  0.00    -0.107 C  
BRANCH   9  10
HETATM   10  N   UNL     1      -8.983   6.837  66.640  1.00  0.00    -0.138 NA 
BRANCH  10  11
HETATM   11  C   UNL     1      -9.938   6.974  67.754  1.00  0.00    -0.152 C  
BRANCH  11  12
HETATM   12  C   UNL     1     -10.880   5.763  67.937  1.00  0.00    -0.165 C  
HETATM   13  H   UNL     1     -12.478   5.310  69.002  1.00  0.00     0.000 HD 
HETATM   14  O   UNL     1     -11.899   6.054  68.890  1.00  0.00     0.429 OA 
ENDBRANCH  11  12
ENDBRANCH  10  11
BRANCH  10  15
HETATM   15  C   UNL     1      -9.265   7.790  65.529  1.00  0.00     0.245 C  
BRANCH  15  16
HETATM   16  C   UNL     1     -10.098   9.041  65.952  1.00  0.00     0.029 C  
HETATM   17  C   UNL     1     -10.446  11.556  65.868  1.00  0.00    -0.255 C  
HETATM   18  C   UNL     1      -8.860  10.385  64.247  1.00  0.00    -0.208 C  
HETATM   19  N   UNL     1      -9.763  10.284  65.391  1.00  0.00    -0.256 N  
HETATM   20  C   UNL     1     -10.803  11.606  67.403  1.00  0.00    -0.298 C  
HETATM   21  O   UNL     1     -10.995   8.961  66.795  1.00  0.00    -0.008 OA 
HETATM   22  C   UNL     1      -9.607  12.821  65.573  1.00  0.00    -0.001 C  
HETATM   23  C   UNL     1     -11.775  11.721  65.099  1.00  0.00    -0.155 C  
BRANCH  20  24
HETATM   24  C   UNL     1      -9.693  11.447  68.423  1.00  0.00    -0.203 A  
HETATM   25  C   UNL     1      -9.920  10.620  69.533  1.00  0.00    -0.138 A  
HETATM   26  C   UNL     1      -8.910  10.384  70.467  1.00  0.00     1.201 A  
HETATM   27  C   UNL     1      -7.650  10.950  70.293  1.00  0.00     0.935 A  
HETATM   28  C   UNL     1      -7.400  11.752  69.191  1.00  0.00    -0.005 A  
HETATM   29  C   UNL     1      -8.413  12.010  68.275  1.00  0.00    -0.167 A  
ENDBRANCH  20  24
ENDBRANCH  15  16
ENDBRANCH  10  15
ENDBRANCH   9  10
ENDBRANCH   3   9
BRANCH   5  30
HETATM   30  C   UNL     1      -8.568   6.311  70.772  1.00  0.00    -0.135 A  
HETATM   31  C   UNL     1     -10.594   5.809  72.032  1.00  0.00    -0.276 A  
HETATM   32  C   UNL     1      -8.476   4.949  70.454  1.00  0.00    -0.104 A  
HETATM   33  C   UNL     1      -9.636   6.716  71.583  1.00  0.00    -0.167 A  
HETATM   34  C   UNL     1     -10.465   4.459  71.741  1.00  0.00    -0.066 A  
HETATM   35  C   UNL     1      -9.409   4.031  70.945  1.00  0.00    -0.221 A  
ENDBRANCH   5  30
TORSDOF 8
ENDMDL
MODEL      231
REMARK 921   NORMALIZED FREE ENERGY PREDICTED BY IDOCK:    1.05 KCAL/MOL
REMARK 922        TOTAL FREE ENERGY PREDICTED BY IDOCK:    0.74 KCAL/MOL
REMARK 923 INTER-LIGAND FREE ENERGY PREDICTED BY IDOCK:   -1.84 KCAL/MOL
REMARK 924 INTRA-LIGAND FREE ENERGY PREDICTED BY IDOCK:    2.58 KCAL/MOL
REMARK 927      BINDING AFFINITY PREDICTED BY RF-SCORE:    0.00 PKD
ROOT
HETATM    1  C   UNL     1      -9.013  10.659  64.007  1.00  0.00    -0.196 C  
HETATM    2  N   UNL     1      -9.081  11.487  65.214  1.00  0.00    -0.090 N  
HETATM    3  C   UNL     1     -10.197  12.333  65.283  1.00  0.00    -0.278 C  
HETATM    4  C   UNL     1      -8.037  11.259  66.291  1.00  0.00    -0.108 C  
HETATM    5  C   UNL     1      -8.636  10.921  67.702  1.00  0.00    -0.124 C  
HETATM    6  C   UNL     1      -7.083  10.076  65.941  1.00  0.00    -0.114 C  
HETATM    7  C   UNL     1      -7.091  12.484  66.380  1.00  0.00     1.151 C  
HETATM    8  O   UNL     1     -11.068  12.292  64.405  1.00  0.00    -0.298 OA 
ENDROOT
BRANCH   3   9
HETATM    9  C   UNL     1     -10.348  13.275  66.488  1.00  0.00    -0.285 C  
BRANCH   9  10
HETATM   10  N   UNL     1     -11.417  14.293  66.391  1.00  0.00    -0.344 NA 
BRANCH  10  11
HETATM   11  C   UNL     1     -12.647  13.856  67.076  1.00  0.00     0.089 C  
BRANCH  11  12
HETATM   12  C   UNL     1     -12.410  12.868  68.240  1.00  0.00     0.267 C  
HETATM   13  H   UNL     1     -12.053  12.963  70.179  1.00  0.00     0.000 HD 
HETATM   14  O   UNL     1     -12.199  13.570  69.463  1.00  0.00    -0.304 OA 
ENDBRANCH  11  12
ENDBRANCH  10  11
BRANCH  10  15
HETATM   15  C   UNL     1     -10.975  15.648  66.826  1.00  0.00    -0.230 C  
BRANCH  15  16
HETATM   16  C   UNL     1      -9.426  15.819  66.923  1.00  0.00    -0.228 C  
HETATM   17  C   UNL     1      -7.305  15.698  68.316  1.00  0.00    -0.115 C  
HETATM   18  C   UNL     1      -9.481  14.634  69.123  1.00  0.00    -0.066 C  
HETATM   19  N   UNL     1      -8.787  15.428  68.112  1.00  0.00    -0.168 N  
HETATM   20  C   UNL     1      -6.763  17.041  67.693  1.00  0.00    -0.162 C  
HETATM   21  O   UNL     1      -8.777  16.329  66.008  1.00  0.00    -0.333 OA 
HETATM   22  C   UNL     1      -6.912  15.721  69.812  1.00  0.00    -0.097 C  
HETATM   23  C   UNL     1      -6.500  14.551  67.668  1.00  0.00    -0.153 C  
BRANCH  20  24
HETATM   24  C   UNL     1      -7.381  18.356  68.123  1.00  0.00    -0.271 A  
HETATM   25  C   UNL     1      -8.749  18.559  67.888  1.00  0.00    -0.301 A  
HETATM   26  C   UNL     1      -9.385  19.723  68.325  1.00  0.00    -0.415 A  
HETATM   27  C   UNL     1      -8.669  20.690  69.026  1.00  0.00     1.186 A  
HETATM   28  C   UNL     1      -7.322  20.497  69.287  1.00  0.00     0.498 A  
HETATM   29  C   UNL     1      -6.682  19.351  68.829  1.00  0.00    -0.338 A  
ENDBRANCH  20  24
ENDBRANCH  15  16
ENDBRANCH  10  15
ENDBRANCH   9  10
ENDBRANCH   3   9
BRANCH   5  30
HETATM   30  C   UNL     1      -9.586   9.738  67.759  1.00  0.00    -0.157 A  
HETATM   31  C   UNL     1     -10.763   7.870  66.723  1.00  0.00    -0.097 A  
HETATM   32  C   UNL     1     -10.183   9.387  68.976  1.00  0.00    -0.216 A  
HETATM   33  C   UNL     1      -9.908   8.968  66.633  1.00  0.00    -0.316 A  
HETATM   34  C   UNL     1     -11.375   7.561  67.927  1.00  0.00     0.544 A  
HETATM   35  C   UNL     1     -11.079   8.316  69.056  1.00  0.00     0.225 A  
ENDBRANCH   5  30
TORSDOF 8
ENDMDL
MODEL      232
REMARK 921   NORMALIZED FREE ENERGY PREDICTED BY IDOCK:    1.13 KCAL/MOL
REMARK 922        TOTAL FREE ENERGY PREDICTED BY IDOCK:    0.85 KCAL/MOL
REMARK 923 INTER-LIGAND FREE ENERGY PREDICTED BY IDOCK:   -2.34 KCAL/MOL
REMARK 924 INTRA-LIGAND FREE ENERGY PREDICTED BY IDOCK:    3.19 KCAL/MOL
REMARK 927      BINDING AFFINITY PREDICTED BY RF-SCORE:    0.00 PKD
ROOT
HETATM    1  C   UNL     1     -12.496  16.069  67.390  1.00  0.00     1.957 C  
HETATM    2  N   UNL     1     -11.417  15.199  67.862  1.00  0.00    -0.334 N  
HETATM    3  C   UNL     1     -10.303  15.874  68.380  1.00  0.00    -0.240 C  
HETATM    4  C   UNL     1     -11.660  13.700  67.860  1.00  0.00    -0.341 C  
HETATM    5  C   UNL     1     -11.466  13.019  69.260  1.00  0.00    -0.348 C  
HETATM    6  C   UNL     1     -13.110  13.343  67.410  1.00  0.00     2.680 C  
HETATM    7  C   UNL     1     -10.763  13.021  66.794  1.00  0.00    -0.273 C  
HETATM    8  O   UNL     1     -10.310  17.107  68.480  1.00  0.00    -0.318 OA 
ENDROOT
BRANCH   3   9
HETATM    9  C   UNL     1      -9.094  15.060  68.868  1.00  0.00    -0.202 C  
BRANCH   9  10
HETATM   10  N   UNL     1      -8.586  14.026  67.940  1.00  0.00    -0.169 NA 
BRANCH  10  11
HETATM   11  C   UNL     1      -7.248  14.369  67.426  1.00  0.00    -0.122 C  
BRANCH  11  12
HETATM   12  C   UNL     1      -6.981  15.887  67.311  1.00  0.00    -0.206 C  
HETATM   13  H   UNL     1      -5.430  17.075  67.036  1.00  0.00     0.000 HD 
HETATM   14  O   UNL     1      -5.594  16.142  67.107  1.00  0.00    -0.305 OA 
ENDBRANCH  11  12
ENDBRANCH  10  11
BRANCH  10  15
HETATM   15  C   UNL     1      -8.640  12.651  68.510  1.00  0.00    -0.051 C  
BRANCH  15  16
HETATM   16  C   UNL     1      -7.389  11.773  68.189  1.00  0.00    -0.094 C  
HETATM   17  C   UNL     1      -6.345   9.869  66.870  1.00  0.00    -0.065 C  
HETATM   18  C   UNL     1      -8.589  10.876  66.188  1.00  0.00    -0.169 C  
HETATM   19  N   UNL     1      -7.479  10.845  67.138  1.00  0.00    -0.103 N  
HETATM   20  C   UNL     1      -5.582   9.341  68.145  1.00  0.00    -0.038 C  
HETATM   21  O   UNL     1      -6.362  11.845  68.867  1.00  0.00    -0.062 OA 
HETATM   22  C   UNL     1      -6.816   8.618  66.093  1.00  0.00    -0.073 C  
HETATM   23  C   UNL     1      -5.292  10.567  65.982  1.00  0.00    -0.083 C  
BRANCH  20  24
HETATM   24  C   UNL     1      -6.364   8.621  69.225  1.00  0.00    -0.042 A  
HETATM   25  C   UNL     1      -6.180   9.017  70.559  1.00  0.00    -0.045 A  
HETATM   26  C   UNL     1      -6.925   8.435  71.587  1.00  0.00    -0.088 A  
HETATM   27  C   UNL     1      -7.882   7.466  71.295  1.00  0.00    -0.095 A  
HETATM   28  C   UNL     1      -8.093   7.078  69.982  1.00  0.00    -0.128 A  
HETATM   29  C   UNL     1      -7.333   7.637  68.961  1.00  0.00    -0.086 A  
ENDBRANCH  20  24
ENDBRANCH  15  16
ENDBRANCH  10  15
ENDBRANCH   9  10
ENDBRANCH   3   9
BRANCH   5  30
HETATM   30  C   UNL     1     -12.287  13.591  70.401  1.00  0.00    -0.397 A  
HETATM   31  C   UNL     1     -13.155  15.463  71.701  1.00  0.00    -0.540 A  
HETATM   32  C   UNL     1     -12.996  12.727  71.246  1.00  0.00    -0.310 A  
HETATM   33  C   UNL     1     -12.371  14.965  70.662  1.00  0.00    -0.406 A  
HETATM   34  C   UNL     1     -13.818  14.591  72.552  1.00  0.00    -0.555 A  
HETATM   35  C   UNL     1     -13.743  13.223  72.319  1.00  0.00    -0.686 A  
ENDBRANCH   5  30
TORSDOF 8
ENDMDL
MODEL      233
REMARK 921   NORMALIZED FREE ENERGY PREDICTED BY IDOCK:    2.69 KCAL/MOL
REMARK 922        TOTAL FREE ENERGY PREDICTED BY IDOCK:    3.14 KCAL/MOL
REMARK 923 INTER-LIGAND FREE ENERGY PREDICTED BY IDOCK:    0.99 KCAL/MOL
REMARK 924 INTRA-LIGAND FREE ENERGY PREDICTED BY IDOCK:    2.15 KCAL/MOL
REMARK 927      BINDING AFFINITY PREDICTED BY RF-SCORE:    0.00 PKD
ROOT
HETATM    1  C   UNL     1      -8.219  10.117  71.759  1.00  0.00     3.703 C  
HETATM    2  N   UNL     1      -8.249   9.334  70.521  1.00  0.00    -0.177 N  
HETATM    3  C   UNL     1      -7.338   8.270  70.478  1.00  0.00    -0.056 C  
HETATM    4  C   UNL     1      -9.318   9.667  69.496  1.00  0.00    -0.200 C  
HETATM    5  C   UNL     1     -10.229   8.451  69.105  1.00  0.00    -0.217 C  
HETATM    6  C   UNL     1     -10.287  10.780  70.000  1.00  0.00     0.140 C  
HETATM    7  C   UNL     1      -8.666  10.287  68.234  1.00  0.00    -0.126 C  
HETATM    8  O   UNL     1      -6.638   8.006  71.464  1.00  0.00    -0.041 OA 
ENDROOT
BRANCH   3   9
HETATM    9  C   UNL     1      -7.256   7.406  69.210  1.00  0.00    -0.080 C  
BRANCH   9  10
HETATM   10  N   UNL     1      -6.918   5.980  69.412  1.00  0.00    -0.062 NA 
BRANCH  10  11
HETATM   11  C   UNL     1      -6.379   5.735  70.762  1.00  0.00    -0.035 C  
BRANCH  11  12
HETATM   12  C   UNL     1      -7.346   4.987  71.706  1.00  0.00    -0.076 C  
HETATM   13  H   UNL     1      -8.821   5.442  72.937  1.00  0.00     0.000 HD 
HETATM   14  O   UNL     1      -8.226   5.901  72.356  1.00  0.00    -0.110 OA 
ENDBRANCH  11  12
ENDBRANCH  10  11
BRANCH  10  15
HETATM   15  C   UNL     1      -8.039   5.059  69.072  1.00  0.00    -0.084 C  
BRANCH  15  16
HETATM   16  C   UNL     1      -8.697   5.334  67.683  1.00  0.00    -0.106 C  
HETATM   17  C   UNL     1      -8.904   4.756  65.218  1.00  0.00    -0.149 C  
HETATM   18  C   UNL     1      -7.738   3.181  66.853  1.00  0.00    -0.076 C  
HETATM   19  N   UNL     1      -8.404   4.460  66.623  1.00  0.00    -0.105 N  
HETATM   20  C   UNL     1      -8.950   6.280  64.815  1.00  0.00     0.441 C  
HETATM   21  O   UNL     1      -9.416   6.319  67.495  1.00  0.00    -0.114 OA 
HETATM   22  C   UNL     1      -8.064   4.043  64.132  1.00  0.00    -0.090 C  
HETATM   23  C   UNL     1     -10.345   4.218  65.082  1.00  0.00    -0.215 C  
BRANCH  20  24
HETATM   24  C   UNL     1      -7.674   7.096  64.870  1.00  0.00    -0.117 A  
HETATM   25  C   UNL     1      -6.663   6.816  63.938  1.00  0.00    -0.048 A  
HETATM   26  C   UNL     1      -5.496   7.582  63.898  1.00  0.00    -0.037 A  
HETATM   27  C   UNL     1      -5.333   8.654  64.771  1.00  0.00    -0.039 A  
HETATM   28  C   UNL     1      -6.330   8.959  65.683  1.00  0.00    -0.060 A  
HETATM   29  C   UNL     1      -7.481   8.181  65.742  1.00  0.00    -0.080 A  
ENDBRANCH  20  24
ENDBRANCH  15  16
ENDBRANCH  10  15
ENDBRANCH   9  10
ENDBRANCH   3   9
BRANCH   5  30
HETATM   30  C   UNL     1     -10.930   7.745  70.252  1.00  0.00    -0.252 A  
HETATM   31  C   UNL     1     -12.218   5.891  71.173  1.00  0.00     0.702 A  
HETATM   32  C   UNL     1     -10.917   8.319  71.529  1.00  0.00    -0.312 A  
HETATM   33  C   UNL     1     -11.608   6.529  70.095  1.00  0.00    -0.466 A  
HETATM   34  C   UNL     1     -12.230   6.493  72.422  1.00  0.00    -0.097 A  
HETATM   35  C   UNL     1     -11.572   7.704  72.601  1.00  0.00    -0.371 A  
ENDBRANCH   5  30
TORSDOF 8
ENDMDL
MODEL      234
REMARK 921   NORMALIZED FREE ENERGY PREDICTED BY IDOCK:    3.18 KCAL/MOL
REMARK 922        TOTAL FREE ENERGY PREDICTED BY IDOCK:    3.87 KCAL/MOL
REMARK 923 INTER-LIGAND FREE ENERGY PREDICTED BY IDOCK:   -1.57 KCAL/MOL
REMARK 924 INTRA-LIGAND FREE ENERGY PREDICTED BY IDOCK:    5.43 KCAL/MOL
REMARK 927      BINDING AFFINITY PREDICTED BY RF-SCORE:    0.00 PKD
ROOT
HETATM    1  C   UNL     1     -11.934  13.291  70.755  1.00  0.00    -0.103 C  
HETATM    2  N   UNL     1     -11.099  13.078  69.570  1.00  0.00    -0.066 N  
HETATM    3  C   UNL     1      -9.992  13.932  69.472  1.00  0.00     0.557 C  
HETATM    4  C   UNL     1     -11.436  11.907  68.665  1.00  0.00    -0.294 C  
HETATM    5  C   UNL     1     -10.248  10.905  68.447  1.00  0.00    -0.193 C  
HETATM    6  C   UNL     1     -12.615  11.054  69.225  1.00  0.00     0.205 C  
HETATM    7  C   UNL     1     -11.968  12.426  67.305  1.00  0.00    -0.246 C  
HETATM    8  O   UNL     1      -9.739  14.735  70.379  1.00  0.00     0.461 OA 
ENDROOT
BRANCH   3   9
HETATM    9  C   UNL     1      -9.069  13.823  68.248  1.00  0.00    -0.195 C  
BRANCH   9  10
HETATM   10  N   UNL     1      -7.619  13.754  68.528  1.00  0.00    -0.130 NA 
BRANCH  10  11
HETATM   11  C   UNL     1      -7.009  12.547  67.941  1.00  0.00    -0.105 C  
BRANCH  11  12
HETATM   12  C   UNL     1      -7.476  12.234  66.502  1.00  0.00     0.415 C  
HETATM   13  H   UNL     1      -6.954  11.025  65.033  1.00  0.00     0.000 HD 
HETATM   14  O   UNL     1      -6.666  11.218  65.918  1.00  0.00     0.032 OA 
ENDBRANCH  11  12
ENDBRANCH  10  11
BRANCH  10  15
HETATM   15  C   UNL     1      -6.890  14.999  68.152  1.00  0.00    -0.131 C  
BRANCH  15  16
HETATM   16  C   UNL     1      -7.696  15.959  67.221  1.00  0.00    -0.191 C  
HETATM   17  C   UNL     1      -9.653  17.546  66.901  1.00  0.00    -0.278 C  
HETATM   18  C   UNL     1      -8.920  16.804  69.231  1.00  0.00    -0.008 C  
HETATM   19  N   UNL     1      -8.747  16.703  67.783  1.00  0.00    -0.199 N  
HETATM   20  C   UNL     1      -9.962  16.954  65.473  1.00  0.00    -0.011 C  
HETATM   21  O   UNL     1      -7.460  16.032  66.013  1.00  0.00     0.304 OA 
HETATM   22  C   UNL     1     -11.023  17.828  67.563  1.00  0.00    -0.091 C  
HETATM   23  C   UNL     1      -8.984  18.920  66.675  1.00  0.00    -0.329 C  
BRANCH  20  24
HETATM   24  C   UNL     1     -10.608  15.587  65.366  1.00  0.00    -0.428 A  
HETATM   25  C   UNL     1     -11.773  15.340  66.108  1.00  0.00     0.109 A  
HETATM   26  C   UNL     1     -12.449  14.123  65.994  1.00  0.00    -0.454 A  
HETATM   27  C   UNL     1     -11.985  13.145  65.119  1.00  0.00    -0.431 A  
HETATM   28  C   UNL     1     -10.849  13.380  64.361  1.00  0.00    -0.422 A  
HETATM   29  C   UNL     1     -10.160  14.580  64.494  1.00  0.00     0.396 A  
ENDBRANCH  20  24
ENDBRANCH  15  16
ENDBRANCH  10  15
ENDBRANCH   9  10
ENDBRANCH   3   9
BRANCH   5  30
HETATM   30  C   UNL     1      -9.628  10.320  69.703  1.00  0.00    -0.192 A  
HETATM   31  C   UNL     1      -7.711   9.803  71.118  1.00  0.00     0.585 A  
HETATM   32  C   UNL     1     -10.453   9.742  70.677  1.00  0.00    -0.358 A  
HETATM   33  C   UNL     1      -8.248  10.323  69.941  1.00  0.00    -0.046 A  
HETATM   34  C   UNL     1      -8.538   9.199  72.053  1.00  0.00     0.394 A  
HETATM   35  C   UNL     1      -9.910   9.176  71.835  1.00  0.00    -0.123 A  
ENDBRANCH   5  30
TORSDOF 8
ENDMDL
MODEL      235
REMARK 921   NORMALIZED FREE ENERGY PREDICTED BY IDOCK:    5.45 KCAL/MOL
REMARK 922        TOTAL FREE ENERGY PREDICTED BY IDOCK:    7.19 KCAL/MOL
REMARK 923 INTER-LIGAND FREE ENERGY PREDICTED BY IDOCK:   -0.99 KCAL/MOL
REMARK 924 INTRA-LIGAND FREE ENERGY PREDICTED BY IDOCK:    8.19 KCAL/MOL
REMARK 927      BINDING AFFINITY PREDICTED BY RF-SCORE:    0.00 PKD
ROOT
HETATM    1  C   UNL     1     -11.558  12.443  69.446  1.00  0.00    -0.307 C  
HETATM    2  N   UNL     1     -10.335  12.196  68.679  1.00  0.00    -0.218 N  
HETATM    3  C   UNL     1     -10.233  10.908  68.136  1.00  0.00    -0.176 C  
HETATM    4  C   UNL     1      -9.393  13.364  68.449  1.00  0.00    -0.165 C  
HETATM    5  C   UNL     1      -9.088  13.652  66.937  1.00  0.00    -0.249 C  
HETATM    6  C   UNL     1      -9.959  14.696  69.029  1.00  0.00    -0.195 C  
HETATM    7  C   UNL     1      -8.077  13.146  69.239  1.00  0.00     0.647 C  
HETATM    8  O   UNL     1     -11.164  10.102  68.260  1.00  0.00    -0.255 OA 
ENDROOT
BRANCH   3   9
HETATM    9  C   UNL     1      -8.972  10.527  67.345  1.00  0.00    -0.135 C  
BRANCH   9  10
HETATM   10  N   UNL     1      -7.758  10.251  68.143  1.00  0.00    -0.091 NA 
BRANCH  10  11
HETATM   11  C   UNL     1      -6.731  11.290  67.948  1.00  0.00    -0.063 C  
BRANCH  11  12
HETATM   12  C   UNL     1      -6.052  11.766  69.252  1.00  0.00    -0.084 C  
HETATM   13  H   UNL     1      -5.475  10.973  70.965  1.00  0.00     0.000 HD 
HETATM   14  O   UNL     1      -5.892  10.681  70.163  1.00  0.00    -0.063 OA 
ENDBRANCH  11  12
ENDBRANCH  10  11
BRANCH  10  15
HETATM   15  C   UNL     1      -8.048  10.003  69.584  1.00  0.00    -0.172 C  
BRANCH  15  16
HETATM   16  C   UNL     1      -9.235   9.020  69.840  1.00  0.00    -0.173 C  
HETATM   17  C   UNL     1     -11.249   8.355  71.237  1.00  0.00    -0.259 C  
HETATM   18  C   UNL     1     -10.187  10.666  71.462  1.00  0.00     3.994 C  
HETATM   19  N   UNL     1     -10.157   9.339  70.850  1.00  0.00    -0.283 N  
HETATM   20  C   UNL     1     -10.851   6.831  71.173  1.00  0.00    -0.275 C  
HETATM   21  O   UNL     1      -9.341   7.963  69.213  1.00  0.00    -0.149 OA 
HETATM   22  C   UNL     1     -11.788   8.606  72.665  1.00  0.00    -0.235 C  
HETATM   23  C   UNL     1     -12.445   8.542  70.278  1.00  0.00     0.756 C  
BRANCH  20  24
HETATM   24  C   UNL     1      -9.681   6.339  72.002  1.00  0.00    -0.164 A  
HETATM   25  C   UNL     1      -9.629   4.979  72.342  1.00  0.00    -0.178 A  
HETATM   26  C   UNL     1      -8.541   4.459  73.044  1.00  0.00    -0.101 A  
HETATM   27  C   UNL     1      -7.476   5.284  73.397  1.00  0.00    -0.095 A  
HETATM   28  C   UNL     1      -7.499   6.625  73.051  1.00  0.00    -0.088 A  
HETATM   29  C   UNL     1      -8.595   7.150  72.375  1.00  0.00    -0.133 A  
ENDBRANCH  20  24
ENDBRANCH  15  16
ENDBRANCH  10  15
ENDBRANCH   9  10
ENDBRANCH   3   9
BRANCH   5  30
HETATM   30  C   UNL     1     -10.294  13.883  66.044  1.00  0.00    -0.310 A  
HETATM   31  C   UNL     1     -11.612  15.255  64.519  1.00  0.00    -0.312 A  
HETATM   32  C   UNL     1     -11.248  12.869  65.894  1.00  0.00    -0.323 A  
HETATM   33  C   UNL     1     -10.509  15.083  65.353  1.00  0.00    -0.406 A  
HETATM   34  C   UNL     1     -12.567  14.255  64.413  1.00  0.00    -0.197 A  
HETATM   35  C   UNL     1     -12.380  13.059  65.095  1.00  0.00    -0.536 A  
ENDBRANCH   5  30
TORSDOF 8
ENDMDL
MODEL      236
REMARK 921   NORMALIZED FREE ENERGY PREDICTED BY IDOCK:    6.30 KCAL/MOL
REMARK 922        TOTAL FREE ENERGY PREDICTED BY IDOCK:    8.44 KCAL/MOL
REMARK 923 INTER-LIGAND FREE ENERGY PREDICTED BY IDOCK:    7.06 KCAL/MOL
REMARK 924 INTRA-LIGAND FREE ENERGY PREDICTED BY IDOCK:    1.38 KCAL/MOL
REMARK 927      BINDING AFFINITY PREDICTED BY RF-SCORE:    0.00 PKD
ROOT
HETATM    1  C   UNL     1      -6.935  16.661  65.953  1.00  0.00     0.915 C  
HETATM    2  N   UNL     1      -8.346  17.048  65.908  1.00  0.00    -0.123 N  
HETATM    3  C   UNL     1      -9.223  16.027  65.515  1.00  0.00     0.168 C  
HETATM    4  C   UNL     1      -8.718  18.435  66.400  1.00  0.00    -0.247 C  
HETATM    5  C   UNL     1      -9.789  18.442  67.548  1.00  0.00    -0.327 C  
HETATM    6  C   UNL     1      -7.485  19.206  66.965  1.00  0.00    -0.228 C  
HETATM    7  C   UNL     1      -9.189  19.310  65.211  1.00  0.00     1.523 C  
HETATM    8  O   UNL     1      -8.798  14.884  65.306  1.00  0.00     1.087 OA 
ENDROOT
BRANCH   3   9
HETATM    9  C   UNL     1     -10.724  16.335  65.396  1.00  0.00    -0.327 C  
BRANCH   9  10
HETATM   10  N   UNL     1     -11.598  15.195  65.042  1.00  0.00    -0.331 NA 
BRANCH  10  11
HETATM   11  C   UNL     1     -10.846  14.124  64.364  1.00  0.00    -0.201 C  
BRANCH  11  12
HETATM   12  C   UNL     1     -11.732  13.099  63.621  1.00  0.00    -0.449 C  
HETATM   13  H   UNL     1     -11.556  11.263  62.918  1.00  0.00     0.000 HD 
HETATM   14  O   UNL     1     -11.012  11.894  63.374  1.00  0.00    -0.403 OA 
ENDBRANCH  11  12
ENDBRANCH  10  11
BRANCH  10  15
HETATM   15  C   UNL     1     -12.395  14.688  66.195  1.00  0.00    -0.088 C  
BRANCH  15  16
HETATM   16  C   UNL     1     -11.535  14.160  67.387  1.00  0.00    -0.345 C  
HETATM   17  C   UNL     1     -10.958  12.272  68.986  1.00  0.00    -0.201 C  
HETATM   18  C   UNL     1     -12.351  11.850  66.889  1.00  0.00     1.089 C  
HETATM   19  N   UNL     1     -11.662  12.808  67.750  1.00  0.00    -0.351 N  
HETATM   20  C   UNL     1     -10.857  13.270  70.202  1.00  0.00     0.909 C  
HETATM   21  O   UNL     1     -10.801  14.910  68.033  1.00  0.00    -0.251 OA 
HETATM   22  C   UNL     1     -11.622  10.985  69.530  1.00  0.00    -0.384 C  
HETATM   23  C   UNL     1      -9.511  11.892  68.604  1.00  0.00    -0.087 C  
BRANCH  20  24
HETATM   24  C   UNL     1     -12.130  13.842  70.793  1.00  0.00    -0.404 A  
HETATM   25  C   UNL     1     -12.405  13.599  72.148  1.00  0.00     0.108 A  
HETATM   26  C   UNL     1     -13.526  14.160  72.761  1.00  0.00    -0.592 A  
HETATM   27  C   UNL     1     -14.377  14.992  72.038  1.00  0.00    -0.666 A  
HETATM   28  C   UNL     1     -14.110  15.261  70.706  1.00  0.00    -0.012 A  
HETATM   29  C   UNL     1     -13.008  14.682  70.086  1.00  0.00    -0.065 A  
ENDBRANCH  20  24
ENDBRANCH  15  16
ENDBRANCH  10  15
ENDBRANCH   9  10
ENDBRANCH   3   9
BRANCH   5  30
HETATM   30  C   UNL     1      -9.454  17.618  68.779  1.00  0.00    -0.250 A  
HETATM   31  C   UNL     1     -10.065  16.538  70.878  1.00  0.00     1.936 A  
HETATM   32  C   UNL     1      -8.153  17.128  68.951  1.00  0.00    -0.203 A  
HETATM   33  C   UNL     1     -10.395  17.321  69.773  1.00  0.00     0.165 A  
HETATM   34  C   UNL     1      -8.763  16.096  71.053  1.00  0.00     4.235 A  
HETATM   35  C   UNL     1      -7.808  16.385  70.084  1.00  0.00     1.461 A  
ENDBRANCH   5  30
TORSDOF 8
ENDMDL
MODEL      237
REMARK 921   NORMALIZED FREE ENERGY PREDICTED BY IDOCK:    7.91 KCAL/MOL
REMARK 922        TOTAL FREE ENERGY PREDICTED BY IDOCK:   10.80 KCAL/MOL
REMARK 923 INTER-LIGAND FREE ENERGY PREDICTED BY IDOCK:   10.97 KCAL/MOL
REMARK 924 INTRA-LIGAND FREE ENERGY PREDICTED BY IDOCK:   -0.18 KCAL/MOL
REMARK 927      BINDING AFFINITY PREDICTED BY RF-SCORE:    0.00 PKD
ROOT
HETATM    1  C   UNL     1      -7.300  16.118  65.784  1.00  0.00     2.134 C  
HETATM    2  N   UNL     1      -8.412  15.646  66.612  1.00  0.00    -0.270 N  
HETATM    3  C   UNL     1      -9.654  16.221  66.309  1.00  0.00    -0.308 C  
HETATM    4  C   UNL     1      -8.138  14.524  67.598  1.00  0.00    -0.179 C  
HETATM    5  C   UNL     1      -9.061  13.269  67.410  1.00  0.00    -0.216 C  
HETATM    6  C   UNL     1      -6.675  13.996  67.491  1.00  0.00    -0.128 C  
HETATM    7  C   UNL     1      -8.234  15.060  69.049  1.00  0.00    -0.187 C  
HETATM    8  O   UNL     1      -9.765  17.004  65.357  1.00  0.00    -0.467 OA 
ENDROOT
BRANCH   3   9
HETATM    9  C   UNL     1     -10.884  15.828  67.142  1.00  0.00    -0.289 C  
BRANCH   9  10
HETATM   10  N   UNL     1     -11.069  16.554  68.417  1.00  0.00    -0.359 NA 
BRANCH  10  11
HETATM   11  C   UNL     1     -10.430  17.882  68.383  1.00  0.00    -0.330 C  
BRANCH  11  12
HETATM   12  C   UNL     1     -11.402  19.061  68.611  1.00  0.00     1.878 C  
HETATM   13  H   UNL     1     -11.549  20.953  68.067  1.00  0.00     0.000 HD 
HETATM   14  O   UNL     1     -10.951  20.228  67.928  1.00  0.00     0.044 OA 
ENDBRANCH  11  12
ENDBRANCH  10  11
BRANCH  10  15
HETATM   15  C   UNL     1     -12.492  16.619  68.853  1.00  0.00     1.921 C  
BRANCH  15  16
HETATM   16  C   UNL     1     -12.847  15.656  70.030  1.00  0.00     0.085 C  
HETATM   17  C   UNL     1     -12.161  14.516  72.194  1.00  0.00    -0.219 C  
HETATM   18  C   UNL     1     -10.827  16.477  71.251  1.00  0.00     0.759 C  
HETATM   19  N   UNL     1     -11.936  15.539  71.092  1.00  0.00    -0.343 N  
HETATM   20  C   UNL     1     -12.815  13.156  71.740  1.00  0.00    -0.358 C  
HETATM   21  O   UNL     1     -13.873  14.972  70.014  1.00  0.00     0.742 OA 
HETATM   22  C   UNL     1     -10.853  14.148  72.933  1.00  0.00     3.897 C  
HETATM   23  C   UNL     1     -13.105  15.130  73.252  1.00  0.00    -0.622 C  
BRANCH  20  24
HETATM   24  C   UNL     1     -12.122  12.323  70.680  1.00  0.00    -0.330 A  
HETATM   25  C   UNL     1     -12.720  12.221  69.415  1.00  0.00     0.722 A  
HETATM   26  C   UNL     1     -12.091  11.525  68.381  1.00  0.00    -0.119 A  
HETATM   27  C   UNL     1     -10.845  10.940  68.588  1.00  0.00    -0.258 A  
HETATM   28  C   UNL     1     -10.229  11.048  69.824  1.00  0.00     0.199 A  
HETATM   29  C   UNL     1     -10.866  11.718  70.863  1.00  0.00     2.838 A  
ENDBRANCH  20  24
ENDBRANCH  15  16
ENDBRANCH  10  15
ENDBRANCH   9  10
ENDBRANCH   3   9
BRANCH   5  30
HETATM   30  C   UNL     1      -9.064  12.643  66.027  1.00  0.00     0.099 A  
HETATM   31  C   UNL     1      -9.710  12.620  63.676  1.00  0.00     0.433 A  
HETATM   32  C   UNL     1      -8.365  11.449  65.805  1.00  0.00     0.100 A  
HETATM   33  C   UNL     1      -9.748  13.204  64.941  1.00  0.00     0.091 A  
HETATM   34  C   UNL     1      -9.046  11.418  63.484  1.00  0.00    -0.024 A  
HETATM   35  C   UNL     1      -8.367  10.837  64.548  1.00  0.00     0.038 A  
ENDBRANCH   5  30
TORSDOF 8
ENDMDL
MODEL      238
REMARK 921   NORMALIZED FREE ENERGY PREDICTED BY IDOCK:   10.47 KCAL/MOL
REMARK 922        TOTAL FREE ENERGY PREDICTED BY IDOCK:   14.57 KCAL/MOL
REMARK 923 INTER-LIGAND FREE ENERGY PREDICTED BY IDOCK:    0.83 KCAL/MOL
REMARK 924 INTRA-LIGAND FREE ENERGY PREDICTED BY IDOCK:   13.74 KCAL/MOL
REMARK 927      BINDING AFFINITY PREDICTED BY RF-SCORE:    0.00 PKD
ROOT
HETATM    1  C   UNL     1     -11.446   9.631  72.565  1.00  0.00     1.397 C  
HETATM    2  N   UNL     1     -11.109   9.254  71.190  1.00  0.00    -0.310 N  
HETATM    3  C   UNL     1      -9.750   9.371  70.866  1.00  0.00    -0.250 C  
HETATM    4  C   UNL     1     -12.211   8.673  70.323  1.00  0.00     0.497 C  
HETATM    5  C   UNL     1     -11.878   7.259  69.728  1.00  0.00     0.231 C  
HETATM    6  C   UNL     1     -13.546   8.499  71.111  1.00  0.00    -0.060 C  
HETATM    7  C   UNL     1     -12.576   9.668  69.193  1.00  0.00     2.151 C  
HETATM    8  O   UNL     1      -8.927   9.698  71.730  1.00  0.00     0.156 OA 
ENDROOT
BRANCH   3   9
HETATM    9  C   UNL     1      -9.291   9.039  69.437  1.00  0.00    -0.158 C  
BRANCH   9  10
HETATM   10  N   UNL     1      -9.338   7.613  69.051  1.00  0.00    -0.147 NA 
BRANCH  10  11
HETATM   11  C   UNL     1     -10.568   7.292  68.305  1.00  0.00    -0.172 C  
BRANCH  11  12
HETATM   12  C   UNL     1     -10.745   8.094  66.996  1.00  0.00    -0.177 C  
HETATM   13  H   UNL     1      -9.914   8.161  65.208  1.00  0.00     0.000 HD 
HETATM   14  O   UNL     1      -9.805   7.669  66.013  1.00  0.00     0.015 OA 
ENDBRANCH  11  12
ENDBRANCH  10  11
BRANCH  10  15
HETATM   15  C   UNL     1      -8.109   7.157  68.342  1.00  0.00    -0.124 C  
BRANCH  15  16
HETATM   16  C   UNL     1      -7.187   6.224  69.191  1.00  0.00    -0.087 C  
HETATM   17  C   UNL     1      -6.693   3.913  70.121  1.00  0.00    -0.033 C  
HETATM   18  C   UNL     1      -8.404   4.251  68.257  1.00  0.00    -0.092 C  
HETATM   19  N   UNL     1      -7.468   4.848  69.206  1.00  0.00    -0.056 N  
HETATM   20  C   UNL     1      -6.278   4.512  71.519  1.00  0.00    -0.018 C  
HETATM   21  O   UNL     1      -6.266   6.678  69.873  1.00  0.00    -0.035 OA 
HETATM   22  C   UNL     1      -7.465   2.606  70.418  1.00  0.00    -0.039 C  
HETATM   23  C   UNL     1      -5.385   3.498  69.411  1.00  0.00    -0.012 C  
BRANCH  20  24
HETATM   24  C   UNL     1      -7.357   5.032  72.448  1.00  0.00    -0.092 A  
HETATM   25  C   UNL     1      -7.982   6.247  72.131  1.00  0.00    -0.108 A  
HETATM   26  C   UNL     1      -9.029   6.738  72.914  1.00  0.00    -0.141 A  
HETATM   27  C   UNL     1      -9.485   6.010  74.009  1.00  0.00    -0.152 A  
HETATM   28  C   UNL     1      -8.895   4.796  74.324  1.00  0.00    -0.112 A  
HETATM   29  C   UNL     1      -7.834   4.320  73.562  1.00  0.00    -0.086 A  
ENDBRANCH  20  24
ENDBRANCH  15  16
ENDBRANCH  10  15
ENDBRANCH   9  10
ENDBRANCH   3   9
BRANCH   5  30
HETATM   30  C   UNL     1     -11.500   6.184  70.731  1.00  0.00    -0.321 A  
HETATM   31  C   UNL     1     -11.564   5.203  72.962  1.00  0.00    -0.301 A  
HETATM   32  C   UNL     1     -10.708   5.103  70.321  1.00  0.00    -0.121 A  
HETATM   33  C   UNL     1     -11.904   6.220  72.072  1.00  0.00    -0.370 A  
HETATM   34  C   UNL     1     -10.746   4.162  72.550  1.00  0.00    -0.101 A  
HETATM   35  C   UNL     1     -10.325   4.109  71.226  1.00  0.00     0.057 A  
ENDBRANCH   5  30
TORSDOF 8
ENDMDL
MODEL      239
REMARK 921   NORMALIZED FREE ENERGY PREDICTED BY IDOCK:   12.63 KCAL/MOL
REMARK 922        TOTAL FREE ENERGY PREDICTED BY IDOCK:   17.74 KCAL/MOL
REMARK 923 INTER-LIGAND FREE ENERGY PREDICTED BY IDOCK:    8.52 KCAL/MOL
REMARK 924 INTRA-LIGAND FREE ENERGY PREDICTED BY IDOCK:    9.22 KCAL/MOL
REMARK 927      BINDING AFFINITY PREDICTED BY RF-SCORE:    0.00 PKD
ROOT
HETATM    1  C   UNL     1     -11.778  13.920  70.783  1.00  0.00    -0.066 C  
HETATM    2  N   UNL     1     -11.206  13.111  69.704  1.00  0.00    -0.093 N  
HETATM    3  C   UNL     1      -9.810  13.176  69.599  1.00  0.00     1.427 C  
HETATM    4  C   UNL     1     -12.143  12.214  68.915  1.00  0.00    -0.133 C  
HETATM    5  C   UNL     1     -11.728  10.701  68.913  1.00  0.00    -0.282 C  
HETATM    6  C   UNL     1     -13.599  12.255  69.471  1.00  0.00     3.990 C  
HETATM    7  C   UNL     1     -12.285  12.742  67.465  1.00  0.00    -0.013 C  
HETATM    8  O   UNL     1      -9.150  13.820  70.425  1.00  0.00     2.834 OA 
ENDROOT
BRANCH   3   9
HETATM    9  C   UNL     1      -9.106  12.398  68.476  1.00  0.00    -0.067 C  
BRANCH   9  10
HETATM   10  N   UNL     1      -7.875  11.673  68.856  1.00  0.00    -0.087 NA 
BRANCH  10  11
HETATM   11  C   UNL     1      -7.883  10.287  68.353  1.00  0.00    -0.102 C  
BRANCH  11  12
HETATM   12  C   UNL     1      -8.135  10.165  66.833  1.00  0.00    -0.121 C  
HETATM   13  H   UNL     1      -9.346   9.170  65.635  1.00  0.00     0.000 HD 
HETATM   14  O   UNL     1      -9.191   9.246  66.569  1.00  0.00    -0.145 OA 
ENDBRANCH  11  12
ENDBRANCH  10  11
BRANCH  10  15
HETATM   15  C   UNL     1      -6.629  12.403  68.491  1.00  0.00    -0.073 C  
BRANCH  15  16
HETATM   16  C   UNL     1      -6.845  13.580  67.487  1.00  0.00    -0.143 C  
HETATM   17  C   UNL     1      -7.784  15.892  67.011  1.00  0.00    -0.233 C  
HETATM   18  C   UNL     1      -7.566  15.018  69.400  1.00  0.00    -0.195 C  
HETATM   19  N   UNL     1      -7.422  14.767  67.968  1.00  0.00    -0.116 N  
HETATM   20  C   UNL     1      -8.299  15.442  65.591  1.00  0.00     1.772 C  
HETATM   21  O   UNL     1      -6.568  13.464  66.291  1.00  0.00     2.023 OA 
HETATM   22  C   UNL     1      -8.866  16.833  67.591  1.00  0.00    -0.207 C  
HETATM   23  C   UNL     1      -6.529  16.760  66.773  1.00  0.00    -0.226 C  
BRANCH  20  24
HETATM   24  C   UNL     1      -9.521  14.551  65.498  1.00  0.00     0.042 A  
HETATM   25  C   UNL     1      -9.378  13.188  65.798  1.00  0.00     0.143 A  
HETATM   26  C   UNL     1     -10.483  12.335  65.796  1.00  0.00    -0.287 A  
HETATM   27  C   UNL     1     -11.752  12.836  65.519  1.00  0.00    -0.436 A  
HETATM   28  C   UNL     1     -11.917  14.183  65.242  1.00  0.00    -0.383 A  
HETATM   29  C   UNL     1     -10.813  15.028  65.217  1.00  0.00    -0.399 A  
ENDBRANCH  20  24
ENDBRANCH  15  16
ENDBRANCH  10  15
ENDBRANCH   9  10
ENDBRANCH   3   9
BRANCH   5  30
HETATM   30  C   UNL     1     -11.551  10.055  70.275  1.00  0.00    -0.354 A  
HETATM   31  C   UNL     1     -10.485   8.457  71.778  1.00  0.00    -0.353 A  
HETATM   32  C   UNL     1     -12.319  10.501  71.359  1.00  0.00    -0.477 A  
HETATM   33  C   UNL     1     -10.645   9.012  70.509  1.00  0.00    -0.274 A  
HETATM   34  C   UNL     1     -11.282   8.884  72.830  1.00  0.00     0.516 A  
HETATM   35  C   UNL     1     -12.194   9.911  72.620  1.00  0.00     1.041 A  
ENDBRANCH   5  30
TORSDOF 8
ENDMDL
MODEL      240
REMARK 921   NORMALIZED FREE ENERGY PREDICTED BY IDOCK:   12.66 KCAL/MOL
REMARK 922        TOTAL FREE ENERGY PREDICTED BY IDOCK:   17.78 KCAL/MOL
REMARK 923 INTER-LIGAND FREE ENERGY PREDICTED BY IDOCK:    6.94 KCAL/MOL
REMARK 924 INTRA-LIGAND FREE ENERGY PREDICTED BY IDOCK:   10.83 KCAL/MOL
REMARK 927      BINDING AFFINITY PREDICTED BY RF-SCORE:    0.00 PKD
ROOT
HETATM    1  C   UNL     1     -11.230  10.084  72.306  1.00  0.00     1.957 C  
HETATM    2  N   UNL     1     -11.099  10.364  70.875  1.00  0.00    -0.162 N  
HETATM    3  C   UNL     1      -9.785  10.580  70.437  1.00  0.00     0.834 C  
HETATM    4  C   UNL     1     -12.347  10.269  70.015  1.00  0.00    -0.090 C  
HETATM    5  C   UNL     1     -12.218   9.272  68.810  1.00  0.00     2.489 C  
HETATM    6  C   UNL     1     -13.586   9.791  70.832  1.00  0.00    -0.081 C  
HETATM    7  C   UNL     1     -12.754  11.679  69.516  1.00  0.00     0.393 C  
HETATM    8  O   UNL     1      -8.836  10.457  71.222  1.00  0.00     1.803 OA 
ENDROOT
BRANCH   3   9
HETATM    9  C   UNL     1      -9.534  10.921  68.960  1.00  0.00    -0.146 C  
BRANCH   9  10
HETATM   10  N   UNL     1     -10.078   9.969  67.968  1.00  0.00    -0.160 NA 
BRANCH  10  11
HETATM   11  C   UNL     1     -11.234  10.533  67.250  1.00  0.00    -0.125 C  
BRANCH  11  12
HETATM   12  C   UNL     1     -10.950  11.880  66.547  1.00  0.00    -0.292 C  
HETATM   13  H   UNL     1     -11.982  13.284  65.620  1.00  0.00     0.000 HD 
HETATM   14  O   UNL     1     -12.156  12.456  66.052  1.00  0.00    -0.600 OA 
ENDBRANCH  11  12
ENDBRANCH  10  11
BRANCH  10  15
HETATM   15  C   UNL     1      -9.041   9.431  67.043  1.00  0.00    -0.134 C  
BRANCH  15  16
HETATM   16  C   UNL     1      -8.231   8.226  67.617  1.00  0.00    -0.127 C  
HETATM   17  C   UNL     1      -6.299   6.593  67.385  1.00  0.00    -0.044 C  
HETATM   18  C   UNL     1      -6.439   8.691  65.937  1.00  0.00    -0.057 C  
HETATM   19  N   UNL     1      -7.052   7.841  66.956  1.00  0.00    -0.083 N  
HETATM   20  C   UNL     1      -7.192   5.392  67.881  1.00  0.00    -0.072 C  
HETATM   21  O   UNL     1      -8.632   7.588  68.593  1.00  0.00    -0.129 OA 
HETATM   22  C   UNL     1      -5.399   6.032  66.258  1.00  0.00    -0.009 C  
HETATM   23  C   UNL     1      -5.360   6.960  68.555  1.00  0.00    -0.016 C  
BRANCH  20  24
HETATM   24  C   UNL     1      -8.239   4.818  66.949  1.00  0.00    -0.107 A  
HETATM   25  C   UNL     1      -9.217   5.680  66.432  1.00  0.00    -0.160 A  
HETATM   26  C   UNL     1     -10.164   5.219  65.515  1.00  0.00     0.168 A  
HETATM   27  C   UNL     1     -10.133   3.897  65.082  1.00  0.00    -0.145 A  
HETATM   28  C   UNL     1      -9.161   3.036  65.565  1.00  0.00    -0.150 A  
HETATM   29  C   UNL     1      -8.234   3.486  66.498  1.00  0.00    -0.100 A  
ENDBRANCH  20  24
ENDBRANCH  15  16
ENDBRANCH  10  15
ENDBRANCH   9  10
ENDBRANCH   3   9
BRANCH   5  30
HETATM   30  C   UNL     1     -11.820   7.849  69.159  1.00  0.00     1.418 A  
HETATM   31  C   UNL     1     -11.955   5.858  70.560  1.00  0.00     0.674 A  
HETATM   32  C   UNL     1     -10.913   7.164  68.341  1.00  0.00    -0.080 A  
HETATM   33  C   UNL     1     -12.319   7.175  70.281  1.00  0.00     0.100 A  
HETATM   34  C   UNL     1     -11.026   5.209  69.762  1.00  0.00     0.476 A  
HETATM   35  C   UNL     1     -10.510   5.860  68.648  1.00  0.00    -0.302 A  
ENDBRANCH   5  30
TORSDOF 8
ENDMDL
MODEL      241
REMARK 921   NORMALIZED FREE ENERGY PREDICTED BY IDOCK:   18.12 KCAL/MOL
REMARK 922        TOTAL FREE ENERGY PREDICTED BY IDOCK:   25.79 KCAL/MOL
REMARK 923 INTER-LIGAND FREE ENERGY PREDICTED BY IDOCK:   17.32 KCAL/MOL
REMARK 924 INTRA-LIGAND FREE ENERGY PREDICTED BY IDOCK:    8.47 KCAL/MOL
REMARK 927      BINDING AFFINITY PREDICTED BY RF-SCORE:    0.00 PKD
ROOT
HETATM    1  C   UNL     1      -8.278  15.315  66.420  1.00  0.00     0.145 C  
HETATM    2  N   UNL     1      -9.521  14.924  67.090  1.00  0.00    -0.218 N  
HETATM    3  C   UNL     1     -10.578  15.832  66.944  1.00  0.00    -0.317 C  
HETATM    4  C   UNL     1      -9.573  13.556  67.748  1.00  0.00    -0.219 C  
HETATM    5  C   UNL     1     -10.740  12.643  67.233  1.00  0.00    -0.259 C  
HETATM    6  C   UNL     1      -8.262  12.744  67.513  1.00  0.00    -0.179 C  
HETATM    7  C   UNL     1      -9.641  13.712  69.288  1.00  0.00     0.526 C  
HETATM    8  O   UNL     1     -10.446  16.835  66.230  1.00  0.00    -0.307 OA 
ENDROOT
BRANCH   3   9
HETATM    9  C   UNL     1     -11.917  15.540  67.639  1.00  0.00     0.257 C  
BRANCH   9  10
HETATM   10  N   UNL     1     -11.860  15.317  69.099  1.00  0.00    -0.327 NA 
BRANCH  10  11
HETATM   11  C   UNL     1     -10.814  16.139  69.734  1.00  0.00    -0.333 C  
BRANCH  11  12
HETATM   12  C   UNL     1     -11.033  16.391  71.243  1.00  0.00     0.390 C  
HETATM   13  H   UNL     1     -10.516  15.548  72.950  1.00  0.00     0.000 HD 
HETATM   14  O   UNL     1     -10.381  15.393  72.023  1.00  0.00     0.813 OA 
ENDBRANCH  11  12
ENDBRANCH  10  11
BRANCH  10  15
HETATM   15  C   UNL     1     -13.184  15.465  69.767  1.00  0.00     0.624 C  
BRANCH  15  16
HETATM   16  C   UNL     1     -13.572  14.272  70.697  1.00  0.00     0.214 C  
HETATM   17  C   UNL     1     -13.143  12.930  72.811  1.00  0.00     0.455 C  
HETATM   18  C   UNL     1     -12.085  15.227  72.465  1.00  0.00    -0.407 C  
HETATM   19  N   UNL     1     -12.907  14.145  71.928  1.00  0.00    -0.335 N  
HETATM   20  C   UNL     1     -13.378  11.569  72.050  1.00  0.00    -0.397 C  
HETATM   21  O   UNL     1     -14.400  13.428  70.348  1.00  0.00     2.486 OA 
HETATM   22  C   UNL     1     -11.977  12.684  73.797  1.00  0.00     9.241 C  
HETATM   23  C   UNL     1     -14.401  13.180  73.671  1.00  0.00     5.708 C  
BRANCH  20  24
HETATM   24  C   UNL     1     -12.312  11.061  71.101  1.00  0.00    -0.465 A  
HETATM   25  C   UNL     1     -12.627  10.955  69.738  1.00  0.00    -0.150 A  
HETATM   26  C   UNL     1     -11.663  10.559  68.809  1.00  0.00    -0.190 A  
HETATM   27  C   UNL     1     -10.362  10.288  69.224  1.00  0.00    -0.250 A  
HETATM   28  C   UNL     1     -10.025  10.409  70.562  1.00  0.00     0.533 A  
HETATM   29  C   UNL     1     -10.991  10.776  71.492  1.00  0.00     2.141 A  
ENDBRANCH  20  24
ENDBRANCH  15  16
ENDBRANCH  10  15
ENDBRANCH   9  10
ENDBRANCH   3   9
BRANCH   5  30
HETATM   30  C   UNL     1     -10.794  12.408  65.734  1.00  0.00    -0.312 A  
HETATM   31  C   UNL     1     -11.397  13.082  63.469  1.00  0.00    -0.319 A  
HETATM   32  C   UNL     1     -10.235  11.242  65.195  1.00  0.00    -0.344 A  
HETATM   33  C   UNL     1     -11.388  13.312  64.844  1.00  0.00    -0.337 A  
HETATM   34  C   UNL     1     -10.876  11.904  62.958  1.00  0.00    -0.120 A  
HETATM   35  C   UNL     1     -10.288  10.987  63.821  1.00  0.00    -0.427 A  
ENDBRANCH   5  30
TORSDOF 8
ENDMDL
MODEL      242
REMARK 921   NORMALIZED FREE ENERGY PREDICTED BY IDOCK:   48.08 KCAL/MOL
REMARK 922        TOTAL FREE ENERGY PREDICTED BY IDOCK:   69.76 KCAL/MOL
REMARK 923 INTER-LIGAND FREE ENERGY PREDICTED BY IDOCK:   45.36 KCAL/MOL
REMARK 924 INTRA-LIGAND FREE ENERGY PREDICTED BY IDOCK:   24.40 KCAL/MOL
REMARK 927      BINDING AFFINITY PREDICTED BY RF-SCORE:    0.00 PKD
ROOT
HETATM    1  C   UNL     1     -11.287  10.346  72.583  1.00  0.00     4.531 C  
HETATM    2  N   UNL     1     -10.885  11.029  71.352  1.00  0.00     2.335 N  
HETATM    3  C   UNL     1      -9.501  11.068  71.128  1.00  0.00     5.839 C  
HETATM    4  C   UNL     1     -11.978  11.498  70.409  1.00  0.00    -0.368 C  
HETATM    5  C   UNL     1     -11.850  10.934  68.950  1.00  0.00    -0.340 C  
HETATM    6  C   UNL     1     -13.397  11.079  70.904  1.00  0.00     0.159 C  
HETATM    7  C   UNL     1     -12.034  13.046  70.392  1.00  0.00    -0.337 C  
HETATM    8  O   UNL     1      -8.727  10.490  71.901  1.00  0.00     4.674 OA 
ENDROOT
BRANCH   3   9
HETATM    9  C   UNL     1      -8.964  11.794  69.885  1.00  0.00     2.322 C  
BRANCH   9  10
HETATM   10  N   UNL     1      -9.749  11.631  68.643  1.00  0.00    -0.177 NA 
BRANCH  10  11
HETATM   11  C   UNL     1     -10.906  12.543  68.607  1.00  0.00    -0.248 C  
BRANCH  11  12
HETATM   12  C   UNL     1     -10.585  13.993  69.035  1.00  0.00    -0.187 C  
HETATM   13  H   UNL     1     -11.587  15.623  69.518  1.00  0.00     0.000 HD 
HETATM   14  O   UNL     1     -11.784  14.732  69.255  1.00  0.00    -0.284 OA 
ENDBRANCH  11  12
ENDBRANCH  10  11
BRANCH  10  15
HETATM   15  C   UNL     1      -8.918  11.717  67.409  1.00  0.00    -0.173 C  
BRANCH  15  16
HETATM   16  C   UNL     1      -8.113  10.419  67.085  1.00  0.00    -0.115 C  
HETATM   17  C   UNL     1      -6.881   8.989  65.385  1.00  0.00    -0.073 C  
HETATM   18  C   UNL     1      -7.476  11.421  64.885  1.00  0.00     1.272 C  
HETATM   19  N   UNL     1      -7.554  10.287  65.803  1.00  0.00    -0.138 N  
HETATM   20  C   UNL     1      -7.525   7.669  65.958  1.00  0.00    -0.082 C  
HETATM   21  O   UNL     1      -8.007   9.506  67.906  1.00  0.00    -0.098 OA 
HETATM   22  C   UNL     1      -6.831   8.820  63.848  1.00  0.00    -0.087 C  
HETATM   23  C   UNL     1      -5.415   9.015  65.871  1.00  0.00    -0.041 C  
BRANCH  20  24
HETATM   24  C   UNL     1      -8.981   7.372  65.664  1.00  0.00     0.002 A  
HETATM   25  C   UNL     1      -9.939   8.348  65.978  1.00  0.00     0.023 A  
HETATM   26  C   UNL     1     -11.286   8.155  65.665  1.00  0.00     5.448 A  
HETATM   27  C   UNL     1     -11.693   6.995  65.012  1.00  0.00    10.541 A  
HETATM   28  C   UNL     1     -10.759   6.030  64.673  1.00  0.00     4.235 A  
HETATM   29  C   UNL     1      -9.421   6.208  65.009  1.00  0.00     0.796 A  
ENDBRANCH  20  24
ENDBRANCH  15  16
ENDBRANCH  10  15
ENDBRANCH   9  10
ENDBRANCH   3   9
BRANCH   5  30
HETATM   30  C   UNL     1     -11.783   9.422  68.822  1.00  0.00     0.831 A  
HETATM   31  C   UNL     1     -12.563   7.178  69.369  1.00  0.00     2.363 A  
HETATM   32  C   UNL     1     -10.835   8.842  67.968  1.00  0.00    -0.056 A  
HETATM   33  C   UNL     1     -12.631   8.561  69.530  1.00  0.00     2.749 A  
HETATM   34  C   UNL     1     -11.593   6.619  68.551  1.00  0.00     0.258 A  
HETATM   35  C   UNL     1     -10.734   7.453  67.845  1.00  0.00    -0.217 A  
ENDBRANCH   5  30
TORSDOF 8
ENDMDL
MODEL      243
REMARK 921   NORMALIZED FREE ENERGY PREDICTED BY IDOCK:   57.45 KCAL/MOL
REMARK 922        TOTAL FREE ENERGY PREDICTED BY IDOCK:   83.52 KCAL/MOL
REMARK 923 INTER-LIGAND FREE ENERGY PREDICTED BY IDOCK:   31.56 KCAL/MOL
REMARK 924 INTRA-LIGAND FREE ENERGY PREDICTED BY IDOCK:   51.96 KCAL/MOL
REMARK 927      BINDING AFFINITY PREDICTED BY RF-SCORE:    0.00 PKD
ROOT
HETATM    1  C   UNL     1     -13.502  10.449  66.392  1.00  0.00    15.775 C  
HETATM    2  N   UNL     1     -12.640  11.379  67.125  1.00  0.00     2.332 N  
HETATM    3  C   UNL     1     -13.225  12.620  67.412  1.00  0.00     4.648 C  
HETATM    4  C   UNL     1     -11.288  10.874  67.595  1.00  0.00    -0.270 C  
HETATM    5  C   UNL     1     -11.055  11.013  69.140  1.00  0.00    -0.301 C  
HETATM    6  C   UNL     1     -11.082   9.363  67.268  1.00  0.00     0.165 C  
HETATM    7  C   UNL     1     -10.155  11.581  66.807  1.00  0.00    -0.245 C  
HETATM    8  O   UNL     1     -14.407  12.837  67.117  1.00  0.00    10.946 OA 
ENDROOT
BRANCH   3   9
HETATM    9  C   UNL     1     -12.396  13.687  68.144  1.00  0.00     0.072 C  
BRANCH   9  10
HETATM   10  N   UNL     1     -12.759  13.942  69.555  1.00  0.00     0.078 NA 
BRANCH  10  11
HETATM   11  C   UNL     1     -12.503  12.765  70.403  1.00  0.00    -0.156 C  
BRANCH  11  12
HETATM   12  C   UNL     1     -13.777  12.007  70.840  1.00  0.00     1.661 C  
HETATM   13  H   UNL     1     -14.224  10.298  71.720  1.00  0.00     0.000 HD 
HETATM   14  O   UNL     1     -13.441  10.765  71.451  1.00  0.00    -0.216 OA 
ENDBRANCH  11  12
ENDBRANCH  10  11
BRANCH  10  15
HETATM   15  C   UNL     1     -12.141  15.183  70.103  1.00  0.00    -0.343 C  
BRANCH  15  16
HETATM   16  C   UNL     1     -11.139  15.884  69.132  1.00  0.00    -0.302 C  
HETATM   17  C   UNL     1      -9.906  15.898  66.911  1.00  0.00    -0.243 C  
HETATM   18  C   UNL     1     -11.883  14.334  67.318  1.00  0.00    -0.413 C  
HETATM   19  N   UNL     1     -10.968  15.343  67.847  1.00  0.00    -0.300 N  
HETATM   20  C   UNL     1      -8.574  16.383  67.599  1.00  0.00    -0.181 C  
HETATM   21  O   UNL     1     -10.471  16.857  69.490  1.00  0.00    -0.303 OA 
HETATM   22  C   UNL     1      -9.491  14.880  65.823  1.00  0.00    -0.237 C  
HETATM   23  C   UNL     1     -10.492  17.119  66.169  1.00  0.00    -0.277 C  
BRANCH  20  24
HETATM   24  C   UNL     1      -7.772  15.400  68.429  1.00  0.00    -0.120 A  
HETATM   25  C   UNL     1      -7.822  14.040  68.087  1.00  0.00    -0.144 A  
HETATM   26  C   UNL     1      -7.051  13.101  68.773  1.00  0.00    -0.098 A  
HETATM   27  C   UNL     1      -6.198  13.509  69.795  1.00  0.00    -0.116 A  
HETATM   28  C   UNL     1      -6.118  14.850  70.133  1.00  0.00    -0.157 A  
HETATM   29  C   UNL     1      -6.907  15.783  69.469  1.00  0.00    -0.187 A  
ENDBRANCH  20  24
ENDBRANCH  15  16
ENDBRANCH  10  15
ENDBRANCH   9  10
ENDBRANCH   3   9
BRANCH   5  30
HETATM   30  C   UNL     1     -12.097  10.364  70.034  1.00  0.00    -0.297 A  
HETATM   31  C   UNL     1     -13.163   8.412  71.032  1.00  0.00     0.093 A  
HETATM   32  C   UNL     1     -12.995  11.170  70.746  1.00  0.00    -0.223 A  
HETATM   33  C   UNL     1     -12.213   8.976  70.183  1.00  0.00     0.501 A  
HETATM   34  C   UNL     1     -14.070   9.222  71.698  1.00  0.00    -0.230 A  
HETATM   35  C   UNL     1     -13.980  10.602  71.560  1.00  0.00     0.644 A  
ENDBRANCH   5  30
TORSDOF 8
ENDMDL
