MODEL        1
REMARK 921   NORMALIZED FREE ENERGY PREDICTED BY IDOCK:   -7.08 KCAL/MOL
REMARK 922        TOTAL FREE ENERGY PREDICTED BY IDOCK:  -11.09 KCAL/MOL
REMARK 923 INTER-LIGAND FREE ENERGY PREDICTED BY IDOCK:   -9.97 KCAL/MOL
REMARK 924 INTRA-LIGAND FREE ENERGY PREDICTED BY IDOCK:   -1.12 KCAL/MOL
REMARK 927      BINDING AFFINITY PREDICTED BY RF-SCORE:    0.00 PKD
ROOT
HETATM    1 CL   UNL     1     -13.403  10.024  72.036  1.00  0.00    -0.535 Cl 
HETATM    2  C   UNL     1     -12.934  11.579  71.473  1.00  0.00    -0.380 A  
HETATM    3  C   UNL     1     -13.364  12.718  72.151  1.00  0.00    -0.593 A  
HETATM    4  C   UNL     1     -13.041  13.983  71.643  1.00  0.00    -0.359 A  
HETATM    5 CL   UNL     1     -13.611  15.351  72.541  1.00  0.00    -0.576 Cl 
HETATM    6  C   UNL     1     -12.300  14.137  70.452  1.00  0.00    -0.428 A  
HETATM    7  C   UNL     1     -11.832  12.971  69.826  1.00  0.00    -0.381 A  
HETATM    8  C   UNL     1     -12.148  11.702  70.332  1.00  0.00    -0.462 A  
ENDROOT
BRANCH   6   9
HETATM    9  C   UNL     1     -12.132  15.511  69.815  1.00  0.00    -0.349 C  
BRANCH   9  10
HETATM   10  O   UNL     1     -11.759  15.498  68.419  1.00  0.00    -0.365 OA 
BRANCH  10  11
HETATM   11  N   UNL     1     -10.373  15.758  68.293  1.00  0.00    -0.235 NA 
HETATM   12  H   UNL     1      -9.766  15.954  69.089  1.00  0.00     0.000 HD 
BRANCH  11  13
HETATM   13  C   UNL     1      -9.947  15.723  67.058  1.00  0.00    -0.239 C  
BRANCH  13  14
HETATM   14  C   UNL     1     -10.520  14.711  66.089  1.00  0.00    -0.308 A  
HETATM   15 CL   UNL     1      -9.249  12.615  67.372  1.00  0.00    -0.184 Cl 
HETATM   16  C   UNL     1     -11.393  15.159  65.078  1.00  0.00    -0.381 A  
HETATM   17  C   UNL     1     -10.273  13.327  66.174  1.00  0.00    -0.296 A  
HETATM   18  C   UNL     1     -12.040  14.264  64.217  1.00  0.00    -0.467 A  
HETATM   19 CL   UNL     1     -12.633  11.797  63.312  1.00  0.00    -0.578 Cl 
HETATM   20  C   UNL     1     -11.806  12.900  64.340  1.00  0.00    -0.383 A  
HETATM   21  C   UNL     1     -10.915  12.430  65.301  1.00  0.00    -0.335 A  
ENDBRANCH  13  14
BRANCH  13  22
HETATM   22  C   UNL     1      -8.918  16.701  66.496  1.00  0.00    -0.277 C  
BRANCH  22  23
HETATM   23  N   UNL     1      -9.331  18.097  66.547  1.00  0.00    -0.296 NA 
HETATM   24  C   UNL     1     -10.470  18.610  65.990  1.00  0.00    -0.414 A  
HETATM   25  N   UNL     1      -9.292  20.270  66.957  1.00  0.00    -0.387 NA 
HETATM   26  C   UNL     1      -8.664  19.127  67.143  1.00  0.00    -0.285 A  
HETATM   27  C   UNL     1     -10.416  19.961  66.243  1.00  0.00    -0.479 A  
ENDBRANCH  22  23
ENDBRANCH  13  22
ENDBRANCH  11  13
ENDBRANCH  10  11
ENDBRANCH   9  10
ENDBRANCH   6   9
TORSDOF 7
ENDMDL
MODEL        2
REMARK 921   NORMALIZED FREE ENERGY PREDICTED BY IDOCK:   -7.02 KCAL/MOL
REMARK 922        TOTAL FREE ENERGY PREDICTED BY IDOCK:  -11.01 KCAL/MOL
REMARK 923 INTER-LIGAND FREE ENERGY PREDICTED BY IDOCK:   -9.72 KCAL/MOL
REMARK 924 INTRA-LIGAND FREE ENERGY PREDICTED BY IDOCK:   -1.29 KCAL/MOL
REMARK 927      BINDING AFFINITY PREDICTED BY RF-SCORE:    0.00 PKD
ROOT
HETATM    1 CL   UNL     1     -13.362   9.975  72.050  1.00  0.00    -0.535 Cl 
HETATM    2  C   UNL     1     -12.911  11.551  71.529  1.00  0.00    -0.380 A  
HETATM    3  C   UNL     1     -13.376  12.666  72.223  1.00  0.00    -0.527 A  
HETATM    4  C   UNL     1     -13.069  13.948  71.748  1.00  0.00    -0.377 A  
HETATM    5 CL   UNL     1     -13.681  15.285  72.663  1.00  0.00    -0.584 Cl 
HETATM    6  C   UNL     1     -12.308  14.141  70.575  1.00  0.00    -0.434 A  
HETATM    7  C   UNL     1     -11.806  12.998  69.933  1.00  0.00    -0.377 A  
HETATM    8  C   UNL     1     -12.107  11.713  70.407  1.00  0.00    -0.462 A  
ENDROOT
BRANCH   6   9
HETATM    9  C   UNL     1     -12.154  15.531  69.971  1.00  0.00    -0.368 C  
BRANCH   9  10
HETATM   10  O   UNL     1     -12.027  15.564  68.531  1.00  0.00    -0.319 OA 
BRANCH  10  11
HETATM   11  N   UNL     1     -10.730  16.009  68.177  1.00  0.00    -0.299 NA 
HETATM   12  H   UNL     1     -10.191  16.666  68.741  1.00  0.00     0.000 HD 
BRANCH  11  13
HETATM   13  C   UNL     1     -10.292  15.497  67.058  1.00  0.00    -0.279 C  
BRANCH  13  14
HETATM   14  C   UNL     1     -10.299  13.997  66.858  1.00  0.00    -0.269 A  
HETATM   15 CL   UNL     1     -12.789  14.069  65.654  1.00  0.00    -0.528 Cl 
HETATM   16  C   UNL     1      -9.173  13.254  67.264  1.00  0.00    -0.222 A  
HETATM   17  C   UNL     1     -11.352  13.301  66.234  1.00  0.00    -0.309 A  
HETATM   18  C   UNL     1      -9.071  11.880  67.012  1.00  0.00    -0.191 A  
HETATM   19 CL   UNL     1      -9.966   9.542  66.017  1.00  0.00    -0.359 Cl 
HETATM   20  C   UNL     1     -10.109  11.219  66.366  1.00  0.00    -0.220 A  
HETATM   21  C   UNL     1     -11.252  11.919  65.991  1.00  0.00    -0.377 A  
ENDBRANCH  13  14
BRANCH  13  22
HETATM   22  C   UNL     1      -9.812  16.341  65.879  1.00  0.00    -0.334 C  
BRANCH  22  23
HETATM   23  N   UNL     1      -9.667  17.759  66.179  1.00  0.00    -0.500 NA 
HETATM   24  C   UNL     1      -8.547  18.352  66.695  1.00  0.00    -0.278 A  
HETATM   25  N   UNL     1     -10.162  19.899  66.428  1.00  0.00    -0.476 NA 
HETATM   26  C   UNL     1     -10.606  18.733  66.008  1.00  0.00    -0.386 A  
HETATM   27  C   UNL     1      -8.883  19.675  66.856  1.00  0.00    -0.331 A  
ENDBRANCH  22  23
ENDBRANCH  13  22
ENDBRANCH  11  13
ENDBRANCH  10  11
ENDBRANCH   9  10
ENDBRANCH   6   9
TORSDOF 7
ENDMDL
MODEL        3
REMARK 921   NORMALIZED FREE ENERGY PREDICTED BY IDOCK:   -6.83 KCAL/MOL
REMARK 922        TOTAL FREE ENERGY PREDICTED BY IDOCK:  -10.75 KCAL/MOL
REMARK 923 INTER-LIGAND FREE ENERGY PREDICTED BY IDOCK:   -9.77 KCAL/MOL
REMARK 924 INTRA-LIGAND FREE ENERGY PREDICTED BY IDOCK:   -0.98 KCAL/MOL
REMARK 927      BINDING AFFINITY PREDICTED BY RF-SCORE:    0.00 PKD
ROOT
HETATM    1 CL   UNL     1      -8.785   9.422  63.640  1.00  0.00    -0.230 Cl 
HETATM    2  C   UNL     1      -9.865  10.520  64.403  1.00  0.00    -0.341 A  
HETATM    3  C   UNL     1     -10.591  11.423  63.630  1.00  0.00    -0.476 A  
HETATM    4  C   UNL     1     -11.411  12.367  64.263  1.00  0.00    -0.363 A  
HETATM    5 CL   UNL     1     -12.282  13.456  63.236  1.00  0.00    -0.485 Cl 
HETATM    6  C   UNL     1     -11.513  12.435  65.669  1.00  0.00    -0.412 A  
HETATM    7  C   UNL     1     -10.815  11.473  66.416  1.00  0.00    -0.334 A  
HETATM    8  C   UNL     1      -9.997  10.525  65.787  1.00  0.00    -0.318 A  
ENDROOT
BRANCH   6   9
HETATM    9  C   UNL     1     -12.251  13.588  66.338  1.00  0.00    -0.400 C  
BRANCH   9  10
HETATM   10  O   UNL     1     -11.469  14.347  67.288  1.00  0.00    -0.326 OA 
BRANCH  10  11
HETATM   11  N   UNL     1     -12.311  14.834  68.317  1.00  0.00    -0.586 NA 
HETATM   12  H   UNL     1     -13.211  15.282  68.139  1.00  0.00     0.000 HD 
BRANCH  11  13
HETATM   13  C   UNL     1     -11.825  14.654  69.516  1.00  0.00    -0.330 C  
BRANCH  13  14
HETATM   14  C   UNL     1     -12.171  13.403  70.293  1.00  0.00    -0.405 A  
HETATM   15 CL   UNL     1     -13.679  14.835  72.118  1.00  0.00    -0.487 Cl 
HETATM   16  C   UNL     1     -11.697  12.161  69.826  1.00  0.00    -0.381 A  
HETATM   17  C   UNL     1     -12.994  13.401  71.435  1.00  0.00    -0.328 A  
HETATM   18  C   UNL     1     -12.069  10.957  70.437  1.00  0.00    -0.453 A  
HETATM   19 CL   UNL     1     -13.400   9.497  72.268  1.00  0.00    -0.529 Cl 
HETATM   20  C   UNL     1     -12.907  10.977  71.544  1.00  0.00    -0.450 A  
HETATM   21  C   UNL     1     -13.358  12.191  72.054  1.00  0.00    -0.470 A  
ENDBRANCH  13  14
BRANCH  13  22
HETATM   22  C   UNL     1     -10.855  15.626  70.183  1.00  0.00    -0.343 C  
BRANCH  22  23
HETATM   23  N   UNL     1     -10.019  16.371  69.252  1.00  0.00    -0.268 NA 
HETATM   24  C   UNL     1     -10.333  17.580  68.693  1.00  0.00    -0.369 A  
HETATM   25  N   UNL     1      -8.340  16.883  67.907  1.00  0.00    -0.195 NA 
HETATM   26  C   UNL     1      -8.796  16.002  68.771  1.00  0.00    -0.227 A  
HETATM   27  C   UNL     1      -9.285  17.870  67.851  1.00  0.00    -0.263 A  
ENDBRANCH  22  23
ENDBRANCH  13  22
ENDBRANCH  11  13
ENDBRANCH  10  11
ENDBRANCH   9  10
ENDBRANCH   6   9
TORSDOF 7
ENDMDL
MODEL        4
REMARK 921   NORMALIZED FREE ENERGY PREDICTED BY IDOCK:   -6.79 KCAL/MOL
REMARK 922        TOTAL FREE ENERGY PREDICTED BY IDOCK:  -10.69 KCAL/MOL
REMARK 923 INTER-LIGAND FREE ENERGY PREDICTED BY IDOCK:  -10.00 KCAL/MOL
REMARK 924 INTRA-LIGAND FREE ENERGY PREDICTED BY IDOCK:   -0.68 KCAL/MOL
REMARK 927      BINDING AFFINITY PREDICTED BY RF-SCORE:    0.00 PKD
ROOT
HETATM    1 CL   UNL     1     -12.329   7.272  71.703  1.00  0.00    -0.366 Cl 
HETATM    2  C   UNL     1     -12.106   8.903  71.208  1.00  0.00    -0.306 A  
HETATM    3  C   UNL     1     -12.805   9.921  71.853  1.00  0.00    -0.524 A  
HETATM    4  C   UNL     1     -12.677  11.240  71.396  1.00  0.00    -0.396 A  
HETATM    5 CL   UNL     1     -13.576  12.451  72.247  1.00  0.00    -0.526 Cl 
HETATM    6  C   UNL     1     -11.866  11.564  70.287  1.00  0.00    -0.431 A  
HETATM    7  C   UNL     1     -11.130  10.524  69.697  1.00  0.00    -0.338 A  
HETATM    8  C   UNL     1     -11.251   9.204  70.154  1.00  0.00    -0.211 A  
ENDROOT
BRANCH   6   9
HETATM    9  C   UNL     1     -11.896  12.964  69.687  1.00  0.00    -0.320 C  
BRANCH   9  10
HETATM   10  O   UNL     1     -11.803  13.015  68.245  1.00  0.00    -0.334 OA 
BRANCH  10  11
HETATM   11  N   UNL     1     -12.077  14.330  67.796  1.00  0.00    -0.576 NA 
HETATM   12  H   UNL     1     -12.938  14.829  68.020  1.00  0.00     0.000 HD 
BRANCH  11  13
HETATM   13  C   UNL     1     -11.121  14.841  67.068  1.00  0.00    -0.333 C  
BRANCH  13  14
HETATM   14  C   UNL     1     -10.769  16.306  67.202  1.00  0.00    -0.247 A  
HETATM   15 CL   UNL     1     -10.605  16.118  69.957  1.00  0.00    -0.294 Cl 
HETATM   16  C   UNL     1     -10.635  17.081  66.032  1.00  0.00    -0.208 A  
HETATM   17  C   UNL     1     -10.511  16.934  68.435  1.00  0.00    -0.355 A  
HETATM   18  C   UNL     1     -10.208  18.414  66.081  1.00  0.00    -0.408 A  
HETATM   19 CL   UNL     1      -9.363  20.627  67.364  1.00  0.00    -0.523 Cl 
HETATM   20  C   UNL     1      -9.929  19.004  67.307  1.00  0.00    -0.344 A  
HETATM   21  C   UNL     1     -10.094  18.277  68.482  1.00  0.00    -0.419 A  
ENDBRANCH  13  14
BRANCH  13  22
HETATM   22  C   UNL     1     -10.270  14.019  66.102  1.00  0.00    -0.302 C  
BRANCH  22  23
HETATM   23  N   UNL     1     -11.021  13.409  65.014  1.00  0.00    -0.303 NA 
HETATM   24  C   UNL     1     -10.923  12.104  64.613  1.00  0.00    -0.312 A  
HETATM   25  N   UNL     1     -12.389  13.189  63.291  1.00  0.00    -0.720 NA 
HETATM   26  C   UNL     1     -11.936  14.019  64.207  1.00  0.00    -0.435 A  
HETATM   27  C   UNL     1     -11.768  11.996  63.534  1.00  0.00    -0.472 A  
ENDBRANCH  22  23
ENDBRANCH  13  22
ENDBRANCH  11  13
ENDBRANCH  10  11
ENDBRANCH   9  10
ENDBRANCH   6   9
TORSDOF 7
ENDMDL
MODEL        5
REMARK 921   NORMALIZED FREE ENERGY PREDICTED BY IDOCK:   -6.76 KCAL/MOL
REMARK 922        TOTAL FREE ENERGY PREDICTED BY IDOCK:  -10.64 KCAL/MOL
REMARK 923 INTER-LIGAND FREE ENERGY PREDICTED BY IDOCK:   -9.90 KCAL/MOL
REMARK 924 INTRA-LIGAND FREE ENERGY PREDICTED BY IDOCK:   -0.75 KCAL/MOL
REMARK 927      BINDING AFFINITY PREDICTED BY RF-SCORE:    0.00 PKD
ROOT
HETATM    1 CL   UNL     1     -13.426  10.042  71.949  1.00  0.00    -0.470 Cl 
HETATM    2  C   UNL     1     -13.008  11.647  71.497  1.00  0.00    -0.358 A  
HETATM    3  C   UNL     1     -13.550  12.723  72.195  1.00  0.00    -0.547 A  
HETATM    4  C   UNL     1     -13.266  14.030  71.774  1.00  0.00    -0.375 A  
HETATM    5 CL   UNL     1     -13.976  15.316  72.691  1.00  0.00    -0.576 Cl 
HETATM    6  C   UNL     1     -12.453  14.285  70.649  1.00  0.00    -0.428 A  
HETATM    7  C   UNL     1     -11.874  13.180  70.004  1.00  0.00    -0.360 A  
HETATM    8  C   UNL     1     -12.152  11.871  70.425  1.00  0.00    -0.421 A  
ENDROOT
BRANCH   6   9
HETATM    9  C   UNL     1     -12.319  15.696  70.093  1.00  0.00    -0.336 C  
BRANCH   9  10
HETATM   10  O   UNL     1     -11.023  16.018  69.540  1.00  0.00    -0.276 OA 
BRANCH  10  11
HETATM   11  N   UNL     1     -11.184  16.679  68.298  1.00  0.00    -0.302 NA 
HETATM   12  H   UNL     1     -12.050  17.139  68.018  1.00  0.00     0.000 HD 
BRANCH  11  13
HETATM   13  C   UNL     1     -10.116  16.642  67.547  1.00  0.00    -0.273 C  
BRANCH  13  14
HETATM   14  C   UNL     1      -9.068  17.726  67.669  1.00  0.00    -0.246 A  
HETATM   15 CL   UNL     1     -10.798  19.648  66.685  1.00  0.00    -0.542 Cl 
HETATM   16  C   UNL     1      -7.807  17.394  68.204  1.00  0.00    -0.234 A  
HETATM   17  C   UNL     1      -9.299  19.073  67.327  1.00  0.00    -0.304 A  
HETATM   18  C   UNL     1      -6.831  18.370  68.442  1.00  0.00    -0.250 A  
HETATM   19 CL   UNL     1      -5.912  20.902  68.459  1.00  0.00    -0.383 Cl 
HETATM   20  C   UNL     1      -7.093  19.697  68.126  1.00  0.00    -0.292 A  
HETATM   21  C   UNL     1      -8.313  20.049  67.557  1.00  0.00    -0.381 A  
ENDBRANCH  13  14
BRANCH  13  22
HETATM   22  C   UNL     1      -9.820  15.512  66.563  1.00  0.00    -0.264 C  
BRANCH  22  23
HETATM   23  N   UNL     1     -10.992  15.005  65.864  1.00  0.00    -0.337 NA 
HETATM   24  C   UNL     1     -11.842  14.039  66.333  1.00  0.00    -0.418 A  
HETATM   25  N   UNL     1     -12.503  14.690  64.280  1.00  0.00    -0.738 NA 
HETATM   26  C   UNL     1     -11.445  15.388  64.636  1.00  0.00    -0.337 A  
HETATM   27  C   UNL     1     -12.760  13.850  65.328  1.00  0.00    -0.449 A  
ENDBRANCH  22  23
ENDBRANCH  13  22
ENDBRANCH  11  13
ENDBRANCH  10  11
ENDBRANCH   9  10
ENDBRANCH   6   9
TORSDOF 7
ENDMDL
MODEL        6
REMARK 921   NORMALIZED FREE ENERGY PREDICTED BY IDOCK:   -6.70 KCAL/MOL
REMARK 922        TOTAL FREE ENERGY PREDICTED BY IDOCK:  -10.56 KCAL/MOL
REMARK 923 INTER-LIGAND FREE ENERGY PREDICTED BY IDOCK:   -9.81 KCAL/MOL
REMARK 924 INTRA-LIGAND FREE ENERGY PREDICTED BY IDOCK:   -0.75 KCAL/MOL
REMARK 927      BINDING AFFINITY PREDICTED BY RF-SCORE:    0.00 PKD
ROOT
HETATM    1 CL   UNL     1     -13.639  15.935  73.110  1.00  0.00    -0.649 Cl 
HETATM    2  C   UNL     1     -13.138  14.866  71.861  1.00  0.00    -0.338 A  
HETATM    3  C   UNL     1     -13.298  13.492  72.024  1.00  0.00    -0.563 A  
HETATM    4  C   UNL     1     -12.818  12.622  71.036  1.00  0.00    -0.166 A  
HETATM    5 CL   UNL     1     -13.054  10.927  71.308  1.00  0.00    -0.450 Cl 
HETATM    6  C   UNL     1     -12.163  13.101  69.881  1.00  0.00    -0.293 A  
HETATM    7  C   UNL     1     -12.071  14.493  69.720  1.00  0.00    -0.380 A  
HETATM    8  C   UNL     1     -12.553  15.367  70.704  1.00  0.00    -0.491 A  
ENDROOT
BRANCH   6   9
HETATM    9  C   UNL     1     -11.478  12.137  68.922  1.00  0.00    -0.297 C  
BRANCH   9  10
HETATM   10  O   UNL     1     -12.263  11.756  67.769  1.00  0.00    -0.536 OA 
BRANCH  10  11
HETATM   11  N   UNL     1     -12.146  12.746  66.764  1.00  0.00    -0.485 NA 
HETATM   12  H   UNL     1     -12.936  13.295  66.425  1.00  0.00     0.000 HD 
BRANCH  11  13
HETATM   13  C   UNL     1     -10.928  12.889  66.314  1.00  0.00    -0.281 C  
BRANCH  13  14
HETATM   14  C   UNL     1     -10.342  11.855  65.378  1.00  0.00    -0.306 A  
HETATM   15 CL   UNL     1     -12.119  12.523  63.366  1.00  0.00    -0.619 Cl 
HETATM   16  C   UNL     1      -9.242  11.090  65.816  1.00  0.00    -0.226 A  
HETATM   17  C   UNL     1     -10.800  11.648  64.063  1.00  0.00    -0.392 A  
HETATM   18  C   UNL     1      -8.587  10.193  64.963  1.00  0.00    -0.178 A  
HETATM   19 CL   UNL     1      -8.206   8.960  62.598  1.00  0.00    -0.179 Cl 
HETATM   20  C   UNL     1      -9.036  10.029  63.659  1.00  0.00    -0.268 A  
HETATM   21  C   UNL     1     -10.147  10.738  63.211  1.00  0.00    -0.314 A  
ENDBRANCH  13  14
BRANCH  13  22
HETATM   22  C   UNL     1     -10.050  14.097  66.635  1.00  0.00    -0.275 C  
BRANCH  22  23
HETATM   23  N   UNL     1     -10.425  15.313  65.927  1.00  0.00    -0.311 NA 
HETATM   24  C   UNL     1     -10.227  16.589  66.380  1.00  0.00    -0.316 A  
HETATM   25  N   UNL     1     -11.278  16.652  64.388  1.00  0.00    -1.060 NA 
HETATM   26  C   UNL     1     -11.036  15.399  64.710  1.00  0.00    -0.403 A  
HETATM   27  C   UNL     1     -10.778  17.401  65.417  1.00  0.00    -0.035 A  
ENDBRANCH  22  23
ENDBRANCH  13  22
ENDBRANCH  11  13
ENDBRANCH  10  11
ENDBRANCH   9  10
ENDBRANCH   6   9
TORSDOF 7
ENDMDL
MODEL        7
REMARK 921   NORMALIZED FREE ENERGY PREDICTED BY IDOCK:   -6.68 KCAL/MOL
REMARK 922        TOTAL FREE ENERGY PREDICTED BY IDOCK:  -10.53 KCAL/MOL
REMARK 923 INTER-LIGAND FREE ENERGY PREDICTED BY IDOCK:   -9.56 KCAL/MOL
REMARK 924 INTRA-LIGAND FREE ENERGY PREDICTED BY IDOCK:   -0.96 KCAL/MOL
REMARK 927      BINDING AFFINITY PREDICTED BY RF-SCORE:    0.00 PKD
ROOT
HETATM    1 CL   UNL     1      -9.226   6.848  73.284  1.00  0.00    -0.154 Cl 
HETATM    2  C   UNL     1     -10.018   8.055  72.352  1.00  0.00    -0.251 A  
HETATM    3  C   UNL     1     -11.374   8.304  72.554  1.00  0.00    -0.455 A  
HETATM    4  C   UNL     1     -12.031   9.235  71.739  1.00  0.00    -0.385 A  
HETATM    5 CL   UNL     1     -13.716   9.491  72.050  1.00  0.00    -0.446 Cl 
HETATM    6  C   UNL     1     -11.358   9.922  70.706  1.00  0.00    -0.430 A  
HETATM    7  C   UNL     1      -9.980   9.692  70.567  1.00  0.00    -0.318 A  
HETATM    8  C   UNL     1      -9.317   8.764  71.383  1.00  0.00    -0.328 A  
ENDROOT
BRANCH   6   9
HETATM    9  C   UNL     1     -12.131  10.776  69.710  1.00  0.00    -0.318 C  
BRANCH   9  10
HETATM   10  O   UNL     1     -12.527  12.079  70.196  1.00  0.00    -0.166 OA 
BRANCH  10  11
HETATM   11  N   UNL     1     -11.425  12.965  70.138  1.00  0.00    -0.519 NA 
HETATM   12  H   UNL     1     -10.602  12.876  70.734  1.00  0.00     0.000 HD 
BRANCH  11  13
HETATM   13  C   UNL     1     -11.564  13.909  69.245  1.00  0.00    -0.309 C  
BRANCH  13  14
HETATM   14  C   UNL     1     -11.390  13.592  67.776  1.00  0.00    -0.327 A  
HETATM   15 CL   UNL     1      -8.962  12.344  68.230  1.00  0.00    -0.192 Cl 
HETATM   16  C   UNL     1     -12.410  13.962  66.877  1.00  0.00    -0.331 A  
HETATM   17  C   UNL     1     -10.283  12.892  67.257  1.00  0.00    -0.234 A  
HETATM   18  C   UNL     1     -12.360  13.604  65.523  1.00  0.00    -0.519 A  
HETATM   19 CL   UNL     1     -11.232  12.409  63.389  1.00  0.00    -0.516 Cl 
HETATM   20  C   UNL     1     -11.273  12.886  65.040  1.00  0.00    -0.293 A  
HETATM   21  C   UNL     1     -10.230  12.544  65.895  1.00  0.00    -0.280 A  
ENDBRANCH  13  14
BRANCH  13  22
HETATM   22  C   UNL     1     -11.957  15.343  69.593  1.00  0.00    -0.343 C  
BRANCH  22  23
HETATM   23  N   UNL     1     -12.543  15.498  70.917  1.00  0.00    -0.433 NA 
HETATM   24  C   UNL     1     -13.844  15.227  71.247  1.00  0.00    -0.478 A  
HETATM   25  N   UNL     1     -12.754  16.007  73.058  1.00  0.00    -0.470 NA 
HETATM   26  C   UNL     1     -11.916  15.939  72.045  1.00  0.00    -0.513 A  
HETATM   27  C   UNL     1     -13.954  15.565  72.575  1.00  0.00    -0.555 A  
ENDBRANCH  22  23
ENDBRANCH  13  22
ENDBRANCH  11  13
ENDBRANCH  10  11
ENDBRANCH   9  10
ENDBRANCH   6   9
TORSDOF 7
ENDMDL
MODEL        8
REMARK 921   NORMALIZED FREE ENERGY PREDICTED BY IDOCK:   -6.66 KCAL/MOL
REMARK 922        TOTAL FREE ENERGY PREDICTED BY IDOCK:  -10.51 KCAL/MOL
REMARK 923 INTER-LIGAND FREE ENERGY PREDICTED BY IDOCK:   -8.94 KCAL/MOL
REMARK 924 INTRA-LIGAND FREE ENERGY PREDICTED BY IDOCK:   -1.57 KCAL/MOL
REMARK 927      BINDING AFFINITY PREDICTED BY RF-SCORE:    0.00 PKD
ROOT
HETATM    1 CL   UNL     1      -9.556  16.869  68.041  1.00  0.00    -0.242 Cl 
HETATM    2  C   UNL     1      -9.934  15.295  67.460  1.00  0.00    -0.226 A  
HETATM    3  C   UNL     1     -11.099  15.093  66.724  1.00  0.00    -0.307 A  
HETATM    4  C   UNL     1     -11.440  13.795  66.319  1.00  0.00    -0.335 A  
HETATM    5 CL   UNL     1     -12.903  13.623  65.407  1.00  0.00    -0.501 Cl 
HETATM    6  C   UNL     1     -10.640  12.681  66.650  1.00  0.00    -0.267 A  
HETATM    7  C   UNL     1      -9.443  12.927  67.342  1.00  0.00    -0.198 A  
HETATM    8  C   UNL     1      -9.095  14.224  67.745  1.00  0.00    -0.195 A  
ENDROOT
BRANCH   6   9
HETATM    9  C   UNL     1     -11.128  11.265  66.374  1.00  0.00    -0.193 C  
BRANCH   9  10
HETATM   10  O   UNL     1     -10.928  10.325  67.454  1.00  0.00    -0.293 OA 
BRANCH  10  11
HETATM   11  N   UNL     1     -11.987  10.438  68.386  1.00  0.00    -0.749 NA 
HETATM   12  H   UNL     1     -12.970  10.344  68.131  1.00  0.00     0.000 HD 
BRANCH  11  13
HETATM   13  C   UNL     1     -11.583  10.673  69.606  1.00  0.00    -0.296 C  
BRANCH  13  14
HETATM   14  C   UNL     1     -12.180  11.820  70.393  1.00  0.00    -0.416 A  
HETATM   15 CL   UNL     1     -13.412  10.092  72.167  1.00  0.00    -0.491 Cl 
HETATM   16  C   UNL     1     -11.882  13.140  69.999  1.00  0.00    -0.360 A  
HETATM   17  C   UNL     1     -12.979  11.643  71.539  1.00  0.00    -0.358 A  
HETATM   18  C   UNL     1     -12.315  14.243  70.746  1.00  0.00    -0.427 A  
HETATM   19 CL   UNL     1     -13.570  15.395  72.833  1.00  0.00    -0.601 Cl 
HETATM   20  C   UNL     1     -13.075  14.044  71.891  1.00  0.00    -0.386 A  
HETATM   21  C   UNL     1     -13.422  12.753  72.281  1.00  0.00    -0.591 A  
ENDBRANCH  13  14
BRANCH  13  22
HETATM   22  C   UNL     1     -10.557   9.807  70.334  1.00  0.00    -0.304 C  
BRANCH  22  23
HETATM   23  N   UNL     1     -10.692   8.380  70.079  1.00  0.00    -0.236 NA 
HETATM   24  C   UNL     1      -9.829   7.619  69.339  1.00  0.00    -0.171 A  
HETATM   25  N   UNL     1     -11.532   6.334  70.064  1.00  0.00    -0.426 NA 
HETATM   26  C   UNL     1     -11.689   7.559  70.520  1.00  0.00    -0.158 A  
HETATM   27  C   UNL     1     -10.378   6.358  69.331  1.00  0.00    -0.209 A  
ENDBRANCH  22  23
ENDBRANCH  13  22
ENDBRANCH  11  13
ENDBRANCH  10  11
ENDBRANCH   9  10
ENDBRANCH   6   9
TORSDOF 7
ENDMDL
MODEL        9
REMARK 921   NORMALIZED FREE ENERGY PREDICTED BY IDOCK:   -6.62 KCAL/MOL
REMARK 922        TOTAL FREE ENERGY PREDICTED BY IDOCK:  -10.45 KCAL/MOL
REMARK 923 INTER-LIGAND FREE ENERGY PREDICTED BY IDOCK:   -9.72 KCAL/MOL
REMARK 924 INTRA-LIGAND FREE ENERGY PREDICTED BY IDOCK:   -0.73 KCAL/MOL
REMARK 927      BINDING AFFINITY PREDICTED BY RF-SCORE:    0.00 PKD
ROOT
HETATM    1 CL   UNL     1     -11.788   7.405  72.280  1.00  0.00    -0.318 Cl 
HETATM    2  C   UNL     1     -11.827   8.892  71.418  1.00  0.00    -0.317 A  
HETATM    3  C   UNL     1     -10.863   9.152  70.446  1.00  0.00    -0.285 A  
HETATM    4  C   UNL     1     -10.854  10.397  69.802  1.00  0.00    -0.292 A  
HETATM    5 CL   UNL     1      -9.626  10.646  68.606  1.00  0.00    -0.172 Cl 
HETATM    6  C   UNL     1     -11.790  11.403  70.121  1.00  0.00    -0.440 A  
HETATM    7  C   UNL     1     -12.784  11.088  71.062  1.00  0.00    -0.485 A  
HETATM    8  C   UNL     1     -12.800   9.843  71.706  1.00  0.00    -0.540 A  
ENDROOT
BRANCH   6   9
HETATM    9  C   UNL     1     -11.641  12.809  69.555  1.00  0.00    -0.276 C  
BRANCH   9  10
HETATM   10  O   UNL     1     -12.056  12.964  68.179  1.00  0.00    -0.300 OA 
BRANCH  10  11
HETATM   11  N   UNL     1     -12.216  14.338  67.880  1.00  0.00    -0.595 NA 
HETATM   12  H   UNL     1     -13.004  14.895  68.211  1.00  0.00     0.000 HD 
BRANCH  11  13
HETATM   13  C   UNL     1     -11.255  14.825  67.141  1.00  0.00    -0.343 C  
BRANCH  13  14
HETATM   14  C   UNL     1     -10.881  16.287  67.253  1.00  0.00    -0.216 A  
HETATM   15 CL   UNL     1     -10.659  16.120  70.006  1.00  0.00    -0.294 Cl 
HETATM   16  C   UNL     1     -10.762  17.049  66.074  1.00  0.00    -0.116 A  
HETATM   17  C   UNL     1     -10.587  16.922  68.475  1.00  0.00    -0.367 A  
HETATM   18  C   UNL     1     -10.316  18.377  66.101  1.00  0.00    -0.431 A  
HETATM   19 CL   UNL     1      -9.412  20.588  67.346  1.00  0.00    -0.561 Cl 
HETATM   20  C   UNL     1     -10.001  18.973  67.316  1.00  0.00    -0.344 A  
HETATM   21  C   UNL     1     -10.150  18.259  68.501  1.00  0.00    -0.419 A  
ENDBRANCH  13  14
BRANCH  13  22
HETATM   22  C   UNL     1     -10.423  13.978  66.181  1.00  0.00    -0.297 C  
BRANCH  22  23
HETATM   23  N   UNL     1     -11.185  13.386  65.091  1.00  0.00    -0.299 NA 
HETATM   24  C   UNL     1     -11.166  12.065  64.733  1.00  0.00    -0.318 A  
HETATM   25  N   UNL     1     -12.519  13.203  63.337  1.00  0.00    -0.744 NA 
HETATM   26  C   UNL     1     -12.035  14.029  64.240  1.00  0.00    -0.435 A  
HETATM   27  C   UNL     1     -11.988  11.979  63.635  1.00  0.00    -0.515 A  
ENDBRANCH  22  23
ENDBRANCH  13  22
ENDBRANCH  11  13
ENDBRANCH  10  11
ENDBRANCH   9  10
ENDBRANCH   6   9
TORSDOF 7
ENDMDL
MODEL       10
REMARK 921   NORMALIZED FREE ENERGY PREDICTED BY IDOCK:   -6.54 KCAL/MOL
REMARK 922        TOTAL FREE ENERGY PREDICTED BY IDOCK:  -10.34 KCAL/MOL
REMARK 923 INTER-LIGAND FREE ENERGY PREDICTED BY IDOCK:   -9.19 KCAL/MOL
REMARK 924 INTRA-LIGAND FREE ENERGY PREDICTED BY IDOCK:   -1.15 KCAL/MOL
REMARK 927      BINDING AFFINITY PREDICTED BY RF-SCORE:    0.00 PKD
ROOT
HETATM    1 CL   UNL     1      -8.653   9.229  63.770  1.00  0.00    -0.211 Cl 
HETATM    2  C   UNL     1      -9.765  10.325  64.489  1.00  0.00    -0.329 A  
HETATM    3  C   UNL     1     -10.514  11.176  63.680  1.00  0.00    -0.438 A  
HETATM    4  C   UNL     1     -11.362  12.120  64.276  1.00  0.00    -0.360 A  
HETATM    5 CL   UNL     1     -12.262  13.144  63.207  1.00  0.00    -0.575 Cl 
HETATM    6  C   UNL     1     -11.469  12.240  65.678  1.00  0.00    -0.416 A  
HETATM    7  C   UNL     1     -10.745  11.328  66.463  1.00  0.00    -0.323 A  
HETATM    8  C   UNL     1      -9.899  10.379  65.872  1.00  0.00    -0.294 A  
ENDROOT
BRANCH   6   9
HETATM    9  C   UNL     1     -12.240  13.397  66.301  1.00  0.00    -0.398 C  
BRANCH   9  10
HETATM   10  O   UNL     1     -12.098  13.527  67.734  1.00  0.00    -0.349 OA 
BRANCH  10  11
HETATM   11  N   UNL     1     -12.326  14.872  68.115  1.00  0.00    -0.538 NA 
HETATM   12  H   UNL     1     -13.165  15.391  67.858  1.00  0.00     0.000 HD 
BRANCH  11  13
HETATM   13  C   UNL     1     -11.357  15.381  68.828  1.00  0.00    -0.320 C  
BRANCH  13  14
HETATM   14  C   UNL     1     -10.445  16.429  68.227  1.00  0.00    -0.302 A  
HETATM   15 CL   UNL     1      -8.847  14.502  67.049  1.00  0.00    -0.243 Cl 
HETATM   16  C   UNL     1     -10.747  17.789  68.432  1.00  0.00    -0.205 A  
HETATM   17  C   UNL     1      -9.334  16.119  67.419  1.00  0.00    -0.217 A  
HETATM   18  C   UNL     1     -10.006  18.806  67.816  1.00  0.00    -0.396 A  
HETATM   19 CL   UNL     1      -8.050  19.722  66.206  1.00  0.00    -0.340 Cl 
HETATM   20  C   UNL     1      -8.933  18.477  66.998  1.00  0.00    -0.274 A  
HETATM   21  C   UNL     1      -8.584  17.142  66.810  1.00  0.00    -0.270 A  
ENDBRANCH  13  14
BRANCH  13  22
HETATM   22  C   UNL     1     -11.111  15.021  70.292  1.00  0.00    -0.229 C  
BRANCH  22  23
HETATM   23  N   UNL     1     -12.323  14.741  71.050  1.00  0.00    -0.306 NA 
HETATM   24  C   UNL     1     -13.174  15.681  71.564  1.00  0.00    -0.475 A  
HETATM   25  N   UNL     1     -13.903  13.623  72.119  1.00  0.00    -0.524 NA 
HETATM   26  C   UNL     1     -12.816  13.514  71.385  1.00  0.00    -0.355 A  
HETATM   27  C   UNL     1     -14.136  14.965  72.235  1.00  0.00    -0.499 A  
ENDBRANCH  22  23
ENDBRANCH  13  22
ENDBRANCH  11  13
ENDBRANCH  10  11
ENDBRANCH   9  10
ENDBRANCH   6   9
TORSDOF 7
ENDMDL
MODEL       11
REMARK 921   NORMALIZED FREE ENERGY PREDICTED BY IDOCK:   -6.54 KCAL/MOL
REMARK 922        TOTAL FREE ENERGY PREDICTED BY IDOCK:  -10.33 KCAL/MOL
REMARK 923 INTER-LIGAND FREE ENERGY PREDICTED BY IDOCK:   -9.14 KCAL/MOL
REMARK 924 INTRA-LIGAND FREE ENERGY PREDICTED BY IDOCK:   -1.19 KCAL/MOL
REMARK 927      BINDING AFFINITY PREDICTED BY RF-SCORE:    0.00 PKD
ROOT
HETATM    1 CL   UNL     1     -13.747  15.941  73.248  1.00  0.00    -0.543 Cl 
HETATM    2  C   UNL     1     -13.223  14.733  72.142  1.00  0.00    -0.361 A  
HETATM    3  C   UNL     1     -13.420  13.388  72.446  1.00  0.00    -0.685 A  
HETATM    4  C   UNL     1     -12.922  12.407  71.578  1.00  0.00    -0.285 A  
HETATM    5 CL   UNL     1     -13.205  10.757  72.022  1.00  0.00    -0.561 Cl 
HETATM    6  C   UNL     1     -12.214  12.746  70.405  1.00  0.00    -0.371 A  
HETATM    7  C   UNL     1     -12.085  14.110  70.098  1.00  0.00    -0.411 A  
HETATM    8  C   UNL     1     -12.584  15.095  70.962  1.00  0.00    -0.441 A  
ENDROOT
BRANCH   6   9
HETATM    9  C   UNL     1     -11.514  11.671  69.584  1.00  0.00    -0.288 C  
BRANCH   9  10
HETATM   10  O   UNL     1     -11.447  11.930  68.163  1.00  0.00    -0.271 OA 
BRANCH  10  11
HETATM   11  N   UNL     1     -10.096  12.080  67.769  1.00  0.00    -0.190 NA 
HETATM   12  H   UNL     1      -9.345  11.477  68.104  1.00  0.00     0.000 HD 
BRANCH  11  13
HETATM   13  C   UNL     1      -9.904  13.066  66.934  1.00  0.00    -0.240 C  
BRANCH  13  14
HETATM   14  C   UNL     1      -9.702  14.472  67.456  1.00  0.00    -0.211 A  
HETATM   15 CL   UNL     1      -7.226  13.830  68.510  1.00  0.00    -0.101 Cl 
HETATM   16  C   UNL     1     -10.693  15.439  67.200  1.00  0.00    -0.314 A  
HETATM   17  C   UNL     1      -8.544  14.887  68.142  1.00  0.00    -0.159 A  
HETATM   18  C   UNL     1     -10.520  16.781  67.563  1.00  0.00    -0.319 A  
HETATM   19 CL   UNL     1      -9.123  18.829  68.617  1.00  0.00    -0.370 Cl 
HETATM   20  C   UNL     1      -9.356  17.174  68.211  1.00  0.00    -0.265 A  
HETATM   21  C   UNL     1      -8.377  16.233  68.516  1.00  0.00    -0.204 A  
ENDBRANCH  13  14
BRANCH  13  22
HETATM   22  C   UNL     1      -9.811  12.879  65.421  1.00  0.00    -0.118 C  
BRANCH  22  23
HETATM   23  N   UNL     1     -11.077  12.552  64.780  1.00  0.00    -0.291 NA 
HETATM   24  C   UNL     1     -11.218  11.902  63.583  1.00  0.00    -0.441 A  
HETATM   25  N   UNL     1     -13.251  12.442  64.390  1.00  0.00    -0.778 NA 
HETATM   26  C   UNL     1     -12.328  12.834  65.243  1.00  0.00    -0.488 A  
HETATM   27  C   UNL     1     -12.573  11.860  63.355  1.00  0.00    -0.431 A  
ENDBRANCH  22  23
ENDBRANCH  13  22
ENDBRANCH  11  13
ENDBRANCH  10  11
ENDBRANCH   9  10
ENDBRANCH   6   9
TORSDOF 7
ENDMDL
MODEL       12
REMARK 921   NORMALIZED FREE ENERGY PREDICTED BY IDOCK:   -6.50 KCAL/MOL
REMARK 922        TOTAL FREE ENERGY PREDICTED BY IDOCK:  -10.28 KCAL/MOL
REMARK 923 INTER-LIGAND FREE ENERGY PREDICTED BY IDOCK:   -8.97 KCAL/MOL
REMARK 924 INTRA-LIGAND FREE ENERGY PREDICTED BY IDOCK:   -1.30 KCAL/MOL
REMARK 927      BINDING AFFINITY PREDICTED BY RF-SCORE:    0.00 PKD
ROOT
HETATM    1 CL   UNL     1      -6.651  20.464  64.618  1.00  0.00    -0.324 Cl 
HETATM    2  C   UNL     1      -7.174  19.330  65.800  1.00  0.00    -0.264 A  
HETATM    3  C   UNL     1      -8.236  19.652  66.642  1.00  0.00    -0.342 A  
HETATM    4  C   UNL     1      -8.607  18.755  67.654  1.00  0.00    -0.272 A  
HETATM    5 CL   UNL     1      -9.936  19.224  68.660  1.00  0.00    -0.479 Cl 
HETATM    6  C   UNL     1      -7.923  17.537  67.851  1.00  0.00    -0.227 A  
HETATM    7  C   UNL     1      -6.896  17.216  66.948  1.00  0.00    -0.242 A  
HETATM    8  C   UNL     1      -6.524  18.108  65.932  1.00  0.00    -0.304 A  
ENDROOT
BRANCH   6   9
HETATM    9  C   UNL     1      -8.213  16.674  69.072  1.00  0.00    -0.190 C  
BRANCH   9  10
HETATM   10  O   UNL     1      -8.419  15.270  68.797  1.00  0.00    -0.157 OA 
BRANCH  10  11
HETATM   11  N   UNL     1      -9.588  14.821  69.458  1.00  0.00    -0.426 NA 
HETATM   12  H   UNL     1      -9.569  14.295  70.332  1.00  0.00     0.000 HD 
BRANCH  11  13
HETATM   13  C   UNL     1     -10.692  15.146  68.841  1.00  0.00    -0.240 C  
BRANCH  13  14
HETATM   14  C   UNL     1     -10.994  14.567  67.475  1.00  0.00    -0.297 A  
HETATM   15 CL   UNL     1     -12.014  12.243  68.576  1.00  0.00    -0.340 Cl 
HETATM   16  C   UNL     1     -10.720  15.346  66.334  1.00  0.00    -0.311 A  
HETATM   17  C   UNL     1     -11.590  13.306  67.280  1.00  0.00    -0.359 A  
HETATM   18  C   UNL     1     -11.073  14.913  65.049  1.00  0.00    -0.422 A  
HETATM   19 CL   UNL     1     -12.162  13.167  63.311  1.00  0.00    -0.575 Cl 
HETATM   20  C   UNL     1     -11.689  13.679  64.883  1.00  0.00    -0.360 A  
HETATM   21  C   UNL     1     -11.934  12.869  65.988  1.00  0.00    -0.505 A  
ENDBRANCH  13  14
BRANCH  13  22
HETATM   22  C   UNL     1     -11.758  16.054  69.449  1.00  0.00    -0.284 C  
BRANCH  22  23
HETATM   23  N   UNL     1     -12.265  15.603  70.737  1.00  0.00    -0.397 NA 
HETATM   24  C   UNL     1     -13.257  14.678  70.922  1.00  0.00    -0.337 A  
HETATM   25  N   UNL     1     -12.560  15.443  72.923  1.00  0.00    -0.377 NA 
HETATM   26  C   UNL     1     -11.855  16.016  71.971  1.00  0.00    -0.533 A  
HETATM   27  C   UNL     1     -13.433  14.608  72.284  1.00  0.00    -0.408 A  
ENDBRANCH  22  23
ENDBRANCH  13  22
ENDBRANCH  11  13
ENDBRANCH  10  11
ENDBRANCH   9  10
ENDBRANCH   6   9
TORSDOF 7
ENDMDL
MODEL       13
REMARK 921   NORMALIZED FREE ENERGY PREDICTED BY IDOCK:   -6.47 KCAL/MOL
REMARK 922        TOTAL FREE ENERGY PREDICTED BY IDOCK:  -10.24 KCAL/MOL
REMARK 923 INTER-LIGAND FREE ENERGY PREDICTED BY IDOCK:   -9.20 KCAL/MOL
REMARK 924 INTRA-LIGAND FREE ENERGY PREDICTED BY IDOCK:   -1.04 KCAL/MOL
REMARK 927      BINDING AFFINITY PREDICTED BY RF-SCORE:    0.00 PKD
ROOT
HETATM    1 CL   UNL     1     -10.773  20.044  65.486  1.00  0.00    -0.426 Cl 
HETATM    2  C   UNL     1      -9.979  18.962  66.560  1.00  0.00    -0.384 A  
HETATM    3  C   UNL     1      -8.738  18.432  66.213  1.00  0.00    -0.209 A  
HETATM    4  C   UNL     1      -8.131  17.492  67.056  1.00  0.00    -0.217 A  
HETATM    5 CL   UNL     1      -6.589  16.879  66.559  1.00  0.00    -0.254 Cl 
HETATM    6  C   UNL     1      -8.751  17.055  68.246  1.00  0.00    -0.241 A  
HETATM    7  C   UNL     1      -9.973  17.652  68.597  1.00  0.00    -0.367 A  
HETATM    8  C   UNL     1     -10.582  18.596  67.758  1.00  0.00    -0.433 A  
ENDROOT
BRANCH   6   9
HETATM    9  C   UNL     1      -8.171  15.894  69.043  1.00  0.00    -0.234 C  
BRANCH   9  10
HETATM   10  O   UNL     1      -9.057  14.765  69.216  1.00  0.00    -0.136 OA 
BRANCH  10  11
HETATM   11  N   UNL     1      -9.576  14.369  67.959  1.00  0.00    -0.210 NA 
HETATM   12  H   UNL     1      -9.013  14.324  67.110  1.00  0.00     0.000 HD 
BRANCH  11  13
HETATM   13  C   UNL     1     -10.847  14.069  67.994  1.00  0.00    -0.246 C  
BRANCH  13  14
HETATM   14  C   UNL     1     -11.381  13.162  69.081  1.00  0.00    -0.335 A  
HETATM   15 CL   UNL     1     -12.465  15.297  70.467  1.00  0.00    -0.419 Cl 
HETATM   16  C   UNL     1     -11.187  11.772  68.961  1.00  0.00    -0.324 A  
HETATM   17  C   UNL     1     -12.115  13.626  70.189  1.00  0.00    -0.361 A  
HETATM   18  C   UNL     1     -11.746  10.871  69.876  1.00  0.00    -0.418 A  
HETATM   19 CL   UNL     1     -13.218  10.243  72.043  1.00  0.00    -0.559 Cl 
HETATM   20  C   UNL     1     -12.494  11.350  70.944  1.00  0.00    -0.379 A  
HETATM   21  C   UNL     1     -12.668  12.720  71.113  1.00  0.00    -0.355 A  
ENDBRANCH  13  14
BRANCH  13  22
HETATM   22  C   UNL     1     -11.871  14.634  67.012  1.00  0.00    -0.337 C  
BRANCH  22  23
HETATM   23  N   UNL     1     -11.975  13.892  65.763  1.00  0.00    -0.378 NA 
HETATM   24  C   UNL     1     -11.674  12.566  65.598  1.00  0.00    -0.423 A  
HETATM   25  N   UNL     1     -12.305  13.447  63.622  1.00  0.00    -0.735 NA 
HETATM   26  C   UNL     1     -12.377  14.375  64.552  1.00  0.00    -0.418 A  
HETATM   27  C   UNL     1     -11.871  12.318  64.260  1.00  0.00    -0.403 A  
ENDBRANCH  22  23
ENDBRANCH  13  22
ENDBRANCH  11  13
ENDBRANCH  10  11
ENDBRANCH   9  10
ENDBRANCH   6   9
TORSDOF 7
ENDMDL
MODEL       14
REMARK 921   NORMALIZED FREE ENERGY PREDICTED BY IDOCK:   -6.46 KCAL/MOL
REMARK 922        TOTAL FREE ENERGY PREDICTED BY IDOCK:  -10.22 KCAL/MOL
REMARK 923 INTER-LIGAND FREE ENERGY PREDICTED BY IDOCK:   -9.55 KCAL/MOL
REMARK 924 INTRA-LIGAND FREE ENERGY PREDICTED BY IDOCK:   -0.67 KCAL/MOL
REMARK 927      BINDING AFFINITY PREDICTED BY RF-SCORE:    0.00 PKD
ROOT
HETATM    1 CL   UNL     1      -5.838  21.367  67.483  1.00  0.00    -0.421 Cl 
HETATM    2  C   UNL     1      -7.181  20.297  67.572  1.00  0.00    -0.298 A  
HETATM    3  C   UNL     1      -8.227  20.426  66.662  1.00  0.00    -0.236 A  
HETATM    4  C   UNL     1      -9.353  19.602  66.787  1.00  0.00    -0.364 A  
HETATM    5 CL   UNL     1     -10.613  19.820  65.618  1.00  0.00    -0.556 Cl 
HETATM    6  C   UNL     1      -9.462  18.649  67.822  1.00  0.00    -0.326 A  
HETATM    7  C   UNL     1      -8.366  18.504  68.687  1.00  0.00    -0.330 A  
HETATM    8  C   UNL     1      -7.235  19.323  68.563  1.00  0.00    -0.349 A  
ENDROOT
BRANCH   6   9
HETATM    9  C   UNL     1     -10.771  17.905  68.058  1.00  0.00    -0.294 C  
BRANCH   9  10
HETATM   10  O   UNL     1     -10.643  16.474  68.218  1.00  0.00    -0.294 OA 
BRANCH  10  11
HETATM   11  N   UNL     1     -11.893  15.922  68.588  1.00  0.00    -0.465 NA 
HETATM   12  H   UNL     1     -12.707  16.490  68.827  1.00  0.00     0.000 HD 
BRANCH  11  13
HETATM   13  C   UNL     1     -11.904  14.616  68.595  1.00  0.00    -0.311 C  
BRANCH  13  14
HETATM   14  C   UNL     1     -11.576  13.851  67.331  1.00  0.00    -0.398 A  
HETATM   15 CL   UNL     1      -9.260  12.819  68.438  1.00  0.00    -0.176 Cl 
HETATM   16  C   UNL     1     -12.475  13.914  66.248  1.00  0.00    -0.454 A  
HETATM   17  C   UNL     1     -10.443  13.027  67.193  1.00  0.00    -0.243 A  
HETATM   18  C   UNL     1     -12.285  13.147  65.091  1.00  0.00    -0.497 A  
HETATM   19 CL   UNL     1     -10.966  11.341  63.590  1.00  0.00    -0.437 Cl 
HETATM   20  C   UNL     1     -11.177  12.316  64.990  1.00  0.00    -0.321 A  
HETATM   21  C   UNL     1     -10.249  12.265  66.026  1.00  0.00    -0.267 A  
ENDBRANCH  13  14
BRANCH  13  22
HETATM   22  C   UNL     1     -12.177  13.784  69.846  1.00  0.00    -0.321 C  
BRANCH  22  23
HETATM   23  N   UNL     1     -12.487  14.572  71.031  1.00  0.00    -0.317 NA 
HETATM   24  C   UNL     1     -13.743  14.818  71.517  1.00  0.00    -0.432 A  
HETATM   25  N   UNL     1     -12.220  15.867  72.804  1.00  0.00    -0.453 NA 
HETATM   26  C   UNL     1     -11.598  15.200  71.854  1.00  0.00    -0.413 A  
HETATM   27  C   UNL     1     -13.552  15.635  72.606  1.00  0.00    -0.579 A  
ENDBRANCH  22  23
ENDBRANCH  13  22
ENDBRANCH  11  13
ENDBRANCH  10  11
ENDBRANCH   9  10
ENDBRANCH   6   9
TORSDOF 7
ENDMDL
MODEL       15
REMARK 921   NORMALIZED FREE ENERGY PREDICTED BY IDOCK:   -6.45 KCAL/MOL
REMARK 922        TOTAL FREE ENERGY PREDICTED BY IDOCK:  -10.21 KCAL/MOL
REMARK 923 INTER-LIGAND FREE ENERGY PREDICTED BY IDOCK:   -8.82 KCAL/MOL
REMARK 924 INTRA-LIGAND FREE ENERGY PREDICTED BY IDOCK:   -1.39 KCAL/MOL
REMARK 927      BINDING AFFINITY PREDICTED BY RF-SCORE:    0.00 PKD
ROOT
HETATM    1 CL   UNL     1     -11.943   5.983  72.330  1.00  0.00    -0.332 Cl 
HETATM    2  C   UNL     1     -11.099   7.145  71.385  1.00  0.00    -0.242 A  
HETATM    3  C   UNL     1     -11.175   7.091  69.995  1.00  0.00    -0.310 A  
HETATM    4  C   UNL     1     -10.425   7.993  69.229  1.00  0.00    -0.215 A  
HETATM    5 CL   UNL     1     -10.571   7.864  67.508  1.00  0.00    -0.330 Cl 
HETATM    6  C   UNL     1      -9.580   8.951  69.830  1.00  0.00    -0.175 A  
HETATM    7  C   UNL     1      -9.572   9.018  71.232  1.00  0.00    -0.361 A  
HETATM    8  C   UNL     1     -10.324   8.120  72.003  1.00  0.00    -0.320 A  
ENDROOT
BRANCH   6   9
HETATM    9  C   UNL     1      -8.628   9.785  68.983  1.00  0.00    -0.146 C  
BRANCH   9  10
HETATM   10  O   UNL     1      -9.256  10.819  68.191  1.00  0.00    -0.142 OA 
BRANCH  10  11
HETATM   11  N   UNL     1      -9.763  11.830  69.043  1.00  0.00    -0.412 NA 
HETATM   12  H   UNL     1      -9.229  12.232  69.814  1.00  0.00     0.000 HD 
BRANCH  11  13
HETATM   13  C   UNL     1     -10.981  12.198  68.746  1.00  0.00    -0.232 C  
BRANCH  13  14
HETATM   14  C   UNL     1     -11.792  13.000  69.740  1.00  0.00    -0.381 A  
HETATM   15 CL   UNL     1     -12.642  10.711  71.042  1.00  0.00    -0.477 Cl 
HETATM   16  C   UNL     1     -11.768  14.406  69.658  1.00  0.00    -0.362 A  
HETATM   17  C   UNL     1     -12.534  12.418  70.787  1.00  0.00    -0.267 A  
HETATM   18  C   UNL     1     -12.411  15.207  70.611  1.00  0.00    -0.420 A  
HETATM   19 CL   UNL     1     -13.861  15.594  72.848  1.00  0.00    -0.620 Cl 
HETATM   20  C   UNL     1     -13.109  14.612  71.653  1.00  0.00    -0.346 A  
HETATM   21  C   UNL     1     -13.187  13.225  71.736  1.00  0.00    -0.495 A  
ENDBRANCH  13  14
BRANCH  13  22
HETATM   22  C   UNL     1     -11.639  11.913  67.398  1.00  0.00    -0.297 C  
BRANCH  22  23
HETATM   23  N   UNL     1     -11.428  12.949  66.398  1.00  0.00    -0.323 NA 
HETATM   24  C   UNL     1     -12.410  13.696  65.806  1.00  0.00    -0.482 A  
HETATM   25  N   UNL     1     -10.407  14.277  64.953  1.00  0.00    -0.429 NA 
HETATM   26  C   UNL     1     -10.234  13.352  65.874  1.00  0.00    -0.299 A  
HETATM   27  C   UNL     1     -11.755  14.500  64.903  1.00  0.00    -0.402 A  
ENDBRANCH  22  23
ENDBRANCH  13  22
ENDBRANCH  11  13
ENDBRANCH  10  11
ENDBRANCH   9  10
ENDBRANCH   6   9
TORSDOF 7
ENDMDL
MODEL       16
REMARK 921   NORMALIZED FREE ENERGY PREDICTED BY IDOCK:   -6.45 KCAL/MOL
REMARK 922        TOTAL FREE ENERGY PREDICTED BY IDOCK:  -10.21 KCAL/MOL
REMARK 923 INTER-LIGAND FREE ENERGY PREDICTED BY IDOCK:   -9.24 KCAL/MOL
REMARK 924 INTRA-LIGAND FREE ENERGY PREDICTED BY IDOCK:   -0.97 KCAL/MOL
REMARK 927      BINDING AFFINITY PREDICTED BY RF-SCORE:    0.00 PKD
ROOT
HETATM    1 CL   UNL     1     -11.090   7.556  73.226  1.00  0.00    -0.384 Cl 
HETATM    2  C   UNL     1     -11.080   8.649  71.899  1.00  0.00    -0.346 A  
HETATM    3  C   UNL     1      -9.933   8.777  71.119  1.00  0.00    -0.317 A  
HETATM    4  C   UNL     1      -9.905   9.725  70.087  1.00  0.00    -0.255 A  
HETATM    5 CL   UNL     1      -8.445   9.825  69.160  1.00  0.00    -0.133 Cl 
HETATM    6  C   UNL     1     -11.007  10.566  69.824  1.00  0.00    -0.350 A  
HETATM    7  C   UNL     1     -12.168  10.372  70.590  1.00  0.00    -0.441 A  
HETATM    8  C   UNL     1     -12.202   9.422  71.621  1.00  0.00    -0.467 A  
ENDROOT
BRANCH   6   9
HETATM    9  C   UNL     1     -10.885  11.717  68.834  1.00  0.00    -0.223 C  
BRANCH   9  10
HETATM   10  O   UNL     1     -11.676  12.886  69.151  1.00  0.00    -0.290 OA 
BRANCH  10  11
HETATM   11  N   UNL     1     -10.821  13.964  69.485  1.00  0.00    -0.447 NA 
HETATM   12  H   UNL     1      -9.845  13.841  69.755  1.00  0.00     0.000 HD 
BRANCH  11  13
HETATM   13  C   UNL     1     -11.403  15.131  69.412  1.00  0.00    -0.294 C  
BRANCH  13  14
HETATM   14  C   UNL     1     -10.801  16.225  68.558  1.00  0.00    -0.330 A  
HETATM   15 CL   UNL     1     -11.278  14.807  66.231  1.00  0.00    -0.342 Cl 
HETATM   16  C   UNL     1     -10.337  17.398  69.185  1.00  0.00    -0.271 A  
HETATM   17  C   UNL     1     -10.727  16.162  67.153  1.00  0.00    -0.262 A  
HETATM   18  C   UNL     1      -9.868  18.490  68.444  1.00  0.00    -0.404 A  
HETATM   19 CL   UNL     1      -9.299  19.774  66.145  1.00  0.00    -0.447 Cl 
HETATM   20  C   UNL     1      -9.834  18.418  67.058  1.00  0.00    -0.326 A  
HETATM   21  C   UNL     1     -10.245  17.256  66.411  1.00  0.00    -0.333 A  
ENDBRANCH  13  14
BRANCH  13  22
HETATM   22  C   UNL     1     -12.722  15.456  70.110  1.00  0.00    -0.227 C  
BRANCH  22  23
HETATM   23  N   UNL     1     -12.694  15.277  71.555  1.00  0.00    -0.350 NA 
HETATM   24  C   UNL     1     -12.037  16.084  72.444  1.00  0.00    -0.535 A  
HETATM   25  N   UNL     1     -13.031  14.393  73.554  1.00  0.00    -0.466 NA 
HETATM   26  C   UNL     1     -13.302  14.287  72.270  1.00  0.00    -0.440 A  
HETATM   27  C   UNL     1     -12.247  15.507  73.674  1.00  0.00    -0.561 A  
ENDBRANCH  22  23
ENDBRANCH  13  22
ENDBRANCH  11  13
ENDBRANCH  10  11
ENDBRANCH   9  10
ENDBRANCH   6   9
TORSDOF 7
ENDMDL
MODEL       17
REMARK 921   NORMALIZED FREE ENERGY PREDICTED BY IDOCK:   -6.43 KCAL/MOL
REMARK 922        TOTAL FREE ENERGY PREDICTED BY IDOCK:  -10.18 KCAL/MOL
REMARK 923 INTER-LIGAND FREE ENERGY PREDICTED BY IDOCK:   -9.30 KCAL/MOL
REMARK 924 INTRA-LIGAND FREE ENERGY PREDICTED BY IDOCK:   -0.88 KCAL/MOL
REMARK 927      BINDING AFFINITY PREDICTED BY RF-SCORE:    0.00 PKD
ROOT
HETATM    1 CL   UNL     1     -12.007   8.037  72.465  1.00  0.00    -0.405 Cl 
HETATM    2  C   UNL     1     -12.065   9.511  71.582  1.00  0.00    -0.398 A  
HETATM    3  C   UNL     1     -11.167   9.725  70.538  1.00  0.00    -0.381 A  
HETATM    4  C   UNL     1     -11.168  10.958  69.872  1.00  0.00    -0.282 A  
HETATM    5 CL   UNL     1     -10.024  11.150  68.586  1.00  0.00    -0.201 Cl 
HETATM    6  C   UNL     1     -12.049  11.998  70.240  1.00  0.00    -0.395 A  
HETATM    7  C   UNL     1     -12.980  11.729  71.255  1.00  0.00    -0.353 A  
HETATM    8  C   UNL     1     -12.986  10.496  71.922  1.00  0.00    -0.553 A  
ENDROOT
BRANCH   6   9
HETATM    9  C   UNL     1     -11.899  13.390  69.638  1.00  0.00    -0.331 C  
BRANCH   9  10
HETATM   10  O   UNL     1     -12.241  13.493  68.237  1.00  0.00    -0.313 OA 
BRANCH  10  11
HETATM   11  N   UNL     1     -12.042  14.823  67.795  1.00  0.00    -0.559 NA 
HETATM   12  H   UNL     1     -12.749  15.553  67.881  1.00  0.00     0.000 HD 
BRANCH  11  13
HETATM   13  C   UNL     1     -10.865  15.024  67.265  1.00  0.00    -0.310 C  
BRANCH  13  14
HETATM   14  C   UNL     1     -10.031  16.209  67.702  1.00  0.00    -0.241 A  
HETATM   15 CL   UNL     1      -8.265  14.584  69.079  1.00  0.00    -0.119 Cl 
HETATM   16  C   UNL     1     -10.399  17.496  67.262  1.00  0.00    -0.337 A  
HETATM   17  C   UNL     1      -8.866  16.092  68.484  1.00  0.00    -0.200 A  
HETATM   18  C   UNL     1      -9.611  18.619  67.543  1.00  0.00    -0.317 A  
HETATM   19 CL   UNL     1      -7.458  19.848  68.597  1.00  0.00    -0.318 Cl 
HETATM   20  C   UNL     1      -8.449  18.476  68.289  1.00  0.00    -0.318 A  
HETATM   21  C   UNL     1      -8.082  17.224  68.774  1.00  0.00    -0.242 A  
ENDBRANCH  13  14
BRANCH  13  22
HETATM   22  C   UNL     1     -10.231  14.082  66.243  1.00  0.00    -0.296 C  
BRANCH  22  23
HETATM   23  N   UNL     1     -11.110  13.717  65.141  1.00  0.00    -0.308 NA 
HETATM   24  C   UNL     1     -11.251  12.459  64.620  1.00  0.00    -0.312 A  
HETATM   25  N   UNL     1     -12.549  13.899  63.472  1.00  0.00    -0.805 NA 
HETATM   26  C   UNL     1     -11.932  14.548  64.437  1.00  0.00    -0.449 A  
HETATM   27  C   UNL     1     -12.136  12.601  63.577  1.00  0.00    -0.561 A  
ENDBRANCH  22  23
ENDBRANCH  13  22
ENDBRANCH  11  13
ENDBRANCH  10  11
ENDBRANCH   9  10
ENDBRANCH   6   9
TORSDOF 7
ENDMDL
MODEL       18
REMARK 921   NORMALIZED FREE ENERGY PREDICTED BY IDOCK:   -6.36 KCAL/MOL
REMARK 922        TOTAL FREE ENERGY PREDICTED BY IDOCK:  -10.08 KCAL/MOL
REMARK 923 INTER-LIGAND FREE ENERGY PREDICTED BY IDOCK:   -9.27 KCAL/MOL
REMARK 924 INTRA-LIGAND FREE ENERGY PREDICTED BY IDOCK:   -0.81 KCAL/MOL
REMARK 927      BINDING AFFINITY PREDICTED BY RF-SCORE:    0.00 PKD
ROOT
HETATM    1 CL   UNL     1      -6.047  20.425  69.226  1.00  0.00    -0.373 Cl 
HETATM    2  C   UNL     1      -7.048  19.428  68.247  1.00  0.00    -0.284 A  
HETATM    3  C   UNL     1      -8.316  19.873  67.878  1.00  0.00    -0.326 A  
HETATM    4  C   UNL     1      -9.156  19.024  67.145  1.00  0.00    -0.283 A  
HETATM    5 CL   UNL     1     -10.716  19.647  66.723  1.00  0.00    -0.585 Cl 
HETATM    6  C   UNL     1      -8.756  17.721  66.779  1.00  0.00    -0.273 A  
HETATM    7  C   UNL     1      -7.452  17.325  67.115  1.00  0.00    -0.208 A  
HETATM    8  C   UNL     1      -6.606  18.172  67.845  1.00  0.00    -0.195 A  
ENDROOT
BRANCH   6   9
HETATM    9  C   UNL     1      -9.752  16.749  66.158  1.00  0.00    -0.291 C  
BRANCH   9  10
HETATM   10  O   UNL     1     -10.796  16.290  67.046  1.00  0.00    -0.283 OA 
BRANCH  10  11
HETATM   11  N   UNL     1     -10.481  14.993  67.521  1.00  0.00    -0.252 NA 
HETATM   12  H   UNL     1      -9.556  14.731  67.861  1.00  0.00     0.000 HD 
BRANCH  11  13
HETATM   13  C   UNL     1     -11.491  14.166  67.482  1.00  0.00    -0.340 C  
BRANCH  13  14
HETATM   14  C   UNL     1     -11.797  13.288  68.676  1.00  0.00    -0.380 A  
HETATM   15 CL   UNL     1     -12.429  15.477  70.247  1.00  0.00    -0.429 Cl 
HETATM   16  C   UNL     1     -11.700  11.890  68.533  1.00  0.00    -0.388 A  
HETATM   17  C   UNL     1     -12.231  13.790  69.918  1.00  0.00    -0.321 A  
HETATM   18  C   UNL     1     -12.071  11.020  69.566  1.00  0.00    -0.400 A  
HETATM   19 CL   UNL     1     -13.024  10.468  72.025  1.00  0.00    -0.547 Cl 
HETATM   20  C   UNL     1     -12.526  11.536  70.772  1.00  0.00    -0.349 A  
HETATM   21  C   UNL     1     -12.593  12.914  70.958  1.00  0.00    -0.376 A  
ENDBRANCH  13  14
BRANCH  13  22
HETATM   22  C   UNL     1     -12.447  14.063  66.296  1.00  0.00    -0.400 C  
BRANCH  22  23
HETATM   23  N   UNL     1     -11.958  13.231  65.204  1.00  0.00    -0.359 NA 
HETATM   24  C   UNL     1     -10.663  13.177  64.765  1.00  0.00    -0.364 A  
HETATM   25  N   UNL     1     -11.944  11.820  63.502  1.00  0.00    -0.456 NA 
HETATM   26  C   UNL     1     -12.690  12.377  64.433  1.00  0.00    -0.342 A  
HETATM   27  C   UNL     1     -10.682  12.308  63.700  1.00  0.00    -0.467 A  
ENDBRANCH  22  23
ENDBRANCH  13  22
ENDBRANCH  11  13
ENDBRANCH  10  11
ENDBRANCH   9  10
ENDBRANCH   6   9
TORSDOF 7
ENDMDL
MODEL       19
REMARK 921   NORMALIZED FREE ENERGY PREDICTED BY IDOCK:   -6.30 KCAL/MOL
REMARK 922        TOTAL FREE ENERGY PREDICTED BY IDOCK:  -10.00 KCAL/MOL
REMARK 923 INTER-LIGAND FREE ENERGY PREDICTED BY IDOCK:   -8.93 KCAL/MOL
REMARK 924 INTRA-LIGAND FREE ENERGY PREDICTED BY IDOCK:   -1.07 KCAL/MOL
REMARK 927      BINDING AFFINITY PREDICTED BY RF-SCORE:    0.00 PKD
ROOT
HETATM    1 CL   UNL     1     -12.183   6.378  72.040  1.00  0.00    -0.374 Cl 
HETATM    2  C   UNL     1     -11.582   7.678  71.088  1.00  0.00    -0.280 A  
HETATM    3  C   UNL     1     -10.846   7.407  69.937  1.00  0.00    -0.259 A  
HETATM    4  C   UNL     1     -10.295   8.469  69.207  1.00  0.00    -0.221 A  
HETATM    5 CL   UNL     1      -9.392   8.055  67.788  1.00  0.00    -0.145 Cl 
HETATM    6  C   UNL     1     -10.455   9.811  69.616  1.00  0.00    -0.263 A  
HETATM    7  C   UNL     1     -11.252  10.053  70.747  1.00  0.00    -0.428 A  
HETATM    8  C   UNL     1     -11.809   8.993  71.477  1.00  0.00    -0.415 A  
ENDROOT
BRANCH   6   9
HETATM    9  C   UNL     1      -9.686  10.929  68.925  1.00  0.00    -0.187 C  
BRANCH   9  10
HETATM   10  O   UNL     1     -10.441  11.679  67.946  1.00  0.00    -0.183 OA 
BRANCH  10  11
HETATM   11  N   UNL     1      -9.995  13.023  67.927  1.00  0.00    -0.223 NA 
HETATM   12  H   UNL     1      -9.011  13.284  67.869  1.00  0.00     0.000 HD 
BRANCH  11  13
HETATM   13  C   UNL     1     -10.966  13.895  67.990  1.00  0.00    -0.251 C  
BRANCH  13  14
HETATM   14  C   UNL     1     -11.447  14.395  69.335  1.00  0.00    -0.330 A  
HETATM   15 CL   UNL     1      -9.987  16.734  69.098  1.00  0.00    -0.268 Cl 
HETATM   16  C   UNL     1     -12.359  13.608  70.065  1.00  0.00    -0.342 A  
HETATM   17  C   UNL     1     -11.074  15.639  69.880  1.00  0.00    -0.319 A  
HETATM   18  C   UNL     1     -12.924  14.061  71.264  1.00  0.00    -0.418 A  
HETATM   19 CL   UNL     1     -13.292  15.882  73.215  1.00  0.00    -0.675 Cl 
HETATM   20  C   UNL     1     -12.566  15.306  71.766  1.00  0.00    -0.362 A  
HETATM   21  C   UNL     1     -11.634  16.088  71.090  1.00  0.00    -0.492 A  
ENDBRANCH  13  14
BRANCH  13  22
HETATM   22  C   UNL     1     -11.630  14.503  66.758  1.00  0.00    -0.376 C  
BRANCH  22  23
HETATM   23  N   UNL     1     -11.562  13.667  65.567  1.00  0.00    -0.317 NA 
HETATM   24  C   UNL     1     -12.531  12.793  65.154  1.00  0.00    -0.501 A  
HETATM   25  N   UNL     1     -10.780  12.701  63.738  1.00  0.00    -0.430 NA 
HETATM   26  C   UNL     1     -10.537  13.599  64.669  1.00  0.00    -0.430 A  
HETATM   27  C   UNL     1     -12.017  12.195  64.027  1.00  0.00    -0.440 A  
ENDBRANCH  22  23
ENDBRANCH  13  22
ENDBRANCH  11  13
ENDBRANCH  10  11
ENDBRANCH   9  10
ENDBRANCH   6   9
TORSDOF 7
ENDMDL
MODEL       20
REMARK 921   NORMALIZED FREE ENERGY PREDICTED BY IDOCK:   -6.29 KCAL/MOL
REMARK 922        TOTAL FREE ENERGY PREDICTED BY IDOCK:   -9.98 KCAL/MOL
REMARK 923 INTER-LIGAND FREE ENERGY PREDICTED BY IDOCK:   -8.64 KCAL/MOL
REMARK 924 INTRA-LIGAND FREE ENERGY PREDICTED BY IDOCK:   -1.34 KCAL/MOL
REMARK 927      BINDING AFFINITY PREDICTED BY RF-SCORE:    0.00 PKD
ROOT
HETATM    1 CL   UNL     1     -13.458  15.982  73.247  1.00  0.00    -0.660 Cl 
HETATM    2  C   UNL     1     -13.070  14.739  72.125  1.00  0.00    -0.341 A  
HETATM    3  C   UNL     1     -13.422  13.421  72.406  1.00  0.00    -0.685 A  
HETATM    4  C   UNL     1     -13.035  12.402  71.524  1.00  0.00    -0.285 A  
HETATM    5 CL   UNL     1     -13.509  10.789  71.941  1.00  0.00    -0.408 Cl 
HETATM    6  C   UNL     1     -12.285  12.675  70.361  1.00  0.00    -0.368 A  
HETATM    7  C   UNL     1     -11.998  14.020  70.076  1.00  0.00    -0.404 A  
HETATM    8  C   UNL     1     -12.387  15.043  70.953  1.00  0.00    -0.393 A  
ENDROOT
BRANCH   6   9
HETATM    9  C   UNL     1     -11.709  11.539  69.525  1.00  0.00    -0.346 C  
BRANCH   9  10
HETATM   10  O   UNL     1     -12.252  11.423  68.190  1.00  0.00    -0.602 OA 
BRANCH  10  11
HETATM   11  N   UNL     1     -11.291  10.833  67.334  1.00  0.00    -0.446 NA 
HETATM   12  H   UNL     1     -10.908   9.899  67.483  1.00  0.00     0.000 HD 
BRANCH  11  13
HETATM   13  C   UNL     1     -10.942  11.600  66.336  1.00  0.00    -0.295 C  
BRANCH  13  14
HETATM   14  C   UNL     1     -10.447  13.006  66.600  1.00  0.00    -0.271 A  
HETATM   15 CL   UNL     1     -12.845  14.112  65.776  1.00  0.00    -0.474 Cl 
HETATM   16  C   UNL     1      -9.154  13.181  67.132  1.00  0.00    -0.230 A  
HETATM   17  C   UNL     1     -11.231  14.157  66.395  1.00  0.00    -0.328 A  
HETATM   18  C   UNL     1      -8.676  14.446  67.498  1.00  0.00    -0.203 A  
HETATM   19 CL   UNL     1      -8.910  17.111  67.805  1.00  0.00    -0.222 Cl 
HETATM   20  C   UNL     1      -9.479  15.564  67.316  1.00  0.00    -0.213 A  
HETATM   21  C   UNL     1     -10.745  15.428  66.753  1.00  0.00    -0.310 A  
ENDBRANCH  13  14
BRANCH  13  22
HETATM   22  C   UNL     1     -10.948  11.140  64.881  1.00  0.00    -0.121 C  
BRANCH  22  23
HETATM   23  N   UNL     1      -9.754  10.408  64.480  1.00  0.00    -0.307 NA 
HETATM   24  C   UNL     1      -9.009  10.654  63.358  1.00  0.00    -0.219 A  
HETATM   25  N   UNL     1      -8.136   8.900  64.471  1.00  0.00    -0.142 NA 
HETATM   26  C   UNL     1      -9.175   9.361  65.135  1.00  0.00    -0.225 A  
HETATM   27  C   UNL     1      -8.023   9.697  63.366  1.00  0.00    -0.145 A  
ENDBRANCH  22  23
ENDBRANCH  13  22
ENDBRANCH  11  13
ENDBRANCH  10  11
ENDBRANCH   9  10
ENDBRANCH   6   9
TORSDOF 7
ENDMDL
MODEL       21
REMARK 921   NORMALIZED FREE ENERGY PREDICTED BY IDOCK:   -6.27 KCAL/MOL
REMARK 922        TOTAL FREE ENERGY PREDICTED BY IDOCK:   -9.95 KCAL/MOL
REMARK 923 INTER-LIGAND FREE ENERGY PREDICTED BY IDOCK:   -8.80 KCAL/MOL
REMARK 924 INTRA-LIGAND FREE ENERGY PREDICTED BY IDOCK:   -1.15 KCAL/MOL
REMARK 927      BINDING AFFINITY PREDICTED BY RF-SCORE:    0.00 PKD
ROOT
HETATM    1 CL   UNL     1     -13.738  15.945  73.043  1.00  0.00    -0.649 Cl 
HETATM    2  C   UNL     1     -13.282  14.646  72.013  1.00  0.00    -0.351 A  
HETATM    3  C   UNL     1     -13.493  13.332  72.424  1.00  0.00    -0.670 A  
HETATM    4  C   UNL     1     -13.050  12.278  71.613  1.00  0.00    -0.306 A  
HETATM    5 CL   UNL     1     -13.349  10.673  72.191  1.00  0.00    -0.470 Cl 
HETATM    6  C   UNL     1     -12.381  12.513  70.393  1.00  0.00    -0.311 A  
HETATM    7  C   UNL     1     -12.236  13.847  69.980  1.00  0.00    -0.408 A  
HETATM    8  C   UNL     1     -12.682  14.905  70.785  1.00  0.00    -0.421 A  
ENDROOT
BRANCH   6   9
HETATM    9  C   UNL     1     -11.736  11.364  69.629  1.00  0.00    -0.345 C  
BRANCH   9  10
HETATM   10  O   UNL     1     -12.278  11.122  68.311  1.00  0.00    -0.613 OA 
BRANCH  10  11
HETATM   11  N   UNL     1     -11.389  10.306  67.572  1.00  0.00    -0.510 NA 
HETATM   12  H   UNL     1     -11.474   9.291  67.519  1.00  0.00     0.000 HD 
BRANCH  11  13
HETATM   13  C   UNL     1     -10.449  10.979  66.964  1.00  0.00    -0.240 C  
BRANCH  13  14
HETATM   14  C   UNL     1     -10.753  12.338  66.373  1.00  0.00    -0.284 A  
HETATM   15 CL   UNL     1      -9.158  13.616  68.238  1.00  0.00    -0.194 Cl 
HETATM   16  C   UNL     1     -11.578  12.413  65.233  1.00  0.00    -0.419 A  
HETATM   17  C   UNL     1     -10.210  13.540  66.867  1.00  0.00    -0.256 A  
HETATM   18  C   UNL     1     -11.812  13.627  64.575  1.00  0.00    -0.445 A  
HETATM   19 CL   UNL     1     -11.491  16.279  64.229  1.00  0.00    -0.267 Cl 
HETATM   20  C   UNL     1     -11.240  14.795  65.062  1.00  0.00    -0.395 A  
HETATM   21  C   UNL     1     -10.455  14.760  66.211  1.00  0.00    -0.300 A  
ENDBRANCH  13  14
BRANCH  13  22
HETATM   22  C   UNL     1      -9.004  10.495  66.857  1.00  0.00    -0.140 C  
BRANCH  22  23
HETATM   23  N   UNL     1      -8.735   9.669  65.689  1.00  0.00    -0.134 NA 
HETATM   24  C   UNL     1      -8.296   8.373  65.715  1.00  0.00    -0.146 A  
HETATM   25  N   UNL     1      -8.489   9.058  63.578  1.00  0.00    -0.190 NA 
HETATM   26  C   UNL     1      -8.864  10.032  64.380  1.00  0.00    -0.213 A  
HETATM   27  C   UNL     1      -8.136   8.021  64.396  1.00  0.00    -0.123 A  
ENDBRANCH  22  23
ENDBRANCH  13  22
ENDBRANCH  11  13
ENDBRANCH  10  11
ENDBRANCH   9  10
ENDBRANCH   6   9
TORSDOF 7
ENDMDL
MODEL       22
REMARK 921   NORMALIZED FREE ENERGY PREDICTED BY IDOCK:   -6.27 KCAL/MOL
REMARK 922        TOTAL FREE ENERGY PREDICTED BY IDOCK:   -9.95 KCAL/MOL
REMARK 923 INTER-LIGAND FREE ENERGY PREDICTED BY IDOCK:   -8.80 KCAL/MOL
REMARK 924 INTRA-LIGAND FREE ENERGY PREDICTED BY IDOCK:   -1.14 KCAL/MOL
REMARK 927      BINDING AFFINITY PREDICTED BY RF-SCORE:    0.00 PKD
ROOT
HETATM    1 CL   UNL     1     -10.865   7.476  73.346  1.00  0.00    -0.418 Cl 
HETATM    2  C   UNL     1     -11.205   8.594  72.085  1.00  0.00    -0.367 A  
HETATM    3  C   UNL     1     -10.189   8.985  71.217  1.00  0.00    -0.384 A  
HETATM    4  C   UNL     1     -10.453   9.954  70.239  1.00  0.00    -0.291 A  
HETATM    5 CL   UNL     1      -9.140  10.388  69.197  1.00  0.00    -0.192 Cl 
HETATM    6  C   UNL     1     -11.723  10.557  70.118  1.00  0.00    -0.410 A  
HETATM    7  C   UNL     1     -12.741  10.098  70.970  1.00  0.00    -0.481 A  
HETATM    8  C   UNL     1     -12.483   9.126  71.947  1.00  0.00    -0.459 A  
ENDROOT
BRANCH   6   9
HETATM    9  C   UNL     1     -11.934  11.743  69.186  1.00  0.00    -0.293 C  
BRANCH   9  10
HETATM   10  O   UNL     1     -12.037  11.409  67.783  1.00  0.00    -0.637 OA 
BRANCH  10  11
HETATM   11  N   UNL     1     -12.284  12.583  67.031  1.00  0.00    -0.433 NA 
HETATM   12  H   UNL     1     -13.175  13.079  67.043  1.00  0.00     0.000 HD 
BRANCH  11  13
HETATM   13  C   UNL     1     -11.259  12.969  66.318  1.00  0.00    -0.301 C  
BRANCH  13  14
HETATM   14  C   UNL     1     -10.563  11.987  65.401  1.00  0.00    -0.319 A  
HETATM   15 CL   UNL     1     -12.402  12.420  63.379  1.00  0.00    -0.638 Cl 
HETATM   16  C   UNL     1      -9.387  11.355  65.850  1.00  0.00    -0.247 A  
HETATM   17  C   UNL     1     -10.996  11.707  64.090  1.00  0.00    -0.376 A  
HETATM   18  C   UNL     1      -8.637  10.519  65.013  1.00  0.00    -0.184 A  
HETATM   19 CL   UNL     1      -8.124   9.291  62.671  1.00  0.00    -0.137 Cl 
HETATM   20  C   UNL     1      -9.066  10.283  63.713  1.00  0.00    -0.256 A  
HETATM   21  C   UNL     1     -10.247  10.858  63.254  1.00  0.00    -0.317 A  
ENDBRANCH  13  14
BRANCH  13  22
HETATM   22  C   UNL     1     -10.736  14.403  66.307  1.00  0.00    -0.307 C  
BRANCH  22  23
HETATM   23  N   UNL     1     -10.522  14.972  67.631  1.00  0.00    -0.244 NA 
HETATM   24  C   UNL     1      -9.560  14.577  68.521  1.00  0.00    -0.220 A  
HETATM   25  N   UNL     1     -10.808  16.212  69.439  1.00  0.00    -0.295 NA 
HETATM   26  C   UNL     1     -11.234  15.978  68.216  1.00  0.00    -0.350 A  
HETATM   27  C   UNL     1      -9.768  15.348  69.639  1.00  0.00    -0.246 A  
ENDBRANCH  22  23
ENDBRANCH  13  22
ENDBRANCH  11  13
ENDBRANCH  10  11
ENDBRANCH   9  10
ENDBRANCH   6   9
TORSDOF 7
ENDMDL
MODEL       23
REMARK 921   NORMALIZED FREE ENERGY PREDICTED BY IDOCK:   -6.26 KCAL/MOL
REMARK 922        TOTAL FREE ENERGY PREDICTED BY IDOCK:   -9.93 KCAL/MOL
REMARK 923 INTER-LIGAND FREE ENERGY PREDICTED BY IDOCK:   -9.09 KCAL/MOL
REMARK 924 INTRA-LIGAND FREE ENERGY PREDICTED BY IDOCK:   -0.85 KCAL/MOL
REMARK 927      BINDING AFFINITY PREDICTED BY RF-SCORE:    0.00 PKD
ROOT
HETATM    1 CL   UNL     1     -10.237   6.905  73.894  1.00  0.00    -0.383 Cl 
HETATM    2  C   UNL     1     -10.506   8.073  72.662  1.00  0.00    -0.339 A  
HETATM    3  C   UNL     1     -11.794   8.554  72.437  1.00  0.00    -0.437 A  
HETATM    4  C   UNL     1     -12.020   9.448  71.381  1.00  0.00    -0.371 A  
HETATM    5 CL   UNL     1     -13.646  10.003  71.164  1.00  0.00    -0.302 Cl 
HETATM    6  C   UNL     1     -10.976   9.866  70.529  1.00  0.00    -0.391 A  
HETATM    7  C   UNL     1      -9.680   9.409  70.819  1.00  0.00    -0.332 A  
HETATM    8  C   UNL     1      -9.449   8.518  71.876  1.00  0.00    -0.350 A  
ENDROOT
BRANCH   6   9
HETATM    9  C   UNL     1     -11.276  10.677  69.275  1.00  0.00    -0.273 C  
BRANCH   9  10
HETATM   10  O   UNL     1     -10.862  12.061  69.325  1.00  0.00    -0.184 OA 
BRANCH  10  11
HETATM   11  N   UNL     1     -11.803  12.813  70.069  1.00  0.00    -0.479 NA 
HETATM   12  H   UNL     1     -12.362  12.418  70.826  1.00  0.00     0.000 HD 
BRANCH  11  13
HETATM   13  C   UNL     1     -11.886  14.061  69.693  1.00  0.00    -0.330 C  
BRANCH  13  14
HETATM   14  C   UNL     1     -10.839  14.643  68.768  1.00  0.00    -0.261 A  
HETATM   15 CL   UNL     1     -12.158  13.704  66.524  1.00  0.00    -0.460 Cl 
HETATM   16  C   UNL     1      -9.772  15.374  69.325  1.00  0.00    -0.268 A  
HETATM   17  C   UNL     1     -10.900  14.542  67.364  1.00  0.00    -0.291 A  
HETATM   18  C   UNL     1      -8.830  16.027  68.520  1.00  0.00    -0.199 A  
HETATM   19 CL   UNL     1      -7.798  16.778  66.147  1.00  0.00    -0.331 Cl 
HETATM   20  C   UNL     1      -8.928  15.941  67.137  1.00  0.00    -0.208 A  
HETATM   21  C   UNL     1      -9.947  15.190  66.558  1.00  0.00    -0.279 A  
ENDBRANCH  13  14
BRANCH  13  22
HETATM   22  C   UNL     1     -13.034  14.985  70.092  1.00  0.00    -0.084 C  
BRANCH  22  23
HETATM   23  N   UNL     1     -12.962  15.471  71.463  1.00  0.00    -0.445 NA 
HETATM   24  C   UNL     1     -11.880  16.087  72.032  1.00  0.00    -0.533 A  
HETATM   25  N   UNL     1     -13.523  15.887  73.561  1.00  0.00    -0.483 NA 
HETATM   26  C   UNL     1     -13.939  15.396  72.413  1.00  0.00    -0.560 A  
HETATM   27  C   UNL     1     -12.246  16.320  73.337  1.00  0.00    -0.516 A  
ENDBRANCH  22  23
ENDBRANCH  13  22
ENDBRANCH  11  13
ENDBRANCH  10  11
ENDBRANCH   9  10
ENDBRANCH   6   9
TORSDOF 7
ENDMDL
MODEL       24
REMARK 921   NORMALIZED FREE ENERGY PREDICTED BY IDOCK:   -6.24 KCAL/MOL
REMARK 922        TOTAL FREE ENERGY PREDICTED BY IDOCK:   -9.92 KCAL/MOL
REMARK 923 INTER-LIGAND FREE ENERGY PREDICTED BY IDOCK:   -8.98 KCAL/MOL
REMARK 924 INTRA-LIGAND FREE ENERGY PREDICTED BY IDOCK:   -0.94 KCAL/MOL
REMARK 927      BINDING AFFINITY PREDICTED BY RF-SCORE:    0.00 PKD
ROOT
HETATM    1 CL   UNL     1     -10.480   6.835  73.766  1.00  0.00    -0.378 Cl 
HETATM    2  C   UNL     1     -10.507   8.062  72.563  1.00  0.00    -0.316 A  
HETATM    3  C   UNL     1     -11.694   8.741  72.297  1.00  0.00    -0.398 A  
HETATM    4  C   UNL     1     -11.729   9.686  71.262  1.00  0.00    -0.382 A  
HETATM    5 CL   UNL     1     -13.239  10.490  70.991  1.00  0.00    -0.396 Cl 
HETATM    6  C   UNL     1     -10.593   9.960  70.471  1.00  0.00    -0.359 A  
HETATM    7  C   UNL     1      -9.398   9.302  70.803  1.00  0.00    -0.322 A  
HETATM    8  C   UNL     1      -9.357   8.359  71.840  1.00  0.00    -0.313 A  
ENDROOT
BRANCH   6   9
HETATM    9  C   UNL     1     -10.705  10.840  69.232  1.00  0.00    -0.229 C  
BRANCH   9  10
HETATM   10  O   UNL     1      -9.458  11.093  68.546  1.00  0.00    -0.181 OA 
BRANCH  10  11
HETATM   11  N   UNL     1      -9.214  12.487  68.499  1.00  0.00    -0.373 NA 
HETATM   12  H   UNL     1      -8.827  13.014  69.282  1.00  0.00     0.000 HD 
BRANCH  11  13
HETATM   13  C   UNL     1      -9.533  13.033  67.356  1.00  0.00    -0.210 C  
BRANCH  13  14
HETATM   14  C   UNL     1      -9.822  14.516  67.280  1.00  0.00    -0.236 A  
HETATM   15 CL   UNL     1     -12.087  14.255  68.848  1.00  0.00    -0.349 Cl 
HETATM   16  C   UNL     1      -8.926  15.347  66.578  1.00  0.00    -0.344 A  
HETATM   17  C   UNL     1     -10.915  15.129  67.924  1.00  0.00    -0.302 A  
HETATM   18  C   UNL     1      -9.078  16.740  66.560  1.00  0.00    -0.302 A  
HETATM   19 CL   UNL     1     -10.309  19.036  67.243  1.00  0.00    -0.465 Cl 
HETATM   20  C   UNL     1     -10.146  17.324  67.228  1.00  0.00    -0.300 A  
HETATM   21  C   UNL     1     -11.071  16.527  67.895  1.00  0.00    -0.229 A  
ENDBRANCH  13  14
BRANCH  13  22
HETATM   22  C   UNL     1      -9.579  12.260  66.040  1.00  0.00    -0.222 C  
BRANCH  22  23
HETATM   23  N   UNL     1     -10.806  12.449  65.278  1.00  0.00    -0.281 NA 
HETATM   24  C   UNL     1     -10.876  12.736  63.942  1.00  0.00    -0.411 A  
HETATM   25  N   UNL     1     -12.956  12.654  64.804  1.00  0.00    -0.867 NA 
HETATM   26  C   UNL     1     -12.084  12.381  65.751  1.00  0.00    -0.311 A  
HETATM   27  C   UNL     1     -12.217  12.874  63.675  1.00  0.00    -0.499 A  
ENDBRANCH  22  23
ENDBRANCH  13  22
ENDBRANCH  11  13
ENDBRANCH  10  11
ENDBRANCH   9  10
ENDBRANCH   6   9
TORSDOF 7
ENDMDL
MODEL       25
REMARK 921   NORMALIZED FREE ENERGY PREDICTED BY IDOCK:   -6.18 KCAL/MOL
REMARK 922        TOTAL FREE ENERGY PREDICTED BY IDOCK:   -9.82 KCAL/MOL
REMARK 923 INTER-LIGAND FREE ENERGY PREDICTED BY IDOCK:   -9.04 KCAL/MOL
REMARK 924 INTRA-LIGAND FREE ENERGY PREDICTED BY IDOCK:   -0.79 KCAL/MOL
REMARK 927      BINDING AFFINITY PREDICTED BY RF-SCORE:    0.00 PKD
ROOT
HETATM    1 CL   UNL     1     -12.029  15.869  64.182  1.00  0.00    -0.154 Cl 
HETATM    2  C   UNL     1     -11.565  14.538  65.167  1.00  0.00    -0.371 A  
HETATM    3  C   UNL     1     -10.513  14.680  66.068  1.00  0.00    -0.313 A  
HETATM    4  C   UNL     1     -10.090  13.571  66.813  1.00  0.00    -0.268 A  
HETATM    5 CL   UNL     1      -8.776  13.825  67.912  1.00  0.00    -0.171 Cl 
HETATM    6  C   UNL     1     -10.696  12.305  66.665  1.00  0.00    -0.276 A  
HETATM    7  C   UNL     1     -11.792  12.210  65.792  1.00  0.00    -0.342 A  
HETATM    8  C   UNL     1     -12.221  13.318  65.048  1.00  0.00    -0.477 A  
ENDROOT
BRANCH   6   9
HETATM    9  C   UNL     1     -10.096  11.075  67.333  1.00  0.00    -0.186 C  
BRANCH   9  10
HETATM   10  O   UNL     1     -11.028   9.998  67.586  1.00  0.00    -0.290 OA 
BRANCH  10  11
HETATM   11  N   UNL     1     -12.017  10.429  68.503  1.00  0.00    -0.759 NA 
HETATM   12  H   UNL     1     -13.009  10.476  68.274  1.00  0.00     0.000 HD 
BRANCH  11  13
HETATM   13  C   UNL     1     -11.534  10.760  69.671  1.00  0.00    -0.305 C  
BRANCH  13  14
HETATM   14  C   UNL     1     -12.142  11.911  70.442  1.00  0.00    -0.421 A  
HETATM   15 CL   UNL     1     -13.501  10.193  72.131  1.00  0.00    -0.461 Cl 
HETATM   16  C   UNL     1     -11.793  13.228  70.081  1.00  0.00    -0.333 A  
HETATM   17  C   UNL     1     -13.000  11.741  71.545  1.00  0.00    -0.341 A  
HETATM   18  C   UNL     1     -12.236  14.333  70.820  1.00  0.00    -0.423 A  
HETATM   19 CL   UNL     1     -13.565  15.490  72.857  1.00  0.00    -0.623 Cl 
HETATM   20  C   UNL     1     -13.057  14.138  71.924  1.00  0.00    -0.375 A  
HETATM   21  C   UNL     1     -13.453  12.852  72.279  1.00  0.00    -0.631 A  
ENDBRANCH  13  14
BRANCH  13  22
HETATM   22  C   UNL     1     -10.398  10.003  70.356  1.00  0.00    -0.205 C  
BRANCH  22  23
HETATM   23  N   UNL     1     -10.803   8.751  70.978  1.00  0.00    -0.244 NA 
HETATM   24  C   UNL     1     -10.557   8.391  72.275  1.00  0.00    -0.342 A  
HETATM   25  N   UNL     1     -11.643   6.719  71.224  1.00  0.00    -0.301 NA 
HETATM   26  C   UNL     1     -11.484   7.725  70.389  1.00  0.00    -0.158 A  
HETATM   27  C   UNL     1     -11.072   7.122  72.399  1.00  0.00    -0.266 A  
ENDBRANCH  22  23
ENDBRANCH  13  22
ENDBRANCH  11  13
ENDBRANCH  10  11
ENDBRANCH   9  10
ENDBRANCH   6   9
TORSDOF 7
ENDMDL
MODEL       26
REMARK 921   NORMALIZED FREE ENERGY PREDICTED BY IDOCK:   -6.17 KCAL/MOL
REMARK 922        TOTAL FREE ENERGY PREDICTED BY IDOCK:   -9.82 KCAL/MOL
REMARK 923 INTER-LIGAND FREE ENERGY PREDICTED BY IDOCK:   -8.85 KCAL/MOL
REMARK 924 INTRA-LIGAND FREE ENERGY PREDICTED BY IDOCK:   -0.97 KCAL/MOL
REMARK 927      BINDING AFFINITY PREDICTED BY RF-SCORE:    0.00 PKD
ROOT
HETATM    1 CL   UNL     1     -12.801   9.946  71.952  1.00  0.00    -0.511 Cl 
HETATM    2  C   UNL     1     -11.873  10.422  70.585  1.00  0.00    -0.350 A  
HETATM    3  C   UNL     1     -10.696   9.743  70.279  1.00  0.00    -0.358 A  
HETATM    4  C   UNL     1      -9.905  10.184  69.210  1.00  0.00    -0.220 A  
HETATM    5 CL   UNL     1      -8.457   9.288  68.890  1.00  0.00    -0.127 Cl 
HETATM    6  C   UNL     1     -10.263  11.311  68.440  1.00  0.00    -0.205 A  
HETATM    7  C   UNL     1     -11.483  11.938  68.737  1.00  0.00    -0.347 A  
HETATM    8  C   UNL     1     -12.281  11.497  69.803  1.00  0.00    -0.310 A  
ENDROOT
BRANCH   6   9
HETATM    9  C   UNL     1      -9.295  11.889  67.416  1.00  0.00    -0.176 C  
BRANCH   9  10
HETATM   10  O   UNL     1      -9.141  13.326  67.460  1.00  0.00    -0.189 OA 
BRANCH  10  11
HETATM   11  N   UNL     1      -8.949  13.826  66.149  1.00  0.00    -0.443 NA 
HETATM   12  H   UNL     1      -8.399  13.340  65.440  1.00  0.00     0.000 HD 
BRANCH  11  13
HETATM   13  C   UNL     1      -9.544  14.969  65.936  1.00  0.00    -0.321 C  
BRANCH  13  14
HETATM   14  C   UNL     1      -9.100  16.205  66.687  1.00  0.00    -0.282 A  
HETATM   15 CL   UNL     1     -11.241  16.036  68.431  1.00  0.00    -0.356 Cl 
HETATM   16  C   UNL     1      -7.910  16.847  66.292  1.00  0.00    -0.346 A  
HETATM   17  C   UNL     1      -9.784  16.723  67.803  1.00  0.00    -0.248 A  
HETATM   18  C   UNL     1      -7.388  17.931  67.010  1.00  0.00    -0.218 A  
HETATM   19 CL   UNL     1      -7.400  19.707  69.035  1.00  0.00    -0.387 Cl 
HETATM   20  C   UNL     1      -8.062  18.405  68.128  1.00  0.00    -0.290 A  
HETATM   21  C   UNL     1      -9.263  17.819  68.517  1.00  0.00    -0.281 A  
ENDBRANCH  13  14
BRANCH  13  22
HETATM   22  C   UNL     1     -10.656  15.158  64.906  1.00  0.00    -0.365 C  
BRANCH  22  23
HETATM   23  N   UNL     1     -11.441  13.959  64.647  1.00  0.00    -0.362 NA 
HETATM   24  C   UNL     1     -11.101  12.957  63.780  1.00  0.00    -0.379 A  
HETATM   25  N   UNL     1     -13.100  12.498  64.712  1.00  0.00    -0.814 NA 
HETATM   26  C   UNL     1     -12.640  13.627  65.208  1.00  0.00    -0.469 A  
HETATM   27  C   UNL     1     -12.151  12.071  63.826  1.00  0.00    -0.499 A  
ENDBRANCH  22  23
ENDBRANCH  13  22
ENDBRANCH  11  13
ENDBRANCH  10  11
ENDBRANCH   9  10
ENDBRANCH   6   9
TORSDOF 7
ENDMDL
MODEL       27
REMARK 921   NORMALIZED FREE ENERGY PREDICTED BY IDOCK:   -6.17 KCAL/MOL
REMARK 922        TOTAL FREE ENERGY PREDICTED BY IDOCK:   -9.81 KCAL/MOL
REMARK 923 INTER-LIGAND FREE ENERGY PREDICTED BY IDOCK:   -8.72 KCAL/MOL
REMARK 924 INTRA-LIGAND FREE ENERGY PREDICTED BY IDOCK:   -1.09 KCAL/MOL
REMARK 927      BINDING AFFINITY PREDICTED BY RF-SCORE:    0.00 PKD
ROOT
HETATM    1 CL   UNL     1     -12.638  15.959  74.409  1.00  0.00    -0.712 Cl 
HETATM    2  C   UNL     1     -12.420  15.301  72.836  1.00  0.00    -0.406 A  
HETATM    3  C   UNL     1     -11.714  16.024  71.877  1.00  0.00    -0.594 A  
HETATM    4  C   UNL     1     -11.605  15.516  70.575  1.00  0.00    -0.346 A  
HETATM    5 CL   UNL     1     -10.712  16.471  69.439  1.00  0.00    -0.318 Cl 
HETATM    6  C   UNL     1     -12.206  14.294  70.204  1.00  0.00    -0.407 A  
HETATM    7  C   UNL     1     -12.860  13.563  71.208  1.00  0.00    -0.420 A  
HETATM    8  C   UNL     1     -12.967  14.064  72.513  1.00  0.00    -0.480 A  
ENDROOT
BRANCH   6   9
HETATM    9  C   UNL     1     -12.244  13.861  68.744  1.00  0.00    -0.197 C  
BRANCH   9  10
HETATM   10  O   UNL     1     -11.677  12.558  68.476  1.00  0.00    -0.290 OA 
BRANCH  10  11
HETATM   11  N   UNL     1     -11.946  12.188  67.136  1.00  0.00    -0.584 NA 
HETATM   12  H   UNL     1     -12.856  11.853  66.821  1.00  0.00     0.000 HD 
BRANCH  11  13
HETATM   13  C   UNL     1     -10.916  12.317  66.344  1.00  0.00    -0.287 C  
BRANCH  13  14
HETATM   14  C   UNL     1     -10.257  13.669  66.173  1.00  0.00    -0.306 A  
HETATM   15 CL   UNL     1     -12.316  14.578  64.563  1.00  0.00    -0.476 Cl 
HETATM   16  C   UNL     1      -9.044  13.922  66.842  1.00  0.00    -0.257 A  
HETATM   17  C   UNL     1     -10.821  14.717  65.420  1.00  0.00    -0.363 A  
HETATM   18  C   UNL     1      -8.439  15.185  66.811  1.00  0.00    -0.272 A  
HETATM   19 CL   UNL     1      -8.311  17.776  66.086  1.00  0.00    -0.221 Cl 
HETATM   20  C   UNL     1      -9.029  16.214  66.089  1.00  0.00    -0.337 A  
HETATM   21  C   UNL     1     -10.206  15.982  65.382  1.00  0.00    -0.333 A  
ENDBRANCH  13  14
BRANCH  13  22
HETATM   22  C   UNL     1     -10.276  11.147  65.600  1.00  0.00    -0.256 C  
BRANCH  22  23
HETATM   23  N   UNL     1      -9.700  10.129  66.468  1.00  0.00    -0.190 NA 
HETATM   24  C   UNL     1      -8.510  10.235  67.136  1.00  0.00    -0.125 A  
HETATM   25  N   UNL     1      -9.422   8.214  67.539  1.00  0.00    -0.149 NA 
HETATM   26  C   UNL     1     -10.228   8.906  66.761  1.00  0.00    -0.278 A  
HETATM   27  C   UNL     1      -8.352   9.031  67.780  1.00  0.00    -0.117 A  
ENDBRANCH  22  23
ENDBRANCH  13  22
ENDBRANCH  11  13
ENDBRANCH  10  11
ENDBRANCH   9  10
ENDBRANCH   6   9
TORSDOF 7
ENDMDL
MODEL       28
REMARK 921   NORMALIZED FREE ENERGY PREDICTED BY IDOCK:   -6.16 KCAL/MOL
REMARK 922        TOTAL FREE ENERGY PREDICTED BY IDOCK:   -9.80 KCAL/MOL
REMARK 923 INTER-LIGAND FREE ENERGY PREDICTED BY IDOCK:   -8.80 KCAL/MOL
REMARK 924 INTRA-LIGAND FREE ENERGY PREDICTED BY IDOCK:   -1.00 KCAL/MOL
REMARK 927      BINDING AFFINITY PREDICTED BY RF-SCORE:    0.00 PKD
ROOT
HETATM    1 CL   UNL     1     -10.774   6.857  73.559  1.00  0.00    -0.359 Cl 
HETATM    2  C   UNL     1     -11.066   8.064  72.370  1.00  0.00    -0.352 A  
HETATM    3  C   UNL     1     -10.022   8.500  71.558  1.00  0.00    -0.314 A  
HETATM    4  C   UNL     1     -10.248   9.538  70.644  1.00  0.00    -0.297 A  
HETATM    5 CL   UNL     1      -8.902  10.026  69.670  1.00  0.00    -0.219 Cl 
HETATM    6  C   UNL     1     -11.508  10.165  70.533  1.00  0.00    -0.417 A  
HETATM    7  C   UNL     1     -12.554   9.662  71.323  1.00  0.00    -0.443 A  
HETATM    8  C   UNL     1     -12.333   8.621  72.236  1.00  0.00    -0.449 A  
ENDROOT
BRANCH   6   9
HETATM    9  C   UNL     1     -11.679  11.415  69.680  1.00  0.00    -0.345 C  
BRANCH   9  10
HETATM   10  O   UNL     1     -11.976  11.171  68.286  1.00  0.00    -0.592 OA 
BRANCH  10  11
HETATM   11  N   UNL     1     -12.113  12.405  67.605  1.00  0.00    -0.449 NA 
HETATM   12  H   UNL     1     -12.551  13.228  68.019  1.00  0.00     0.000 HD 
BRANCH  11  13
HETATM   13  C   UNL     1     -11.625  12.387  66.393  1.00  0.00    -0.384 C  
BRANCH  13  14
HETATM   14  C   UNL     1     -10.362  11.607  66.098  1.00  0.00    -0.280 A  
HETATM   15 CL   UNL     1      -8.880  13.150  67.853  1.00  0.00    -0.186 Cl 
HETATM   16  C   UNL     1     -10.430  10.520  65.205  1.00  0.00    -0.225 A  
HETATM   17  C   UNL     1      -9.124  11.872  66.714  1.00  0.00    -0.197 A  
HETATM   18  C   UNL     1      -9.324   9.692  64.971  1.00  0.00    -0.319 A  
HETATM   19 CL   UNL     1      -6.776   8.912  65.360  1.00  0.00    -0.071 Cl 
HETATM   20  C   UNL     1      -8.121   9.953  65.613  1.00  0.00    -0.128 A  
HETATM   21  C   UNL     1      -8.011  11.046  66.469  1.00  0.00    -0.158 A  
ENDBRANCH  13  14
BRANCH  13  22
HETATM   22  C   UNL     1     -12.294  13.077  65.207  1.00  0.00    -0.486 C  
BRANCH  22  23
HETATM   23  N   UNL     1     -11.822  14.432  64.958  1.00  0.00    -0.383 NA 
HETATM   24  C   UNL     1     -10.874  15.091  65.693  1.00  0.00    -0.349 A  
HETATM   25  N   UNL     1     -11.638  16.445  64.063  1.00  0.00    -1.082 NA 
HETATM   26  C   UNL     1     -12.235  15.276  63.969  1.00  0.00     0.005 A  
HETATM   27  C   UNL     1     -10.789  16.342  65.129  1.00  0.00    -0.318 A  
ENDBRANCH  22  23
ENDBRANCH  13  22
ENDBRANCH  11  13
ENDBRANCH  10  11
ENDBRANCH   9  10
ENDBRANCH   6   9
TORSDOF 7
ENDMDL
MODEL       29
REMARK 921   NORMALIZED FREE ENERGY PREDICTED BY IDOCK:   -6.15 KCAL/MOL
REMARK 922        TOTAL FREE ENERGY PREDICTED BY IDOCK:   -9.79 KCAL/MOL
REMARK 923 INTER-LIGAND FREE ENERGY PREDICTED BY IDOCK:   -8.32 KCAL/MOL
REMARK 924 INTRA-LIGAND FREE ENERGY PREDICTED BY IDOCK:   -1.48 KCAL/MOL
REMARK 927      BINDING AFFINITY PREDICTED BY RF-SCORE:    0.00 PKD
ROOT
HETATM    1 CL   UNL     1     -11.155   6.789  69.486  1.00  0.00    -0.320 Cl 
HETATM    2  C   UNL     1     -10.426   8.227  68.890  1.00  0.00    -0.191 A  
HETATM    3  C   UNL     1     -10.439   8.493  67.523  1.00  0.00    -0.328 A  
HETATM    4  C   UNL     1      -9.777   9.628  67.035  1.00  0.00    -0.181 A  
HETATM    5 CL   UNL     1      -9.838   9.891  65.324  1.00  0.00    -0.387 Cl 
HETATM    6  C   UNL     1      -9.083  10.506  67.894  1.00  0.00    -0.136 A  
HETATM    7  C   UNL     1      -9.139  10.243  69.273  1.00  0.00    -0.206 A  
HETATM    8  C   UNL     1      -9.804   9.111  69.765  1.00  0.00    -0.192 A  
ENDROOT
BRANCH   6   9
HETATM    9  C   UNL     1      -8.210  11.617  67.327  1.00  0.00    -0.159 C  
BRANCH   9  10
HETATM   10  O   UNL     1      -8.384  12.912  67.945  1.00  0.00    -0.146 OA 
BRANCH  10  11
HETATM   11  N   UNL     1      -8.499  13.907  66.944  1.00  0.00    -0.409 NA 
HETATM   12  H   UNL     1      -7.751  14.129  66.288  1.00  0.00     0.000 HD 
BRANCH  11  13
HETATM   13  C   UNL     1      -9.656  14.513  66.944  1.00  0.00    -0.250 C  
BRANCH  13  14
HETATM   14  C   UNL     1     -10.482  14.568  68.211  1.00  0.00    -0.242 A  
HETATM   15 CL   UNL     1     -12.030  12.418  67.412  1.00  0.00    -0.345 Cl 
HETATM   16  C   UNL     1     -10.159  15.528  69.190  1.00  0.00    -0.239 A  
HETATM   17  C   UNL     1     -11.529  13.670  68.495  1.00  0.00    -0.312 A  
HETATM   18  C   UNL     1     -10.814  15.562  70.428  1.00  0.00    -0.356 A  
HETATM   19 CL   UNL     1     -12.597  14.659  72.234  1.00  0.00    -0.392 Cl 
HETATM   20  C   UNL     1     -11.823  14.646  70.699  1.00  0.00    -0.305 A  
HETATM   21  C   UNL     1     -12.193  13.713  69.735  1.00  0.00    -0.350 A  
ENDBRANCH  13  14
BRANCH  13  22
HETATM   22  C   UNL     1     -10.223  15.242  65.727  1.00  0.00    -0.349 C  
BRANCH  22  23
HETATM   23  N   UNL     1     -10.990  14.393  64.826  1.00  0.00    -0.401 NA 
HETATM   24  C   UNL     1     -10.551  13.223  64.269  1.00  0.00    -0.384 A  
HETATM   25  N   UNL     1     -12.632  13.671  63.533  1.00  0.00    -0.784 NA 
HETATM   26  C   UNL     1     -12.260  14.610  64.377  1.00  0.00    -0.452 A  
HETATM   27  C   UNL     1     -11.579  12.802  63.460  1.00  0.00    -0.501 A  
ENDBRANCH  22  23
ENDBRANCH  13  22
ENDBRANCH  11  13
ENDBRANCH  10  11
ENDBRANCH   9  10
ENDBRANCH   6   9
TORSDOF 7
ENDMDL
MODEL       30
REMARK 921   NORMALIZED FREE ENERGY PREDICTED BY IDOCK:   -6.14 KCAL/MOL
REMARK 922        TOTAL FREE ENERGY PREDICTED BY IDOCK:   -9.77 KCAL/MOL
REMARK 923 INTER-LIGAND FREE ENERGY PREDICTED BY IDOCK:   -8.60 KCAL/MOL
REMARK 924 INTRA-LIGAND FREE ENERGY PREDICTED BY IDOCK:   -1.18 KCAL/MOL
REMARK 927      BINDING AFFINITY PREDICTED BY RF-SCORE:    0.00 PKD
ROOT
HETATM    1 CL   UNL     1     -12.525  15.910  74.515  1.00  0.00    -0.765 Cl 
HETATM    2  C   UNL     1     -12.342  15.325  72.909  1.00  0.00    -0.408 A  
HETATM    3  C   UNL     1     -11.735  16.129  71.947  1.00  0.00    -0.575 A  
HETATM    4  C   UNL     1     -11.657  15.677  70.622  1.00  0.00    -0.367 A  
HETATM    5 CL   UNL     1     -10.888  16.732  69.483  1.00  0.00    -0.293 Cl 
HETATM    6  C   UNL     1     -12.192  14.431  70.232  1.00  0.00    -0.397 A  
HETATM    7  C   UNL     1     -12.744  13.620  71.237  1.00  0.00    -0.443 A  
HETATM    8  C   UNL     1     -12.820  14.065  72.564  1.00  0.00    -0.408 A  
ENDROOT
BRANCH   6   9
HETATM    9  C   UNL     1     -12.273  14.048  68.760  1.00  0.00    -0.202 C  
BRANCH   9  10
HETATM   10  O   UNL     1     -11.589  12.826  68.405  1.00  0.00    -0.281 OA 
BRANCH  10  11
HETATM   11  N   UNL     1     -10.193  12.995  68.570  1.00  0.00    -0.305 NA 
HETATM   12  H   UNL     1      -9.734  12.997  69.481  1.00  0.00     0.000 HD 
BRANCH  11  13
HETATM   13  C   UNL     1      -9.551  13.148  67.443  1.00  0.00    -0.219 C  
BRANCH  13  14
HETATM   14  C   UNL     1      -8.844  14.452  67.146  1.00  0.00    -0.244 A  
HETATM   15 CL   UNL     1     -11.023  15.430  65.749  1.00  0.00    -0.327 Cl 
HETATM   16  C   UNL     1      -7.549  14.655  67.663  1.00  0.00    -0.198 A  
HETATM   17  C   UNL     1      -9.433  15.508  66.424  1.00  0.00    -0.291 A  
HETATM   18  C   UNL     1      -6.883  15.878  67.514  1.00  0.00    -0.213 A  
HETATM   19 CL   UNL     1      -6.698  18.433  66.681  1.00  0.00    -0.212 Cl 
HETATM   20  C   UNL     1      -7.496  16.917  66.826  1.00  0.00    -0.241 A  
HETATM   21  C   UNL     1      -8.758  16.733  66.267  1.00  0.00    -0.342 A  
ENDBRANCH  13  14
BRANCH  13  22
HETATM   22  C   UNL     1      -9.414  12.043  66.397  1.00  0.00    -0.231 C  
BRANCH  22  23
HETATM   23  N   UNL     1     -10.273  12.213  65.233  1.00  0.00    -0.269 NA 
HETATM   24  C   UNL     1     -11.629  12.395  65.265  1.00  0.00    -0.373 A  
HETATM   25  N   UNL     1     -10.927  12.340  63.125  1.00  0.00    -0.291 NA 
HETATM   26  C   UNL     1      -9.889  12.214  63.924  1.00  0.00    -0.214 A  
HETATM   27  C   UNL     1     -12.014  12.455  63.947  1.00  0.00    -0.486 A  
ENDBRANCH  22  23
ENDBRANCH  13  22
ENDBRANCH  11  13
ENDBRANCH  10  11
ENDBRANCH   9  10
ENDBRANCH   6   9
TORSDOF 7
ENDMDL
MODEL       31
REMARK 921   NORMALIZED FREE ENERGY PREDICTED BY IDOCK:   -6.14 KCAL/MOL
REMARK 922        TOTAL FREE ENERGY PREDICTED BY IDOCK:   -9.77 KCAL/MOL
REMARK 923 INTER-LIGAND FREE ENERGY PREDICTED BY IDOCK:   -7.49 KCAL/MOL
REMARK 924 INTRA-LIGAND FREE ENERGY PREDICTED BY IDOCK:   -2.29 KCAL/MOL
REMARK 927      BINDING AFFINITY PREDICTED BY RF-SCORE:    0.00 PKD
ROOT
HETATM    1 CL   UNL     1      -9.176   4.454  71.566  1.00  0.00    -0.177 Cl 
HETATM    2  C   UNL     1      -9.564   5.455  70.223  1.00  0.00    -0.177 A  
HETATM    3  C   UNL     1      -8.541   6.049  69.487  1.00  0.00    -0.119 A  
HETATM    4  C   UNL     1      -8.865   6.925  68.442  1.00  0.00    -0.123 A  
HETATM    5 CL   UNL     1      -7.539   7.625  67.573  1.00  0.00    -0.107 Cl 
HETATM    6  C   UNL     1     -10.204   7.233  68.122  1.00  0.00    -0.222 A  
HETATM    7  C   UNL     1     -11.211   6.573  68.844  1.00  0.00    -0.341 A  
HETATM    8  C   UNL     1     -10.892   5.692  69.887  1.00  0.00    -0.370 A  
ENDROOT
BRANCH   6   9
HETATM    9  C   UNL     1     -10.528   8.333  67.119  1.00  0.00    -0.316 C  
BRANCH   9  10
HETATM   10  O   UNL     1     -10.445   9.680  67.637  1.00  0.00    -0.228 OA 
BRANCH  10  11
HETATM   11  N   UNL     1     -11.693  10.056  68.191  1.00  0.00    -0.537 NA 
HETATM   12  H   UNL     1     -12.582   9.915  67.713  1.00  0.00     0.000 HD 
BRANCH  11  13
HETATM   13  C   UNL     1     -11.593  10.601  69.374  1.00  0.00    -0.280 C  
BRANCH  13  14
HETATM   14  C   UNL     1     -11.285   9.741  70.581  1.00  0.00    -0.402 A  
HETATM   15 CL   UNL     1     -13.972   9.391  71.140  1.00  0.00    -0.169 Cl 
HETATM   16  C   UNL     1      -9.940   9.453  70.883  1.00  0.00    -0.353 A  
HETATM   17  C   UNL     1     -12.277   9.160  71.394  1.00  0.00    -0.335 A  
HETATM   18  C   UNL     1      -9.592   8.578  71.920  1.00  0.00    -0.353 A  
HETATM   19 CL   UNL     1     -10.165   6.883  73.934  1.00  0.00    -0.383 Cl 
HETATM   20  C   UNL     1     -10.589   7.991  72.689  1.00  0.00    -0.350 A  
HETATM   21  C   UNL     1     -11.925   8.290  72.442  1.00  0.00    -0.447 A  
ENDBRANCH  13  14
BRANCH  13  22
HETATM   22  C   UNL     1     -11.715  12.103  69.620  1.00  0.00    -0.325 C  
BRANCH  22  23
HETATM   23  N   UNL     1     -11.174  12.930  68.549  1.00  0.00    -0.256 NA 
HETATM   24  C   UNL     1     -11.913  13.624  67.630  1.00  0.00    -0.351 A  
HETATM   25  N   UNL     1      -9.719  13.909  67.202  1.00  0.00    -0.237 NA 
HETATM   26  C   UNL     1      -9.857  13.153  68.270  1.00  0.00    -0.227 A  
HETATM   27  C   UNL     1     -10.990  14.210  66.796  1.00  0.00    -0.300 A  
ENDBRANCH  22  23
ENDBRANCH  13  22
ENDBRANCH  11  13
ENDBRANCH  10  11
ENDBRANCH   9  10
ENDBRANCH   6   9
TORSDOF 7
ENDMDL
MODEL       32
REMARK 921   NORMALIZED FREE ENERGY PREDICTED BY IDOCK:   -6.14 KCAL/MOL
REMARK 922        TOTAL FREE ENERGY PREDICTED BY IDOCK:   -9.77 KCAL/MOL
REMARK 923 INTER-LIGAND FREE ENERGY PREDICTED BY IDOCK:   -8.97 KCAL/MOL
REMARK 924 INTRA-LIGAND FREE ENERGY PREDICTED BY IDOCK:   -0.80 KCAL/MOL
REMARK 927      BINDING AFFINITY PREDICTED BY RF-SCORE:    0.00 PKD
ROOT
HETATM    1 CL   UNL     1      -8.693   9.458  62.801  1.00  0.00    -0.224 Cl 
HETATM    2  C   UNL     1      -9.606  10.555  63.760  1.00  0.00    -0.311 A  
HETATM    3  C   UNL     1      -9.931  10.219  65.072  1.00  0.00    -0.393 A  
HETATM    4  C   UNL     1     -10.740  11.083  65.823  1.00  0.00    -0.148 A  
HETATM    5 CL   UNL     1     -11.102  10.597  67.446  1.00  0.00    -0.364 Cl 
HETATM    6  C   UNL     1     -11.245  12.283  65.281  1.00  0.00    -0.372 A  
HETATM    7  C   UNL     1     -10.850  12.622  63.977  1.00  0.00    -0.452 A  
HETATM    8  C   UNL     1     -10.038  11.762  63.223  1.00  0.00    -0.448 A  
ENDROOT
BRANCH   6   9
HETATM    9  C   UNL     1     -12.277  13.105  66.043  1.00  0.00    -0.414 C  
BRANCH   9  10
HETATM   10  O   UNL     1     -11.928  13.411  67.412  1.00  0.00    -0.365 OA 
BRANCH  10  11
HETATM   11  N   UNL     1     -12.087  14.798  67.646  1.00  0.00    -0.548 NA 
HETATM   12  H   UNL     1     -12.821  15.358  67.213  1.00  0.00     0.000 HD 
BRANCH  11  13
HETATM   13  C   UNL     1     -11.202  15.291  68.470  1.00  0.00    -0.303 C  
BRANCH  13  14
HETATM   14  C   UNL     1     -10.406  16.518  68.081  1.00  0.00    -0.296 A  
HETATM   15 CL   UNL     1      -9.289  15.225  65.905  1.00  0.00    -0.354 Cl 
HETATM   16  C   UNL     1     -10.556  17.694  68.843  1.00  0.00    -0.139 A  
HETATM   17  C   UNL     1      -9.559  16.570  66.957  1.00  0.00    -0.242 A  
HETATM   18  C   UNL     1      -9.931  18.892  68.473  1.00  0.00    -0.463 A  
HETATM   19 CL   UNL     1      -8.393  20.409  66.864  1.00  0.00    -0.339 Cl 
HETATM   20  C   UNL     1      -9.125  18.928  67.343  1.00  0.00    -0.279 A  
HETATM   21  C   UNL     1      -8.924  17.772  66.595  1.00  0.00    -0.283 A  
ENDBRANCH  13  14
BRANCH  13  22
HETATM   22  C   UNL     1     -10.948  14.727  69.867  1.00  0.00    -0.199 C  
BRANCH  22  23
HETATM   23  N   UNL     1     -12.134  14.662  70.709  1.00  0.00    -0.299 NA 
HETATM   24  C   UNL     1     -12.634  13.529  71.292  1.00  0.00    -0.341 A  
HETATM   25  N   UNL     1     -13.962  15.280  71.790  1.00  0.00    -0.499 NA 
HETATM   26  C   UNL     1     -12.950  15.698  71.059  1.00  0.00    -0.458 A  
HETATM   27  C   UNL     1     -13.775  13.934  71.943  1.00  0.00    -0.435 A  
ENDBRANCH  22  23
ENDBRANCH  13  22
ENDBRANCH  11  13
ENDBRANCH  10  11
ENDBRANCH   9  10
ENDBRANCH   6   9
TORSDOF 7
ENDMDL
MODEL       33
REMARK 921   NORMALIZED FREE ENERGY PREDICTED BY IDOCK:   -6.13 KCAL/MOL
REMARK 922        TOTAL FREE ENERGY PREDICTED BY IDOCK:   -9.75 KCAL/MOL
REMARK 923 INTER-LIGAND FREE ENERGY PREDICTED BY IDOCK:   -8.83 KCAL/MOL
REMARK 924 INTRA-LIGAND FREE ENERGY PREDICTED BY IDOCK:   -0.92 KCAL/MOL
REMARK 927      BINDING AFFINITY PREDICTED BY RF-SCORE:    0.00 PKD
ROOT
HETATM    1 CL   UNL     1      -9.585  21.103  67.493  1.00  0.00    -0.325 Cl 
HETATM    2  C   UNL     1      -9.329  19.474  67.979  1.00  0.00    -0.336 A  
HETATM    3  C   UNL     1      -8.077  19.083  68.449  1.00  0.00    -0.381 A  
HETATM    4  C   UNL     1      -7.852  17.737  68.770  1.00  0.00    -0.250 A  
HETATM    5 CL   UNL     1      -6.271  17.328  69.348  1.00  0.00    -0.235 Cl 
HETATM    6  C   UNL     1      -8.860  16.761  68.619  1.00  0.00    -0.255 A  
HETATM    7  C   UNL     1     -10.127  17.198  68.199  1.00  0.00    -0.311 A  
HETATM    8  C   UNL     1     -10.358  18.544  67.880  1.00  0.00    -0.424 A  
ENDROOT
BRANCH   6   9
HETATM    9  C   UNL     1      -8.538  15.282  68.784  1.00  0.00    -0.190 C  
BRANCH   9  10
HETATM   10  O   UNL     1      -9.200  14.401  67.848  1.00  0.00    -0.184 OA 
BRANCH  10  11
HETATM   11  N   UNL     1      -9.478  13.162  68.474  1.00  0.00    -0.374 NA 
HETATM   12  H   UNL     1      -8.761  12.579  68.905  1.00  0.00     0.000 HD 
BRANCH  11  13
HETATM   13  C   UNL     1     -10.743  12.838  68.446  1.00  0.00    -0.250 C  
BRANCH  13  14
HETATM   14  C   UNL     1     -11.701  13.442  69.449  1.00  0.00    -0.382 A  
HETATM   15 CL   UNL     1     -12.045  11.014  70.732  1.00  0.00    -0.457 Cl 
HETATM   16  C   UNL     1     -11.974  14.822  69.381  1.00  0.00    -0.339 A  
HETATM   17  C   UNL     1     -12.299  12.708  70.492  1.00  0.00    -0.268 A  
HETATM   18  C   UNL     1     -12.767  15.462  70.342  1.00  0.00    -0.407 A  
HETATM   19 CL   UNL     1     -14.257  15.516  72.586  1.00  0.00    -0.534 Cl 
HETATM   20  C   UNL     1     -13.320  14.724  71.381  1.00  0.00    -0.392 A  
HETATM   21  C   UNL     1     -13.103  13.351  71.451  1.00  0.00    -0.373 A  
ENDBRANCH  13  14
BRANCH  13  22
HETATM   22  C   UNL     1     -11.349  11.904  67.400  1.00  0.00    -0.324 C  
BRANCH  22  23
HETATM   23  N   UNL     1     -11.356  12.446  66.048  1.00  0.00    -0.335 NA 
HETATM   24  C   UNL     1     -10.761  11.871  64.958  1.00  0.00    -0.292 A  
HETATM   25  N   UNL     1     -11.712  13.822  64.354  1.00  0.00    -0.398 NA 
HETATM   26  C   UNL     1     -11.941  13.606  65.632  1.00  0.00    -0.395 A  
HETATM   27  C   UNL     1     -10.982  12.750  63.924  1.00  0.00    -0.417 A  
ENDBRANCH  22  23
ENDBRANCH  13  22
ENDBRANCH  11  13
ENDBRANCH  10  11
ENDBRANCH   9  10
ENDBRANCH   6   9
TORSDOF 7
ENDMDL
MODEL       34
REMARK 921   NORMALIZED FREE ENERGY PREDICTED BY IDOCK:   -6.12 KCAL/MOL
REMARK 922        TOTAL FREE ENERGY PREDICTED BY IDOCK:   -9.75 KCAL/MOL
REMARK 923 INTER-LIGAND FREE ENERGY PREDICTED BY IDOCK:   -8.86 KCAL/MOL
REMARK 924 INTRA-LIGAND FREE ENERGY PREDICTED BY IDOCK:   -0.88 KCAL/MOL
REMARK 927      BINDING AFFINITY PREDICTED BY RF-SCORE:    0.00 PKD
ROOT
HETATM    1 CL   UNL     1     -13.868  16.184  73.260  1.00  0.00    -0.403 Cl 
HETATM    2  C   UNL     1     -13.312  14.970  72.178  1.00  0.00    -0.387 A  
HETATM    3  C   UNL     1     -13.561  13.628  72.460  1.00  0.00    -0.675 A  
HETATM    4  C   UNL     1     -13.039  12.640  71.615  1.00  0.00    -0.323 A  
HETATM    5 CL   UNL     1     -13.391  10.995  72.029  1.00  0.00    -0.508 Cl 
HETATM    6  C   UNL     1     -12.254  12.967  70.488  1.00  0.00    -0.395 A  
HETATM    7  C   UNL     1     -12.072  14.329  70.199  1.00  0.00    -0.403 A  
HETATM    8  C   UNL     1     -12.596  15.321  71.040  1.00  0.00    -0.469 A  
ENDROOT
BRANCH   6   9
HETATM    9  C   UNL     1     -11.536  11.879  69.701  1.00  0.00    -0.266 C  
BRANCH   9  10
HETATM   10  O   UNL     1     -11.831  11.848  68.286  1.00  0.00    -0.377 OA 
BRANCH  10  11
HETATM   11  N   UNL     1     -11.865  10.507  67.834  1.00  0.00    -0.670 NA 
HETATM   12  H   UNL     1     -12.726   9.968  67.744  1.00  0.00     0.000 HD 
BRANCH  11  13
HETATM   13  C   UNL     1     -10.685  10.026  67.545  1.00  0.00    -0.281 C  
BRANCH  13  14
HETATM   14  C   UNL     1     -10.337   8.601  67.917  1.00  0.00    -0.286 A  
HETATM   15 CL   UNL     1      -9.207   9.397  70.314  1.00  0.00    -0.261 Cl 
HETATM   16  C   UNL     1     -10.711   7.562  67.043  1.00  0.00    -0.367 A  
HETATM   17  C   UNL     1      -9.704   8.245  69.123  1.00  0.00    -0.171 A  
HETATM   18  C   UNL     1     -10.514   6.216  67.377  1.00  0.00    -0.309 A  
HETATM   19 CL   UNL     1      -9.714   4.234  69.017  1.00  0.00    -0.236 Cl 
HETATM   20  C   UNL     1      -9.917   5.887  68.587  1.00  0.00    -0.148 A  
HETATM   21  C   UNL     1      -9.497   6.893  69.452  1.00  0.00    -0.148 A  
ENDBRANCH  13  14
BRANCH  13  22
HETATM   22  C   UNL     1      -9.621  10.813  66.783  1.00  0.00    -0.172 C  
BRANCH  22  23
HETATM   23  N   UNL     1     -10.097  11.423  65.549  1.00  0.00    -0.236 NA 
HETATM   24  C   UNL     1     -10.239  12.766  65.329  1.00  0.00    -0.279 A  
HETATM   25  N   UNL     1     -10.910  11.630  63.503  1.00  0.00    -0.417 NA 
HETATM   26  C   UNL     1     -10.487  10.777  64.413  1.00  0.00    -0.274 A  
HETATM   27  C   UNL     1     -10.759  12.869  64.061  1.00  0.00    -0.399 A  
ENDBRANCH  22  23
ENDBRANCH  13  22
ENDBRANCH  11  13
ENDBRANCH  10  11
ENDBRANCH   9  10
ENDBRANCH   6   9
TORSDOF 7
ENDMDL
MODEL       35
REMARK 921   NORMALIZED FREE ENERGY PREDICTED BY IDOCK:   -6.12 KCAL/MOL
REMARK 922        TOTAL FREE ENERGY PREDICTED BY IDOCK:   -9.74 KCAL/MOL
REMARK 923 INTER-LIGAND FREE ENERGY PREDICTED BY IDOCK:   -8.79 KCAL/MOL
REMARK 924 INTRA-LIGAND FREE ENERGY PREDICTED BY IDOCK:   -0.95 KCAL/MOL
REMARK 927      BINDING AFFINITY PREDICTED BY RF-SCORE:    0.00 PKD
ROOT
HETATM    1 CL   UNL     1     -12.410   6.425  71.854  1.00  0.00    -0.363 Cl 
HETATM    2  C   UNL     1     -11.941   7.977  71.279  1.00  0.00    -0.296 A  
HETATM    3  C   UNL     1     -12.615   9.110  71.727  1.00  0.00    -0.446 A  
HETATM    4  C   UNL     1     -12.280  10.364  71.198  1.00  0.00    -0.394 A  
HETATM    5 CL   UNL     1     -13.160  11.727  71.804  1.00  0.00    -0.551 Cl 
HETATM    6  C   UNL     1     -11.283  10.508  70.209  1.00  0.00    -0.391 A  
HETATM    7  C   UNL     1     -10.582   9.354  69.823  1.00  0.00    -0.247 A  
HETATM    8  C   UNL     1     -10.912   8.098  70.353  1.00  0.00    -0.248 A  
ENDROOT
BRANCH   6   9
HETATM    9  C   UNL     1     -11.072  11.844  69.508  1.00  0.00    -0.102 C  
BRANCH   9  10
HETATM   10  O   UNL     1     -12.155  12.261  68.645  1.00  0.00    -0.272 OA 
BRANCH  10  11
HETATM   11  N   UNL     1     -12.095  11.545  67.425  1.00  0.00    -0.416 NA 
HETATM   12  H   UNL     1     -12.380  10.570  67.334  1.00  0.00     0.000 HD 
BRANCH  11  13
HETATM   13  C   UNL     1     -11.638  12.255  66.428  1.00  0.00    -0.383 C  
BRANCH  13  14
HETATM   14  C   UNL     1     -10.732  11.616  65.398  1.00  0.00    -0.341 A  
HETATM   15 CL   UNL     1     -12.498  12.187  63.346  1.00  0.00    -0.677 Cl 
HETATM   16  C   UNL     1      -9.493  11.092  65.816  1.00  0.00    -0.248 A  
HETATM   17  C   UNL     1     -11.034  11.564  64.023  1.00  0.00    -0.383 A  
HETATM   18  C   UNL     1      -8.564  10.585  64.899  1.00  0.00    -0.179 A  
HETATM   19 CL   UNL     1      -7.712   9.990  62.413  1.00  0.00    -0.132 Cl 
HETATM   20  C   UNL     1      -8.870  10.573  63.544  1.00  0.00    -0.202 A  
HETATM   21  C   UNL     1     -10.103  11.044  63.105  1.00  0.00    -0.350 A  
ENDBRANCH  13  14
BRANCH  13  22
HETATM   22  C   UNL     1     -12.015  13.716  66.195  1.00  0.00    -0.416 C  
BRANCH  22  23
HETATM   23  N   UNL     1     -10.877  14.623  66.125  1.00  0.00    -0.314 NA 
HETATM   24  C   UNL     1      -9.802  14.617  66.973  1.00  0.00    -0.244 A  
HETATM   25  N   UNL     1      -9.573  16.288  65.479  1.00  0.00    -0.460 NA 
HETATM   26  C   UNL     1     -10.684  15.628  65.224  1.00  0.00    -0.425 A  
HETATM   27  C   UNL     1      -9.016  15.667  66.562  1.00  0.00    -0.308 A  
ENDBRANCH  22  23
ENDBRANCH  13  22
ENDBRANCH  11  13
ENDBRANCH  10  11
ENDBRANCH   9  10
ENDBRANCH   6   9
TORSDOF 7
ENDMDL
MODEL       36
REMARK 921   NORMALIZED FREE ENERGY PREDICTED BY IDOCK:   -6.10 KCAL/MOL
REMARK 922        TOTAL FREE ENERGY PREDICTED BY IDOCK:   -9.71 KCAL/MOL
REMARK 923 INTER-LIGAND FREE ENERGY PREDICTED BY IDOCK:   -8.75 KCAL/MOL
REMARK 924 INTRA-LIGAND FREE ENERGY PREDICTED BY IDOCK:   -0.96 KCAL/MOL
REMARK 927      BINDING AFFINITY PREDICTED BY RF-SCORE:    0.00 PKD
ROOT
HETATM    1 CL   UNL     1     -12.784  16.144  74.036  1.00  0.00    -0.657 Cl 
HETATM    2  C   UNL     1     -12.491  15.452  72.490  1.00  0.00    -0.377 A  
HETATM    3  C   UNL     1     -11.833  16.196  71.514  1.00  0.00    -0.528 A  
HETATM    4  C   UNL     1     -11.665  15.655  70.232  1.00  0.00    -0.357 A  
HETATM    5 CL   UNL     1     -10.837  16.640  69.073  1.00  0.00    -0.322 Cl 
HETATM    6  C   UNL     1     -12.158  14.376  69.898  1.00  0.00    -0.398 A  
HETATM    7  C   UNL     1     -12.764  13.628  70.920  1.00  0.00    -0.382 A  
HETATM    8  C   UNL     1     -12.930  14.163  72.205  1.00  0.00    -0.469 A  
ENDROOT
BRANCH   6   9
HETATM    9  C   UNL     1     -12.140  13.890  68.454  1.00  0.00    -0.291 C  
BRANCH   9  10
HETATM   10  O   UNL     1     -11.732  12.515  68.274  1.00  0.00    -0.307 OA 
BRANCH  10  11
HETATM   11  N   UNL     1     -11.925  12.133  66.925  1.00  0.00    -0.609 NA 
HETATM   12  H   UNL     1     -12.836  12.137  66.467  1.00  0.00     0.000 HD 
BRANCH  11  13
HETATM   13  C   UNL     1     -10.821  11.776  66.323  1.00  0.00    -0.281 C  
BRANCH  13  14
HETATM   14  C   UNL     1     -10.010  10.616  66.857  1.00  0.00    -0.245 A  
HETATM   15 CL   UNL     1      -8.206  12.316  68.086  1.00  0.00    -0.161 Cl 
HETATM   16  C   UNL     1     -10.450   9.303  66.598  1.00  0.00    -0.237 A  
HETATM   17  C   UNL     1      -8.859  10.775  67.654  1.00  0.00    -0.132 A  
HETATM   18  C   UNL     1      -9.806   8.190  67.152  1.00  0.00    -0.281 A  
HETATM   19 CL   UNL     1      -7.926   7.009  68.677  1.00  0.00    -0.118 Cl 
HETATM   20  C   UNL     1      -8.691   8.372  67.961  1.00  0.00    -0.139 A  
HETATM   21  C   UNL     1      -8.207   9.654  68.200  1.00  0.00    -0.106 A  
ENDBRANCH  13  14
BRANCH  13  22
HETATM   22  C   UNL     1     -10.311  12.436  65.044  1.00  0.00    -0.293 C  
BRANCH  22  23
HETATM   23  N   UNL     1     -10.884  13.747  64.777  1.00  0.00    -0.380 NA 
HETATM   24  C   UNL     1     -10.405  14.937  65.255  1.00  0.00    -0.396 A  
HETATM   25  N   UNL     1     -12.259  15.311  64.031  1.00  0.00    -0.571 NA 
HETATM   26  C   UNL     1     -11.986  14.023  64.022  1.00  0.00    -0.354 A  
HETATM   27  C   UNL     1     -11.282  15.889  64.793  1.00  0.00    -0.355 A  
ENDBRANCH  22  23
ENDBRANCH  13  22
ENDBRANCH  11  13
ENDBRANCH  10  11
ENDBRANCH   9  10
ENDBRANCH   6   9
TORSDOF 7
ENDMDL
MODEL       37
REMARK 921   NORMALIZED FREE ENERGY PREDICTED BY IDOCK:   -6.09 KCAL/MOL
REMARK 922        TOTAL FREE ENERGY PREDICTED BY IDOCK:   -9.71 KCAL/MOL
REMARK 923 INTER-LIGAND FREE ENERGY PREDICTED BY IDOCK:   -9.03 KCAL/MOL
REMARK 924 INTRA-LIGAND FREE ENERGY PREDICTED BY IDOCK:   -0.67 KCAL/MOL
REMARK 927      BINDING AFFINITY PREDICTED BY RF-SCORE:    0.00 PKD
ROOT
HETATM    1 CL   UNL     1     -10.847  20.213  65.461  1.00  0.00    -0.299 Cl 
HETATM    2  C   UNL     1     -10.132  19.082  66.540  1.00  0.00    -0.403 A  
HETATM    3  C   UNL     1      -8.874  18.556  66.255  1.00  0.00    -0.221 A  
HETATM    4  C   UNL     1      -8.330  17.578  67.098  1.00  0.00    -0.216 A  
HETATM    5 CL   UNL     1      -6.763  16.971  66.678  1.00  0.00    -0.256 Cl 
HETATM    6  C   UNL     1      -9.030  17.100  68.226  1.00  0.00    -0.248 A  
HETATM    7  C   UNL     1     -10.269  17.693  68.519  1.00  0.00    -0.386 A  
HETATM    8  C   UNL     1     -10.815  18.675  67.681  1.00  0.00    -0.347 A  
ENDROOT
BRANCH   6   9
HETATM    9  C   UNL     1      -8.511  15.902  69.011  1.00  0.00    -0.242 C  
BRANCH   9  10
HETATM   10  O   UNL     1      -9.195  14.655  68.753  1.00  0.00    -0.195 OA 
BRANCH  10  11
HETATM   11  N   UNL     1     -10.045  14.343  69.842  1.00  0.00    -0.225 NA 
HETATM   12  H   UNL     1      -9.784  14.493  70.816  1.00  0.00     0.000 HD 
BRANCH  11  13
HETATM   13  C   UNL     1     -11.195  13.843  69.477  1.00  0.00    -0.184 C  
BRANCH  13  14
HETATM   14  C   UNL     1     -11.421  13.437  68.036  1.00  0.00    -0.339 A  
HETATM   15 CL   UNL     1     -10.150  11.009  68.417  1.00  0.00    -0.184 Cl 
HETATM   16  C   UNL     1     -12.131  14.310  67.189  1.00  0.00    -0.412 A  
HETATM   17  C   UNL     1     -11.006  12.202  67.503  1.00  0.00    -0.257 A  
HETATM   18  C   UNL     1     -12.466  13.950  65.878  1.00  0.00    -0.519 A  
HETATM   19 CL   UNL     1     -12.522  12.250  63.788  1.00  0.00    -0.617 Cl 
HETATM   20  C   UNL     1     -12.074  12.712  65.383  1.00  0.00    -0.462 A  
HETATM   21  C   UNL     1     -11.334  11.846  66.182  1.00  0.00    -0.383 A  
ENDBRANCH  13  14
BRANCH  13  22
HETATM   22  C   UNL     1     -12.343  13.581  70.448  1.00  0.00    -0.327 C  
BRANCH  22  23
HETATM   23  N   UNL     1     -12.442  14.547  71.533  1.00  0.00    -0.338 NA 
HETATM   24  C   UNL     1     -13.114  14.357  72.709  1.00  0.00    -0.505 A  
HETATM   25  N   UNL     1     -12.223  16.426  72.679  1.00  0.00    -0.470 NA 
HETATM   26  C   UNL     1     -11.896  15.797  71.569  1.00  0.00    -0.446 A  
HETATM   27  C   UNL     1     -12.978  15.540  73.396  1.00  0.00    -0.551 A  
ENDBRANCH  22  23
ENDBRANCH  13  22
ENDBRANCH  11  13
ENDBRANCH  10  11
ENDBRANCH   9  10
ENDBRANCH   6   9
TORSDOF 7
ENDMDL
MODEL       38
REMARK 921   NORMALIZED FREE ENERGY PREDICTED BY IDOCK:   -6.08 KCAL/MOL
REMARK 922        TOTAL FREE ENERGY PREDICTED BY IDOCK:   -9.68 KCAL/MOL
REMARK 923 INTER-LIGAND FREE ENERGY PREDICTED BY IDOCK:   -8.66 KCAL/MOL
REMARK 924 INTRA-LIGAND FREE ENERGY PREDICTED BY IDOCK:   -1.02 KCAL/MOL
REMARK 927      BINDING AFFINITY PREDICTED BY RF-SCORE:    0.00 PKD
ROOT
HETATM    1 CL   UNL     1     -12.492   8.489  71.247  1.00  0.00    -0.304 Cl 
HETATM    2  C   UNL     1     -12.394  10.183  70.972  1.00  0.00    -0.373 A  
HETATM    3  C   UNL     1     -13.120  11.056  71.779  1.00  0.00    -0.554 A  
HETATM    4  C   UNL     1     -13.096  12.430  71.502  1.00  0.00    -0.264 A  
HETATM    5 CL   UNL     1     -14.023  13.452  72.549  1.00  0.00    -0.628 Cl 
HETATM    6  C   UNL     1     -12.363  12.954  70.416  1.00  0.00    -0.333 A  
HETATM    7  C   UNL     1     -11.596  12.054  69.658  1.00  0.00    -0.371 A  
HETATM    8  C   UNL     1     -11.613  10.680  69.934  1.00  0.00    -0.396 A  
ENDROOT
BRANCH   6   9
HETATM    9  C   UNL     1     -12.509  14.416  70.015  1.00  0.00    -0.301 C  
BRANCH   9  10
HETATM   10  O   UNL     1     -11.315  15.026  69.475  1.00  0.00    -0.255 OA 
BRANCH  10  11
HETATM   11  N   UNL     1     -11.671  15.992  68.503  1.00  0.00    -0.351 NA 
HETATM   12  H   UNL     1     -12.597  16.416  68.448  1.00  0.00     0.000 HD 
BRANCH  11  13
HETATM   13  C   UNL     1     -10.698  16.289  67.684  1.00  0.00    -0.311 C  
BRANCH  13  14
HETATM   14  C   UNL     1      -9.587  17.215  68.131  1.00  0.00    -0.270 A  
HETATM   15 CL   UNL     1      -7.845  15.100  68.517  1.00  0.00    -0.129 Cl 
HETATM   16  C   UNL     1      -9.823  18.604  68.134  1.00  0.00    -0.391 A  
HETATM   17  C   UNL     1      -8.303  16.768  68.496  1.00  0.00    -0.243 A  
HETATM   18  C   UNL     1      -8.806  19.519  68.434  1.00  0.00    -0.389 A  
HETATM   19 CL   UNL     1      -6.277  20.181  69.086  1.00  0.00    -0.345 Cl 
HETATM   20  C   UNL     1      -7.537  19.057  68.760  1.00  0.00    -0.340 A  
HETATM   21  C   UNL     1      -7.286  17.689  68.808  1.00  0.00    -0.261 A  
ENDBRANCH  13  14
BRANCH  13  22
HETATM   22  C   UNL     1     -10.572  15.701  66.280  1.00  0.00    -0.307 C  
BRANCH  22  23
HETATM   23  N   UNL     1     -11.017  14.318  66.169  1.00  0.00    -0.308 NA 
HETATM   24  C   UNL     1     -12.317  13.908  66.050  1.00  0.00    -0.475 A  
HETATM   25  N   UNL     1     -10.962  12.108  66.106  1.00  0.00    -0.285 NA 
HETATM   26  C   UNL     1     -10.232  13.202  66.171  1.00  0.00    -0.290 A  
HETATM   27  C   UNL     1     -12.259  12.534  66.029  1.00  0.00    -0.190 A  
ENDBRANCH  22  23
ENDBRANCH  13  22
ENDBRANCH  11  13
ENDBRANCH  10  11
ENDBRANCH   9  10
ENDBRANCH   6   9
TORSDOF 7
ENDMDL
MODEL       39
REMARK 921   NORMALIZED FREE ENERGY PREDICTED BY IDOCK:   -6.07 KCAL/MOL
REMARK 922        TOTAL FREE ENERGY PREDICTED BY IDOCK:   -9.67 KCAL/MOL
REMARK 923 INTER-LIGAND FREE ENERGY PREDICTED BY IDOCK:   -7.74 KCAL/MOL
REMARK 924 INTRA-LIGAND FREE ENERGY PREDICTED BY IDOCK:   -1.93 KCAL/MOL
REMARK 927      BINDING AFFINITY PREDICTED BY RF-SCORE:    0.00 PKD
ROOT
HETATM    1 CL   UNL     1      -9.546   5.366  71.865  1.00  0.00    -0.179 Cl 
HETATM    2  C   UNL     1     -10.525   6.774  71.748  1.00  0.00    -0.207 A  
HETATM    3  C   UNL     1     -11.903   6.645  71.586  1.00  0.00    -0.383 A  
HETATM    4  C   UNL     1     -12.686   7.795  71.415  1.00  0.00    -0.308 A  
HETATM    5 CL   UNL     1     -14.390   7.555  71.220  1.00  0.00    -0.508 Cl 
HETATM    6  C   UNL     1     -12.113   9.084  71.389  1.00  0.00    -0.392 A  
HETATM    7  C   UNL     1     -10.730   9.184  71.614  1.00  0.00    -0.441 A  
HETATM    8  C   UNL     1      -9.944   8.037  71.790  1.00  0.00    -0.245 A  
ENDROOT
BRANCH   6   9
HETATM    9  C   UNL     1     -12.950  10.298  71.006  1.00  0.00    -0.397 C  
BRANCH   9  10
HETATM   10  O   UNL     1     -12.285  11.259  70.156  1.00  0.00    -0.313 OA 
BRANCH  10  11
HETATM   11  N   UNL     1     -12.399  10.859  68.803  1.00  0.00    -0.772 NA 
HETATM   12  H   UNL     1     -13.275  10.546  68.384  1.00  0.00     0.000 HD 
BRANCH  11  13
HETATM   13  C   UNL     1     -11.274  10.929  68.143  1.00  0.00    -0.301 C  
BRANCH  13  14
HETATM   14  C   UNL     1     -10.321   9.754  68.146  1.00  0.00    -0.241 A  
HETATM   15 CL   UNL     1      -8.162  11.379  68.739  1.00  0.00    -0.138 Cl 
HETATM   16  C   UNL     1     -10.836   8.462  67.923  1.00  0.00    -0.037 A  
HETATM   17  C   UNL     1      -8.944   9.871  68.417  1.00  0.00    -0.120 A  
HETATM   18  C   UNL     1     -10.027   7.322  68.018  1.00  0.00    -0.186 A  
HETATM   19 CL   UNL     1      -7.693   6.058  68.478  1.00  0.00    -0.094 Cl 
HETATM   20  C   UNL     1      -8.678   7.459  68.317  1.00  0.00    -0.122 A  
HETATM   21  C   UNL     1      -8.131   8.726  68.501  1.00  0.00    -0.116 A  
ENDBRANCH  13  14
BRANCH  13  22
HETATM   22  C   UNL     1     -10.870  12.134  67.297  1.00  0.00    -0.244 C  
BRANCH  22  23
HETATM   23  N   UNL     1     -11.194  12.007  65.882  1.00  0.00    -0.329 NA 
HETATM   24  C   UNL     1     -12.252  12.605  65.253  1.00  0.00    -0.475 A  
HETATM   25  N   UNL     1     -11.111  11.343  63.775  1.00  0.00    -0.383 NA 
HETATM   26  C   UNL     1     -10.518  11.279  64.948  1.00  0.00    -0.314 A  
HETATM   27  C   UNL     1     -12.189  12.165  63.951  1.00  0.00    -0.489 A  
ENDBRANCH  22  23
ENDBRANCH  13  22
ENDBRANCH  11  13
ENDBRANCH  10  11
ENDBRANCH   9  10
ENDBRANCH   6   9
TORSDOF 7
ENDMDL
MODEL       40
REMARK 921   NORMALIZED FREE ENERGY PREDICTED BY IDOCK:   -6.04 KCAL/MOL
REMARK 922        TOTAL FREE ENERGY PREDICTED BY IDOCK:   -9.63 KCAL/MOL
REMARK 923 INTER-LIGAND FREE ENERGY PREDICTED BY IDOCK:   -8.05 KCAL/MOL
REMARK 924 INTRA-LIGAND FREE ENERGY PREDICTED BY IDOCK:   -1.58 KCAL/MOL
REMARK 927      BINDING AFFINITY PREDICTED BY RF-SCORE:    0.00 PKD
ROOT
HETATM    1 CL   UNL     1     -10.147   6.799  66.674  1.00  0.00    -0.233 Cl 
HETATM    2  C   UNL     1      -9.495   8.386  66.773  1.00  0.00    -0.197 A  
HETATM    3  C   UNL     1      -8.875   8.805  67.948  1.00  0.00    -0.136 A  
HETATM    4  C   UNL     1      -8.413  10.124  68.050  1.00  0.00    -0.118 A  
HETATM    5 CL   UNL     1      -7.653  10.571  69.541  1.00  0.00    -0.150 Cl 
HETATM    6  C   UNL     1      -8.572  11.048  66.995  1.00  0.00    -0.140 A  
HETATM    7  C   UNL     1      -9.148  10.578  65.803  1.00  0.00    -0.204 A  
HETATM    8  C   UNL     1      -9.607   9.257  65.696  1.00  0.00    -0.324 A  
ENDROOT
BRANCH   6   9
HETATM    9  C   UNL     1      -8.244  12.522  67.198  1.00  0.00    -0.168 C  
BRANCH   9  10
HETATM   10  O   UNL     1      -9.078  13.209  68.158  1.00  0.00    -0.193 OA 
BRANCH  10  11
HETATM   11  N   UNL     1      -9.953  14.094  67.483  1.00  0.00    -0.234 NA 
HETATM   12  H   UNL     1      -9.628  14.880  66.919  1.00  0.00     0.000 HD 
BRANCH  11  13
HETATM   13  C   UNL     1     -11.216  13.806  67.651  1.00  0.00    -0.293 C  
BRANCH  13  14
HETATM   14  C   UNL     1     -11.647  12.953  68.824  1.00  0.00    -0.351 A  
HETATM   15 CL   UNL     1     -12.072  15.177  70.414  1.00  0.00    -0.341 Cl 
HETATM   16  C   UNL     1     -11.702  11.555  68.661  1.00  0.00    -0.389 A  
HETATM   17  C   UNL     1     -12.054  13.484  70.063  1.00  0.00    -0.341 A  
HETATM   18  C   UNL     1     -12.193  10.717  69.671  1.00  0.00    -0.325 A  
HETATM   19 CL   UNL     1     -13.263  10.243  72.097  1.00  0.00    -0.522 Cl 
HETATM   20  C   UNL     1     -12.619  11.266  70.874  1.00  0.00    -0.371 A  
HETATM   21  C   UNL     1     -12.537  12.640  71.080  1.00  0.00    -0.354 A  
ENDBRANCH  13  14
BRANCH  13  22
HETATM   22  C   UNL     1     -12.326  14.337  66.747  1.00  0.00    -0.245 C  
BRANCH  22  23
HETATM   23  N   UNL     1     -12.358  13.734  65.422  1.00  0.00    -0.445 NA 
HETATM   24  C   UNL     1     -12.350  12.390  65.160  1.00  0.00    -0.332 A  
HETATM   25  N   UNL     1     -12.364  13.536  63.220  1.00  0.00    -0.734 NA 
HETATM   26  C   UNL     1     -12.395  14.386  64.224  1.00  0.00    -0.373 A  
HETATM   27  C   UNL     1     -12.338  12.293  63.788  1.00  0.00    -0.538 A  
ENDBRANCH  22  23
ENDBRANCH  13  22
ENDBRANCH  11  13
ENDBRANCH  10  11
ENDBRANCH   9  10
ENDBRANCH   6   9
TORSDOF 7
ENDMDL
MODEL       41
REMARK 921   NORMALIZED FREE ENERGY PREDICTED BY IDOCK:   -6.01 KCAL/MOL
REMARK 922        TOTAL FREE ENERGY PREDICTED BY IDOCK:   -9.59 KCAL/MOL
REMARK 923 INTER-LIGAND FREE ENERGY PREDICTED BY IDOCK:   -8.81 KCAL/MOL
REMARK 924 INTRA-LIGAND FREE ENERGY PREDICTED BY IDOCK:   -0.78 KCAL/MOL
REMARK 927      BINDING AFFINITY PREDICTED BY RF-SCORE:    0.00 PKD
ROOT
HETATM    1 CL   UNL     1     -11.031   6.020  71.073  1.00  0.00    -0.345 Cl 
HETATM    2  C   UNL     1     -11.152   7.699  70.723  1.00  0.00    -0.264 A  
HETATM    3  C   UNL     1     -12.025   8.496  71.459  1.00  0.00    -0.354 A  
HETATM    4  C   UNL     1     -12.176   9.847  71.119  1.00  0.00    -0.373 A  
HETATM    5 CL   UNL     1     -13.279  10.774  72.080  1.00  0.00    -0.561 Cl 
HETATM    6  C   UNL     1     -11.474  10.421  70.037  1.00  0.00    -0.382 A  
HETATM    7  C   UNL     1     -10.559   9.606  69.353  1.00  0.00    -0.243 A  
HETATM    8  C   UNL     1     -10.401   8.254  69.693  1.00  0.00    -0.218 A  
ENDROOT
BRANCH   6   9
HETATM    9  C   UNL     1     -11.799  11.832  69.563  1.00  0.00    -0.337 C  
BRANCH   9  10
HETATM   10  O   UNL     1     -11.692  12.039  68.136  1.00  0.00    -0.320 OA 
BRANCH  10  11
HETATM   11  N   UNL     1     -10.778  13.088  67.874  1.00  0.00    -0.230 NA 
HETATM   12  H   UNL     1      -9.808  13.076  68.188  1.00  0.00     0.000 HD 
BRANCH  11  13
HETATM   13  C   UNL     1     -11.299  14.073  67.192  1.00  0.00    -0.331 C  
BRANCH  13  14
HETATM   14  C   UNL     1     -10.854  15.495  67.458  1.00  0.00    -0.306 A  
HETATM   15 CL   UNL     1     -12.140  15.544  69.908  1.00  0.00    -0.378 Cl 
HETATM   16  C   UNL     1     -10.035  16.138  66.510  1.00  0.00    -0.293 A  
HETATM   17  C   UNL     1     -11.170  16.200  68.636  1.00  0.00    -0.369 A  
HETATM   18  C   UNL     1      -9.503  17.413  66.744  1.00  0.00    -0.282 A  
HETATM   19 CL   UNL     1      -9.114  19.622  68.235  1.00  0.00    -0.396 Cl 
HETATM   20  C   UNL     1      -9.801  18.077  67.927  1.00  0.00    -0.308 A  
HETATM   21  C   UNL     1     -10.643  17.485  68.864  1.00  0.00    -0.193 A  
ENDBRANCH  13  14
BRANCH  13  22
HETATM   22  C   UNL     1     -12.316  13.874  66.072  1.00  0.00    -0.475 C  
BRANCH  22  23
HETATM   23  N   UNL     1     -11.844  13.038  64.977  1.00  0.00    -0.342 NA 
HETATM   24  C   UNL     1     -10.545  12.937  64.557  1.00  0.00    -0.382 A  
HETATM   25  N   UNL     1     -11.858  11.650  63.255  1.00  0.00    -0.269 NA 
HETATM   26  C   UNL     1     -12.596  12.224  64.182  1.00  0.00    -0.394 A  
HETATM   27  C   UNL     1     -10.582  12.084  63.479  1.00  0.00    -0.465 A  
ENDBRANCH  22  23
ENDBRANCH  13  22
ENDBRANCH  11  13
ENDBRANCH  10  11
ENDBRANCH   9  10
ENDBRANCH   6   9
TORSDOF 7
ENDMDL
MODEL       42
REMARK 921   NORMALIZED FREE ENERGY PREDICTED BY IDOCK:   -6.00 KCAL/MOL
REMARK 922        TOTAL FREE ENERGY PREDICTED BY IDOCK:   -9.58 KCAL/MOL
REMARK 923 INTER-LIGAND FREE ENERGY PREDICTED BY IDOCK:   -8.44 KCAL/MOL
REMARK 924 INTRA-LIGAND FREE ENERGY PREDICTED BY IDOCK:   -1.14 KCAL/MOL
REMARK 927      BINDING AFFINITY PREDICTED BY RF-SCORE:    0.00 PKD
ROOT
HETATM    1 CL   UNL     1     -13.434   8.723  72.678  1.00  0.00    -0.402 Cl 
HETATM    2  C   UNL     1     -13.023  10.119  71.763  1.00  0.00    -0.462 A  
HETATM    3  C   UNL     1     -12.278   9.983  70.594  1.00  0.00    -0.360 A  
HETATM    4  C   UNL     1     -11.881  11.131  69.894  1.00  0.00    -0.363 A  
HETATM    5 CL   UNL     1     -10.958  10.882  68.450  1.00  0.00    -0.261 Cl 
HETATM    6  C   UNL     1     -12.205  12.426  70.351  1.00  0.00    -0.370 A  
HETATM    7  C   UNL     1     -13.006  12.527  71.500  1.00  0.00    -0.379 A  
HETATM    8  C   UNL     1     -13.409  11.381  72.201  1.00  0.00    -0.271 A  
ENDROOT
BRANCH   6   9
HETATM    9  C   UNL     1     -11.598  13.656  69.688  1.00  0.00    -0.278 C  
BRANCH   9  10
HETATM   10  O   UNL     1     -12.280  14.110  68.497  1.00  0.00    -0.311 OA 
BRANCH  10  11
HETATM   11  N   UNL     1     -11.852  15.420  68.172  1.00  0.00    -0.454 NA 
HETATM   12  H   UNL     1     -12.323  16.261  68.505  1.00  0.00     0.000 HD 
BRANCH  11  13
HETATM   13  C   UNL     1     -10.795  15.447  67.405  1.00  0.00    -0.309 C  
BRANCH  13  14
HETATM   14  C   UNL     1     -10.671  14.472  66.254  1.00  0.00    -0.309 A  
HETATM   15 CL   UNL     1      -8.565  13.151  67.469  1.00  0.00    -0.184 Cl 
HETATM   16  C   UNL     1     -11.578  14.571  65.181  1.00  0.00    -0.371 A  
HETATM   17  C   UNL     1      -9.728  13.427  66.219  1.00  0.00    -0.272 A  
HETATM   18  C   UNL     1     -11.586  13.636  64.137  1.00  0.00    -0.386 A  
HETATM   19 CL   UNL     1     -10.704  11.422  62.883  1.00  0.00    -0.086 Cl 
HETATM   20  C   UNL     1     -10.667  12.595  64.140  1.00  0.00    -0.406 A  
HETATM   21  C   UNL     1      -9.730  12.495  65.165  1.00  0.00    -0.042 A  
ENDBRANCH  13  14
BRANCH  13  22
HETATM   22  C   UNL     1      -9.668  16.464  67.563  1.00  0.00    -0.231 C  
BRANCH  22  23
HETATM   23  N   UNL     1     -10.041  17.829  67.218  1.00  0.00    -0.324 NA 
HETATM   24  C   UNL     1     -10.378  18.269  65.966  1.00  0.00    -0.363 A  
HETATM   25  N   UNL     1     -10.434  19.996  67.411  1.00  0.00    -0.382 NA 
HETATM   26  C   UNL     1     -10.115  18.898  68.062  1.00  0.00    -0.377 A  
HETATM   27  C   UNL     1     -10.601  19.618  66.108  1.00  0.00    -0.483 A  
ENDBRANCH  22  23
ENDBRANCH  13  22
ENDBRANCH  11  13
ENDBRANCH  10  11
ENDBRANCH   9  10
ENDBRANCH   6   9
TORSDOF 7
ENDMDL
MODEL       43
REMARK 921   NORMALIZED FREE ENERGY PREDICTED BY IDOCK:   -5.99 KCAL/MOL
REMARK 922        TOTAL FREE ENERGY PREDICTED BY IDOCK:   -9.56 KCAL/MOL
REMARK 923 INTER-LIGAND FREE ENERGY PREDICTED BY IDOCK:   -8.49 KCAL/MOL
REMARK 924 INTRA-LIGAND FREE ENERGY PREDICTED BY IDOCK:   -1.07 KCAL/MOL
REMARK 927      BINDING AFFINITY PREDICTED BY RF-SCORE:    0.00 PKD
ROOT
HETATM    1 CL   UNL     1      -8.288   8.031  65.745  1.00  0.00    -0.131 Cl 
HETATM    2  C   UNL     1      -9.362   9.374  65.749  1.00  0.00    -0.239 A  
HETATM    3  C   UNL     1      -9.504  10.148  64.600  1.00  0.00    -0.357 A  
HETATM    4  C   UNL     1     -10.321  11.286  64.633  1.00  0.00    -0.315 A  
HETATM    5 CL   UNL     1     -10.448  12.198  63.166  1.00  0.00    -0.342 Cl 
HETATM    6  C   UNL     1     -10.998  11.678  65.808  1.00  0.00    -0.329 A  
HETATM    7  C   UNL     1     -10.881  10.844  66.932  1.00  0.00    -0.307 A  
HETATM    8  C   UNL     1     -10.067   9.702  66.902  1.00  0.00    -0.290 A  
ENDROOT
BRANCH   6   9
HETATM    9  C   UNL     1     -11.718  13.018  65.878  1.00  0.00    -0.394 C  
BRANCH   9  10
HETATM   10  O   UNL     1     -12.303  13.334  67.162  1.00  0.00    -0.280 OA 
BRANCH  10  11
HETATM   11  N   UNL     1     -12.030  14.684  67.491  1.00  0.00    -0.534 NA 
HETATM   12  H   UNL     1     -12.481  15.474  67.030  1.00  0.00     0.000 HD 
BRANCH  11  13
HETATM   13  C   UNL     1     -11.145  14.819  68.442  1.00  0.00    -0.263 C  
BRANCH  13  14
HETATM   14  C   UNL     1     -11.595  14.937  69.882  1.00  0.00    -0.328 A  
HETATM   15 CL   UNL     1     -11.912  12.199  70.113  1.00  0.00    -0.421 Cl 
HETATM   16  C   UNL     1     -11.629  16.213  70.479  1.00  0.00    -0.322 A  
HETATM   17  C   UNL     1     -11.931  13.830  70.685  1.00  0.00    -0.266 A  
HETATM   18  C   UNL     1     -11.932  16.380  71.837  1.00  0.00    -0.392 A  
HETATM   19 CL   UNL     1     -12.560  15.470  74.293  1.00  0.00    -0.733 Cl 
HETATM   20  C   UNL     1     -12.230  15.270  72.617  1.00  0.00    -0.403 A  
HETATM   21  C   UNL     1     -12.246  14.001  72.045  1.00  0.00    -0.060 A  
ENDBRANCH  13  14
BRANCH  13  22
HETATM   22  C   UNL     1      -9.638  14.808  68.195  1.00  0.00    -0.209 C  
BRANCH  22  23
HETATM   23  N   UNL     1      -9.134  15.997  67.523  1.00  0.00    -0.198 NA 
HETATM   24  C   UNL     1      -9.007  17.237  68.088  1.00  0.00    -0.254 A  
HETATM   25  N   UNL     1      -8.366  17.325  65.930  1.00  0.00    -0.542 NA 
HETATM   26  C   UNL     1      -8.710  16.090  66.230  1.00  0.00    -0.336 A  
HETATM   27  C   UNL     1      -8.545  18.046  67.078  1.00  0.00    -0.245 A  
ENDBRANCH  22  23
ENDBRANCH  13  22
ENDBRANCH  11  13
ENDBRANCH  10  11
ENDBRANCH   9  10
ENDBRANCH   6   9
TORSDOF 7
ENDMDL
MODEL       44
REMARK 921   NORMALIZED FREE ENERGY PREDICTED BY IDOCK:   -5.98 KCAL/MOL
REMARK 922        TOTAL FREE ENERGY PREDICTED BY IDOCK:   -9.54 KCAL/MOL
REMARK 923 INTER-LIGAND FREE ENERGY PREDICTED BY IDOCK:   -8.28 KCAL/MOL
REMARK 924 INTRA-LIGAND FREE ENERGY PREDICTED BY IDOCK:   -1.26 KCAL/MOL
REMARK 927      BINDING AFFINITY PREDICTED BY RF-SCORE:    0.00 PKD
ROOT
HETATM    1 CL   UNL     1     -11.632   8.384  72.034  1.00  0.00    -0.388 Cl 
HETATM    2  C   UNL     1     -10.594   9.097  70.864  1.00  0.00    -0.273 A  
HETATM    3  C   UNL     1      -9.227   9.181  71.114  1.00  0.00    -0.301 A  
HETATM    4  C   UNL     1      -8.397   9.832  70.191  1.00  0.00    -0.175 A  
HETATM    5 CL   UNL     1      -6.708   9.897  70.572  1.00  0.00    -0.126 Cl 
HETATM    6  C   UNL     1      -8.913  10.418  69.015  1.00  0.00    -0.184 A  
HETATM    7  C   UNL     1     -10.286  10.263  68.764  1.00  0.00    -0.205 A  
HETATM    8  C   UNL     1     -11.119   9.609  69.682  1.00  0.00    -0.223 A  
ENDROOT
BRANCH   6   9
HETATM    9  C   UNL     1      -8.030  11.286  68.129  1.00  0.00    -0.131 C  
BRANCH   9  10
HETATM   10  O   UNL     1      -8.345  12.697  68.144  1.00  0.00    -0.162 OA 
BRANCH  10  11
HETATM   11  N   UNL     1      -8.627  13.136  66.827  1.00  0.00    -0.417 NA 
HETATM   12  H   UNL     1      -8.050  12.896  66.022  1.00  0.00     0.000 HD 
BRANCH  11  13
HETATM   13  C   UNL     1      -9.698  13.879  66.745  1.00  0.00    -0.279 C  
BRANCH  13  14
HETATM   14  C   UNL     1     -10.397  14.341  68.006  1.00  0.00    -0.229 A  
HETATM   15 CL   UNL     1      -8.773  16.572  68.207  1.00  0.00    -0.202 Cl 
HETATM   16  C   UNL     1     -11.482  13.587  68.495  1.00  0.00    -0.345 A  
HETATM   17  C   UNL     1     -10.058  15.522  68.694  1.00  0.00    -0.210 A  
HETATM   18  C   UNL     1     -12.237  14.016  69.594  1.00  0.00    -0.383 A  
HETATM   19 CL   UNL     1     -12.858  15.751  71.559  1.00  0.00    -0.524 Cl 
HETATM   20  C   UNL     1     -11.905  15.201  70.237  1.00  0.00    -0.311 A  
HETATM   21  C   UNL     1     -10.812  15.946  69.804  1.00  0.00    -0.328 A  
ENDBRANCH  13  14
BRANCH  13  22
HETATM   22  C   UNL     1     -10.278  14.375  65.422  1.00  0.00    -0.382 C  
BRANCH  22  23
HETATM   23  N   UNL     1     -11.215  13.453  64.797  1.00  0.00    -0.330 NA 
HETATM   24  C   UNL     1     -10.921  12.590  63.776  1.00  0.00    -0.447 A  
HETATM   25  N   UNL     1     -13.103  12.408  64.311  1.00  0.00    -0.787 NA 
HETATM   26  C   UNL     1     -12.534  13.289  65.106  1.00  0.00    -0.470 A  
HETATM   27  C   UNL     1     -12.110  11.965  63.481  1.00  0.00    -0.470 A  
ENDBRANCH  22  23
ENDBRANCH  13  22
ENDBRANCH  11  13
ENDBRANCH  10  11
ENDBRANCH   9  10
ENDBRANCH   6   9
TORSDOF 7
ENDMDL
MODEL       45
REMARK 921   NORMALIZED FREE ENERGY PREDICTED BY IDOCK:   -5.95 KCAL/MOL
REMARK 922        TOTAL FREE ENERGY PREDICTED BY IDOCK:   -9.50 KCAL/MOL
REMARK 923 INTER-LIGAND FREE ENERGY PREDICTED BY IDOCK:   -8.13 KCAL/MOL
REMARK 924 INTRA-LIGAND FREE ENERGY PREDICTED BY IDOCK:   -1.37 KCAL/MOL
REMARK 927      BINDING AFFINITY PREDICTED BY RF-SCORE:    0.00 PKD
ROOT
HETATM    1 CL   UNL     1      -6.263  19.077  69.719  1.00  0.00    -0.285 Cl 
HETATM    2  C   UNL     1      -7.355  18.581  68.487  1.00  0.00    -0.295 A  
HETATM    3  C   UNL     1      -8.593  19.209  68.369  1.00  0.00    -0.387 A  
HETATM    4  C   UNL     1      -9.508  18.749  67.412  1.00  0.00    -0.297 A  
HETATM    5 CL   UNL     1     -11.026  19.579  67.324  1.00  0.00    -0.563 Cl 
HETATM    6  C   UNL     1      -9.214  17.654  66.571  1.00  0.00    -0.286 A  
HETATM    7  C   UNL     1      -7.936  17.082  66.676  1.00  0.00    -0.302 A  
HETATM    8  C   UNL     1      -7.015  17.542  67.628  1.00  0.00    -0.179 A  
ENDROOT
BRANCH   6   9
HETATM    9  C   UNL     1     -10.292  17.049  65.681  1.00  0.00    -0.209 C  
BRANCH   9  10
HETATM   10  O   UNL     1     -10.123  15.644  65.383  1.00  0.00    -0.355 OA 
BRANCH  10  11
HETATM   11  N   UNL     1     -11.374  14.986  65.465  1.00  0.00    -0.338 NA 
HETATM   12  H   UNL     1     -12.212  15.314  64.985  1.00  0.00     0.000 HD 
BRANCH  11  13
HETATM   13  C   UNL     1     -11.350  13.916  66.214  1.00  0.00    -0.324 C  
BRANCH  13  14
HETATM   14  C   UNL     1     -10.748  12.633  65.683  1.00  0.00    -0.297 A  
HETATM   15 CL   UNL     1     -12.259  12.767  63.369  1.00  0.00    -0.623 Cl 
HETATM   16  C   UNL     1      -9.757  11.982  66.444  1.00  0.00    -0.239 A  
HETATM   17  C   UNL     1     -11.085  12.076  64.434  1.00  0.00    -0.342 A  
HETATM   18  C   UNL     1      -9.086  10.851  65.961  1.00  0.00    -0.208 A  
HETATM   19 CL   UNL     1      -8.559   8.977  64.099  1.00  0.00    -0.192 Cl 
HETATM   20  C   UNL     1      -9.412  10.338  64.712  1.00  0.00    -0.283 A  
HETATM   21  C   UNL     1     -10.417  10.934  63.955  1.00  0.00    -0.379 A  
ENDBRANCH  13  14
BRANCH  13  22
HETATM   22  C   UNL     1     -11.853  13.889  67.656  1.00  0.00    -0.386 C  
BRANCH  22  23
HETATM   23  N   UNL     1     -11.115  14.757  68.563  1.00  0.00    -0.253 NA 
HETATM   24  C   UNL     1     -11.659  15.748  69.333  1.00  0.00    -0.365 A  
HETATM   25  N   UNL     1      -9.428  15.696  69.640  1.00  0.00    -0.283 NA 
HETATM   26  C   UNL     1      -9.772  14.743  68.801  1.00  0.00    -0.222 A  
HETATM   27  C   UNL     1     -10.593  16.327  69.979  1.00  0.00    -0.239 A  
ENDBRANCH  22  23
ENDBRANCH  13  22
ENDBRANCH  11  13
ENDBRANCH  10  11
ENDBRANCH   9  10
ENDBRANCH   6   9
TORSDOF 7
ENDMDL
MODEL       46
REMARK 921   NORMALIZED FREE ENERGY PREDICTED BY IDOCK:   -5.95 KCAL/MOL
REMARK 922        TOTAL FREE ENERGY PREDICTED BY IDOCK:   -9.50 KCAL/MOL
REMARK 923 INTER-LIGAND FREE ENERGY PREDICTED BY IDOCK:   -8.00 KCAL/MOL
REMARK 924 INTRA-LIGAND FREE ENERGY PREDICTED BY IDOCK:   -1.50 KCAL/MOL
REMARK 927      BINDING AFFINITY PREDICTED BY RF-SCORE:    0.00 PKD
ROOT
HETATM    1 CL   UNL     1     -10.950  14.533  68.007  1.00  0.00    -0.259 Cl 
HETATM    2  C   UNL     1     -11.630  13.347  69.049  1.00  0.00    -0.312 A  
HETATM    3  C   UNL     1     -12.242  13.742  70.237  1.00  0.00    -0.429 A  
HETATM    4  C   UNL     1     -12.726  12.766  71.119  1.00  0.00    -0.263 A  
HETATM    5 CL   UNL     1     -13.474  13.334  72.574  1.00  0.00    -0.669 Cl 
HETATM    6  C   UNL     1     -12.599  11.388  70.841  1.00  0.00    -0.453 A  
HETATM    7  C   UNL     1     -12.031  11.025  69.609  1.00  0.00    -0.424 A  
HETATM    8  C   UNL     1     -11.549  11.998  68.722  1.00  0.00    -0.366 A  
ENDROOT
BRANCH   6   9
HETATM    9  C   UNL     1     -12.952  10.349  71.897  1.00  0.00    -0.450 C  
BRANCH   9  10
HETATM   10  O   UNL     1     -12.789   8.973  71.482  1.00  0.00    -0.320 OA 
BRANCH  10  11
HETATM   11  N   UNL     1     -12.369   8.190  72.584  1.00  0.00    -0.606 NA 
HETATM   12  H   UNL     1     -12.976   7.956  73.369  1.00  0.00     0.000 HD 
BRANCH  11  13
HETATM   13  C   UNL     1     -11.126   7.795  72.497  1.00  0.00    -0.346 C  
BRANCH  13  14
HETATM   14  C   UNL     1     -10.318   8.109  71.256  1.00  0.00    -0.243 A  
HETATM   15 CL   UNL     1     -11.688   6.223  69.766  1.00  0.00    -0.364 Cl 
HETATM   16  C   UNL     1      -9.348   9.129  71.319  1.00  0.00    -0.285 A  
HETATM   17  C   UNL     1     -10.519   7.473  70.016  1.00  0.00    -0.228 A  
HETATM   18  C   UNL     1      -8.642   9.540  70.182  1.00  0.00    -0.250 A  
HETATM   19 CL   UNL     1      -8.045   9.454  67.556  1.00  0.00    -0.109 Cl 
HETATM   20  C   UNL     1      -8.880   8.921  68.962  1.00  0.00    -0.136 A  
HETATM   21  C   UNL     1      -9.801   7.881  68.877  1.00  0.00    -0.174 A  
ENDBRANCH  13  14
BRANCH  13  22
HETATM   22  C   UNL     1     -10.396   7.065  73.621  1.00  0.00    -0.373 C  
BRANCH  22  23
HETATM   23  N   UNL     1     -10.248   5.632  73.406  1.00  0.00    -0.192 NA 
HETATM   24  C   UNL     1      -9.065   4.978  73.191  1.00  0.00    -0.123 A  
HETATM   25  N   UNL     1     -10.766   3.503  73.107  1.00  0.00    -0.181 NA 
HETATM   26  C   UNL     1     -11.244   4.700  73.375  1.00  0.00    -0.338 A  
HETATM   27  C   UNL     1      -9.413   3.663  72.992  1.00  0.00    -0.110 A  
ENDBRANCH  22  23
ENDBRANCH  13  22
ENDBRANCH  11  13
ENDBRANCH  10  11
ENDBRANCH   9  10
ENDBRANCH   6   9
TORSDOF 7
ENDMDL
MODEL       47
REMARK 921   NORMALIZED FREE ENERGY PREDICTED BY IDOCK:   -5.94 KCAL/MOL
REMARK 922        TOTAL FREE ENERGY PREDICTED BY IDOCK:   -9.49 KCAL/MOL
REMARK 923 INTER-LIGAND FREE ENERGY PREDICTED BY IDOCK:   -8.35 KCAL/MOL
REMARK 924 INTRA-LIGAND FREE ENERGY PREDICTED BY IDOCK:   -1.14 KCAL/MOL
REMARK 927      BINDING AFFINITY PREDICTED BY RF-SCORE:    0.00 PKD
ROOT
HETATM    1 CL   UNL     1     -11.583   6.428  72.151  1.00  0.00    -0.341 Cl 
HETATM    2  C   UNL     1     -11.545   7.954  71.360  1.00  0.00    -0.272 A  
HETATM    3  C   UNL     1     -12.249   9.028  71.898  1.00  0.00    -0.451 A  
HETATM    4  C   UNL     1     -12.277  10.248  71.208  1.00  0.00    -0.395 A  
HETATM    5 CL   UNL     1     -13.173  11.537  71.940  1.00  0.00    -0.561 Cl 
HETATM    6  C   UNL     1     -11.618  10.414  69.971  1.00  0.00    -0.378 A  
HETATM    7  C   UNL     1     -10.868   9.331  69.486  1.00  0.00    -0.211 A  
HETATM    8  C   UNL     1     -10.834   8.110  70.175  1.00  0.00    -0.241 A  
ENDROOT
BRANCH   6   9
HETATM    9  C   UNL     1     -11.823  11.678  69.147  1.00  0.00    -0.326 C  
BRANCH   9  10
HETATM   10  O   UNL     1     -12.010  11.463  67.729  1.00  0.00    -0.637 OA 
BRANCH  10  11
HETATM   11  N   UNL     1     -12.251  12.701  67.086  1.00  0.00    -0.406 NA 
HETATM   12  H   UNL     1     -13.132  13.209  67.163  1.00  0.00     0.000 HD 
BRANCH  11  13
HETATM   13  C   UNL     1     -11.235  13.129  66.385  1.00  0.00    -0.300 C  
BRANCH  13  14
HETATM   14  C   UNL     1     -10.485  12.175  65.480  1.00  0.00    -0.300 A  
HETATM   15 CL   UNL     1      -8.675  11.548  67.476  1.00  0.00    -0.142 Cl 
HETATM   16  C   UNL     1     -10.960  11.970  64.170  1.00  0.00    -0.418 A  
HETATM   17  C   UNL     1      -9.363  11.433  65.894  1.00  0.00    -0.228 A  
HETATM   18  C   UNL     1     -10.376  11.023  63.318  1.00  0.00    -0.317 A  
HETATM   19 CL   UNL     1      -8.599   9.085  62.731  1.00  0.00    -0.209 Cl 
HETATM   20  C   UNL     1      -9.289  10.278  63.759  1.00  0.00    -0.295 A  
HETATM   21  C   UNL     1      -8.771  10.490  65.033  1.00  0.00    -0.193 A  
ENDBRANCH  13  14
BRANCH  13  22
HETATM   22  C   UNL     1     -10.776  14.585  66.374  1.00  0.00    -0.309 C  
BRANCH  22  23
HETATM   23  N   UNL     1     -10.559  15.153  67.698  1.00  0.00    -0.258 NA 
HETATM   24  C   UNL     1     -11.267  16.189  68.244  1.00  0.00    -0.343 A  
HETATM   25  N   UNL     1      -9.668  15.528  69.687  1.00  0.00    -0.281 NA 
HETATM   26  C   UNL     1      -9.624  14.768  68.613  1.00  0.00    -0.218 A  
HETATM   27  C   UNL     1     -10.687  16.414  69.470  1.00  0.00    -0.325 A  
ENDBRANCH  22  23
ENDBRANCH  13  22
ENDBRANCH  11  13
ENDBRANCH  10  11
ENDBRANCH   9  10
ENDBRANCH   6   9
TORSDOF 7
ENDMDL
MODEL       48
REMARK 921   NORMALIZED FREE ENERGY PREDICTED BY IDOCK:   -5.94 KCAL/MOL
REMARK 922        TOTAL FREE ENERGY PREDICTED BY IDOCK:   -9.49 KCAL/MOL
REMARK 923 INTER-LIGAND FREE ENERGY PREDICTED BY IDOCK:   -8.29 KCAL/MOL
REMARK 924 INTRA-LIGAND FREE ENERGY PREDICTED BY IDOCK:   -1.19 KCAL/MOL
REMARK 927      BINDING AFFINITY PREDICTED BY RF-SCORE:    0.00 PKD
ROOT
HETATM    1 CL   UNL     1     -12.704  11.860  63.327  1.00  0.00    -0.609 Cl 
HETATM    2  C   UNL     1     -11.601  11.884  64.646  1.00  0.00    -0.250 A  
HETATM    3  C   UNL     1     -10.417  11.154  64.568  1.00  0.00    -0.415 A  
HETATM    4  C   UNL     1      -9.559  11.116  65.676  1.00  0.00    -0.224 A  
HETATM    5 CL   UNL     1      -8.107  10.188  65.504  1.00  0.00    -0.141 Cl 
HETATM    6  C   UNL     1      -9.869  11.788  66.877  1.00  0.00    -0.221 A  
HETATM    7  C   UNL     1     -11.041  12.562  66.902  1.00  0.00    -0.323 A  
HETATM    8  C   UNL     1     -11.900  12.607  65.795  1.00  0.00    -0.497 A  
ENDROOT
BRANCH   6   9
HETATM    9  C   UNL     1      -9.026  11.573  68.127  1.00  0.00    -0.172 C  
BRANCH   9  10
HETATM   10  O   UNL     1      -9.193  10.287  68.765  1.00  0.00    -0.150 OA 
BRANCH  10  11
HETATM   11  N   UNL     1      -9.714  10.466  70.069  1.00  0.00    -0.391 NA 
HETATM   12  H   UNL     1      -9.222  10.974  70.804  1.00  0.00     0.000 HD 
BRANCH  11  13
HETATM   13  C   UNL     1     -10.887   9.916  70.240  1.00  0.00    -0.310 C  
BRANCH  13  14
HETATM   14  C   UNL     1     -10.997   8.555  70.892  1.00  0.00    -0.292 A  
HETATM   15 CL   UNL     1     -10.720   7.260  68.462  1.00  0.00    -0.197 Cl 
HETATM   16  C   UNL     1     -11.133   8.483  72.292  1.00  0.00    -0.430 A  
HETATM   17  C   UNL     1     -10.915   7.344  70.179  1.00  0.00    -0.255 A  
HETATM   18  C   UNL     1     -11.133   7.255  72.967  1.00  0.00    -0.361 A  
HETATM   19 CL   UNL     1     -10.975   4.568  73.076  1.00  0.00    -0.307 Cl 
HETATM   20  C   UNL     1     -11.019   6.073  72.246  1.00  0.00    -0.265 A  
HETATM   21  C   UNL     1     -10.927   6.111  70.857  1.00  0.00    -0.359 A  
ENDBRANCH  13  14
BRANCH  13  22
HETATM   22  C   UNL     1     -12.199  10.602  69.865  1.00  0.00    -0.275 C  
BRANCH  22  23
HETATM   23  N   UNL     1     -12.532  11.751  70.696  1.00  0.00    -0.307 NA 
HETATM   24  C   UNL     1     -13.263  11.710  71.853  1.00  0.00    -0.369 A  
HETATM   25  N   UNL     1     -12.697  13.842  71.396  1.00  0.00    -0.351 NA 
HETATM   26  C   UNL     1     -12.189  13.052  70.474  1.00  0.00    -0.313 A  
HETATM   27  C   UNL     1     -13.365  13.019  72.259  1.00  0.00    -0.506 A  
ENDBRANCH  22  23
ENDBRANCH  13  22
ENDBRANCH  11  13
ENDBRANCH  10  11
ENDBRANCH   9  10
ENDBRANCH   6   9
TORSDOF 7
ENDMDL
MODEL       49
REMARK 921   NORMALIZED FREE ENERGY PREDICTED BY IDOCK:   -5.94 KCAL/MOL
REMARK 922        TOTAL FREE ENERGY PREDICTED BY IDOCK:   -9.48 KCAL/MOL
REMARK 923 INTER-LIGAND FREE ENERGY PREDICTED BY IDOCK:   -8.52 KCAL/MOL
REMARK 924 INTRA-LIGAND FREE ENERGY PREDICTED BY IDOCK:   -0.97 KCAL/MOL
REMARK 927      BINDING AFFINITY PREDICTED BY RF-SCORE:    0.00 PKD
ROOT
HETATM    1 CL   UNL     1     -10.345   5.790  70.795  1.00  0.00    -0.284 Cl 
HETATM    2  C   UNL     1     -10.918   7.403  70.951  1.00  0.00    -0.253 A  
HETATM    3  C   UNL     1     -12.132   7.646  71.589  1.00  0.00    -0.336 A  
HETATM    4  C   UNL     1     -12.631   8.955  71.645  1.00  0.00    -0.346 A  
HETATM    5 CL   UNL     1     -14.146   9.177  72.454  1.00  0.00    -0.490 Cl 
HETATM    6  C   UNL     1     -11.939  10.036  71.059  1.00  0.00    -0.469 A  
HETATM    7  C   UNL     1     -10.690   9.767  70.477  1.00  0.00    -0.381 A  
HETATM    8  C   UNL     1     -10.185   8.460  70.422  1.00  0.00    -0.212 A  
ENDROOT
BRANCH   6   9
HETATM    9  C   UNL     1     -12.589  11.410  70.959  1.00  0.00    -0.386 C  
BRANCH   9  10
HETATM   10  O   UNL     1     -12.297  12.140  69.746  1.00  0.00    -0.158 OA 
BRANCH  10  11
HETATM   11  N   UNL     1     -11.439  13.228  70.038  1.00  0.00    -0.512 NA 
HETATM   12  H   UNL     1     -10.964  13.340  70.933  1.00  0.00     0.000 HD 
BRANCH  11  13
HETATM   13  C   UNL     1     -11.316  14.073  69.050  1.00  0.00    -0.281 C  
BRANCH  13  14
HETATM   14  C   UNL     1     -11.329  13.573  67.621  1.00  0.00    -0.326 A  
HETATM   15 CL   UNL     1      -9.034  12.080  68.018  1.00  0.00    -0.181 Cl 
HETATM   16  C   UNL     1     -12.383  13.969  66.774  1.00  0.00    -0.368 A  
HETATM   17  C   UNL     1     -10.371  12.683  67.101  1.00  0.00    -0.231 A  
HETATM   18  C   UNL     1     -12.512  13.459  65.476  1.00  0.00    -0.534 A  
HETATM   19 CL   UNL     1     -11.754  11.896  63.417  1.00  0.00    -0.532 Cl 
HETATM   20  C   UNL     1     -11.572  12.557  64.994  1.00  0.00    -0.349 A  
HETATM   21  C   UNL     1     -10.496  12.180  65.793  1.00  0.00    -0.287 A  
ENDBRANCH  13  14
BRANCH  13  22
HETATM   22  C   UNL     1     -11.213  15.584  69.244  1.00  0.00    -0.310 C  
BRANCH  22  23
HETATM   23  N   UNL     1      -9.875  16.123  69.039  1.00  0.00    -0.233 NA 
HETATM   24  C   UNL     1      -8.704  15.463  69.296  1.00  0.00    -0.252 A  
HETATM   25  N   UNL     1      -8.250  17.542  68.556  1.00  0.00    -0.273 NA 
HETATM   26  C   UNL     1      -9.554  17.362  68.569  1.00  0.00    -0.298 A  
HETATM   27  C   UNL     1      -7.711  16.368  69.005  1.00  0.00    -0.235 A  
ENDBRANCH  22  23
ENDBRANCH  13  22
ENDBRANCH  11  13
ENDBRANCH  10  11
ENDBRANCH   9  10
ENDBRANCH   6   9
TORSDOF 7
ENDMDL
MODEL       50
REMARK 921   NORMALIZED FREE ENERGY PREDICTED BY IDOCK:   -5.93 KCAL/MOL
REMARK 922        TOTAL FREE ENERGY PREDICTED BY IDOCK:   -9.47 KCAL/MOL
REMARK 923 INTER-LIGAND FREE ENERGY PREDICTED BY IDOCK:   -8.64 KCAL/MOL
REMARK 924 INTRA-LIGAND FREE ENERGY PREDICTED BY IDOCK:   -0.83 KCAL/MOL
REMARK 927      BINDING AFFINITY PREDICTED BY RF-SCORE:    0.00 PKD
ROOT
HETATM    1 CL   UNL     1     -11.813   6.266  72.329  1.00  0.00    -0.350 Cl 
HETATM    2  C   UNL     1     -11.899   7.813  71.583  1.00  0.00    -0.287 A  
HETATM    3  C   UNL     1     -10.804   8.297  70.870  1.00  0.00    -0.261 A  
HETATM    4  C   UNL     1     -10.852   9.590  70.330  1.00  0.00    -0.282 A  
HETATM    5 CL   UNL     1      -9.454  10.121  69.457  1.00  0.00    -0.237 Cl 
HETATM    6  C   UNL     1     -11.979  10.422  70.501  1.00  0.00    -0.427 A  
HETATM    7  C   UNL     1     -13.087   9.883  71.173  1.00  0.00    -0.453 A  
HETATM    8  C   UNL     1     -13.045   8.589  71.711  1.00  0.00    -0.383 A  
ENDROOT
BRANCH   6   9
HETATM    9  C   UNL     1     -11.933  11.885  70.079  1.00  0.00    -0.332 C  
BRANCH   9  10
HETATM   10  O   UNL     1     -12.195  12.128  68.678  1.00  0.00    -0.254 OA 
BRANCH  10  11
HETATM   11  N   UNL     1     -11.137  12.886  68.120  1.00  0.00    -0.239 NA 
HETATM   12  H   UNL     1     -10.153  12.668  68.271  1.00  0.00     0.000 HD 
BRANCH  11  13
HETATM   13  C   UNL     1     -11.546  13.891  67.392  1.00  0.00    -0.368 C  
BRANCH  13  14
HETATM   14  C   UNL     1     -11.049  15.290  67.687  1.00  0.00    -0.323 A  
HETATM   15 CL   UNL     1     -12.355  15.345  70.126  1.00  0.00    -0.395 Cl 
HETATM   16  C   UNL     1     -10.196  15.917  66.758  1.00  0.00    -0.283 A  
HETATM   17  C   UNL     1     -11.348  15.986  68.874  1.00  0.00    -0.370 A  
HETATM   18  C   UNL     1      -9.618  17.166  67.020  1.00  0.00    -0.262 A  
HETATM   19 CL   UNL     1      -9.158  19.332  68.553  1.00  0.00    -0.411 Cl 
HETATM   20  C   UNL     1      -9.902  17.820  68.211  1.00  0.00    -0.340 A  
HETATM   21  C   UNL     1     -10.775  17.245  69.130  1.00  0.00    -0.118 A  
ENDBRANCH  13  14
BRANCH  13  22
HETATM   22  C   UNL     1     -12.475  13.735  66.190  1.00  0.00    -0.418 C  
BRANCH  22  23
HETATM   23  N   UNL     1     -11.872  13.056  65.052  1.00  0.00    -0.342 NA 
HETATM   24  C   UNL     1     -12.510  12.173  64.224  1.00  0.00    -0.363 A  
HETATM   25  N   UNL     1     -10.358  12.377  63.591  1.00  0.00    -0.428 NA 
HETATM   26  C   UNL     1     -10.584  13.170  64.617  1.00  0.00    -0.392 A  
HETATM   27  C   UNL     1     -11.548  11.754  63.336  1.00  0.00    -0.321 A  
ENDBRANCH  22  23
ENDBRANCH  13  22
ENDBRANCH  11  13
ENDBRANCH  10  11
ENDBRANCH   9  10
ENDBRANCH   6   9
TORSDOF 7
ENDMDL
MODEL       51
REMARK 921   NORMALIZED FREE ENERGY PREDICTED BY IDOCK:   -5.87 KCAL/MOL
REMARK 922        TOTAL FREE ENERGY PREDICTED BY IDOCK:   -9.39 KCAL/MOL
REMARK 923 INTER-LIGAND FREE ENERGY PREDICTED BY IDOCK:   -8.65 KCAL/MOL
REMARK 924 INTRA-LIGAND FREE ENERGY PREDICTED BY IDOCK:   -0.75 KCAL/MOL
REMARK 927      BINDING AFFINITY PREDICTED BY RF-SCORE:    0.00 PKD
ROOT
HETATM    1 CL   UNL     1     -10.565   4.733  66.950  1.00  0.00    -0.145 Cl 
HETATM    2  C   UNL     1     -10.585   6.358  67.509  1.00  0.00    -0.283 A  
HETATM    3  C   UNL     1     -10.340   7.398  66.616  1.00  0.00    -0.241 A  
HETATM    4  C   UNL     1     -10.281   8.715  67.092  1.00  0.00    -0.283 A  
HETATM    5 CL   UNL     1      -9.973   9.954  65.921  1.00  0.00    -0.346 Cl 
HETATM    6  C   UNL     1     -10.452   9.016  68.460  1.00  0.00    -0.232 A  
HETATM    7  C   UNL     1     -10.756   7.952  69.324  1.00  0.00    -0.145 A  
HETATM    8  C   UNL     1     -10.820   6.634  68.852  1.00  0.00    -0.326 A  
ENDROOT
BRANCH   6   9
HETATM    9  C   UNL     1     -10.190  10.422  68.983  1.00  0.00    -0.217 C  
BRANCH   9  10
HETATM   10  O   UNL     1     -11.209  11.396  68.663  1.00  0.00    -0.201 OA 
BRANCH  10  11
HETATM   11  N   UNL     1     -10.600  12.602  68.238  1.00  0.00    -0.230 NA 
HETATM   12  H   UNL     1      -9.637  12.656  67.906  1.00  0.00     0.000 HD 
BRANCH  11  13
HETATM   13  C   UNL     1     -11.391  13.639  68.313  1.00  0.00    -0.289 C  
BRANCH  13  14
HETATM   14  C   UNL     1     -11.702  14.257  69.659  1.00  0.00    -0.362 A  
HETATM   15 CL   UNL     1     -10.046  16.417  69.159  1.00  0.00    -0.264 Cl 
HETATM   16  C   UNL     1     -12.621  13.609  70.507  1.00  0.00    -0.337 A  
HETATM   17  C   UNL     1     -11.164  15.484  70.093  1.00  0.00    -0.318 A  
HETATM   18  C   UNL     1     -13.032  14.182  71.717  1.00  0.00    -0.427 A  
HETATM   19 CL   UNL     1     -13.049  16.133  73.575  1.00  0.00    -0.646 Cl 
HETATM   20  C   UNL     1     -12.512  15.408  72.111  1.00  0.00    -0.373 A  
HETATM   21  C   UNL     1     -11.570  16.052  71.314  1.00  0.00    -0.506 A  
ENDBRANCH  13  14
BRANCH  13  22
HETATM   22  C   UNL     1     -11.997  14.323  67.090  1.00  0.00    -0.417 C  
BRANCH  22  23
HETATM   23  N   UNL     1     -11.695  13.666  65.826  1.00  0.00    -0.335 NA 
HETATM   24  C   UNL     1     -12.509  12.776  65.178  1.00  0.00    -0.501 A  
HETATM   25  N   UNL     1     -10.596  13.029  64.016  1.00  0.00    -0.397 NA 
HETATM   26  C   UNL     1     -10.565  13.810  65.076  1.00  0.00    -0.389 A  
HETATM   27  C   UNL     1     -11.800  12.384  64.068  1.00  0.00    -0.439 A  
ENDBRANCH  22  23
ENDBRANCH  13  22
ENDBRANCH  11  13
ENDBRANCH  10  11
ENDBRANCH   9  10
ENDBRANCH   6   9
TORSDOF 7
ENDMDL
MODEL       52
REMARK 921   NORMALIZED FREE ENERGY PREDICTED BY IDOCK:   -5.87 KCAL/MOL
REMARK 922        TOTAL FREE ENERGY PREDICTED BY IDOCK:   -9.39 KCAL/MOL
REMARK 923 INTER-LIGAND FREE ENERGY PREDICTED BY IDOCK:   -8.52 KCAL/MOL
REMARK 924 INTRA-LIGAND FREE ENERGY PREDICTED BY IDOCK:   -0.87 KCAL/MOL
REMARK 927      BINDING AFFINITY PREDICTED BY RF-SCORE:    0.00 PKD
ROOT
HETATM    1 CL   UNL     1      -8.684   9.128  63.766  1.00  0.00    -0.189 Cl 
HETATM    2  C   UNL     1      -9.728  10.173  64.646  1.00  0.00    -0.309 A  
HETATM    3  C   UNL     1     -10.424  11.176  63.976  1.00  0.00    -0.447 A  
HETATM    4  C   UNL     1     -11.214  12.073  64.709  1.00  0.00    -0.318 A  
HETATM    5 CL   UNL     1     -12.049  13.292  63.806  1.00  0.00    -0.547 Cl 
HETATM    6  C   UNL     1     -11.313  11.995  66.114  1.00  0.00    -0.407 A  
HETATM    7  C   UNL     1     -10.646  10.937  66.752  1.00  0.00    -0.313 A  
HETATM    8  C   UNL     1      -9.858  10.035  66.023  1.00  0.00    -0.321 A  
ENDROOT
BRANCH   6   9
HETATM    9  C   UNL     1     -12.012  13.093  66.905  1.00  0.00    -0.362 C  
BRANCH   9  10
HETATM   10  O   UNL     1     -11.930  12.961  68.342  1.00  0.00    -0.326 OA 
BRANCH  10  11
HETATM   11  N   UNL     1     -10.735  13.559  68.808  1.00  0.00    -0.268 NA 
HETATM   12  H   UNL     1      -9.940  13.023  69.155  1.00  0.00     0.000 HD 
BRANCH  11  13
HETATM   13  C   UNL     1     -10.749  14.864  68.750  1.00  0.00    -0.252 C  
BRANCH  13  14
HETATM   14  C   UNL     1      -9.528  15.613  68.261  1.00  0.00    -0.200 A  
HETATM   15 CL   UNL     1     -10.475  15.657  65.661  1.00  0.00    -0.373 Cl 
HETATM   16  C   UNL     1      -8.542  15.986  69.195  1.00  0.00    -0.247 A  
HETATM   17  C   UNL     1      -9.346  16.011  66.922  1.00  0.00    -0.228 A  
HETATM   18  C   UNL     1      -7.442  16.771  68.826  1.00  0.00    -0.231 A  
HETATM   19 CL   UNL     1      -5.973  18.180  67.062  1.00  0.00    -0.161 Cl 
HETATM   20  C   UNL     1      -7.299  17.179  67.506  1.00  0.00    -0.161 A  
HETATM   21  C   UNL     1      -8.235  16.790  66.552  1.00  0.00    -0.325 A  
ENDBRANCH  13  14
BRANCH  13  22
HETATM   22  C   UNL     1     -11.973  15.707  69.100  1.00  0.00    -0.310 C  
BRANCH  22  23
HETATM   23  N   UNL     1     -12.359  15.648  70.503  1.00  0.00    -0.411 NA 
HETATM   24  C   UNL     1     -13.555  15.184  70.980  1.00  0.00    -0.409 A  
HETATM   25  N   UNL     1     -12.285  15.898  72.699  1.00  0.00    -0.455 NA 
HETATM   26  C   UNL     1     -11.614  16.042  71.576  1.00  0.00    -0.456 A  
HETATM   27  C   UNL     1     -13.492  15.364  72.342  1.00  0.00    -0.490 A  
ENDBRANCH  22  23
ENDBRANCH  13  22
ENDBRANCH  11  13
ENDBRANCH  10  11
ENDBRANCH   9  10
ENDBRANCH   6   9
TORSDOF 7
ENDMDL
MODEL       53
REMARK 921   NORMALIZED FREE ENERGY PREDICTED BY IDOCK:   -5.86 KCAL/MOL
REMARK 922        TOTAL FREE ENERGY PREDICTED BY IDOCK:   -9.38 KCAL/MOL
REMARK 923 INTER-LIGAND FREE ENERGY PREDICTED BY IDOCK:   -8.25 KCAL/MOL
REMARK 924 INTRA-LIGAND FREE ENERGY PREDICTED BY IDOCK:   -1.13 KCAL/MOL
REMARK 927      BINDING AFFINITY PREDICTED BY RF-SCORE:    0.00 PKD
ROOT
HETATM    1 CL   UNL     1     -10.683  10.099  68.221  1.00  0.00    -0.257 Cl 
HETATM    2  C   UNL     1     -11.164  11.392  67.194  1.00  0.00    -0.296 A  
HETATM    3  C   UNL     1     -10.896  11.325  65.829  1.00  0.00    -0.257 A  
HETATM    4  C   UNL     1     -11.222  12.415  65.010  1.00  0.00    -0.312 A  
HETATM    5 CL   UNL     1     -10.859  12.258  63.324  1.00  0.00    -0.437 Cl 
HETATM    6  C   UNL     1     -11.804  13.589  65.535  1.00  0.00    -0.388 A  
HETATM    7  C   UNL     1     -12.115  13.601  66.904  1.00  0.00    -0.431 A  
HETATM    8  C   UNL     1     -11.795  12.511  67.727  1.00  0.00    -0.375 A  
ENDROOT
BRANCH   6   9
HETATM    9  C   UNL     1     -11.966  14.830  64.667  1.00  0.00    -0.440 C  
BRANCH   9  10
HETATM   10  O   UNL     1     -10.791  15.666  64.566  1.00  0.00    -0.394 OA 
BRANCH  10  11
HETATM   11  N   UNL     1     -11.141  17.013  64.825  1.00  0.00    -0.906 NA 
HETATM   12  H   UNL     1     -11.833  17.526  64.279  1.00  0.00     0.000 HD 
BRANCH  11  13
HETATM   13  C   UNL     1     -10.491  17.535  65.831  1.00  0.00    -0.249 C  
BRANCH  13  14
HETATM   14  C   UNL     1      -9.648  16.653  66.726  1.00  0.00    -0.270 A  
HETATM   15 CL   UNL     1     -11.619  16.572  68.667  1.00  0.00    -0.166 Cl 
HETATM   16  C   UNL     1      -8.383  16.236  66.270  1.00  0.00    -0.343 A  
HETATM   17  C   UNL     1     -10.083  16.176  67.978  1.00  0.00    -0.242 A  
HETATM   18  C   UNL     1      -7.599  15.335  67.003  1.00  0.00    -0.161 A  
HETATM   19 CL   UNL     1      -7.121  13.712  69.099  1.00  0.00    -0.078 Cl 
HETATM   20  C   UNL     1      -8.062  14.852  68.220  1.00  0.00    -0.132 A  
HETATM   21  C   UNL     1      -9.289  15.280  68.717  1.00  0.00    -0.210 A  
ENDBRANCH  13  14
BRANCH  13  22
HETATM   22  C   UNL     1     -10.480  19.031  66.139  1.00  0.00    -0.467 C  
BRANCH  22  23
HETATM   23  N   UNL     1      -9.205  19.530  66.634  1.00  0.00    -0.335 NA 
HETATM   24  C   UNL     1      -8.131  19.876  65.859  1.00  0.00    -0.248 A  
HETATM   25  N   UNL     1      -7.607  20.145  68.033  1.00  0.00    -0.276 NA 
HETATM   26  C   UNL     1      -8.854  19.734  67.936  1.00  0.00    -0.321 A  
HETATM   27  C   UNL     1      -7.148  20.238  66.749  1.00  0.00    -0.256 A  
ENDBRANCH  22  23
ENDBRANCH  13  22
ENDBRANCH  11  13
ENDBRANCH  10  11
ENDBRANCH   9  10
ENDBRANCH   6   9
TORSDOF 7
ENDMDL
MODEL       54
REMARK 921   NORMALIZED FREE ENERGY PREDICTED BY IDOCK:   -5.86 KCAL/MOL
REMARK 922        TOTAL FREE ENERGY PREDICTED BY IDOCK:   -9.38 KCAL/MOL
REMARK 923 INTER-LIGAND FREE ENERGY PREDICTED BY IDOCK:   -8.38 KCAL/MOL
REMARK 924 INTRA-LIGAND FREE ENERGY PREDICTED BY IDOCK:   -0.99 KCAL/MOL
REMARK 927      BINDING AFFINITY PREDICTED BY RF-SCORE:    0.00 PKD
ROOT
HETATM    1 CL   UNL     1      -9.562   6.746  66.854  1.00  0.00    -0.187 Cl 
HETATM    2  C   UNL     1     -10.116   8.148  67.681  1.00  0.00    -0.207 A  
HETATM    3  C   UNL     1     -10.214   8.137  69.070  1.00  0.00    -0.228 A  
HETATM    4  C   UNL     1     -10.738   9.255  69.732  1.00  0.00    -0.231 A  
HETATM    5 CL   UNL     1     -10.828   9.167  71.460  1.00  0.00    -0.413 Cl 
HETATM    6  C   UNL     1     -11.182  10.393  69.026  1.00  0.00    -0.289 A  
HETATM    7  C   UNL     1     -11.015  10.396  67.632  1.00  0.00    -0.374 A  
HETATM    8  C   UNL     1     -10.487   9.281  66.965  1.00  0.00    -0.303 A  
ENDROOT
BRANCH   6   9
HETATM    9  C   UNL     1     -11.927  11.511  69.745  1.00  0.00    -0.346 C  
BRANCH   9  10
HETATM   10  O   UNL     1     -11.909  12.791  69.073  1.00  0.00    -0.295 OA 
BRANCH  10  11
HETATM   11  N   UNL     1     -10.853  13.583  69.585  1.00  0.00    -0.441 NA 
HETATM   12  H   UNL     1     -10.069  13.198  70.111  1.00  0.00     0.000 HD 
BRANCH  11  13
HETATM   13  C   UNL     1     -10.981  14.855  69.318  1.00  0.00    -0.270 C  
BRANCH  13  14
HETATM   14  C   UNL     1      -9.991  15.539  68.400  1.00  0.00    -0.214 A  
HETATM   15 CL   UNL     1     -11.088  14.340  66.161  1.00  0.00    -0.319 Cl 
HETATM   16  C   UNL     1      -9.054  16.432  68.957  1.00  0.00    -0.252 A  
HETATM   17  C   UNL     1      -9.987  15.375  67.001  1.00  0.00    -0.238 A  
HETATM   18  C   UNL     1      -8.182  17.176  68.152  1.00  0.00    -0.224 A  
HETATM   19 CL   UNL     1      -7.178  17.967  65.781  1.00  0.00    -0.271 Cl 
HETATM   20  C   UNL     1      -8.218  17.022  66.773  1.00  0.00    -0.238 A  
HETATM   21  C   UNL     1      -9.103  16.116  66.196  1.00  0.00    -0.382 A  
ENDBRANCH  13  14
BRANCH  13  22
HETATM   22  C   UNL     1     -12.131  15.712  69.842  1.00  0.00    -0.341 C  
BRANCH  22  23
HETATM   23  N   UNL     1     -12.622  15.316  71.154  1.00  0.00    -0.357 NA 
HETATM   24  C   UNL     1     -11.985  15.543  72.344  1.00  0.00    -0.451 A  
HETATM   25  N   UNL     1     -13.894  14.406  72.718  1.00  0.00    -0.599 NA 
HETATM   26  C   UNL     1     -13.782  14.652  71.430  1.00  0.00    -0.404 A  
HETATM   27  C   UNL     1     -12.785  14.956  73.297  1.00  0.00    -0.509 A  
ENDBRANCH  22  23
ENDBRANCH  13  22
ENDBRANCH  11  13
ENDBRANCH  10  11
ENDBRANCH   9  10
ENDBRANCH   6   9
TORSDOF 7
ENDMDL
MODEL       55
REMARK 921   NORMALIZED FREE ENERGY PREDICTED BY IDOCK:   -5.85 KCAL/MOL
REMARK 922        TOTAL FREE ENERGY PREDICTED BY IDOCK:   -9.37 KCAL/MOL
REMARK 923 INTER-LIGAND FREE ENERGY PREDICTED BY IDOCK:   -8.51 KCAL/MOL
REMARK 924 INTRA-LIGAND FREE ENERGY PREDICTED BY IDOCK:   -0.86 KCAL/MOL
REMARK 927      BINDING AFFINITY PREDICTED BY RF-SCORE:    0.00 PKD
ROOT
HETATM    1 CL   UNL     1      -9.004   7.443  66.579  1.00  0.00    -0.170 Cl 
HETATM    2  C   UNL     1      -9.894   8.879  66.894  1.00  0.00    -0.223 A  
HETATM    3  C   UNL     1     -10.106   9.799  65.870  1.00  0.00    -0.314 A  
HETATM    4  C   UNL     1     -10.766  11.003  66.152  1.00  0.00    -0.194 A  
HETATM    5 CL   UNL     1     -10.993  12.096  64.828  1.00  0.00    -0.342 Cl 
HETATM    6  C   UNL     1     -11.212  11.316  67.454  1.00  0.00    -0.370 A  
HETATM    7  C   UNL     1     -11.035  10.343  68.450  1.00  0.00    -0.312 A  
HETATM    8  C   UNL     1     -10.380   9.135  68.172  1.00  0.00    -0.263 A  
ENDROOT
BRANCH   6   9
HETATM    9  C   UNL     1     -11.746  12.705  67.778  1.00  0.00    -0.356 C  
BRANCH   9  10
HETATM   10  O   UNL     1     -11.674  13.080  69.172  1.00  0.00    -0.290 OA 
BRANCH  10  11
HETATM   11  N   UNL     1     -10.786  14.172  69.327  1.00  0.00    -0.361 NA 
HETATM   12  H   UNL     1      -9.781  14.061  69.464  1.00  0.00     0.000 HD 
BRANCH  11  13
HETATM   13  C   UNL     1     -11.379  15.335  69.277  1.00  0.00    -0.298 C  
BRANCH  13  14
HETATM   14  C   UNL     1     -10.721  16.489  68.551  1.00  0.00    -0.336 A  
HETATM   15 CL   UNL     1     -11.189  15.331  66.082  1.00  0.00    -0.280 Cl 
HETATM   16  C   UNL     1     -10.233  17.575  69.304  1.00  0.00    -0.180 A  
HETATM   17  C   UNL     1     -10.616  16.566  67.149  1.00  0.00    -0.270 A  
HETATM   18  C   UNL     1      -9.711  18.719  68.688  1.00  0.00    -0.437 A  
HETATM   19 CL   UNL     1      -9.046  20.209  66.544  1.00  0.00    -0.424 Cl 
HETATM   20  C   UNL     1      -9.646  18.787  67.302  1.00  0.00    -0.303 A  
HETATM   21  C   UNL     1     -10.080  17.712  66.532  1.00  0.00    -0.350 A  
ENDBRANCH  13  14
BRANCH  13  22
HETATM   22  C   UNL     1     -12.759  15.601  69.872  1.00  0.00     0.043 C  
BRANCH  22  23
HETATM   23  N   UNL     1     -12.833  15.420  71.315  1.00  0.00    -0.417 NA 
HETATM   24  C   UNL     1     -12.139  16.146  72.245  1.00  0.00    -0.531 A  
HETATM   25  N   UNL     1     -13.379  14.580  73.287  1.00  0.00    -0.562 NA 
HETATM   26  C   UNL     1     -13.589  14.506  71.989  1.00  0.00    -0.416 A  
HETATM   27  C   UNL     1     -12.481  15.596  73.458  1.00  0.00    -0.551 A  
ENDBRANCH  22  23
ENDBRANCH  13  22
ENDBRANCH  11  13
ENDBRANCH  10  11
ENDBRANCH   9  10
ENDBRANCH   6   9
TORSDOF 7
ENDMDL
MODEL       56
REMARK 921   NORMALIZED FREE ENERGY PREDICTED BY IDOCK:   -5.84 KCAL/MOL
REMARK 922        TOTAL FREE ENERGY PREDICTED BY IDOCK:   -9.35 KCAL/MOL
REMARK 923 INTER-LIGAND FREE ENERGY PREDICTED BY IDOCK:   -8.59 KCAL/MOL
REMARK 924 INTRA-LIGAND FREE ENERGY PREDICTED BY IDOCK:   -0.76 KCAL/MOL
REMARK 927      BINDING AFFINITY PREDICTED BY RF-SCORE:    0.00 PKD
ROOT
HETATM    1 CL   UNL     1     -11.689   5.400  72.824  1.00  0.00    -0.311 Cl 
HETATM    2  C   UNL     1     -11.290   6.741  71.825  1.00  0.00    -0.269 A  
HETATM    3  C   UNL     1     -11.143   6.560  70.452  1.00  0.00    -0.389 A  
HETATM    4  C   UNL     1     -10.743   7.640  69.654  1.00  0.00    -0.228 A  
HETATM    5 CL   UNL     1     -10.583   7.338  67.956  1.00  0.00    -0.256 Cl 
HETATM    6  C   UNL     1     -10.470   8.909  70.208  1.00  0.00    -0.239 A  
HETATM    7  C   UNL     1     -10.684   9.074  71.586  1.00  0.00    -0.441 A  
HETATM    8  C   UNL     1     -11.089   7.997  72.387  1.00  0.00    -0.416 A  
ENDROOT
BRANCH   6   9
HETATM    9  C   UNL     1      -9.849  10.010  69.357  1.00  0.00    -0.224 C  
BRANCH   9  10
HETATM   10  O   UNL     1     -10.524  11.287  69.418  1.00  0.00    -0.168 OA 
BRANCH  10  11
HETATM   11  N   UNL     1      -9.845  12.224  68.603  1.00  0.00    -0.381 NA 
HETATM   12  H   UNL     1      -8.830  12.327  68.595  1.00  0.00     0.000 HD 
BRANCH  11  13
HETATM   13  C   UNL     1     -10.644  12.945  67.863  1.00  0.00    -0.222 C  
BRANCH  13  14
HETATM   14  C   UNL     1     -10.313  14.395  67.582  1.00  0.00    -0.237 A  
HETATM   15 CL   UNL     1     -12.183  15.281  69.417  1.00  0.00    -0.288 Cl 
HETATM   16  C   UNL     1      -9.291  14.690  66.657  1.00  0.00    -0.293 A  
HETATM   17  C   UNL     1     -10.934  15.475  68.237  1.00  0.00    -0.305 A  
HETATM   18  C   UNL     1      -8.864  16.005  66.431  1.00  0.00    -0.363 A  
HETATM   19 CL   UNL     1      -8.916  18.662  66.870  1.00  0.00    -0.285 Cl 
HETATM   20  C   UNL     1      -9.470  17.052  67.114  1.00  0.00    -0.242 A  
HETATM   21  C   UNL     1     -10.511  16.796  68.001  1.00  0.00    -0.333 A  
ENDBRANCH  13  14
BRANCH  13  22
HETATM   22  C   UNL     1     -11.900  12.389  67.195  1.00  0.00    -0.291 C  
BRANCH  22  23
HETATM   23  N   UNL     1     -11.955  12.601  65.755  1.00  0.00    -0.466 NA 
HETATM   24  C   UNL     1     -11.298  11.852  64.816  1.00  0.00    -0.283 A  
HETATM   25  N   UNL     1     -12.440  13.506  63.797  1.00  0.00    -0.727 NA 
HETATM   26  C   UNL     1     -12.652  13.569  65.094  1.00  0.00    -0.436 A  
HETATM   27  C   UNL     1     -11.602  12.442  63.612  1.00  0.00    -0.499 A  
ENDBRANCH  22  23
ENDBRANCH  13  22
ENDBRANCH  11  13
ENDBRANCH  10  11
ENDBRANCH   9  10
ENDBRANCH   6   9
TORSDOF 7
ENDMDL
MODEL       57
REMARK 921   NORMALIZED FREE ENERGY PREDICTED BY IDOCK:   -5.84 KCAL/MOL
REMARK 922        TOTAL FREE ENERGY PREDICTED BY IDOCK:   -9.34 KCAL/MOL
REMARK 923 INTER-LIGAND FREE ENERGY PREDICTED BY IDOCK:   -9.15 KCAL/MOL
REMARK 924 INTRA-LIGAND FREE ENERGY PREDICTED BY IDOCK:   -0.20 KCAL/MOL
REMARK 927      BINDING AFFINITY PREDICTED BY RF-SCORE:    0.00 PKD
ROOT
HETATM    1 CL   UNL     1      -7.738   9.497  62.338  1.00  0.00    -0.115 Cl 
HETATM    2  C   UNL     1      -8.884  10.144  63.444  1.00  0.00    -0.231 A  
HETATM    3  C   UNL     1      -9.777  11.124  63.017  1.00  0.00    -0.384 A  
HETATM    4  C   UNL     1     -10.657  11.702  63.942  1.00  0.00    -0.391 A  
HETATM    5 CL   UNL     1     -11.738  12.913  63.337  1.00  0.00    -0.573 Cl 
HETATM    6  C   UNL     1     -10.655  11.326  65.302  1.00  0.00    -0.323 A  
HETATM    7  C   UNL     1      -9.784  10.294  65.687  1.00  0.00    -0.308 A  
HETATM    8  C   UNL     1      -8.904   9.710  64.765  1.00  0.00    -0.242 A  
ENDROOT
BRANCH   6   9
HETATM    9  C   UNL     1     -11.477  12.102  66.323  1.00  0.00    -0.374 C  
BRANCH   9  10
HETATM   10  O   UNL     1     -11.917  11.336  67.467  1.00  0.00    -0.612 OA 
BRANCH  10  11
HETATM   11  N   UNL     1     -11.333  11.860  68.645  1.00  0.00    -0.250 NA 
HETATM   12  H   UNL     1     -10.420  12.314  68.664  1.00  0.00     0.000 HD 
BRANCH  11  13
HETATM   13  C   UNL     1     -12.079  11.707  69.707  1.00  0.00    -0.289 C  
BRANCH  13  14
HETATM   14  C   UNL     1     -12.374  12.892  70.602  1.00  0.00    -0.385 A  
HETATM   15 CL   UNL     1     -11.430  14.679  68.713  1.00  0.00    -0.303 Cl 
HETATM   16  C   UNL     1     -12.973  12.662  71.856  1.00  0.00    -0.402 A  
HETATM   17  C   UNL     1     -12.133  14.227  70.227  1.00  0.00    -0.335 A  
HETATM   18  C   UNL     1     -13.368  13.719  72.685  1.00  0.00    -0.618 A  
HETATM   19 CL   UNL     1     -13.674  16.329  73.278  1.00  0.00    -0.356 Cl 
HETATM   20  C   UNL     1     -13.150  15.030  72.281  1.00  0.00    -0.358 A  
HETATM   21  C   UNL     1     -12.521  15.288  71.066  1.00  0.00    -0.444 A  
ENDBRANCH  13  14
BRANCH  13  22
HETATM   22  C   UNL     1     -12.738  10.383  70.087  1.00  0.00    -0.083 C  
BRANCH  22  23
HETATM   23  N   UNL     1     -11.959   9.569  71.009  1.00  0.00    -0.311 NA 
HETATM   24  C   UNL     1     -10.599   9.421  70.984  1.00  0.00    -0.330 A  
HETATM   25  N   UNL     1     -11.462   8.164  72.643  1.00  0.00    -0.403 NA 
HETATM   26  C   UNL     1     -12.435   8.816  72.042  1.00  0.00    -0.386 A  
HETATM   27  C   UNL     1     -10.316   8.534  71.996  1.00  0.00    -0.338 A  
ENDBRANCH  22  23
ENDBRANCH  13  22
ENDBRANCH  11  13
ENDBRANCH  10  11
ENDBRANCH   9  10
ENDBRANCH   6   9
TORSDOF 7
ENDMDL
MODEL       58
REMARK 921   NORMALIZED FREE ENERGY PREDICTED BY IDOCK:   -5.83 KCAL/MOL
REMARK 922        TOTAL FREE ENERGY PREDICTED BY IDOCK:   -9.34 KCAL/MOL
REMARK 923 INTER-LIGAND FREE ENERGY PREDICTED BY IDOCK:   -8.02 KCAL/MOL
REMARK 924 INTRA-LIGAND FREE ENERGY PREDICTED BY IDOCK:   -1.32 KCAL/MOL
REMARK 927      BINDING AFFINITY PREDICTED BY RF-SCORE:    0.00 PKD
ROOT
HETATM    1 CL   UNL     1      -9.910   8.604  68.554  1.00  0.00    -0.175 Cl 
HETATM    2  C   UNL     1     -10.476   9.852  67.516  1.00  0.00    -0.255 A  
HETATM    3  C   UNL     1     -10.104   9.855  66.173  1.00  0.00    -0.315 A  
HETATM    4  C   UNL     1     -10.506  10.916  65.351  1.00  0.00    -0.223 A  
HETATM    5 CL   UNL     1     -10.005  10.850  63.694  1.00  0.00    -0.382 Cl 
HETATM    6  C   UNL     1     -11.270  11.993  65.850  1.00  0.00    -0.385 A  
HETATM    7  C   UNL     1     -11.678  11.930  67.192  1.00  0.00    -0.311 A  
HETATM    8  C   UNL     1     -11.282  10.868  68.018  1.00  0.00    -0.378 A  
ENDROOT
BRANCH   6   9
HETATM    9  C   UNL     1     -11.526  13.226  64.993  1.00  0.00    -0.305 C  
BRANCH   9  10
HETATM   10  O   UNL     1     -10.339  13.898  64.514  1.00  0.00    -0.436 OA 
BRANCH  10  11
HETATM   11  N   UNL     1      -9.592  14.387  65.613  1.00  0.00    -0.537 NA 
HETATM   12  H   UNL     1      -8.697  13.992  65.901  1.00  0.00     0.000 HD 
BRANCH  11  13
HETATM   13  C   UNL     1     -10.161  15.393  66.222  1.00  0.00    -0.292 C  
BRANCH  13  14
HETATM   14  C   UNL     1     -10.470  15.305  67.700  1.00  0.00    -0.263 A  
HETATM   15 CL   UNL     1      -7.785  15.188  68.356  1.00  0.00    -0.114 Cl 
HETATM   16  C   UNL     1     -11.815  15.356  68.116  1.00  0.00    -0.178 A  
HETATM   17  C   UNL     1      -9.479  15.230  68.698  1.00  0.00    -0.204 A  
HETATM   18  C   UNL     1     -12.163  15.386  69.473  1.00  0.00    -0.277 A  
HETATM   19 CL   UNL     1     -11.591  15.426  72.105  1.00  0.00    -0.531 Cl 
HETATM   20  C   UNL     1     -11.167  15.344  70.440  1.00  0.00    -0.323 A  
HETATM   21  C   UNL     1      -9.832  15.250  70.060  1.00  0.00    -0.072 A  
ENDBRANCH  13  14
BRANCH  13  22
HETATM   22  C   UNL     1     -10.494  16.713  65.531  1.00  0.00    -0.267 C  
BRANCH  22  23
HETATM   23  N   UNL     1      -9.770  17.862  66.058  1.00  0.00    -0.539 NA 
HETATM   24  C   UNL     1      -8.413  17.942  66.219  1.00  0.00    -0.185 A  
HETATM   25  N   UNL     1      -9.371  19.847  66.949  1.00  0.00    -0.357 NA 
HETATM   26  C   UNL     1     -10.304  19.043  66.485  1.00  0.00    -0.439 A  
HETATM   27  C   UNL     1      -8.191  19.174  66.787  1.00  0.00    -0.280 A  
ENDBRANCH  22  23
ENDBRANCH  13  22
ENDBRANCH  11  13
ENDBRANCH  10  11
ENDBRANCH   9  10
ENDBRANCH   6   9
TORSDOF 7
ENDMDL
MODEL       59
REMARK 921   NORMALIZED FREE ENERGY PREDICTED BY IDOCK:   -5.82 KCAL/MOL
REMARK 922        TOTAL FREE ENERGY PREDICTED BY IDOCK:   -9.32 KCAL/MOL
REMARK 923 INTER-LIGAND FREE ENERGY PREDICTED BY IDOCK:   -7.97 KCAL/MOL
REMARK 924 INTRA-LIGAND FREE ENERGY PREDICTED BY IDOCK:   -1.36 KCAL/MOL
REMARK 927      BINDING AFFINITY PREDICTED BY RF-SCORE:    0.00 PKD
ROOT
HETATM    1 CL   UNL     1     -11.440  14.917  67.924  1.00  0.00    -0.343 Cl 
HETATM    2  C   UNL     1     -11.923  13.664  68.998  1.00  0.00    -0.353 A  
HETATM    3  C   UNL     1     -12.520  13.989  70.214  1.00  0.00    -0.403 A  
HETATM    4  C   UNL     1     -12.841  12.967  71.118  1.00  0.00    -0.245 A  
HETATM    5 CL   UNL     1     -13.581  13.449  72.608  1.00  0.00    -0.635 Cl 
HETATM    6  C   UNL     1     -12.563  11.613  70.834  1.00  0.00    -0.409 A  
HETATM    7  C   UNL     1     -12.016  11.314  69.576  1.00  0.00    -0.421 A  
HETATM    8  C   UNL     1     -11.697  12.333  68.667  1.00  0.00    -0.377 A  
ENDROOT
BRANCH   6   9
HETATM    9  C   UNL     1     -12.737  10.545  71.906  1.00  0.00    -0.332 C  
BRANCH   9  10
HETATM   10  O   UNL     1     -12.944   9.204  71.407  1.00  0.00    -0.323 OA 
BRANCH  10  11
HETATM   11  N   UNL     1     -12.642   8.265  72.423  1.00  0.00    -0.533 NA 
HETATM   12  H   UNL     1     -13.255   8.085  73.218  1.00  0.00     0.000 HD 
BRANCH  11  13
HETATM   13  C   UNL     1     -11.503   7.653  72.244  1.00  0.00    -0.317 C  
BRANCH  13  14
HETATM   14  C   UNL     1     -10.973   7.436  70.843  1.00  0.00    -0.271 A  
HETATM   15 CL   UNL     1      -9.221   9.565  71.070  1.00  0.00    -0.170 Cl 
HETATM   16  C   UNL     1     -11.473   6.357  70.087  1.00  0.00    -0.484 A  
HETATM   17  C   UNL     1      -9.959   8.224  70.265  1.00  0.00    -0.186 A  
HETATM   18  C   UNL     1     -10.951   6.039  68.827  1.00  0.00    -0.384 A  
HETATM   19 CL   UNL     1      -9.256   6.394  66.764  1.00  0.00    -0.145 Cl 
HETATM   20  C   UNL     1      -9.928   6.811  68.291  1.00  0.00    -0.146 A  
HETATM   21  C   UNL     1      -9.443   7.909  68.995  1.00  0.00    -0.151 A  
ENDBRANCH  13  14
BRANCH  13  22
HETATM   22  C   UNL     1     -10.615   7.176  73.391  1.00  0.00    -0.382 C  
BRANCH  22  23
HETATM   23  N   UNL     1     -10.310   5.752  73.359  1.00  0.00    -0.209 NA 
HETATM   24  C   UNL     1      -9.061   5.210  73.221  1.00  0.00    -0.122 A  
HETATM   25  N   UNL     1     -10.590   3.559  73.337  1.00  0.00    -0.177 NA 
HETATM   26  C   UNL     1     -11.198   4.721  73.454  1.00  0.00    -0.343 A  
HETATM   27  C   UNL     1      -9.262   3.850  73.194  1.00  0.00    -0.106 A  
ENDBRANCH  22  23
ENDBRANCH  13  22
ENDBRANCH  11  13
ENDBRANCH  10  11
ENDBRANCH   9  10
ENDBRANCH   6   9
TORSDOF 7
ENDMDL
MODEL       60
REMARK 921   NORMALIZED FREE ENERGY PREDICTED BY IDOCK:   -5.82 KCAL/MOL
REMARK 922        TOTAL FREE ENERGY PREDICTED BY IDOCK:   -9.32 KCAL/MOL
REMARK 923 INTER-LIGAND FREE ENERGY PREDICTED BY IDOCK:   -8.37 KCAL/MOL
REMARK 924 INTRA-LIGAND FREE ENERGY PREDICTED BY IDOCK:   -0.95 KCAL/MOL
REMARK 927      BINDING AFFINITY PREDICTED BY RF-SCORE:    0.00 PKD
ROOT
HETATM    1 CL   UNL     1     -13.816  15.822  72.899  1.00  0.00    -0.641 Cl 
HETATM    2  C   UNL     1     -13.285  14.580  71.836  1.00  0.00    -0.359 A  
HETATM    3  C   UNL     1     -13.464  13.245  72.192  1.00  0.00    -0.655 A  
HETATM    4  C   UNL     1     -12.960  12.237  71.357  1.00  0.00    -0.256 A  
HETATM    5 CL   UNL     1     -13.221  10.602  71.866  1.00  0.00    -0.567 Cl 
HETATM    6  C   UNL     1     -12.264  12.540  70.168  1.00  0.00    -0.307 A  
HETATM    7  C   UNL     1     -12.153  13.893  69.808  1.00  0.00    -0.404 A  
HETATM    8  C   UNL     1     -12.659  14.904  70.638  1.00  0.00    -0.420 A  
ENDROOT
BRANCH   6   9
HETATM    9  C   UNL     1     -11.557  11.443  69.382  1.00  0.00    -0.323 C  
BRANCH   9  10
HETATM   10  O   UNL     1     -11.851  11.415  67.967  1.00  0.00    -0.570 OA 
BRANCH  10  11
HETATM   11  N   UNL     1     -10.977  10.511  67.316  1.00  0.00    -0.285 NA 
HETATM   12  H   UNL     1     -10.724   9.601  67.702  1.00  0.00     0.000 HD 
BRANCH  11  13
HETATM   13  C   UNL     1     -10.526  10.956  66.174  1.00  0.00    -0.229 C  
BRANCH  13  14
HETATM   14  C   UNL     1     -10.650  12.425  65.832  1.00  0.00    -0.289 A  
HETATM   15 CL   UNL     1     -12.893  11.974  64.276  1.00  0.00    -0.356 Cl 
HETATM   16  C   UNL     1      -9.733  13.333  66.395  1.00  0.00    -0.279 A  
HETATM   17  C   UNL     1     -11.674  12.949  65.019  1.00  0.00    -0.344 A  
HETATM   18  C   UNL     1      -9.856  14.715  66.205  1.00  0.00    -0.334 A  
HETATM   19 CL   UNL     1     -11.072  16.911  65.226  1.00  0.00    -0.086 Cl 
HETATM   20  C   UNL     1     -10.893  15.212  65.425  1.00  0.00    -0.381 A  
HETATM   21  C   UNL     1     -11.790  14.337  64.820  1.00  0.00    -0.436 A  
ENDBRANCH  13  14
BRANCH  13  22
HETATM   22  C   UNL     1      -9.809  10.075  65.153  1.00  0.00    -0.318 C  
BRANCH  22  23
HETATM   23  N   UNL     1      -8.503   9.598  65.588  1.00  0.00    -0.127 NA 
HETATM   24  C   UNL     1      -8.278   8.502  66.375  1.00  0.00    -0.108 A  
HETATM   25  N   UNL     1      -6.315   9.497  65.895  1.00  0.00    -0.073 NA 
HETATM   26  C   UNL     1      -7.290  10.152  65.299  1.00  0.00    -0.141 A  
HETATM   27  C   UNL     1      -6.917   8.469  66.565  1.00  0.00    -0.075 A  
ENDBRANCH  22  23
ENDBRANCH  13  22
ENDBRANCH  11  13
ENDBRANCH  10  11
ENDBRANCH   9  10
ENDBRANCH   6   9
TORSDOF 7
ENDMDL
MODEL       61
REMARK 921   NORMALIZED FREE ENERGY PREDICTED BY IDOCK:   -5.81 KCAL/MOL
REMARK 922        TOTAL FREE ENERGY PREDICTED BY IDOCK:   -9.31 KCAL/MOL
REMARK 923 INTER-LIGAND FREE ENERGY PREDICTED BY IDOCK:   -7.89 KCAL/MOL
REMARK 924 INTRA-LIGAND FREE ENERGY PREDICTED BY IDOCK:   -1.42 KCAL/MOL
REMARK 927      BINDING AFFINITY PREDICTED BY RF-SCORE:    0.00 PKD
ROOT
HETATM    1 CL   UNL     1     -12.722  12.041  63.343  1.00  0.00    -0.651 Cl 
HETATM    2  C   UNL     1     -11.685  12.108  64.712  1.00  0.00    -0.327 A  
HETATM    3  C   UNL     1     -12.092  12.795  65.854  1.00  0.00    -0.485 A  
HETATM    4  C   UNL     1     -11.211  12.912  66.937  1.00  0.00    -0.291 A  
HETATM    5 CL   UNL     1     -11.789  13.779  68.321  1.00  0.00    -0.398 Cl 
HETATM    6  C   UNL     1      -9.913  12.361  66.899  1.00  0.00    -0.223 A  
HETATM    7  C   UNL     1      -9.555  11.625  65.758  1.00  0.00    -0.255 A  
HETATM    8  C   UNL     1     -10.434  11.502  64.673  1.00  0.00    -0.356 A  
ENDROOT
BRANCH   6   9
HETATM    9  C   UNL     1      -8.907  12.668  68.001  1.00  0.00    -0.195 C  
BRANCH   9  10
HETATM   10  O   UNL     1      -7.918  11.640  68.233  1.00  0.00    -0.128 OA 
BRANCH  10  11
HETATM   11  N   UNL     1      -8.143  11.036  69.494  1.00  0.00    -0.373 NA 
HETATM   12  H   UNL     1      -7.869  11.466  70.377  1.00  0.00     0.000 HD 
BRANCH  11  13
HETATM   13  C   UNL     1      -8.736   9.875  69.416  1.00  0.00    -0.179 C  
BRANCH  13  14
HETATM   14  C   UNL     1     -10.011   9.623  70.192  1.00  0.00    -0.309 A  
HETATM   15 CL   UNL     1      -8.681   8.087  72.070  1.00  0.00    -0.176 Cl 
HETATM   16  C   UNL     1     -11.206  10.222  69.746  1.00  0.00    -0.339 A  
HETATM   17  C   UNL     1     -10.062   8.863  71.376  1.00  0.00    -0.309 A  
HETATM   18  C   UNL     1     -12.396  10.116  70.477  1.00  0.00    -0.330 A  
HETATM   19 CL   UNL     1     -13.866   9.294  72.579  1.00  0.00    -0.496 Cl 
HETATM   20  C   UNL     1     -12.416   9.388  71.659  1.00  0.00    -0.378 A  
HETATM   21  C   UNL     1     -11.262   8.749  72.103  1.00  0.00    -0.408 A  
ENDBRANCH  13  14
BRANCH  13  22
HETATM   22  C   UNL     1      -8.244   8.738  68.523  1.00  0.00    -0.117 C  
BRANCH  22  23
HETATM   23  N   UNL     1      -9.298   7.850  68.051  1.00  0.00    -0.145 NA 
HETATM   24  C   UNL     1      -9.565   6.602  68.546  1.00  0.00    -0.125 A  
HETATM   25  N   UNL     1     -10.972   7.055  66.845  1.00  0.00    -0.324 NA 
HETATM   26  C   UNL     1     -10.187   8.092  67.046  1.00  0.00    -0.308 A  
HETATM   27  C   UNL     1     -10.596   6.123  67.772  1.00  0.00    -0.269 A  
ENDBRANCH  22  23
ENDBRANCH  13  22
ENDBRANCH  11  13
ENDBRANCH  10  11
ENDBRANCH   9  10
ENDBRANCH   6   9
TORSDOF 7
ENDMDL
MODEL       62
REMARK 921   NORMALIZED FREE ENERGY PREDICTED BY IDOCK:   -5.80 KCAL/MOL
REMARK 922        TOTAL FREE ENERGY PREDICTED BY IDOCK:   -9.30 KCAL/MOL
REMARK 923 INTER-LIGAND FREE ENERGY PREDICTED BY IDOCK:   -6.73 KCAL/MOL
REMARK 924 INTRA-LIGAND FREE ENERGY PREDICTED BY IDOCK:   -2.56 KCAL/MOL
REMARK 927      BINDING AFFINITY PREDICTED BY RF-SCORE:    0.00 PKD
ROOT
HETATM    1 CL   UNL     1     -10.156   4.812  70.750  1.00  0.00    -0.300 Cl 
HETATM    2  C   UNL     1      -9.974   5.757  69.325  1.00  0.00    -0.182 A  
HETATM    3  C   UNL     1      -8.698   6.079  68.869  1.00  0.00    -0.122 A  
HETATM    4  C   UNL     1      -8.557   6.913  67.751  1.00  0.00    -0.122 A  
HETATM    5 CL   UNL     1      -6.940   7.268  67.243  1.00  0.00    -0.076 Cl 
HETATM    6  C   UNL     1      -9.677   7.447  67.080  1.00  0.00    -0.248 A  
HETATM    7  C   UNL     1     -10.949   7.056  67.529  1.00  0.00    -0.299 A  
HETATM    8  C   UNL     1     -11.095   6.219  68.644  1.00  0.00    -0.409 A  
ENDROOT
BRANCH   6   9
HETATM    9  C   UNL     1      -9.501   8.504  65.996  1.00  0.00    -0.186 C  
BRANCH   9  10
HETATM   10  O   UNL     1     -10.072   9.796  66.301  1.00  0.00    -0.244 OA 
BRANCH  10  11
HETATM   11  N   UNL     1      -9.111  10.599  66.962  1.00  0.00    -0.144 NA 
HETATM   12  H   UNL     1      -8.165  10.742  66.609  1.00  0.00     0.000 HD 
BRANCH  11  13
HETATM   13  C   UNL     1      -9.553  11.137  68.067  1.00  0.00    -0.176 C  
BRANCH  13  14
HETATM   14  C   UNL     1      -9.911  10.258  69.246  1.00  0.00    -0.244 A  
HETATM   15 CL   UNL     1      -7.250   9.713  69.772  1.00  0.00    -0.080 Cl 
HETATM   16  C   UNL     1     -11.267  10.114  69.598  1.00  0.00    -0.310 A  
HETATM   17  C   UNL     1      -8.953   9.614  70.053  1.00  0.00    -0.237 A  
HETATM   18  C   UNL     1     -11.657   9.402  70.740  1.00  0.00    -0.364 A  
HETATM   19 CL   UNL     1     -11.167   7.965  72.965  1.00  0.00    -0.437 Cl 
HETATM   20  C   UNL     1     -10.693   8.802  71.539  1.00  0.00    -0.301 A  
HETATM   21  C   UNL     1      -9.348   8.890  71.193  1.00  0.00    -0.326 A  
ENDBRANCH  13  14
BRANCH  13  22
HETATM   22  C   UNL     1      -9.685  12.644  68.273  1.00  0.00    -0.216 C  
BRANCH  22  23
HETATM   23  N   UNL     1     -10.561  13.305  67.315  1.00  0.00    -0.247 NA 
HETATM   24  C   UNL     1     -11.902  13.074  67.173  1.00  0.00    -0.373 A  
HETATM   25  N   UNL     1     -11.236  14.599  65.654  1.00  0.00    -0.335 NA 
HETATM   26  C   UNL     1     -10.208  14.251  66.398  1.00  0.00    -0.291 A  
HETATM   27  C   UNL     1     -12.295  13.875  66.128  1.00  0.00    -0.465 A  
ENDBRANCH  22  23
ENDBRANCH  13  22
ENDBRANCH  11  13
ENDBRANCH  10  11
ENDBRANCH   9  10
ENDBRANCH   6   9
TORSDOF 7
ENDMDL
MODEL       63
REMARK 921   NORMALIZED FREE ENERGY PREDICTED BY IDOCK:   -5.80 KCAL/MOL
REMARK 922        TOTAL FREE ENERGY PREDICTED BY IDOCK:   -9.29 KCAL/MOL
REMARK 923 INTER-LIGAND FREE ENERGY PREDICTED BY IDOCK:   -7.97 KCAL/MOL
REMARK 924 INTRA-LIGAND FREE ENERGY PREDICTED BY IDOCK:   -1.31 KCAL/MOL
REMARK 927      BINDING AFFINITY PREDICTED BY RF-SCORE:    0.00 PKD
ROOT
HETATM    1 CL   UNL     1     -10.907   7.420  67.019  1.00  0.00    -0.402 Cl 
HETATM    2  C   UNL     1     -10.170   8.937  67.349  1.00  0.00    -0.249 A  
HETATM    3  C   UNL     1      -9.019   9.310  66.659  1.00  0.00    -0.165 A  
HETATM    4  C   UNL     1      -8.379  10.513  66.987  1.00  0.00    -0.128 A  
HETATM    5 CL   UNL     1      -6.954  10.909  66.085  1.00  0.00    -0.126 Cl 
HETATM    6  C   UNL     1      -8.864  11.355  68.010  1.00  0.00    -0.155 A  
HETATM    7  C   UNL     1     -10.059  10.979  68.646  1.00  0.00    -0.207 A  
HETATM    8  C   UNL     1     -10.704   9.779  68.318  1.00  0.00    -0.277 A  
ENDROOT
BRANCH   6   9
HETATM    9  C   UNL     1      -8.049  12.552  68.482  1.00  0.00    -0.089 C  
BRANCH   9  10
HETATM   10  O   UNL     1      -8.554  13.841  68.066  1.00  0.00    -0.157 OA 
BRANCH  10  11
HETATM   11  N   UNL     1      -9.400  14.368  69.071  1.00  0.00    -0.390 NA 
HETATM   12  H   UNL     1      -9.196  14.299  70.068  1.00  0.00     0.000 HD 
BRANCH  11  13
HETATM   13  C   UNL     1     -10.469  14.951  68.598  1.00  0.00    -0.242 C  
BRANCH  13  14
HETATM   14  C   UNL     1     -10.967  14.607  67.211  1.00  0.00    -0.317 A  
HETATM   15 CL   UNL     1      -9.375  16.550  66.050  1.00  0.00    -0.326 Cl 
HETATM   16  C   UNL     1     -11.885  13.549  67.063  1.00  0.00    -0.447 A  
HETATM   17  C   UNL     1     -10.519  15.253  66.042  1.00  0.00    -0.317 A  
HETATM   18  C   UNL     1     -12.303  13.111  65.799  1.00  0.00    -0.496 A  
HETATM   19 CL   UNL     1     -12.301  13.178  63.107  1.00  0.00    -0.426 Cl 
HETATM   20  C   UNL     1     -11.823  13.743  64.659  1.00  0.00    -0.402 A  
HETATM   21  C   UNL     1     -10.949  14.819  64.775  1.00  0.00    -0.393 A  
ENDBRANCH  13  14
BRANCH  13  22
HETATM   22  C   UNL     1     -11.307  15.947  69.397  1.00  0.00    -0.349 C  
BRANCH  22  23
HETATM   23  N   UNL     1     -11.883  15.399  70.618  1.00  0.00    -0.317 NA 
HETATM   24  C   UNL     1     -11.939  16.038  71.827  1.00  0.00    -0.517 A  
HETATM   25  N   UNL     1     -12.827  13.977  72.023  1.00  0.00    -0.336 NA 
HETATM   26  C   UNL     1     -12.454  14.170  70.776  1.00  0.00    -0.366 A  
HETATM   27  C   UNL     1     -12.513  15.131  72.685  1.00  0.00    -0.376 A  
ENDBRANCH  22  23
ENDBRANCH  13  22
ENDBRANCH  11  13
ENDBRANCH  10  11
ENDBRANCH   9  10
ENDBRANCH   6   9
TORSDOF 7
ENDMDL
MODEL       64
REMARK 921   NORMALIZED FREE ENERGY PREDICTED BY IDOCK:   -5.79 KCAL/MOL
REMARK 922        TOTAL FREE ENERGY PREDICTED BY IDOCK:   -9.27 KCAL/MOL
REMARK 923 INTER-LIGAND FREE ENERGY PREDICTED BY IDOCK:   -8.16 KCAL/MOL
REMARK 924 INTRA-LIGAND FREE ENERGY PREDICTED BY IDOCK:   -1.11 KCAL/MOL
REMARK 927      BINDING AFFINITY PREDICTED BY RF-SCORE:    0.00 PKD
ROOT
HETATM    1 CL   UNL     1      -9.154   6.687  72.801  1.00  0.00    -0.142 Cl 
HETATM    2  C   UNL     1     -10.040   7.979  72.091  1.00  0.00    -0.234 A  
HETATM    3  C   UNL     1     -11.378   8.165  72.428  1.00  0.00    -0.456 A  
HETATM    4  C   UNL     1     -12.115   9.171  71.789  1.00  0.00    -0.376 A  
HETATM    5 CL   UNL     1     -13.773   9.343  72.262  1.00  0.00    -0.510 Cl 
HETATM    6  C   UNL     1     -11.539   9.996  70.799  1.00  0.00    -0.444 A  
HETATM    7  C   UNL     1     -10.173   9.821  70.524  1.00  0.00    -0.321 A  
HETATM    8  C   UNL     1      -9.431   8.818  71.165  1.00  0.00    -0.306 A  
ENDROOT
BRANCH   6   9
HETATM    9  C   UNL     1     -12.405  10.945  69.980  1.00  0.00    -0.313 C  
BRANCH   9  10
HETATM   10  O   UNL     1     -11.940  12.313  69.934  1.00  0.00    -0.324 OA 
BRANCH  10  11
HETATM   11  N   UNL     1     -12.094  12.825  68.622  1.00  0.00    -0.210 NA 
HETATM   12  H   UNL     1     -12.999  13.069  68.220  1.00  0.00     0.000 HD 
BRANCH  11  13
HETATM   13  C   UNL     1     -10.965  12.952  67.978  1.00  0.00    -0.247 C  
BRANCH  13  14
HETATM   14  C   UNL     1     -10.753  12.219  66.671  1.00  0.00    -0.276 A  
HETATM   15 CL   UNL     1     -12.577  13.832  65.356  1.00  0.00    -0.525 Cl 
HETATM   16  C   UNL     1      -9.808  11.176  66.625  1.00  0.00    -0.231 A  
HETATM   17  C   UNL     1     -11.412  12.560  65.474  1.00  0.00    -0.350 A  
HETATM   18  C   UNL     1      -9.488  10.529  65.424  1.00  0.00    -0.273 A  
HETATM   19 CL   UNL     1      -9.703  10.140  62.767  1.00  0.00    -0.218 Cl 
HETATM   20  C   UNL     1     -10.127  10.903  64.249  1.00  0.00    -0.351 A  
HETATM   21  C   UNL     1     -11.096  11.902  64.271  1.00  0.00    -0.418 A  
ENDBRANCH  13  14
BRANCH  13  22
HETATM   22  C   UNL     1      -9.832  13.865  68.442  1.00  0.00    -0.229 C  
BRANCH  22  23
HETATM   23  N   UNL     1     -10.094  15.285  68.256  1.00  0.00    -0.223 NA 
HETATM   24  C   UNL     1     -10.352  16.183  69.257  1.00  0.00    -0.265 A  
HETATM   25  N   UNL     1     -10.449  17.229  67.263  1.00  0.00    -0.335 NA 
HETATM   26  C   UNL     1     -10.135  15.965  67.074  1.00  0.00    -0.268 A  
HETATM   27  C   UNL     1     -10.585  17.377  68.616  1.00  0.00    -0.318 A  
ENDBRANCH  22  23
ENDBRANCH  13  22
ENDBRANCH  11  13
ENDBRANCH  10  11
ENDBRANCH   9  10
ENDBRANCH   6   9
TORSDOF 7
ENDMDL
MODEL       65
REMARK 921   NORMALIZED FREE ENERGY PREDICTED BY IDOCK:   -5.77 KCAL/MOL
REMARK 922        TOTAL FREE ENERGY PREDICTED BY IDOCK:   -9.25 KCAL/MOL
REMARK 923 INTER-LIGAND FREE ENERGY PREDICTED BY IDOCK:   -8.94 KCAL/MOL
REMARK 924 INTRA-LIGAND FREE ENERGY PREDICTED BY IDOCK:   -0.31 KCAL/MOL
REMARK 927      BINDING AFFINITY PREDICTED BY RF-SCORE:    0.00 PKD
ROOT
HETATM    1 CL   UNL     1      -9.595   3.524  67.253  1.00  0.00    -0.226 Cl 
HETATM    2  C   UNL     1      -9.811   5.169  67.702  1.00  0.00    -0.160 A  
HETATM    3  C   UNL     1      -9.528   5.572  69.005  1.00  0.00    -0.167 A  
HETATM    4  C   UNL     1      -9.778   6.897  69.386  1.00  0.00    -0.157 A  
HETATM    5 CL   UNL     1      -9.401   7.323  71.022  1.00  0.00    -0.158 Cl 
HETATM    6  C   UNL     1     -10.324   7.836  68.484  1.00  0.00    -0.226 A  
HETATM    7  C   UNL     1     -10.542   7.414  67.163  1.00  0.00    -0.413 A  
HETATM    8  C   UNL     1     -10.289   6.090  66.776  1.00  0.00    -0.296 A  
ENDROOT
BRANCH   6   9
HETATM    9  C   UNL     1     -10.770   9.209  68.970  1.00  0.00    -0.153 C  
BRANCH   9  10
HETATM   10  O   UNL     1     -10.952  10.198  67.931  1.00  0.00    -0.272 OA 
BRANCH  10  11
HETATM   11  N   UNL     1     -11.989  11.089  68.298  1.00  0.00    -0.757 NA 
HETATM   12  H   UNL     1     -12.931  10.782  68.541  1.00  0.00     0.000 HD 
BRANCH  11  13
HETATM   13  C   UNL     1     -11.623  12.343  68.294  1.00  0.00    -0.333 C  
BRANCH  13  14
HETATM   14  C   UNL     1     -11.976  13.238  69.462  1.00  0.00    -0.366 A  
HETATM   15 CL   UNL     1     -12.566  11.067  71.073  1.00  0.00    -0.485 Cl 
HETATM   16  C   UNL     1     -11.842  14.632  69.314  1.00  0.00    -0.357 A  
HETATM   17  C   UNL     1     -12.381  12.750  70.720  1.00  0.00    -0.287 A  
HETATM   18  C   UNL     1     -12.049  15.508  70.387  1.00  0.00    -0.426 A  
HETATM   19 CL   UNL     1     -12.629  16.072  72.957  1.00  0.00    -0.558 Cl 
HETATM   20  C   UNL     1     -12.417  15.002  71.627  1.00  0.00    -0.339 A  
HETATM   21  C   UNL     1     -12.599  13.632  71.794  1.00  0.00    -0.294 A  
ENDBRANCH  13  14
BRANCH  13  22
HETATM   22  C   UNL     1     -10.789  12.972  67.180  1.00  0.00    -0.260 C  
BRANCH  22  23
HETATM   23  N   UNL     1     -11.347  12.801  65.846  1.00  0.00    -0.310 NA 
HETATM   24  C   UNL     1     -10.763  12.106  64.822  1.00  0.00    -0.301 A  
HETATM   25  N   UNL     1     -12.706  12.999  64.112  1.00  0.00    -0.679 NA 
HETATM   26  C   UNL     1     -12.530  13.299  65.381  1.00  0.00    -0.489 A  
HETATM   27  C   UNL     1     -11.615  12.257  63.753  1.00  0.00    -0.471 A  
ENDBRANCH  22  23
ENDBRANCH  13  22
ENDBRANCH  11  13
ENDBRANCH  10  11
ENDBRANCH   9  10
ENDBRANCH   6   9
TORSDOF 7
ENDMDL
MODEL       66
REMARK 921   NORMALIZED FREE ENERGY PREDICTED BY IDOCK:   -5.75 KCAL/MOL
REMARK 922        TOTAL FREE ENERGY PREDICTED BY IDOCK:   -9.22 KCAL/MOL
REMARK 923 INTER-LIGAND FREE ENERGY PREDICTED BY IDOCK:   -8.38 KCAL/MOL
REMARK 924 INTRA-LIGAND FREE ENERGY PREDICTED BY IDOCK:   -0.84 KCAL/MOL
REMARK 927      BINDING AFFINITY PREDICTED BY RF-SCORE:    0.00 PKD
ROOT
HETATM    1 CL   UNL     1      -8.422  20.738  67.219  1.00  0.00    -0.314 Cl 
HETATM    2  C   UNL     1      -8.931  19.195  67.780  1.00  0.00    -0.296 A  
HETATM    3  C   UNL     1      -8.001  18.326  68.347  1.00  0.00    -0.320 A  
HETATM    4  C   UNL     1      -8.406  17.041  68.733  1.00  0.00    -0.237 A  
HETATM    5 CL   UNL     1      -7.194  16.019  69.431  1.00  0.00    -0.221 Cl 
HETATM    6  C   UNL     1      -9.732  16.596  68.549  1.00  0.00    -0.244 A  
HETATM    7  C   UNL     1     -10.658  17.515  68.029  1.00  0.00    -0.384 A  
HETATM    8  C   UNL     1     -10.258  18.804  67.646  1.00  0.00    -0.450 A  
ENDROOT
BRANCH   6   9
HETATM    9  C   UNL     1     -10.102  15.138  68.790  1.00  0.00    -0.226 C  
BRANCH   9  10
HETATM   10  O   UNL     1      -9.621  14.210  67.791  1.00  0.00    -0.209 OA 
BRANCH  10  11
HETATM   11  N   UNL     1      -9.276  12.983  68.407  1.00  0.00    -0.320 NA 
HETATM   12  H   UNL     1      -8.509  12.886  69.072  1.00  0.00     0.000 HD 
BRANCH  11  13
HETATM   13  C   UNL     1     -10.038  11.986  68.042  1.00  0.00    -0.198 C  
BRANCH  13  14
HETATM   14  C   UNL     1     -10.844  11.231  69.076  1.00  0.00    -0.268 A  
HETATM   15 CL   UNL     1      -9.273   8.971  68.795  1.00  0.00    -0.133 Cl 
HETATM   16  C   UNL     1     -11.905  11.893  69.725  1.00  0.00    -0.411 A  
HETATM   17  C   UNL     1     -10.557   9.910  69.472  1.00  0.00    -0.242 A  
HETATM   18  C   UNL     1     -12.621  11.287  70.766  1.00  0.00    -0.425 A  
HETATM   19 CL   UNL     1     -13.149   9.267  72.467  1.00  0.00    -0.465 Cl 
HETATM   20  C   UNL     1     -12.300   9.995  71.161  1.00  0.00    -0.377 A  
HETATM   21  C   UNL     1     -11.285   9.300  70.510  1.00  0.00    -0.315 A  
ENDBRANCH  13  14
BRANCH  13  22
HETATM   22  C   UNL     1     -10.217  11.555  66.588  1.00  0.00    -0.219 C  
BRANCH  22  23
HETATM   23  N   UNL     1     -11.092  12.422  65.811  1.00  0.00    -0.303 NA 
HETATM   24  C   UNL     1     -10.854  12.853  64.534  1.00  0.00    -0.363 A  
HETATM   25  N   UNL     1     -12.787  13.739  65.278  1.00  0.00    -0.737 NA 
HETATM   26  C   UNL     1     -12.281  12.958  66.210  1.00  0.00    -0.270 A  
HETATM   27  C   UNL     1     -11.910  13.680  64.231  1.00  0.00    -0.425 A  
ENDBRANCH  22  23
ENDBRANCH  13  22
ENDBRANCH  11  13
ENDBRANCH  10  11
ENDBRANCH   9  10
ENDBRANCH   6   9
TORSDOF 7
ENDMDL
MODEL       67
REMARK 921   NORMALIZED FREE ENERGY PREDICTED BY IDOCK:   -5.74 KCAL/MOL
REMARK 922        TOTAL FREE ENERGY PREDICTED BY IDOCK:   -9.21 KCAL/MOL
REMARK 923 INTER-LIGAND FREE ENERGY PREDICTED BY IDOCK:   -8.40 KCAL/MOL
REMARK 924 INTRA-LIGAND FREE ENERGY PREDICTED BY IDOCK:   -0.81 KCAL/MOL
REMARK 927      BINDING AFFINITY PREDICTED BY RF-SCORE:    0.00 PKD
ROOT
HETATM    1 CL   UNL     1     -10.472   5.608  67.546  1.00  0.00    -0.278 Cl 
HETATM    2  C   UNL     1     -10.516   7.260  68.020  1.00  0.00    -0.197 A  
HETATM    3  C   UNL     1     -10.586   7.589  69.371  1.00  0.00    -0.225 A  
HETATM    4  C   UNL     1     -10.699   8.934  69.747  1.00  0.00    -0.225 A  
HETATM    5 CL   UNL     1     -10.781   9.265  71.446  1.00  0.00    -0.414 Cl 
HETATM    6  C   UNL     1     -10.757   9.969  68.789  1.00  0.00    -0.250 A  
HETATM    7  C   UNL     1     -10.625   9.609  67.438  1.00  0.00    -0.333 A  
HETATM    8  C   UNL     1     -10.507   8.264  67.058  1.00  0.00    -0.384 A  
ENDROOT
BRANCH   6   9
HETATM    9  C   UNL     1     -11.078  11.398  69.209  1.00  0.00    -0.254 C  
BRANCH   9  10
HETATM   10  O   UNL     1     -11.616  12.238  68.163  1.00  0.00    -0.297 OA 
BRANCH  10  11
HETATM   11  N   UNL     1     -10.705  13.284  67.876  1.00  0.00    -0.235 NA 
HETATM   12  H   UNL     1      -9.726  13.267  68.160  1.00  0.00     0.000 HD 
BRANCH  11  13
HETATM   13  C   UNL     1     -11.242  14.272  67.211  1.00  0.00    -0.318 C  
BRANCH  13  14
HETATM   14  C   UNL     1     -10.760  15.688  67.441  1.00  0.00    -0.309 A  
HETATM   15 CL   UNL     1     -11.878  15.763  69.971  1.00  0.00    -0.363 Cl 
HETATM   16  C   UNL     1      -9.996  16.316  66.438  1.00  0.00    -0.315 A  
HETATM   17  C   UNL     1     -10.985  16.401  68.635  1.00  0.00    -0.345 A  
HETATM   18  C   UNL     1      -9.431  17.583  66.631  1.00  0.00    -0.285 A  
HETATM   19 CL   UNL     1      -8.910  19.791  68.084  1.00  0.00    -0.364 Cl 
HETATM   20  C   UNL     1      -9.640  18.255  67.829  1.00  0.00    -0.283 A  
HETATM   21  C   UNL     1     -10.426  17.679  68.822  1.00  0.00    -0.287 A  
ENDBRANCH  13  14
BRANCH  13  22
HETATM   22  C   UNL     1     -12.317  14.082  66.144  1.00  0.00    -0.458 C  
BRANCH  22  23
HETATM   23  N   UNL     1     -11.886  13.301  64.993  1.00  0.00    -0.335 NA 
HETATM   24  C   UNL     1     -12.655  12.395  64.313  1.00  0.00    -0.401 A  
HETATM   25  N   UNL     1     -10.590  12.455  63.413  1.00  0.00    -0.411 NA 
HETATM   26  C   UNL     1     -10.658  13.325  64.399  1.00  0.00    -0.419 A  
HETATM   27  C   UNL     1     -11.825  11.873  63.349  1.00  0.00    -0.413 A  
ENDBRANCH  22  23
ENDBRANCH  13  22
ENDBRANCH  11  13
ENDBRANCH  10  11
ENDBRANCH   9  10
ENDBRANCH   6   9
TORSDOF 7
ENDMDL
MODEL       68
REMARK 921   NORMALIZED FREE ENERGY PREDICTED BY IDOCK:   -5.72 KCAL/MOL
REMARK 922        TOTAL FREE ENERGY PREDICTED BY IDOCK:   -9.19 KCAL/MOL
REMARK 923 INTER-LIGAND FREE ENERGY PREDICTED BY IDOCK:   -8.08 KCAL/MOL
REMARK 924 INTRA-LIGAND FREE ENERGY PREDICTED BY IDOCK:   -1.11 KCAL/MOL
REMARK 927      BINDING AFFINITY PREDICTED BY RF-SCORE:    0.00 PKD
ROOT
HETATM    1 CL   UNL     1      -9.511   5.198  72.765  1.00  0.00    -0.155 Cl 
HETATM    2  C   UNL     1     -10.539   6.519  72.373  1.00  0.00    -0.215 A  
HETATM    3  C   UNL     1     -11.900   6.299  72.172  1.00  0.00    -0.365 A  
HETATM    4  C   UNL     1     -12.719   7.366  71.778  1.00  0.00    -0.334 A  
HETATM    5 CL   UNL     1     -14.399   7.015  71.549  1.00  0.00    -0.481 Cl 
HETATM    6  C   UNL     1     -12.198   8.660  71.565  1.00  0.00    -0.368 A  
HETATM    7  C   UNL     1     -10.834   8.862  71.833  1.00  0.00    -0.433 A  
HETATM    8  C   UNL     1     -10.012   7.798  72.232  1.00  0.00    -0.259 A  
ENDROOT
BRANCH   6   9
HETATM    9  C   UNL     1     -13.062   9.753  70.949  1.00  0.00    -0.218 C  
BRANCH   9  10
HETATM   10  O   UNL     1     -12.333  10.825  70.311  1.00  0.00    -0.308 OA 
BRANCH  10  11
HETATM   11  N   UNL     1     -12.490  10.739  68.907  1.00  0.00    -0.731 NA 
HETATM   12  H   UNL     1     -13.329  10.371  68.459  1.00  0.00     0.000 HD 
BRANCH  11  13
HETATM   13  C   UNL     1     -11.455  11.178  68.240  1.00  0.00    -0.303 C  
BRANCH  13  14
HETATM   14  C   UNL     1     -11.610  12.338  67.281  1.00  0.00    -0.427 A  
HETATM   15 CL   UNL     1     -11.741  14.164  69.355  1.00  0.00    -0.337 Cl 
HETATM   16  C   UNL     1     -11.584  12.081  65.896  1.00  0.00    -0.364 A  
HETATM   17  C   UNL     1     -11.723  13.679  67.696  1.00  0.00    -0.363 A  
HETATM   18  C   UNL     1     -11.616  13.119  64.956  1.00  0.00    -0.354 A  
HETATM   19 CL   UNL     1     -11.689  15.714  64.237  1.00  0.00    -0.294 Cl 
HETATM   20  C   UNL     1     -11.695  14.436  65.389  1.00  0.00    -0.362 A  
HETATM   21  C   UNL     1     -11.765  14.719  66.750  1.00  0.00    -0.309 A  
ENDBRANCH  13  14
BRANCH  13  22
HETATM   22  C   UNL     1     -10.046  10.616  68.412  1.00  0.00    -0.166 C  
BRANCH  22  23
HETATM   23  N   UNL     1      -9.896   9.233  67.983  1.00  0.00    -0.157 NA 
HETATM   24  C   UNL     1      -9.173   8.271  68.635  1.00  0.00    -0.143 A  
HETATM   25  N   UNL     1     -10.058   7.401  66.754  1.00  0.00    -0.243 NA 
HETATM   26  C   UNL     1     -10.435   8.657  66.869  1.00  0.00    -0.258 A  
HETATM   27  C   UNL     1      -9.275   7.150  67.846  1.00  0.00    -0.129 A  
ENDBRANCH  22  23
ENDBRANCH  13  22
ENDBRANCH  11  13
ENDBRANCH  10  11
ENDBRANCH   9  10
ENDBRANCH   6   9
TORSDOF 7
ENDMDL
MODEL       69
REMARK 921   NORMALIZED FREE ENERGY PREDICTED BY IDOCK:   -5.72 KCAL/MOL
REMARK 922        TOTAL FREE ENERGY PREDICTED BY IDOCK:   -9.18 KCAL/MOL
REMARK 923 INTER-LIGAND FREE ENERGY PREDICTED BY IDOCK:   -8.33 KCAL/MOL
REMARK 924 INTRA-LIGAND FREE ENERGY PREDICTED BY IDOCK:   -0.85 KCAL/MOL
REMARK 927      BINDING AFFINITY PREDICTED BY RF-SCORE:    0.00 PKD
ROOT
HETATM    1 CL   UNL     1      -8.863   6.831  72.734  1.00  0.00    -0.129 Cl 
HETATM    2  C   UNL     1      -9.825   8.064  72.019  1.00  0.00    -0.211 A  
HETATM    3  C   UNL     1     -11.140   8.246  72.441  1.00  0.00    -0.447 A  
HETATM    4  C   UNL     1     -11.942   9.201  71.802  1.00  0.00    -0.379 A  
HETATM    5 CL   UNL     1     -13.565   9.369  72.383  1.00  0.00    -0.520 Cl 
HETATM    6  C   UNL     1     -11.456   9.979  70.730  1.00  0.00    -0.438 A  
HETATM    7  C   UNL     1     -10.109   9.813  70.368  1.00  0.00    -0.313 A  
HETATM    8  C   UNL     1      -9.301   8.862  71.008  1.00  0.00    -0.313 A  
ENDROOT
BRANCH   6   9
HETATM    9  C   UNL     1     -12.398  10.865  69.925  1.00  0.00    -0.285 C  
BRANCH   9  10
HETATM   10  O   UNL     1     -11.749  11.857  69.098  1.00  0.00    -0.273 OA 
BRANCH  10  11
HETATM   11  N   UNL     1     -11.838  11.476  67.737  1.00  0.00    -0.626 NA 
HETATM   12  H   UNL     1     -12.119  10.544  67.435  1.00  0.00     0.000 HD 
BRANCH  11  13
HETATM   13  C   UNL     1     -11.524  12.435  66.907  1.00  0.00    -0.360 C  
BRANCH  13  14
HETATM   14  C   UNL     1     -10.747  13.637  67.399  1.00  0.00    -0.272 A  
HETATM   15 CL   UNL     1      -8.377  12.210  67.446  1.00  0.00    -0.165 Cl 
HETATM   16  C   UNL     1     -11.426  14.858  67.574  1.00  0.00    -0.361 A  
HETATM   17  C   UNL     1      -9.360  13.619  67.641  1.00  0.00    -0.215 A  
HETATM   18  C   UNL     1     -10.747  16.032  67.923  1.00  0.00    -0.316 A  
HETATM   19 CL   UNL     1      -8.531  17.448  68.512  1.00  0.00    -0.269 Cl 
HETATM   20  C   UNL     1      -9.373  15.998  68.126  1.00  0.00    -0.200 A  
HETATM   21  C   UNL     1      -8.681  14.797  68.002  1.00  0.00    -0.168 A  
ENDBRANCH  13  14
BRANCH  13  22
HETATM   22  C   UNL     1     -11.850  12.395  65.416  1.00  0.00    -0.406 C  
BRANCH  22  23
HETATM   23  N   UNL     1     -10.858  11.704  64.605  1.00  0.00    -0.307 NA 
HETATM   24  C   UNL     1     -10.393  12.124  63.388  1.00  0.00    -0.402 A  
HETATM   25  N   UNL     1      -9.426  10.161  63.926  1.00  0.00    -0.286 NA 
HETATM   26  C   UNL     1     -10.227  10.531  64.902  1.00  0.00    -0.300 A  
HETATM   27  C   UNL     1      -9.520  11.144  62.980  1.00  0.00    -0.369 A  
ENDBRANCH  22  23
ENDBRANCH  13  22
ENDBRANCH  11  13
ENDBRANCH  10  11
ENDBRANCH   9  10
ENDBRANCH   6   9
TORSDOF 7
ENDMDL
MODEL       70
REMARK 921   NORMALIZED FREE ENERGY PREDICTED BY IDOCK:   -5.69 KCAL/MOL
REMARK 922        TOTAL FREE ENERGY PREDICTED BY IDOCK:   -9.13 KCAL/MOL
REMARK 923 INTER-LIGAND FREE ENERGY PREDICTED BY IDOCK:   -8.12 KCAL/MOL
REMARK 924 INTRA-LIGAND FREE ENERGY PREDICTED BY IDOCK:   -1.01 KCAL/MOL
REMARK 927      BINDING AFFINITY PREDICTED BY RF-SCORE:    0.00 PKD
ROOT
HETATM    1 CL   UNL     1     -11.161   6.483  67.019  1.00  0.00    -0.476 Cl 
HETATM    2  C   UNL     1     -10.393   7.989  67.333  1.00  0.00    -0.284 A  
HETATM    3  C   UNL     1      -9.554   8.549  66.373  1.00  0.00    -0.314 A  
HETATM    4  C   UNL     1      -8.871   9.738  66.666  1.00  0.00    -0.138 A  
HETATM    5 CL   UNL     1      -7.847  10.374  65.423  1.00  0.00    -0.149 Cl 
HETATM    6  C   UNL     1      -9.002  10.378  67.917  1.00  0.00    -0.128 A  
HETATM    7  C   UNL     1      -9.900   9.819  68.840  1.00  0.00    -0.177 A  
HETATM    8  C   UNL     1     -10.588   8.633  68.550  1.00  0.00    -0.162 A  
ENDROOT
BRANCH   6   9
HETATM    9  C   UNL     1      -8.104  11.553  68.284  1.00  0.00    -0.148 C  
BRANCH   9  10
HETATM   10  O   UNL     1      -8.545  12.839  67.792  1.00  0.00    -0.161 OA 
BRANCH  10  11
HETATM   11  N   UNL     1      -9.520  13.375  68.666  1.00  0.00    -0.392 NA 
HETATM   12  H   UNL     1      -9.426  13.368  69.682  1.00  0.00     0.000 HD 
BRANCH  11  13
HETATM   13  C   UNL     1     -10.553  13.881  68.046  1.00  0.00    -0.248 C  
BRANCH  13  14
HETATM   14  C   UNL     1     -10.615  15.367  67.766  1.00  0.00    -0.274 A  
HETATM   15 CL   UNL     1     -11.100  15.948  70.427  1.00  0.00    -0.356 Cl 
HETATM   16  C   UNL     1     -10.387  15.819  66.452  1.00  0.00    -0.306 A  
HETATM   17  C   UNL     1     -10.833  16.337  68.764  1.00  0.00    -0.317 A  
HETATM   18  C   UNL     1     -10.325  17.185  66.146  1.00  0.00    -0.327 A  
HETATM   19 CL   UNL     1     -10.392  19.801  66.787  1.00  0.00    -0.565 Cl 
HETATM   20  C   UNL     1     -10.512  18.125  67.152  1.00  0.00    -0.378 A  
HETATM   21  C   UNL     1     -10.781  17.708  68.453  1.00  0.00    -0.246 A  
ENDBRANCH  13  14
BRANCH  13  22
HETATM   22  C   UNL     1     -11.712  13.038  67.518  1.00  0.00    -0.370 C  
BRANCH  22  23
HETATM   23  N   UNL     1     -11.801  12.986  66.066  1.00  0.00    -0.396 NA 
HETATM   24  C   UNL     1     -10.922  12.343  65.237  1.00  0.00    -0.298 A  
HETATM   25  N   UNL     1     -12.507  13.365  64.005  1.00  0.00    -0.674 NA 
HETATM   26  C   UNL     1     -12.756  13.565  65.282  1.00  0.00    -0.427 A  
HETATM   27  C   UNL     1     -11.371  12.605  63.965  1.00  0.00    -0.407 A  
ENDBRANCH  22  23
ENDBRANCH  13  22
ENDBRANCH  11  13
ENDBRANCH  10  11
ENDBRANCH   9  10
ENDBRANCH   6   9
TORSDOF 7
ENDMDL
MODEL       71
REMARK 921   NORMALIZED FREE ENERGY PREDICTED BY IDOCK:   -5.68 KCAL/MOL
REMARK 922        TOTAL FREE ENERGY PREDICTED BY IDOCK:   -9.13 KCAL/MOL
REMARK 923 INTER-LIGAND FREE ENERGY PREDICTED BY IDOCK:   -9.13 KCAL/MOL
REMARK 924 INTRA-LIGAND FREE ENERGY PREDICTED BY IDOCK:   -0.00 KCAL/MOL
REMARK 927      BINDING AFFINITY PREDICTED BY RF-SCORE:    0.00 PKD
ROOT
HETATM    1 CL   UNL     1     -13.908  15.820  72.869  1.00  0.00    -0.641 Cl 
HETATM    2  C   UNL     1     -13.346  14.549  71.856  1.00  0.00    -0.365 A  
HETATM    3  C   UNL     1     -13.529  13.224  72.245  1.00  0.00    -0.679 A  
HETATM    4  C   UNL     1     -13.001  12.196  71.453  1.00  0.00    -0.257 A  
HETATM    5 CL   UNL     1     -13.269  10.575  72.001  1.00  0.00    -0.554 Cl 
HETATM    6  C   UNL     1     -12.275  12.467  70.274  1.00  0.00    -0.345 A  
HETATM    7  C   UNL     1     -12.159  13.810  69.879  1.00  0.00    -0.412 A  
HETATM    8  C   UNL     1     -12.690  14.842  70.666  1.00  0.00    -0.422 A  
ENDROOT
BRANCH   6   9
HETATM    9  C   UNL     1     -11.544  11.351  69.538  1.00  0.00    -0.331 C  
BRANCH   9  10
HETATM   10  O   UNL     1     -11.864  11.230  68.134  1.00  0.00    -0.553 OA 
BRANCH  10  11
HETATM   11  N   UNL     1     -11.338  10.017  67.628  1.00  0.00    -0.519 NA 
HETATM   12  H   UNL     1     -11.638   9.098  67.953  1.00  0.00     0.000 HD 
BRANCH  11  13
HETATM   13  C   UNL     1     -10.431  10.189  66.704  1.00  0.00    -0.185 C  
BRANCH  13  14
HETATM   14  C   UNL     1      -9.646   9.004  66.184  1.00  0.00    -0.341 A  
HETATM   15 CL   UNL     1     -10.463   7.412  68.294  1.00  0.00    -0.235 Cl 
HETATM   16  C   UNL     1      -8.940   9.137  64.972  1.00  0.00    -0.221 A  
HETATM   17  C   UNL     1      -9.627   7.747  66.818  1.00  0.00    -0.212 A  
HETATM   18  C   UNL     1      -8.283   8.049  64.383  1.00  0.00    -0.085 A  
HETATM   19 CL   UNL     1      -7.534   5.464  64.266  1.00  0.00    -0.060 Cl 
HETATM   20  C   UNL     1      -8.304   6.810  65.010  1.00  0.00    -0.048 A  
HETATM   21  C   UNL     1      -8.957   6.658  66.230  1.00  0.00    -0.168 A  
ENDBRANCH  13  14
BRANCH  13  22
HETATM   22  C   UNL     1     -10.139  11.540  66.053  1.00  0.00    -0.232 C  
BRANCH  22  23
HETATM   23  N   UNL     1     -11.165  11.989  65.123  1.00  0.00    -0.318 NA 
HETATM   24  C   UNL     1     -11.152  11.792  63.769  1.00  0.00    -0.436 A  
HETATM   25  N   UNL     1     -12.984  12.973  64.339  1.00  0.00    -0.652 NA 
HETATM   26  C   UNL     1     -12.301  12.681  65.426  1.00  0.00    -0.436 A  
HETATM   27  C   UNL     1     -12.281  12.424  63.303  1.00  0.00    -0.418 A  
ENDBRANCH  22  23
ENDBRANCH  13  22
ENDBRANCH  11  13
ENDBRANCH  10  11
ENDBRANCH   9  10
ENDBRANCH   6   9
TORSDOF 7
ENDMDL
MODEL       72
REMARK 921   NORMALIZED FREE ENERGY PREDICTED BY IDOCK:   -5.66 KCAL/MOL
REMARK 922        TOTAL FREE ENERGY PREDICTED BY IDOCK:   -9.09 KCAL/MOL
REMARK 923 INTER-LIGAND FREE ENERGY PREDICTED BY IDOCK:   -8.24 KCAL/MOL
REMARK 924 INTRA-LIGAND FREE ENERGY PREDICTED BY IDOCK:   -0.86 KCAL/MOL
REMARK 927      BINDING AFFINITY PREDICTED BY RF-SCORE:    0.00 PKD
ROOT
HETATM    1 CL   UNL     1      -9.850   3.255  71.065  1.00  0.00    -0.191 Cl 
HETATM    2  C   UNL     1      -9.871   4.965  70.887  1.00  0.00    -0.207 A  
HETATM    3  C   UNL     1      -9.389   5.771  71.916  1.00  0.00    -0.165 A  
HETATM    4  C   UNL     1      -9.479   7.165  71.797  1.00  0.00    -0.151 A  
HETATM    5 CL   UNL     1      -8.858   8.101  73.115  1.00  0.00    -0.311 Cl 
HETATM    6  C   UNL     1     -10.059   7.776  70.665  1.00  0.00    -0.191 A  
HETATM    7  C   UNL     1     -10.481   6.937  69.621  1.00  0.00    -0.240 A  
HETATM    8  C   UNL     1     -10.389   5.542  69.733  1.00  0.00    -0.366 A  
ENDROOT
BRANCH   6   9
HETATM    9  C   UNL     1     -10.325   9.275  70.643  1.00  0.00    -0.263 C  
BRANCH   9  10
HETATM   10  O   UNL     1     -10.072   9.926  69.377  1.00  0.00    -0.186 OA 
BRANCH  10  11
HETATM   11  N   UNL     1     -10.217  11.327  69.524  1.00  0.00    -0.435 NA 
HETATM   12  H   UNL     1      -9.467  11.935  69.850  1.00  0.00     0.000 HD 
BRANCH  11  13
HETATM   13  C   UNL     1     -11.405  11.763  69.200  1.00  0.00    -0.279 C  
BRANCH  13  14
HETATM   14  C   UNL     1     -12.131  12.728  70.113  1.00  0.00    -0.370 A  
HETATM   15 CL   UNL     1     -13.164  10.663  71.637  1.00  0.00    -0.511 Cl 
HETATM   16  C   UNL     1     -11.983  14.112  69.892  1.00  0.00    -0.398 A  
HETATM   17  C   UNL     1     -12.908  12.320  71.214  1.00  0.00    -0.239 A  
HETATM   18  C   UNL     1     -12.541  15.057  70.763  1.00  0.00    -0.429 A  
HETATM   19 CL   UNL     1     -13.925  15.789  72.955  1.00  0.00    -0.596 Cl 
HETATM   20  C   UNL     1     -13.277  14.631  71.861  1.00  0.00    -0.349 A  
HETATM   21  C   UNL     1     -13.476  13.271  72.081  1.00  0.00    -0.655 A  
ENDBRANCH  13  14
BRANCH  13  22
HETATM   22  C   UNL     1     -12.107  11.398  67.894  1.00  0.00     0.143 C  
BRANCH  22  23
HETATM   23  N   UNL     1     -11.685  12.188  66.746  1.00  0.00    -0.557 NA 
HETATM   24  C   UNL     1     -10.637  11.891  65.918  1.00  0.00    -0.266 A  
HETATM   25  N   UNL     1     -11.582  13.830  65.268  1.00  0.00    -0.313 NA 
HETATM   26  C   UNL     1     -12.243  13.351  66.301  1.00  0.00    -0.398 A  
HETATM   27  C   UNL     1     -10.583  12.930  65.020  1.00  0.00    -0.315 A  
ENDBRANCH  22  23
ENDBRANCH  13  22
ENDBRANCH  11  13
ENDBRANCH  10  11
ENDBRANCH   9  10
ENDBRANCH   6   9
TORSDOF 7
ENDMDL
MODEL       73
REMARK 921   NORMALIZED FREE ENERGY PREDICTED BY IDOCK:   -5.65 KCAL/MOL
REMARK 922        TOTAL FREE ENERGY PREDICTED BY IDOCK:   -9.08 KCAL/MOL
REMARK 923 INTER-LIGAND FREE ENERGY PREDICTED BY IDOCK:   -7.70 KCAL/MOL
REMARK 924 INTRA-LIGAND FREE ENERGY PREDICTED BY IDOCK:   -1.38 KCAL/MOL
REMARK 927      BINDING AFFINITY PREDICTED BY RF-SCORE:    0.00 PKD
ROOT
HETATM    1 CL   UNL     1      -9.326  11.163  62.432  1.00  0.00    -0.269 Cl 
HETATM    2  C   UNL     1     -10.060  11.421  63.965  1.00  0.00    -0.320 A  
HETATM    3  C   UNL     1     -10.885  12.526  64.159  1.00  0.00    -0.420 A  
HETATM    4  C   UNL     1     -11.418  12.772  65.431  1.00  0.00    -0.327 A  
HETATM    5 CL   UNL     1     -12.434  14.166  65.594  1.00  0.00    -0.487 Cl 
HETATM    6  C   UNL     1     -11.130  11.935  66.530  1.00  0.00    -0.357 A  
HETATM    7  C   UNL     1     -10.344  10.797  66.288  1.00  0.00    -0.303 A  
HETATM    8  C   UNL     1      -9.812  10.544  65.015  1.00  0.00    -0.369 A  
ENDROOT
BRANCH   6   9
HETATM    9  C   UNL     1     -11.556  12.329  67.938  1.00  0.00    -0.354 C  
BRANCH   9  10
HETATM   10  O   UNL     1     -11.845  11.223  68.824  1.00  0.00    -0.332 OA 
BRANCH  10  11
HETATM   11  N   UNL     1     -10.812  11.099  69.784  1.00  0.00    -0.459 NA 
HETATM   12  H   UNL     1     -10.330  11.899  70.194  1.00  0.00     0.000 HD 
BRANCH  11  13
HETATM   13  C   UNL     1     -10.537   9.861  70.096  1.00  0.00    -0.297 C  
BRANCH  13  14
HETATM   14  C   UNL     1      -9.816   8.974  69.104  1.00  0.00    -0.175 A  
HETATM   15 CL   UNL     1      -7.371  10.122  69.704  1.00  0.00    -0.120 Cl 
HETATM   16  C   UNL     1     -10.557   8.010  68.392  1.00  0.00    -0.150 A  
HETATM   17  C   UNL     1      -8.425   9.018  68.890  1.00  0.00    -0.130 A  
HETATM   18  C   UNL     1      -9.935   7.089  67.540  1.00  0.00    -0.201 A  
HETATM   19 CL   UNL     1      -7.788   5.972  66.357  1.00  0.00    -0.102 Cl 
HETATM   20  C   UNL     1      -8.558   7.131  67.368  1.00  0.00    -0.121 A  
HETATM   21  C   UNL     1      -7.804   8.099  68.025  1.00  0.00    -0.122 A  
ENDBRANCH  13  14
BRANCH  13  22
HETATM   22  C   UNL     1     -10.855   9.246  71.457  1.00  0.00    -0.372 C  
BRANCH  22  23
HETATM   23  N   UNL     1     -12.206   8.715  71.572  1.00  0.00    -0.306 NA 
HETATM   24  C   UNL     1     -12.594   7.448  71.229  1.00  0.00    -0.340 A  
HETATM   25  N   UNL     1     -14.382   8.613  71.952  1.00  0.00    -0.423 NA 
HETATM   26  C   UNL     1     -13.310   9.373  72.029  1.00  0.00    -0.450 A  
HETATM   27  C   UNL     1     -13.950   7.414  71.458  1.00  0.00    -0.396 A  
ENDBRANCH  22  23
ENDBRANCH  13  22
ENDBRANCH  11  13
ENDBRANCH  10  11
ENDBRANCH   9  10
ENDBRANCH   6   9
TORSDOF 7
ENDMDL
MODEL       74
REMARK 921   NORMALIZED FREE ENERGY PREDICTED BY IDOCK:   -5.64 KCAL/MOL
REMARK 922        TOTAL FREE ENERGY PREDICTED BY IDOCK:   -9.07 KCAL/MOL
REMARK 923 INTER-LIGAND FREE ENERGY PREDICTED BY IDOCK:   -8.01 KCAL/MOL
REMARK 924 INTRA-LIGAND FREE ENERGY PREDICTED BY IDOCK:   -1.05 KCAL/MOL
REMARK 927      BINDING AFFINITY PREDICTED BY RF-SCORE:    0.00 PKD
ROOT
HETATM    1 CL   UNL     1      -9.378   6.401  73.195  1.00  0.00    -0.139 Cl 
HETATM    2  C   UNL     1     -10.184   7.717  72.438  1.00  0.00    -0.247 A  
HETATM    3  C   UNL     1     -11.537   7.933  72.688  1.00  0.00    -0.435 A  
HETATM    4  C   UNL     1     -12.207   8.960  72.009  1.00  0.00    -0.377 A  
HETATM    5 CL   UNL     1     -13.888   9.168  72.372  1.00  0.00    -0.528 Cl 
HETATM    6  C   UNL     1     -11.548   9.777  71.066  1.00  0.00    -0.455 A  
HETATM    7  C   UNL     1     -10.171   9.572  70.881  1.00  0.00    -0.356 A  
HETATM    8  C   UNL     1      -9.496   8.548  71.561  1.00  0.00    -0.290 A  
ENDROOT
BRANCH   6   9
HETATM    9  C   UNL     1     -12.335  10.752  70.199  1.00  0.00    -0.325 C  
BRANCH   9  10
HETATM   10  O   UNL     1     -11.812  12.099  70.161  1.00  0.00    -0.333 OA 
BRANCH  10  11
HETATM   11  N   UNL     1     -11.997  12.646  68.868  1.00  0.00    -0.286 NA 
HETATM   12  H   UNL     1     -12.898  12.659  68.390  1.00  0.00     0.000 HD 
BRANCH  11  13
HETATM   13  C   UNL     1     -10.903  13.133  68.348  1.00  0.00    -0.262 C  
BRANCH  13  14
HETATM   14  C   UNL     1     -10.818  14.604  68.003  1.00  0.00    -0.260 A  
HETATM   15 CL   UNL     1     -10.938  15.338  70.668  1.00  0.00    -0.335 Cl 
HETATM   16  C   UNL     1     -10.684  14.977  66.651  1.00  0.00    -0.312 A  
HETATM   17  C   UNL     1     -10.810  15.629  68.968  1.00  0.00    -0.254 A  
HETATM   18  C   UNL     1     -10.495  16.312  66.273  1.00  0.00    -0.314 A  
HETATM   19 CL   UNL     1     -10.182  18.938  66.787  1.00  0.00    -0.413 Cl 
HETATM   20  C   UNL     1     -10.458  17.304  67.245  1.00  0.00    -0.319 A  
HETATM   21  C   UNL     1     -10.631  16.971  68.586  1.00  0.00    -0.362 A  
ENDBRANCH  13  14
BRANCH  13  22
HETATM   22  C   UNL     1      -9.644  12.302  68.110  1.00  0.00    -0.213 C  
BRANCH  22  23
HETATM   23  N   UNL     1      -9.782  11.291  67.072  1.00  0.00    -0.185 NA 
HETATM   24  C   UNL     1      -9.647  11.508  65.727  1.00  0.00    -0.235 A  
HETATM   25  N   UNL     1     -10.175   9.348  66.091  1.00  0.00    -0.249 NA 
HETATM   26  C   UNL     1     -10.073   9.969  67.247  1.00  0.00    -0.209 A  
HETATM   27  C   UNL     1      -9.910  10.293  65.139  1.00  0.00    -0.321 A  
ENDBRANCH  22  23
ENDBRANCH  13  22
ENDBRANCH  11  13
ENDBRANCH  10  11
ENDBRANCH   9  10
ENDBRANCH   6   9
TORSDOF 7
ENDMDL
MODEL       75
REMARK 921   NORMALIZED FREE ENERGY PREDICTED BY IDOCK:   -5.62 KCAL/MOL
REMARK 922        TOTAL FREE ENERGY PREDICTED BY IDOCK:   -9.03 KCAL/MOL
REMARK 923 INTER-LIGAND FREE ENERGY PREDICTED BY IDOCK:   -8.56 KCAL/MOL
REMARK 924 INTRA-LIGAND FREE ENERGY PREDICTED BY IDOCK:   -0.47 KCAL/MOL
REMARK 927      BINDING AFFINITY PREDICTED BY RF-SCORE:    0.00 PKD
ROOT
HETATM    1 CL   UNL     1      -5.669  18.329  69.341  1.00  0.00    -0.220 Cl 
HETATM    2  C   UNL     1      -6.950  17.376  68.703  1.00  0.00    -0.226 A  
HETATM    3  C   UNL     1      -8.158  17.982  68.365  1.00  0.00    -0.304 A  
HETATM    4  C   UNL     1      -9.223  17.189  67.917  1.00  0.00    -0.241 A  
HETATM    5 CL   UNL     1     -10.693  18.014  67.515  1.00  0.00    -0.400 Cl 
HETATM    6  C   UNL     1      -9.110  15.787  67.811  1.00  0.00    -0.188 A  
HETATM    7  C   UNL     1      -7.861  15.214  68.103  1.00  0.00    -0.126 A  
HETATM    8  C   UNL     1      -6.791  16.004  68.547  1.00  0.00    -0.129 A  
ENDROOT
BRANCH   6   9
HETATM    9  C   UNL     1     -10.334  14.930  67.514  1.00  0.00    -0.239 C  
BRANCH   9  10
HETATM   10  O   UNL     1     -11.308  14.862  68.580  1.00  0.00    -0.264 OA 
BRANCH  10  11
HETATM   11  N   UNL     1     -10.995  13.785  69.445  1.00  0.00    -0.418 NA 
HETATM   12  H   UNL     1     -10.055  13.402  69.543  1.00  0.00     0.000 HD 
BRANCH  11  13
HETATM   13  C   UNL     1     -12.027  13.331  70.105  1.00  0.00    -0.318 C  
BRANCH  13  14
HETATM   14  C   UNL     1     -12.113  11.862  70.457  1.00  0.00    -0.422 A  
HETATM   15 CL   UNL     1     -10.109  11.213  68.662  1.00  0.00    -0.196 Cl 
HETATM   16  C   UNL     1     -13.020  11.455  71.455  1.00  0.00    -0.505 A  
HETATM   17  C   UNL     1     -11.291  10.875  69.878  1.00  0.00    -0.305 A  
HETATM   18  C   UNL     1     -13.073  10.129  71.902  1.00  0.00    -0.571 A  
HETATM   19 CL   UNL     1     -12.265   7.559  71.917  1.00  0.00    -0.326 Cl 
HETATM   20  C   UNL     1     -12.231   9.179  71.339  1.00  0.00    -0.335 A  
HETATM   21  C   UNL     1     -11.354   9.541  70.321  1.00  0.00    -0.284 A  
ENDBRANCH  13  14
BRANCH  13  22
HETATM   22  C   UNL     1     -13.160  14.222  70.609  1.00  0.00    -0.189 C  
BRANCH  22  23
HETATM   23  N   UNL     1     -12.833  14.985  71.806  1.00  0.00    -0.317 NA 
HETATM   24  C   UNL     1     -13.268  14.702  73.073  1.00  0.00    -0.485 A  
HETATM   25  N   UNL     1     -12.008  16.570  73.109  1.00  0.00    -0.476 NA 
HETATM   26  C   UNL     1     -12.055  16.103  71.879  1.00  0.00    -0.476 A  
HETATM   27  C   UNL     1     -12.757  15.707  73.860  1.00  0.00    -0.600 A  
ENDBRANCH  22  23
ENDBRANCH  13  22
ENDBRANCH  11  13
ENDBRANCH  10  11
ENDBRANCH   9  10
ENDBRANCH   6   9
TORSDOF 7
ENDMDL
MODEL       76
REMARK 921   NORMALIZED FREE ENERGY PREDICTED BY IDOCK:   -5.62 KCAL/MOL
REMARK 922        TOTAL FREE ENERGY PREDICTED BY IDOCK:   -9.03 KCAL/MOL
REMARK 923 INTER-LIGAND FREE ENERGY PREDICTED BY IDOCK:   -7.71 KCAL/MOL
REMARK 924 INTRA-LIGAND FREE ENERGY PREDICTED BY IDOCK:   -1.32 KCAL/MOL
REMARK 927      BINDING AFFINITY PREDICTED BY RF-SCORE:    0.00 PKD
ROOT
HETATM    1 CL   UNL     1     -13.993  15.915  72.815  1.00  0.00    -0.592 Cl 
HETATM    2  C   UNL     1     -13.381  14.615  71.871  1.00  0.00    -0.363 A  
HETATM    3  C   UNL     1     -13.572  13.302  72.298  1.00  0.00    -0.703 A  
HETATM    4  C   UNL     1     -13.005  12.251  71.564  1.00  0.00    -0.289 A  
HETATM    5 CL   UNL     1     -13.286  10.648  72.157  1.00  0.00    -0.470 Cl 
HETATM    6  C   UNL     1     -12.232  12.487  70.408  1.00  0.00    -0.368 A  
HETATM    7  C   UNL     1     -12.109  13.816  69.971  1.00  0.00    -0.416 A  
HETATM    8  C   UNL     1     -12.678  14.871  70.699  1.00  0.00    -0.422 A  
ENDROOT
BRANCH   6   9
HETATM    9  C   UNL     1     -11.465  11.352  69.742  1.00  0.00    -0.300 C  
BRANCH   9  10
HETATM   10  O   UNL     1     -10.815  11.698  68.498  1.00  0.00    -0.196 OA 
BRANCH  10  11
HETATM   11  N   UNL     1      -9.478  12.091  68.752  1.00  0.00    -0.397 NA 
HETATM   12  H   UNL     1      -8.981  11.859  69.612  1.00  0.00     0.000 HD 
BRANCH  11  13
HETATM   13  C   UNL     1      -8.945  12.780  67.778  1.00  0.00    -0.190 C  
BRANCH  13  14
HETATM   14  C   UNL     1      -9.370  14.214  67.545  1.00  0.00    -0.204 A  
HETATM   15 CL   UNL     1      -7.648  15.146  69.500  1.00  0.00    -0.212 Cl 
HETATM   16  C   UNL     1     -10.312  14.486  66.534  1.00  0.00    -0.283 A  
HETATM   17  C   UNL     1      -8.832  15.307  68.250  1.00  0.00    -0.171 A  
HETATM   18  C   UNL     1     -10.667  15.798  66.196  1.00  0.00    -0.293 A  
HETATM   19 CL   UNL     1     -10.502  18.476  66.441  1.00  0.00    -0.445 Cl 
HETATM   20  C   UNL     1     -10.099  16.863  66.883  1.00  0.00    -0.289 A  
HETATM   21  C   UNL     1      -9.198  16.624  67.917  1.00  0.00    -0.219 A  
ENDBRANCH  13  14
BRANCH  13  22
HETATM   22  C   UNL     1      -7.847  12.236  66.867  1.00  0.00    -0.044 C  
BRANCH  22  23
HETATM   23  N   UNL     1      -8.221  11.036  66.132  1.00  0.00    -0.168 NA 
HETATM   24  C   UNL     1      -9.345  10.891  65.364  1.00  0.00    -0.208 A  
HETATM   25  N   UNL     1      -8.181   8.962  65.364  1.00  0.00    -0.122 NA 
HETATM   26  C   UNL     1      -7.535   9.858  66.081  1.00  0.00    -0.104 A  
HETATM   27  C   UNL     1      -9.306   9.593  64.912  1.00  0.00    -0.242 A  
ENDBRANCH  22  23
ENDBRANCH  13  22
ENDBRANCH  11  13
ENDBRANCH  10  11
ENDBRANCH   9  10
ENDBRANCH   6   9
TORSDOF 7
ENDMDL
MODEL       77
REMARK 921   NORMALIZED FREE ENERGY PREDICTED BY IDOCK:   -5.61 KCAL/MOL
REMARK 922        TOTAL FREE ENERGY PREDICTED BY IDOCK:   -9.03 KCAL/MOL
REMARK 923 INTER-LIGAND FREE ENERGY PREDICTED BY IDOCK:   -8.31 KCAL/MOL
REMARK 924 INTRA-LIGAND FREE ENERGY PREDICTED BY IDOCK:   -0.72 KCAL/MOL
REMARK 927      BINDING AFFINITY PREDICTED BY RF-SCORE:    0.00 PKD
ROOT
HETATM    1 CL   UNL     1     -13.542  16.211  73.570  1.00  0.00    -0.398 Cl 
HETATM    2  C   UNL     1     -13.247  15.101  72.291  1.00  0.00    -0.379 A  
HETATM    3  C   UNL     1     -13.238  13.733  72.554  1.00  0.00    -0.599 A  
HETATM    4  C   UNL     1     -12.921  12.837  71.524  1.00  0.00    -0.292 A  
HETATM    5 CL   UNL     1     -12.930  11.152  71.926  1.00  0.00    -0.546 Cl 
HETATM    6  C   UNL     1     -12.598  13.285  70.225  1.00  0.00    -0.160 A  
HETATM    7  C   UNL     1     -12.675  14.665  69.979  1.00  0.00    -0.197 A  
HETATM    8  C   UNL     1     -12.995  15.565  71.005  1.00  0.00    -0.550 A  
ENDROOT
BRANCH   6   9
HETATM    9  C   UNL     1     -12.067  12.314  69.179  1.00  0.00    -0.161 C  
BRANCH   9  10
HETATM   10  O   UNL     1     -10.634  12.336  68.992  1.00  0.00    -0.175 OA 
BRANCH  10  11
HETATM   11  N   UNL     1     -10.146  13.648  69.201  1.00  0.00    -0.424 NA 
HETATM   12  H   UNL     1     -10.226  14.140  70.091  1.00  0.00     0.000 HD 
BRANCH  11  13
HETATM   13  C   UNL     1      -9.584  14.169  68.143  1.00  0.00    -0.218 C  
BRANCH  13  14
HETATM   14  C   UNL     1      -8.771  15.440  68.266  1.00  0.00    -0.164 A  
HETATM   15 CL   UNL     1     -11.012  17.024  67.908  1.00  0.00    -0.298 Cl 
HETATM   16  C   UNL     1      -7.390  15.339  68.524  1.00  0.00    -0.119 A  
HETATM   17  C   UNL     1      -9.331  16.730  68.191  1.00  0.00    -0.234 A  
HETATM   18  C   UNL     1      -6.602  16.475  68.754  1.00  0.00    -0.161 A  
HETATM   19 CL   UNL     1      -6.225  19.127  69.032  1.00  0.00    -0.274 Cl 
HETATM   20  C   UNL     1      -7.182  17.736  68.707  1.00  0.00    -0.271 A  
HETATM   21  C   UNL     1      -8.536  17.869  68.411  1.00  0.00    -0.300 A  
ENDBRANCH  13  14
BRANCH  13  22
HETATM   22  C   UNL     1      -9.647  13.530  66.758  1.00  0.00    -0.267 C  
BRANCH  22  23
HETATM   23  N   UNL     1     -10.741  14.013  65.926  1.00  0.00    -0.288 NA 
HETATM   24  C   UNL     1     -10.676  15.077  65.067  1.00  0.00    -0.427 A  
HETATM   25  N   UNL     1     -12.757  14.213  65.041  1.00  0.00    -0.679 NA 
HETATM   26  C   UNL     1     -12.005  13.505  65.857  1.00  0.00    -0.406 A  
HETATM   27  C   UNL     1     -11.942  15.191  64.543  1.00  0.00    -0.319 A  
ENDBRANCH  22  23
ENDBRANCH  13  22
ENDBRANCH  11  13
ENDBRANCH  10  11
ENDBRANCH   9  10
ENDBRANCH   6   9
TORSDOF 7
ENDMDL
MODEL       78
REMARK 921   NORMALIZED FREE ENERGY PREDICTED BY IDOCK:   -5.61 KCAL/MOL
REMARK 922        TOTAL FREE ENERGY PREDICTED BY IDOCK:   -9.03 KCAL/MOL
REMARK 923 INTER-LIGAND FREE ENERGY PREDICTED BY IDOCK:   -8.52 KCAL/MOL
REMARK 924 INTRA-LIGAND FREE ENERGY PREDICTED BY IDOCK:   -0.52 KCAL/MOL
REMARK 927      BINDING AFFINITY PREDICTED BY RF-SCORE:    0.00 PKD
ROOT
HETATM    1 CL   UNL     1      -9.289  17.300  66.544  1.00  0.00    -0.271 Cl 
HETATM    2  C   UNL     1      -9.733  15.663  66.261  1.00  0.00    -0.301 A  
HETATM    3  C   UNL     1     -10.620  15.357  65.233  1.00  0.00    -0.450 A  
HETATM    4  C   UNL     1     -11.037  14.030  65.056  1.00  0.00    -0.363 A  
HETATM    5 CL   UNL     1     -12.141  13.727  63.757  1.00  0.00    -0.454 Cl 
HETATM    6  C   UNL     1     -10.589  12.994  65.904  1.00  0.00    -0.288 A  
HETATM    7  C   UNL     1      -9.650  13.327  66.893  1.00  0.00    -0.249 A  
HETATM    8  C   UNL     1      -9.227  14.652  67.071  1.00  0.00    -0.252 A  
ENDROOT
BRANCH   6   9
HETATM    9  C   UNL     1     -11.204  11.603  65.819  1.00  0.00    -0.230 C  
BRANCH   9  10
HETATM   10  O   UNL     1     -10.902  10.731  66.932  1.00  0.00    -0.263 OA 
BRANCH  10  11
HETATM   11  N   UNL     1     -11.971  10.756  67.861  1.00  0.00    -0.707 NA 
HETATM   12  H   UNL     1     -12.953  10.743  67.584  1.00  0.00     0.000 HD 
BRANCH  11  13
HETATM   13  C   UNL     1     -11.577  10.797  69.106  1.00  0.00    -0.305 C  
BRANCH  13  14
HETATM   14  C   UNL     1     -12.081  11.890  70.023  1.00  0.00    -0.366 A  
HETATM   15 CL   UNL     1     -13.347  10.061  71.669  1.00  0.00    -0.472 Cl 
HETATM   16  C   UNL     1     -11.723  13.224  69.748  1.00  0.00    -0.354 A  
HETATM   17  C   UNL     1     -12.848  11.642  71.177  1.00  0.00    -0.294 A  
HETATM   18  C   UNL     1     -12.067  14.269  70.616  1.00  0.00    -0.417 A  
HETATM   19 CL   UNL     1     -13.182  15.273  72.853  1.00  0.00    -0.551 Cl 
HETATM   20  C   UNL     1     -12.797  13.998  71.765  1.00  0.00    -0.340 A  
HETATM   21  C   UNL     1     -13.202  12.695  72.041  1.00  0.00    -0.531 A  
ENDBRANCH  13  14
BRANCH  13  22
HETATM   22  C   UNL     1     -10.658   9.750  69.731  1.00  0.00    -0.257 C  
BRANCH  22  23
HETATM   23  N   UNL     1      -9.239  10.067  69.637  1.00  0.00    -0.221 NA 
HETATM   24  C   UNL     1      -8.689  11.011  68.814  1.00  0.00    -0.145 A  
HETATM   25  N   UNL     1      -7.055   9.976  69.970  1.00  0.00    -0.129 NA 
HETATM   26  C   UNL     1      -8.221   9.487  70.336  1.00  0.00    -0.190 A  
HETATM   27  C   UNL     1      -7.333  10.925  69.026  1.00  0.00    -0.113 A  
ENDBRANCH  22  23
ENDBRANCH  13  22
ENDBRANCH  11  13
ENDBRANCH  10  11
ENDBRANCH   9  10
ENDBRANCH   6   9
TORSDOF 7
ENDMDL
MODEL       79
REMARK 921   NORMALIZED FREE ENERGY PREDICTED BY IDOCK:   -5.61 KCAL/MOL
REMARK 922        TOTAL FREE ENERGY PREDICTED BY IDOCK:   -9.02 KCAL/MOL
REMARK 923 INTER-LIGAND FREE ENERGY PREDICTED BY IDOCK:   -8.11 KCAL/MOL
REMARK 924 INTRA-LIGAND FREE ENERGY PREDICTED BY IDOCK:   -0.91 KCAL/MOL
REMARK 927      BINDING AFFINITY PREDICTED BY RF-SCORE:    0.00 PKD
ROOT
HETATM    1 CL   UNL     1     -10.590   5.156  67.057  1.00  0.00    -0.250 Cl 
HETATM    2  C   UNL     1     -10.538   6.684  67.843  1.00  0.00    -0.247 A  
HETATM    3  C   UNL     1     -10.663   6.751  69.229  1.00  0.00    -0.288 A  
HETATM    4  C   UNL     1     -10.697   8.004  69.857  1.00  0.00    -0.242 A  
HETATM    5 CL   UNL     1     -10.854   8.006  71.582  1.00  0.00    -0.274 Cl 
HETATM    6  C   UNL     1     -10.621   9.204  69.119  1.00  0.00    -0.224 A  
HETATM    7  C   UNL     1     -10.436   9.101  67.731  1.00  0.00    -0.306 A  
HETATM    8  C   UNL     1     -10.397   7.850  67.099  1.00  0.00    -0.398 A  
ENDROOT
BRANCH   6   9
HETATM    9  C   UNL     1     -10.857  10.547  69.797  1.00  0.00    -0.281 C  
BRANCH   9  10
HETATM   10  O   UNL     1     -11.053  11.663  68.898  1.00  0.00    -0.203 OA 
BRANCH  10  11
HETATM   11  N   UNL     1      -9.855  12.411  68.799  1.00  0.00    -0.419 NA 
HETATM   12  H   UNL     1      -9.123  12.392  69.510  1.00  0.00     0.000 HD 
BRANCH  11  13
HETATM   13  C   UNL     1      -9.778  13.128  67.710  1.00  0.00    -0.218 C  
BRANCH  13  14
HETATM   14  C   UNL     1      -9.845  14.638  67.792  1.00  0.00    -0.216 A  
HETATM   15 CL   UNL     1      -7.127  14.881  67.332  1.00  0.00    -0.220 Cl 
HETATM   16  C   UNL     1     -11.096  15.251  67.996  1.00  0.00    -0.312 A  
HETATM   17  C   UNL     1      -8.726  15.475  67.619  1.00  0.00    -0.175 A  
HETATM   18  C   UNL     1     -11.242  16.645  67.976  1.00  0.00    -0.164 A  
HETATM   19 CL   UNL     1     -10.315  19.159  67.703  1.00  0.00    -0.484 Cl 
HETATM   20  C   UNL     1     -10.130  17.450  67.772  1.00  0.00    -0.323 A  
HETATM   21  C   UNL     1      -8.873  16.874  67.610  1.00  0.00    -0.215 A  
ENDBRANCH  13  14
BRANCH  13  22
HETATM   22  C   UNL     1      -9.563  12.528  66.323  1.00  0.00    -0.245 C  
BRANCH  22  23
HETATM   23  N   UNL     1     -10.729  12.600  65.452  1.00  0.00    -0.274 NA 
HETATM   24  C   UNL     1     -10.699  12.795  64.098  1.00  0.00    -0.412 A  
HETATM   25  N   UNL     1     -12.838  12.657  64.792  1.00  0.00    -0.830 NA 
HETATM   26  C   UNL     1     -12.037  12.495  65.824  1.00  0.00    -0.378 A  
HETATM   27  C   UNL     1     -12.018  12.842  63.714  1.00  0.00    -0.512 A  
ENDBRANCH  22  23
ENDBRANCH  13  22
ENDBRANCH  11  13
ENDBRANCH  10  11
ENDBRANCH   9  10
ENDBRANCH   6   9
TORSDOF 7
ENDMDL
MODEL       80
REMARK 921   NORMALIZED FREE ENERGY PREDICTED BY IDOCK:   -5.61 KCAL/MOL
REMARK 922        TOTAL FREE ENERGY PREDICTED BY IDOCK:   -9.02 KCAL/MOL
REMARK 923 INTER-LIGAND FREE ENERGY PREDICTED BY IDOCK:   -8.79 KCAL/MOL
REMARK 924 INTRA-LIGAND FREE ENERGY PREDICTED BY IDOCK:   -0.23 KCAL/MOL
REMARK 927      BINDING AFFINITY PREDICTED BY RF-SCORE:    0.00 PKD
ROOT
HETATM    1 CL   UNL     1      -8.721  17.614  66.223  1.00  0.00    -0.246 Cl 
HETATM    2  C   UNL     1      -9.363  16.028  66.385  1.00  0.00    -0.298 A  
HETATM    3  C   UNL     1     -10.642  15.749  65.911  1.00  0.00    -0.350 A  
HETATM    4  C   UNL     1     -11.189  14.475  66.114  1.00  0.00    -0.339 A  
HETATM    5 CL   UNL     1     -12.785  14.204  65.496  1.00  0.00    -0.519 Cl 
HETATM    6  C   UNL     1     -10.481  13.466  66.801  1.00  0.00    -0.275 A  
HETATM    7  C   UNL     1      -9.172  13.760  67.214  1.00  0.00    -0.239 A  
HETATM    8  C   UNL     1      -8.619  15.032  67.009  1.00  0.00    -0.266 A  
ENDROOT
BRANCH   6   9
HETATM    9  C   UNL     1     -11.166  12.160  67.182  1.00  0.00    -0.314 C  
BRANCH   9  10
HETATM   10  O   UNL     1     -12.110  12.258  68.273  1.00  0.00    -0.363 OA 
BRANCH  10  11
HETATM   11  N   UNL     1     -11.411  12.349  69.501  1.00  0.00    -0.415 NA 
HETATM   12  H   UNL     1     -10.464  12.720  69.580  1.00  0.00     0.000 HD 
BRANCH  11  13
HETATM   13  C   UNL     1     -12.098  11.913  70.524  1.00  0.00    -0.331 C  
BRANCH  13  14
HETATM   14  C   UNL     1     -11.864  10.513  71.050  1.00  0.00    -0.438 A  
HETATM   15 CL   UNL     1      -9.500  10.269  69.633  1.00  0.00    -0.214 Cl 
HETATM   16  C   UNL     1     -12.788   9.970  71.964  1.00  0.00    -0.484 A  
HETATM   17  C   UNL     1     -10.738   9.736  70.717  1.00  0.00    -0.323 A  
HETATM   18  C   UNL     1     -12.575   8.725  72.569  1.00  0.00    -0.375 A  
HETATM   19 CL   UNL     1     -11.156   6.481  73.025  1.00  0.00    -0.257 Cl 
HETATM   20  C   UNL     1     -11.440   7.990  72.251  1.00  0.00    -0.360 A  
HETATM   21  C   UNL     1     -10.532   8.481  71.318  1.00  0.00    -0.289 A  
ENDBRANCH  13  14
BRANCH  13  22
HETATM   22  C   UNL     1     -13.111  12.768  71.282  1.00  0.00    -0.157 C  
BRANCH  22  23
HETATM   23  N   UNL     1     -12.587  14.044  71.748  1.00  0.00    -0.314 NA 
HETATM   24  C   UNL     1     -12.578  14.473  73.048  1.00  0.00    -0.325 A  
HETATM   25  N   UNL     1     -11.704  16.071  71.723  1.00  0.00    -0.487 NA 
HETATM   26  C   UNL     1     -12.025  15.028  70.988  1.00  0.00    -0.322 A  
HETATM   27  C   UNL     1     -12.042  15.738  73.005  1.00  0.00    -0.495 A  
ENDBRANCH  22  23
ENDBRANCH  13  22
ENDBRANCH  11  13
ENDBRANCH  10  11
ENDBRANCH   9  10
ENDBRANCH   6   9
TORSDOF 7
ENDMDL
MODEL       81
REMARK 921   NORMALIZED FREE ENERGY PREDICTED BY IDOCK:   -5.59 KCAL/MOL
REMARK 922        TOTAL FREE ENERGY PREDICTED BY IDOCK:   -9.00 KCAL/MOL
REMARK 923 INTER-LIGAND FREE ENERGY PREDICTED BY IDOCK:   -8.17 KCAL/MOL
REMARK 924 INTRA-LIGAND FREE ENERGY PREDICTED BY IDOCK:   -0.83 KCAL/MOL
REMARK 927      BINDING AFFINITY PREDICTED BY RF-SCORE:    0.00 PKD
ROOT
HETATM    1 CL   UNL     1      -8.405  20.530  67.065  1.00  0.00    -0.344 Cl 
HETATM    2  C   UNL     1      -8.895  19.063  67.815  1.00  0.00    -0.294 A  
HETATM    3  C   UNL     1      -7.932  18.171  68.281  1.00  0.00    -0.304 A  
HETATM    4  C   UNL     1      -8.337  16.943  68.823  1.00  0.00    -0.240 A  
HETATM    5 CL   UNL     1      -7.083  15.887  69.381  1.00  0.00    -0.211 Cl 
HETATM    6  C   UNL     1      -9.698  16.579  68.897  1.00  0.00    -0.257 A  
HETATM    7  C   UNL     1     -10.646  17.525  68.474  1.00  0.00    -0.312 A  
HETATM    8  C   UNL     1     -10.246  18.756  67.936  1.00  0.00    -0.448 A  
ENDROOT
BRANCH   6   9
HETATM    9  C   UNL     1     -10.103  15.168  69.304  1.00  0.00    -0.246 C  
BRANCH   9  10
HETATM   10  O   UNL     1      -9.835  14.145  68.318  1.00  0.00    -0.221 OA 
BRANCH  10  11
HETATM   11  N   UNL     1      -9.915  12.868  68.923  1.00  0.00    -0.427 NA 
HETATM   12  H   UNL     1      -9.340  12.588  69.718  1.00  0.00     0.000 HD 
BRANCH  11  13
HETATM   13  C   UNL     1     -10.795  12.081  68.364  1.00  0.00    -0.233 C  
BRANCH  13  14
HETATM   14  C   UNL     1     -10.606  11.632  66.931  1.00  0.00    -0.276 A  
HETATM   15 CL   UNL     1     -12.268  13.629  65.981  1.00  0.00    -0.470 Cl 
HETATM   16  C   UNL     1      -9.742  10.551  66.668  1.00  0.00    -0.232 A  
HETATM   17  C   UNL     1     -11.206  12.273  65.830  1.00  0.00    -0.340 A  
HETATM   18  C   UNL     1      -9.441  10.154  65.359  1.00  0.00    -0.296 A  
HETATM   19 CL   UNL     1      -9.618  10.364  62.679  1.00  0.00    -0.318 Cl 
HETATM   20  C   UNL     1     -10.020  10.821  64.287  1.00  0.00    -0.341 A  
HETATM   21  C   UNL     1     -10.911  11.866  64.516  1.00  0.00    -0.376 A  
ENDBRANCH  13  14
BRANCH  13  22
HETATM   22  C   UNL     1     -12.011  11.523  69.100  1.00  0.00    -0.320 C  
BRANCH  22  23
HETATM   23  N   UNL     1     -11.685  10.594  70.173  1.00  0.00    -0.303 NA 
HETATM   24  C   UNL     1     -10.525   9.874  70.278  1.00  0.00    -0.291 A  
HETATM   25  N   UNL     1     -11.887   9.359  71.997  1.00  0.00    -0.322 NA 
HETATM   26  C   UNL     1     -12.465  10.273  71.246  1.00  0.00    -0.408 A  
HETATM   27  C   UNL     1     -10.681   9.105  71.407  1.00  0.00    -0.343 A  
ENDBRANCH  22  23
ENDBRANCH  13  22
ENDBRANCH  11  13
ENDBRANCH  10  11
ENDBRANCH   9  10
ENDBRANCH   6   9
TORSDOF 7
ENDMDL
MODEL       82
REMARK 921   NORMALIZED FREE ENERGY PREDICTED BY IDOCK:   -5.57 KCAL/MOL
REMARK 922        TOTAL FREE ENERGY PREDICTED BY IDOCK:   -8.97 KCAL/MOL
REMARK 923 INTER-LIGAND FREE ENERGY PREDICTED BY IDOCK:   -7.89 KCAL/MOL
REMARK 924 INTRA-LIGAND FREE ENERGY PREDICTED BY IDOCK:   -1.09 KCAL/MOL
REMARK 927      BINDING AFFINITY PREDICTED BY RF-SCORE:    0.00 PKD
ROOT
HETATM    1 CL   UNL     1     -10.055  18.422  67.143  1.00  0.00    -0.346 Cl 
HETATM    2  C   UNL     1     -10.453  16.750  67.166  1.00  0.00    -0.299 A  
HETATM    3  C   UNL     1     -10.231  15.972  66.032  1.00  0.00    -0.360 A  
HETATM    4  C   UNL     1     -10.629  14.628  66.031  1.00  0.00    -0.309 A  
HETATM    5 CL   UNL     1     -10.318  13.725  64.586  1.00  0.00    -0.444 Cl 
HETATM    6  C   UNL     1     -11.263  14.042  67.148  1.00  0.00    -0.327 A  
HETATM    7  C   UNL     1     -11.419  14.837  68.295  1.00  0.00    -0.338 A  
HETATM    8  C   UNL     1     -11.019  16.181  68.302  1.00  0.00    -0.340 A  
ENDROOT
BRANCH   6   9
HETATM    9  C   UNL     1     -11.862  12.645  67.055  1.00  0.00    -0.345 C  
BRANCH   9  10
HETATM   10  O   UNL     1     -12.018  11.959  68.318  1.00  0.00    -0.456 OA 
BRANCH  10  11
HETATM   11  N   UNL     1     -11.902  10.562  68.119  1.00  0.00    -0.774 NA 
HETATM   12  H   UNL     1     -12.621  10.000  67.665  1.00  0.00     0.000 HD 
BRANCH  11  13
HETATM   13  C   UNL     1     -10.783  10.064  68.575  1.00  0.00    -0.231 C  
BRANCH  13  14
HETATM   14  C   UNL     1      -9.708   9.613  67.610  1.00  0.00    -0.182 A  
HETATM   15 CL   UNL     1     -10.751   7.054  67.487  1.00  0.00    -0.338 Cl 
HETATM   16  C   UNL     1      -8.752  10.552  67.174  1.00  0.00    -0.130 A  
HETATM   17  C   UNL     1      -9.639   8.312  67.076  1.00  0.00    -0.191 A  
HETATM   18  C   UNL     1      -7.796  10.228  66.202  1.00  0.00    -0.129 A  
HETATM   19 CL   UNL     1      -6.623   8.561  64.441  1.00  0.00    -0.067 Cl 
HETATM   20  C   UNL     1      -7.767   8.947  65.666  1.00  0.00    -0.087 A  
HETATM   21  C   UNL     1      -8.671   7.986  66.108  1.00  0.00    -0.177 A  
ENDBRANCH  13  14
BRANCH  13  22
HETATM   22  C   UNL     1     -10.457   9.954  70.062  1.00  0.00    -0.284 C  
BRANCH  22  23
HETATM   23  N   UNL     1     -11.565   9.490  70.885  1.00  0.00    -0.302 NA 
HETATM   24  C   UNL     1     -11.941   8.185  71.052  1.00  0.00    -0.240 A  
HETATM   25  N   UNL     1     -13.339   9.522  72.206  1.00  0.00    -0.455 NA 
HETATM   26  C   UNL     1     -12.419  10.260  71.621  1.00  0.00    -0.392 A  
HETATM   27  C   UNL     1     -13.051   8.231  71.861  1.00  0.00    -0.344 A  
ENDBRANCH  22  23
ENDBRANCH  13  22
ENDBRANCH  11  13
ENDBRANCH  10  11
ENDBRANCH   9  10
ENDBRANCH   6   9
TORSDOF 7
ENDMDL
MODEL       83
REMARK 921   NORMALIZED FREE ENERGY PREDICTED BY IDOCK:   -5.57 KCAL/MOL
REMARK 922        TOTAL FREE ENERGY PREDICTED BY IDOCK:   -8.97 KCAL/MOL
REMARK 923 INTER-LIGAND FREE ENERGY PREDICTED BY IDOCK:   -7.77 KCAL/MOL
REMARK 924 INTRA-LIGAND FREE ENERGY PREDICTED BY IDOCK:   -1.20 KCAL/MOL
REMARK 927      BINDING AFFINITY PREDICTED BY RF-SCORE:    0.00 PKD
ROOT
HETATM    1 CL   UNL     1     -10.261  18.186  68.227  1.00  0.00    -0.384 Cl 
HETATM    2  C   UNL     1     -10.884  16.606  68.497  1.00  0.00    -0.356 A  
HETATM    3  C   UNL     1     -11.233  16.213  69.787  1.00  0.00    -0.343 A  
HETATM    4  C   UNL     1     -11.668  14.900  70.012  1.00  0.00    -0.294 A  
HETATM    5 CL   UNL     1     -12.084  14.486  71.642  1.00  0.00    -0.399 Cl 
HETATM    6  C   UNL     1     -11.750  13.957  68.965  1.00  0.00    -0.378 A  
HETATM    7  C   UNL     1     -11.447  14.402  67.668  1.00  0.00    -0.369 A  
HETATM    8  C   UNL     1     -11.016  15.716  67.437  1.00  0.00    -0.293 A  
ENDROOT
BRANCH   6   9
HETATM    9  C   UNL     1     -12.032  12.490  69.263  1.00  0.00    -0.250 C  
BRANCH   9  10
HETATM   10  O   UNL     1     -12.160  11.642  68.100  1.00  0.00    -0.577 OA 
BRANCH  10  11
HETATM   11  N   UNL     1     -12.002  10.287  68.478  1.00  0.00    -0.652 NA 
HETATM   12  H   UNL     1     -12.788   9.663  68.664  1.00  0.00     0.000 HD 
BRANCH  11  13
HETATM   13  C   UNL     1     -10.754   9.913  68.567  1.00  0.00    -0.226 C  
BRANCH  13  14
HETATM   14  C   UNL     1      -9.836  10.054  67.372  1.00  0.00    -0.226 A  
HETATM   15 CL   UNL     1      -8.618  12.294  68.446  1.00  0.00    -0.164 Cl 
HETATM   16  C   UNL     1      -9.914   9.097  66.341  1.00  0.00    -0.358 A  
HETATM   17  C   UNL     1      -8.861  11.063  67.256  1.00  0.00    -0.135 A  
HETATM   18  C   UNL     1      -9.022   9.109  65.260  1.00  0.00    -0.246 A  
HETATM   19 CL   UNL     1      -6.925  10.085  63.880  1.00  0.00    -0.126 Cl 
HETATM   20  C   UNL     1      -8.048  10.095  65.183  1.00  0.00    -0.148 A  
HETATM   21  C   UNL     1      -7.973  11.079  66.164  1.00  0.00    -0.129 A  
ENDBRANCH  13  14
BRANCH  13  22
HETATM   22  C   UNL     1     -10.125   9.380  69.852  1.00  0.00    -0.218 C  
BRANCH  22  23
HETATM   23  N   UNL     1     -11.027   8.584  70.673  1.00  0.00    -0.236 NA 
HETATM   24  C   UNL     1     -11.682   9.025  71.791  1.00  0.00    -0.369 A  
HETATM   25  N   UNL     1     -12.168   6.853  71.442  1.00  0.00    -0.355 NA 
HETATM   26  C   UNL     1     -11.371   7.278  70.485  1.00  0.00    -0.280 A  
HETATM   27  C   UNL     1     -12.370   7.930  72.259  1.00  0.00    -0.256 A  
ENDBRANCH  22  23
ENDBRANCH  13  22
ENDBRANCH  11  13
ENDBRANCH  10  11
ENDBRANCH   9  10
ENDBRANCH   6   9
TORSDOF 7
ENDMDL
MODEL       84
REMARK 921   NORMALIZED FREE ENERGY PREDICTED BY IDOCK:   -5.57 KCAL/MOL
REMARK 922        TOTAL FREE ENERGY PREDICTED BY IDOCK:   -8.97 KCAL/MOL
REMARK 923 INTER-LIGAND FREE ENERGY PREDICTED BY IDOCK:   -7.47 KCAL/MOL
REMARK 924 INTRA-LIGAND FREE ENERGY PREDICTED BY IDOCK:   -1.50 KCAL/MOL
REMARK 927      BINDING AFFINITY PREDICTED BY RF-SCORE:    0.00 PKD
ROOT
HETATM    1 CL   UNL     1     -11.241  16.030  68.367  1.00  0.00    -0.356 Cl 
HETATM    2  C   UNL     1     -11.711  14.545  69.096  1.00  0.00    -0.314 A  
HETATM    3  C   UNL     1     -12.469  14.559  70.264  1.00  0.00    -0.405 A  
HETATM    4  C   UNL     1     -12.784  13.348  70.894  1.00  0.00    -0.272 A  
HETATM    5 CL   UNL     1     -13.731  13.446  72.342  1.00  0.00    -0.696 Cl 
HETATM    6  C   UNL     1     -12.341  12.110  70.383  1.00  0.00    -0.315 A  
HETATM    7  C   UNL     1     -11.628  12.126  69.173  1.00  0.00    -0.374 A  
HETATM    8  C   UNL     1     -11.315  13.335  68.536  1.00  0.00    -0.319 A  
ENDROOT
BRANCH   6   9
HETATM    9  C   UNL     1     -12.524  10.829  71.187  1.00  0.00    -0.414 C  
BRANCH   9  10
HETATM   10  O   UNL     1     -11.397   9.924  71.165  1.00  0.00    -0.357 OA 
BRANCH  10  11
HETATM   11  N   UNL     1     -11.738   8.754  70.444  1.00  0.00    -0.467 NA 
HETATM   12  H   UNL     1     -12.692   8.401  70.370  1.00  0.00     0.000 HD 
BRANCH  11  13
HETATM   13  C   UNL     1     -10.713   8.171  69.883  1.00  0.00    -0.241 C  
BRANCH  13  14
HETATM   14  C   UNL     1     -10.068   8.786  68.660  1.00  0.00    -0.207 A  
HETATM   15 CL   UNL     1      -8.069   9.951  70.177  1.00  0.00    -0.195 Cl 
HETATM   16  C   UNL     1     -10.630   8.526  67.394  1.00  0.00    -0.304 A  
HETATM   17  C   UNL     1      -8.896   9.565  68.708  1.00  0.00    -0.132 A  
HETATM   18  C   UNL     1     -10.022   8.976  66.215  1.00  0.00    -0.352 A  
HETATM   19 CL   UNL     1      -8.078  10.232  64.837  1.00  0.00    -0.156 Cl 
HETATM   20  C   UNL     1      -8.848   9.716  66.285  1.00  0.00    -0.151 A  
HETATM   21  C   UNL     1      -8.293  10.025  67.523  1.00  0.00    -0.118 A  
ENDBRANCH  13  14
BRANCH  13  22
HETATM   22  C   UNL     1     -10.066   6.900  70.430  1.00  0.00    -0.187 C  
BRANCH  22  23
HETATM   23  N   UNL     1      -9.953   6.864  71.882  1.00  0.00    -0.172 NA 
HETATM   24  C   UNL     1     -10.793   6.194  72.729  1.00  0.00    -0.250 A  
HETATM   25  N   UNL     1      -9.230   7.286  73.929  1.00  0.00    -0.228 NA 
HETATM   26  C   UNL     1      -9.009   7.486  72.647  1.00  0.00    -0.144 A  
HETATM   27  C   UNL     1     -10.335   6.484  73.992  1.00  0.00    -0.340 A  
ENDBRANCH  22  23
ENDBRANCH  13  22
ENDBRANCH  11  13
ENDBRANCH  10  11
ENDBRANCH   9  10
ENDBRANCH   6   9
TORSDOF 7
ENDMDL
MODEL       85
REMARK 921   NORMALIZED FREE ENERGY PREDICTED BY IDOCK:   -5.57 KCAL/MOL
REMARK 922        TOTAL FREE ENERGY PREDICTED BY IDOCK:   -8.96 KCAL/MOL
REMARK 923 INTER-LIGAND FREE ENERGY PREDICTED BY IDOCK:   -8.06 KCAL/MOL
REMARK 924 INTRA-LIGAND FREE ENERGY PREDICTED BY IDOCK:   -0.90 KCAL/MOL
REMARK 927      BINDING AFFINITY PREDICTED BY RF-SCORE:    0.00 PKD
ROOT
HETATM    1 CL   UNL     1     -10.738  17.180  69.192  1.00  0.00    -0.261 Cl 
HETATM    2  C   UNL     1     -11.408  15.664  69.652  1.00  0.00    -0.329 A  
HETATM    3  C   UNL     1     -12.058  15.540  70.877  1.00  0.00    -0.433 A  
HETATM    4  C   UNL     1     -12.534  14.285  71.280  1.00  0.00    -0.365 A  
HETATM    5 CL   UNL     1     -13.332  14.210  72.815  1.00  0.00    -0.619 Cl 
HETATM    6  C   UNL     1     -12.361  13.136  70.479  1.00  0.00    -0.380 A  
HETATM    7  C   UNL     1     -11.754  13.306  69.224  1.00  0.00    -0.380 A  
HETATM    8  C   UNL     1     -11.280  14.561  68.816  1.00  0.00    -0.281 A  
ENDROOT
BRANCH   6   9
HETATM    9  C   UNL     1     -12.707  11.755  71.020  1.00  0.00    -0.275 C  
BRANCH   9  10
HETATM   10  O   UNL     1     -12.627  10.680  70.056  1.00  0.00    -0.306 OA 
BRANCH  10  11
HETATM   11  N   UNL     1     -12.539   9.439  70.731  1.00  0.00    -0.504 NA 
HETATM   12  H   UNL     1     -13.354   8.923  71.062  1.00  0.00     0.000 HD 
BRANCH  11  13
HETATM   13  C   UNL     1     -11.312   9.019  70.889  1.00  0.00    -0.293 C  
BRANCH  13  14
HETATM   14  C   UNL     1     -11.040   7.757  71.679  1.00  0.00    -0.275 A  
HETATM   15 CL   UNL     1     -11.301   6.172  69.426  1.00  0.00    -0.482 Cl 
HETATM   16  C   UNL     1     -10.754   7.866  73.054  1.00  0.00    -0.408 A  
HETATM   17  C   UNL     1     -11.002   6.473  71.102  1.00  0.00    -0.266 A  
HETATM   18  C   UNL     1     -10.390   6.750  73.818  1.00  0.00    -0.397 A  
HETATM   19 CL   UNL     1      -9.838   4.134  74.148  1.00  0.00    -0.148 Cl 
HETATM   20  C   UNL     1     -10.328   5.498  73.221  1.00  0.00    -0.209 A  
HETATM   21  C   UNL     1     -10.646   5.352  71.875  1.00  0.00    -0.288 A  
ENDBRANCH  13  14
BRANCH  13  22
HETATM   22  C   UNL     1     -10.101   9.707  70.263  1.00  0.00    -0.275 C  
BRANCH  22  23
HETATM   23  N   UNL     1      -9.710   9.168  68.968  1.00  0.00    -0.163 NA 
HETATM   24  C   UNL     1     -10.421   9.296  67.806  1.00  0.00    -0.255 A  
HETATM   25  N   UNL     1      -8.570   8.069  67.424  1.00  0.00    -0.125 NA 
HETATM   26  C   UNL     1      -8.588   8.444  68.686  1.00  0.00    -0.132 A  
HETATM   27  C   UNL     1      -9.703   8.594  66.867  1.00  0.00    -0.214 A  
ENDBRANCH  22  23
ENDBRANCH  13  22
ENDBRANCH  11  13
ENDBRANCH  10  11
ENDBRANCH   9  10
ENDBRANCH   6   9
TORSDOF 7
ENDMDL
MODEL       86
REMARK 921   NORMALIZED FREE ENERGY PREDICTED BY IDOCK:   -5.57 KCAL/MOL
REMARK 922        TOTAL FREE ENERGY PREDICTED BY IDOCK:   -8.96 KCAL/MOL
REMARK 923 INTER-LIGAND FREE ENERGY PREDICTED BY IDOCK:   -8.07 KCAL/MOL
REMARK 924 INTRA-LIGAND FREE ENERGY PREDICTED BY IDOCK:   -0.89 KCAL/MOL
REMARK 927      BINDING AFFINITY PREDICTED BY RF-SCORE:    0.00 PKD
ROOT
HETATM    1 CL   UNL     1     -10.129  19.350  65.999  1.00  0.00    -0.494 Cl 
HETATM    2  C   UNL     1     -10.409  17.749  66.557  1.00  0.00    -0.345 A  
HETATM    3  C   UNL     1     -10.415  16.693  65.648  1.00  0.00    -0.313 A  
HETATM    4  C   UNL     1     -10.719  15.400  66.097  1.00  0.00    -0.314 A  
HETATM    5 CL   UNL     1     -10.706  14.139  64.910  1.00  0.00    -0.419 Cl 
HETATM    6  C   UNL     1     -11.034  15.141  67.448  1.00  0.00    -0.314 A  
HETATM    7  C   UNL     1     -10.962  16.216  68.348  1.00  0.00    -0.341 A  
HETATM    8  C   UNL     1     -10.654  17.510  67.904  1.00  0.00    -0.390 A  
ENDROOT
BRANCH   6   9
HETATM    9  C   UNL     1     -11.553  13.774  67.875  1.00  0.00    -0.341 C  
BRANCH   9  10
HETATM   10  O   UNL     1     -10.532  12.785  68.138  1.00  0.00    -0.222 OA 
BRANCH  10  11
HETATM   11  N   UNL     1     -10.806  12.130  69.363  1.00  0.00    -0.453 NA 
HETATM   12  H   UNL     1     -10.889  12.621  70.254  1.00  0.00     0.000 HD 
BRANCH  11  13
HETATM   13  C   UNL     1     -10.943  10.837  69.243  1.00  0.00    -0.241 C  
BRANCH  13  14
HETATM   14  C   UNL     1     -10.800   9.944  70.456  1.00  0.00    -0.391 A  
HETATM   15 CL   UNL     1     -13.512  10.070  70.990  1.00  0.00    -0.358 Cl 
HETATM   16  C   UNL     1      -9.528   9.430  70.774  1.00  0.00    -0.307 A  
HETATM   17  C   UNL     1     -11.886   9.550  71.262  1.00  0.00    -0.373 A  
HETATM   18  C   UNL     1      -9.347   8.515  71.820  1.00  0.00    -0.323 A  
HETATM   19 CL   UNL     1     -10.224   6.959  73.836  1.00  0.00    -0.383 Cl 
HETATM   20  C   UNL     1     -10.437   8.115  72.581  1.00  0.00    -0.330 A  
HETATM   21  C   UNL     1     -11.700   8.639  72.318  1.00  0.00    -0.428 A  
ENDBRANCH  13  14
BRANCH  13  22
HETATM   22  C   UNL     1     -11.303  10.149  67.928  1.00  0.00    -0.032 C  
BRANCH  22  23
HETATM   23  N   UNL     1     -10.238   9.327  67.371  1.00  0.00    -0.226 NA 
HETATM   24  C   UNL     1     -10.318   7.983  67.122  1.00  0.00    -0.325 A  
HETATM   25  N   UNL     1      -8.258   8.725  66.591  1.00  0.00    -0.106 NA 
HETATM   26  C   UNL     1      -8.988   9.737  67.011  1.00  0.00    -0.138 A  
HETATM   27  C   UNL     1      -9.075   7.630  66.654  1.00  0.00    -0.164 A  
ENDBRANCH  22  23
ENDBRANCH  13  22
ENDBRANCH  11  13
ENDBRANCH  10  11
ENDBRANCH   9  10
ENDBRANCH   6   9
TORSDOF 7
ENDMDL
MODEL       87
REMARK 921   NORMALIZED FREE ENERGY PREDICTED BY IDOCK:   -5.56 KCAL/MOL
REMARK 922        TOTAL FREE ENERGY PREDICTED BY IDOCK:   -8.95 KCAL/MOL
REMARK 923 INTER-LIGAND FREE ENERGY PREDICTED BY IDOCK:   -7.07 KCAL/MOL
REMARK 924 INTRA-LIGAND FREE ENERGY PREDICTED BY IDOCK:   -1.89 KCAL/MOL
REMARK 927      BINDING AFFINITY PREDICTED BY RF-SCORE:    0.00 PKD
ROOT
HETATM    1 CL   UNL     1     -11.002  11.966  63.206  1.00  0.00    -0.427 Cl 
HETATM    2  C   UNL     1     -11.109  12.520  64.830  1.00  0.00    -0.299 A  
HETATM    3  C   UNL     1     -10.014  12.381  65.680  1.00  0.00    -0.261 A  
HETATM    4  C   UNL     1     -10.133  12.764  67.023  1.00  0.00    -0.240 A  
HETATM    5 CL   UNL     1      -8.730  12.563  68.018  1.00  0.00    -0.179 Cl 
HETATM    6  C   UNL     1     -11.341  13.276  67.543  1.00  0.00    -0.329 A  
HETATM    7  C   UNL     1     -12.407  13.458  66.647  1.00  0.00    -0.324 A  
HETATM    8  C   UNL     1     -12.291  13.080  65.302  1.00  0.00    -0.537 A  
ENDROOT
BRANCH   6   9
HETATM    9  C   UNL     1     -11.508  13.498  69.041  1.00  0.00    -0.303 C  
BRANCH   9  10
HETATM   10  O   UNL     1     -12.158  12.421  69.753  1.00  0.00    -0.285 OA 
BRANCH  10  11
HETATM   11  N   UNL     1     -11.181  11.552  70.297  1.00  0.00    -0.437 NA 
HETATM   12  H   UNL     1     -10.387  11.879  70.848  1.00  0.00     0.000 HD 
BRANCH  11  13
HETATM   13  C   UNL     1     -11.396  10.293  70.026  1.00  0.00    -0.301 C  
BRANCH  13  14
HETATM   14  C   UNL     1     -10.514   9.573  69.028  1.00  0.00    -0.229 A  
HETATM   15 CL   UNL     1      -8.462   9.328  70.869  1.00  0.00    -0.240 Cl 
HETATM   16  C   UNL     1     -11.024   9.303  67.743  1.00  0.00    -0.072 A  
HETATM   17  C   UNL     1      -9.221   9.104  69.331  1.00  0.00    -0.156 A  
HETATM   18  C   UNL     1     -10.301   8.548  66.810  1.00  0.00    -0.346 A  
HETATM   19 CL   UNL     1      -8.170   7.105  66.014  1.00  0.00    -0.121 Cl 
HETATM   20  C   UNL     1      -9.041   8.069  67.142  1.00  0.00    -0.137 A  
HETATM   21  C   UNL     1      -8.492   8.356  68.388  1.00  0.00    -0.135 A  
ENDBRANCH  13  14
BRANCH  13  22
HETATM   22  C   UNL     1     -12.475   9.458  70.711  1.00  0.00    -0.081 C  
BRANCH  22  23
HETATM   23  N   UNL     1     -11.973   8.269  71.386  1.00  0.00    -0.293 NA 
HETATM   24  C   UNL     1     -12.138   6.981  70.956  1.00  0.00    -0.368 A  
HETATM   25  N   UNL     1     -11.014   6.983  72.908  1.00  0.00    -0.294 NA 
HETATM   26  C   UNL     1     -11.266   8.225  72.552  1.00  0.00    -0.376 A  
HETATM   27  C   UNL     1     -11.549   6.201  71.923  1.00  0.00    -0.296 A  
ENDBRANCH  22  23
ENDBRANCH  13  22
ENDBRANCH  11  13
ENDBRANCH  10  11
ENDBRANCH   9  10
ENDBRANCH   6   9
TORSDOF 7
ENDMDL
MODEL       88
REMARK 921   NORMALIZED FREE ENERGY PREDICTED BY IDOCK:   -5.55 KCAL/MOL
REMARK 922        TOTAL FREE ENERGY PREDICTED BY IDOCK:   -8.95 KCAL/MOL
REMARK 923 INTER-LIGAND FREE ENERGY PREDICTED BY IDOCK:   -8.22 KCAL/MOL
REMARK 924 INTRA-LIGAND FREE ENERGY PREDICTED BY IDOCK:   -0.73 KCAL/MOL
REMARK 927      BINDING AFFINITY PREDICTED BY RF-SCORE:    0.00 PKD
ROOT
HETATM    1 CL   UNL     1     -12.422  16.294  74.448  1.00  0.00    -0.637 Cl 
HETATM    2  C   UNL     1     -12.333  15.301  73.048  1.00  0.00    -0.417 A  
HETATM    3  C   UNL     1     -11.445  15.628  72.026  1.00  0.00    -0.495 A  
HETATM    4  C   UNL     1     -11.431  14.858  70.854  1.00  0.00    -0.261 A  
HETATM    5 CL   UNL     1     -10.301  15.325  69.628  1.00  0.00    -0.265 Cl 
HETATM    6  C   UNL     1     -12.305  13.764  70.677  1.00  0.00    -0.445 A  
HETATM    7  C   UNL     1     -13.145  13.425  71.749  1.00  0.00    -0.479 A  
HETATM    8  C   UNL     1     -13.159  14.190  72.925  1.00  0.00    -0.544 A  
ENDROOT
BRANCH   6   9
HETATM    9  C   UNL     1     -12.411  13.067  69.326  1.00  0.00     0.065 C  
BRANCH   9  10
HETATM   10  O   UNL     1     -12.112  11.653  69.340  1.00  0.00    -0.306 OA 
BRANCH  10  11
HETATM   11  N   UNL     1     -10.788  11.450  69.800  1.00  0.00    -0.460 NA 
HETATM   12  H   UNL     1     -10.401  11.924  70.616  1.00  0.00     0.000 HD 
BRANCH  11  13
HETATM   13  C   UNL     1     -10.112  10.597  69.078  1.00  0.00    -0.213 C  
BRANCH  13  14
HETATM   14  C   UNL     1      -9.970  10.813  67.587  1.00  0.00    -0.199 A  
HETATM   15 CL   UNL     1     -10.501   8.152  67.050  1.00  0.00    -0.402 Cl 
HETATM   16  C   UNL     1      -9.705  12.113  67.112  1.00  0.00    -0.203 A  
HETATM   17  C   UNL     1     -10.144   9.792  66.633  1.00  0.00    -0.237 A  
HETATM   18  C   UNL     1      -9.667  12.400  65.742  1.00  0.00    -0.210 A  
HETATM   19 CL   UNL     1      -9.871  11.742  63.138  1.00  0.00    -0.420 Cl 
HETATM   20  C   UNL     1      -9.873  11.383  64.819  1.00  0.00    -0.259 A  
HETATM   21  C   UNL     1     -10.095  10.080  65.257  1.00  0.00    -0.299 A  
ENDBRANCH  13  14
BRANCH  13  22
HETATM   22  C   UNL     1      -9.386   9.389  69.665  1.00  0.00    -0.189 C  
BRANCH  22  23
HETATM   23  N   UNL     1     -10.163   8.643  70.646  1.00  0.00    -0.191 NA 
HETATM   24  C   UNL     1     -11.279   7.898  70.376  1.00  0.00    -0.234 A  
HETATM   25  N   UNL     1     -10.853   7.841  72.587  1.00  0.00    -0.323 NA 
HETATM   26  C   UNL     1      -9.927   8.558  71.986  1.00  0.00    -0.313 A  
HETATM   27  C   UNL     1     -11.698   7.425  71.596  1.00  0.00    -0.279 A  
ENDBRANCH  22  23
ENDBRANCH  13  22
ENDBRANCH  11  13
ENDBRANCH  10  11
ENDBRANCH   9  10
ENDBRANCH   6   9
TORSDOF 7
ENDMDL
MODEL       89
REMARK 921   NORMALIZED FREE ENERGY PREDICTED BY IDOCK:   -5.54 KCAL/MOL
REMARK 922        TOTAL FREE ENERGY PREDICTED BY IDOCK:   -8.93 KCAL/MOL
REMARK 923 INTER-LIGAND FREE ENERGY PREDICTED BY IDOCK:   -8.19 KCAL/MOL
REMARK 924 INTRA-LIGAND FREE ENERGY PREDICTED BY IDOCK:   -0.75 KCAL/MOL
REMARK 927      BINDING AFFINITY PREDICTED BY RF-SCORE:    0.00 PKD
ROOT
HETATM    1 CL   UNL     1     -10.156  17.371  66.876  1.00  0.00    -0.303 Cl 
HETATM    2  C   UNL     1     -10.889  16.248  67.951  1.00  0.00    -0.330 A  
HETATM    3  C   UNL     1     -11.030  16.574  69.298  1.00  0.00    -0.302 A  
HETATM    4  C   UNL     1     -11.558  15.625  70.183  1.00  0.00    -0.354 A  
HETATM    5 CL   UNL     1     -11.703  16.102  71.842  1.00  0.00    -0.579 Cl 
HETATM    6  C   UNL     1     -11.942  14.338  69.748  1.00  0.00    -0.394 A  
HETATM    7  C   UNL     1     -11.842  14.063  68.375  1.00  0.00    -0.397 A  
HETATM    8  C   UNL     1     -11.318  15.011  67.485  1.00  0.00    -0.340 A  
ENDROOT
BRANCH   6   9
HETATM    9  C   UNL     1     -12.325  13.261  70.755  1.00  0.00    -0.344 C  
BRANCH   9  10
HETATM   10  O   UNL     1     -12.267  11.906  70.255  1.00  0.00    -0.309 OA 
BRANCH  10  11
HETATM   11  N   UNL     1     -10.917  11.521  70.076  1.00  0.00    -0.425 NA 
HETATM   12  H   UNL     1     -10.141  12.183  70.082  1.00  0.00     0.000 HD 
BRANCH  11  13
HETATM   13  C   UNL     1     -10.761  10.236  69.903  1.00  0.00    -0.294 C  
BRANCH  13  14
HETATM   14  C   UNL     1     -10.623   9.322  71.101  1.00  0.00    -0.402 A  
HETATM   15 CL   UNL     1     -13.367   9.076  71.354  1.00  0.00    -0.352 Cl 
HETATM   16  C   UNL     1      -9.332   8.963  71.535  1.00  0.00    -0.335 A  
HETATM   17  C   UNL     1     -11.721   8.759  71.779  1.00  0.00    -0.346 A  
HETATM   18  C   UNL     1      -9.136   8.038  72.569  1.00  0.00    -0.271 A  
HETATM   19 CL   UNL     1      -9.995   6.304  74.443  1.00  0.00    -0.310 Cl 
HETATM   20  C   UNL     1     -10.234   7.472  73.203  1.00  0.00    -0.327 A  
HETATM   21  C   UNL     1     -11.522   7.839  72.825  1.00  0.00    -0.415 A  
ENDBRANCH  13  14
BRANCH  13  22
HETATM   22  C   UNL     1     -10.765   9.567  68.530  1.00  0.00    -0.182 C  
BRANCH  22  23
HETATM   23  N   UNL     1      -9.858  10.174  67.566  1.00  0.00    -0.172 NA 
HETATM   24  C   UNL     1      -8.509   9.956  67.497  1.00  0.00    -0.115 A  
HETATM   25  N   UNL     1      -9.111  11.448  65.920  1.00  0.00    -0.209 NA 
HETATM   26  C   UNL     1     -10.182  11.058  66.579  1.00  0.00    -0.234 A  
HETATM   27  C   UNL     1      -8.066  10.768  66.480  1.00  0.00    -0.146 A  
ENDBRANCH  22  23
ENDBRANCH  13  22
ENDBRANCH  11  13
ENDBRANCH  10  11
ENDBRANCH   9  10
ENDBRANCH   6   9
TORSDOF 7
ENDMDL
MODEL       90
REMARK 921   NORMALIZED FREE ENERGY PREDICTED BY IDOCK:   -5.50 KCAL/MOL
REMARK 922        TOTAL FREE ENERGY PREDICTED BY IDOCK:   -8.88 KCAL/MOL
REMARK 923 INTER-LIGAND FREE ENERGY PREDICTED BY IDOCK:   -7.99 KCAL/MOL
REMARK 924 INTRA-LIGAND FREE ENERGY PREDICTED BY IDOCK:   -0.88 KCAL/MOL
REMARK 927      BINDING AFFINITY PREDICTED BY RF-SCORE:    0.00 PKD
ROOT
HETATM    1 CL   UNL     1     -10.480   4.104  72.466  1.00  0.00    -0.232 Cl 
HETATM    2  C   UNL     1     -10.400   5.685  71.795  1.00  0.00    -0.215 A  
HETATM    3  C   UNL     1      -9.236   6.436  71.935  1.00  0.00    -0.149 A  
HETATM    4  C   UNL     1      -9.205   7.752  71.453  1.00  0.00    -0.134 A  
HETATM    5 CL   UNL     1      -7.723   8.624  71.664  1.00  0.00    -0.153 Cl 
HETATM    6  C   UNL     1     -10.329   8.343  70.838  1.00  0.00    -0.234 A  
HETATM    7  C   UNL     1     -11.466   7.539  70.659  1.00  0.00    -0.291 A  
HETATM    8  C   UNL     1     -11.501   6.221  71.136  1.00  0.00    -0.362 A  
ENDROOT
BRANCH   6   9
HETATM    9  C   UNL     1     -10.338   9.828  70.501  1.00  0.00    -0.283 C  
BRANCH   9  10
HETATM   10  O   UNL     1      -9.920  10.155  69.156  1.00  0.00    -0.187 OA 
BRANCH  10  11
HETATM   11  N   UNL     1      -9.879  11.562  68.999  1.00  0.00    -0.411 NA 
HETATM   12  H   UNL     1      -9.018  12.106  69.057  1.00  0.00     0.000 HD 
BRANCH  11  13
HETATM   13  C   UNL     1     -11.050  12.095  68.772  1.00  0.00    -0.250 C  
BRANCH  13  14
HETATM   14  C   UNL     1     -11.664  13.033  69.788  1.00  0.00    -0.346 A  
HETATM   15 CL   UNL     1     -10.448  15.235  68.637  1.00  0.00    -0.230 Cl 
HETATM   16  C   UNL     1     -12.532  12.502  70.763  1.00  0.00    -0.357 A  
HETATM   17  C   UNL     1     -11.460  14.426  69.782  1.00  0.00    -0.276 A  
HETATM   18  C   UNL     1     -13.215  13.329  71.665  1.00  0.00    -0.446 A  
HETATM   19 CL   UNL     1     -13.894  15.722  72.697  1.00  0.00    -0.642 Cl 
HETATM   20  C   UNL     1     -13.023  14.704  71.620  1.00  0.00    -0.335 A  
HETATM   21  C   UNL     1     -12.138  15.253  70.696  1.00  0.00    -0.399 A  
ENDBRANCH  13  14
BRANCH  13  22
HETATM   22  C   UNL     1     -11.839  11.871  67.484  1.00  0.00    -0.179 C  
BRANCH  22  23
HETATM   23  N   UNL     1     -11.579  12.857  66.445  1.00  0.00    -0.351 NA 
HETATM   24  C   UNL     1     -10.463  12.903  65.654  1.00  0.00    -0.277 A  
HETATM   25  N   UNL     1     -11.821  14.626  65.140  1.00  0.00    -0.365 NA 
HETATM   26  C   UNL     1     -12.383  13.898  66.082  1.00  0.00    -0.465 A  
HETATM   27  C   UNL     1     -10.629  14.017  64.865  1.00  0.00    -0.424 A  
ENDBRANCH  22  23
ENDBRANCH  13  22
ENDBRANCH  11  13
ENDBRANCH  10  11
ENDBRANCH   9  10
ENDBRANCH   6   9
TORSDOF 7
ENDMDL
MODEL       91
REMARK 921   NORMALIZED FREE ENERGY PREDICTED BY IDOCK:   -5.50 KCAL/MOL
REMARK 922        TOTAL FREE ENERGY PREDICTED BY IDOCK:   -8.87 KCAL/MOL
REMARK 923 INTER-LIGAND FREE ENERGY PREDICTED BY IDOCK:   -8.06 KCAL/MOL
REMARK 924 INTRA-LIGAND FREE ENERGY PREDICTED BY IDOCK:   -0.81 KCAL/MOL
REMARK 927      BINDING AFFINITY PREDICTED BY RF-SCORE:    0.00 PKD
ROOT
HETATM    1 CL   UNL     1      -5.145  19.209  68.376  1.00  0.00    -0.181 Cl 
HETATM    2  C   UNL     1      -6.661  18.526  67.940  1.00  0.00    -0.209 A  
HETATM    3  C   UNL     1      -7.806  19.319  67.956  1.00  0.00    -0.333 A  
HETATM    4  C   UNL     1      -9.049  18.738  67.674  1.00  0.00    -0.282 A  
HETATM    5 CL   UNL     1     -10.427  19.788  67.714  1.00  0.00    -0.565 Cl 
HETATM    6  C   UNL     1      -9.176  17.363  67.386  1.00  0.00    -0.236 A  
HETATM    7  C   UNL     1      -7.996  16.604  67.319  1.00  0.00    -0.193 A  
HETATM    8  C   UNL     1      -6.749  17.182  67.596  1.00  0.00    -0.160 A  
ENDROOT
BRANCH   6   9
HETATM    9  C   UNL     1     -10.551  16.716  67.278  1.00  0.00    -0.281 C  
BRANCH   9  10
HETATM   10  O   UNL     1     -11.213  16.468  68.539  1.00  0.00    -0.360 OA 
BRANCH  10  11
HETATM   11  N   UNL     1     -10.758  15.243  69.084  1.00  0.00    -0.239 NA 
HETATM   12  H   UNL     1      -9.774  15.040  69.261  1.00  0.00     0.000 HD 
BRANCH  11  13
HETATM   13  C   UNL     1     -11.720  14.396  69.336  1.00  0.00    -0.317 C  
BRANCH  13  14
HETATM   14  C   UNL     1     -11.583  12.948  68.918  1.00  0.00    -0.360 A  
HETATM   15 CL   UNL     1     -11.390  13.635  66.245  1.00  0.00    -0.312 Cl 
HETATM   16  C   UNL     1     -11.564  11.954  69.916  1.00  0.00    -0.333 A  
HETATM   17  C   UNL     1     -11.417  12.538  67.582  1.00  0.00    -0.334 A  
HETATM   18  C   UNL     1     -11.334  10.607  69.605  1.00  0.00    -0.360 A  
HETATM   19 CL   UNL     1     -10.814   8.584  67.904  1.00  0.00    -0.125 Cl 
HETATM   20  C   UNL     1     -11.140  10.230  68.282  1.00  0.00    -0.254 A  
HETATM   21  C   UNL     1     -11.197  11.183  67.271  1.00  0.00    -0.347 A  
ENDBRANCH  13  14
BRANCH  13  22
HETATM   22  C   UNL     1     -12.990  14.771  70.098  1.00  0.00    -0.043 C  
BRANCH  22  23
HETATM   23  N   UNL     1     -12.777  15.057  71.510  1.00  0.00    -0.315 NA 
HETATM   24  C   UNL     1     -13.236  14.299  72.553  1.00  0.00    -0.490 A  
HETATM   25  N   UNL     1     -12.143  16.099  73.355  1.00  0.00    -0.486 NA 
HETATM   26  C   UNL     1     -12.100  16.117  72.039  1.00  0.00    -0.496 A  
HETATM   27  C   UNL     1     -12.845  14.973  73.685  1.00  0.00    -0.446 A  
ENDBRANCH  22  23
ENDBRANCH  13  22
ENDBRANCH  11  13
ENDBRANCH  10  11
ENDBRANCH   9  10
ENDBRANCH   6   9
TORSDOF 7
ENDMDL
MODEL       92
REMARK 921   NORMALIZED FREE ENERGY PREDICTED BY IDOCK:   -5.49 KCAL/MOL
REMARK 922        TOTAL FREE ENERGY PREDICTED BY IDOCK:   -8.85 KCAL/MOL
REMARK 923 INTER-LIGAND FREE ENERGY PREDICTED BY IDOCK:   -8.02 KCAL/MOL
REMARK 924 INTRA-LIGAND FREE ENERGY PREDICTED BY IDOCK:   -0.83 KCAL/MOL
REMARK 927      BINDING AFFINITY PREDICTED BY RF-SCORE:    0.00 PKD
ROOT
HETATM    1 CL   UNL     1     -11.497   6.130  72.131  1.00  0.00    -0.346 Cl 
HETATM    2  C   UNL     1     -11.479   7.694  71.419  1.00  0.00    -0.264 A  
HETATM    3  C   UNL     1     -12.253   8.713  71.971  1.00  0.00    -0.439 A  
HETATM    4  C   UNL     1     -12.294   9.964  71.341  1.00  0.00    -0.404 A  
HETATM    5 CL   UNL     1     -13.276  11.180  72.087  1.00  0.00    -0.487 Cl 
HETATM    6  C   UNL     1     -11.580  10.217  70.150  1.00  0.00    -0.376 A  
HETATM    7  C   UNL     1     -10.764   9.189  69.652  1.00  0.00    -0.236 A  
HETATM    8  C   UNL     1     -10.717   7.936  70.282  1.00  0.00    -0.236 A  
ENDROOT
BRANCH   6   9
HETATM    9  C   UNL     1     -11.794  11.513  69.379  1.00  0.00    -0.350 C  
BRANCH   9  10
HETATM   10  O   UNL     1     -11.843  11.371  67.941  1.00  0.00    -0.588 OA 
BRANCH  10  11
HETATM   11  N   UNL     1     -12.111  12.627  67.346  1.00  0.00    -0.435 NA 
HETATM   12  H   UNL     1     -13.037  13.055  67.336  1.00  0.00     0.000 HD 
BRANCH  11  13
HETATM   13  C   UNL     1     -11.058  13.184  66.810  1.00  0.00    -0.289 C  
BRANCH  13  14
HETATM   14  C   UNL     1     -10.931  14.692  66.785  1.00  0.00    -0.323 A  
HETATM   15 CL   UNL     1     -11.108  14.853  69.541  1.00  0.00    -0.283 Cl 
HETATM   16  C   UNL     1     -10.750  15.336  65.545  1.00  0.00    -0.385 A  
HETATM   17  C   UNL     1     -10.926  15.491  67.944  1.00  0.00    -0.316 A  
HETATM   18  C   UNL     1     -10.520  16.716  65.462  1.00  0.00    -0.285 A  
HETATM   19 CL   UNL     1     -10.162  19.165  66.524  1.00  0.00    -0.462 Cl 
HETATM   20  C   UNL     1     -10.488  17.479  66.621  1.00  0.00    -0.270 A  
HETATM   21  C   UNL     1     -10.706  16.878  67.857  1.00  0.00    -0.344 A  
ENDBRANCH  13  14
BRANCH  13  22
HETATM   22  C   UNL     1      -9.885  12.390  66.241  1.00  0.00    -0.247 C  
BRANCH  22  23
HETATM   23  N   UNL     1      -8.734  12.303  67.130  1.00  0.00    -0.186 NA 
HETATM   24  C   UNL     1      -7.812  13.293  67.335  1.00  0.00    -0.153 A  
HETATM   25  N   UNL     1      -7.249  11.476  68.544  1.00  0.00    -0.089 NA 
HETATM   26  C   UNL     1      -8.371  11.237  67.900  1.00  0.00    -0.131 A  
HETATM   27  C   UNL     1      -6.893  12.752  68.203  1.00  0.00    -0.094 A  
ENDBRANCH  22  23
ENDBRANCH  13  22
ENDBRANCH  11  13
ENDBRANCH  10  11
ENDBRANCH   9  10
ENDBRANCH   6   9
TORSDOF 7
ENDMDL
MODEL       93
REMARK 921   NORMALIZED FREE ENERGY PREDICTED BY IDOCK:   -5.47 KCAL/MOL
REMARK 922        TOTAL FREE ENERGY PREDICTED BY IDOCK:   -8.83 KCAL/MOL
REMARK 923 INTER-LIGAND FREE ENERGY PREDICTED BY IDOCK:   -7.32 KCAL/MOL
REMARK 924 INTRA-LIGAND FREE ENERGY PREDICTED BY IDOCK:   -1.51 KCAL/MOL
REMARK 927      BINDING AFFINITY PREDICTED BY RF-SCORE:    0.00 PKD
ROOT
HETATM    1 CL   UNL     1     -10.291  12.014  62.963  1.00  0.00    -0.257 Cl 
HETATM    2  C   UNL     1     -10.694  12.729  64.474  1.00  0.00    -0.358 A  
HETATM    3  C   UNL     1      -9.701  13.342  65.234  1.00  0.00     0.008 A  
HETATM    4  C   UNL     1     -10.020  13.855  66.499  1.00  0.00    -0.285 A  
HETATM    5 CL   UNL     1      -8.733  14.602  67.384  1.00  0.00    -0.193 Cl 
HETATM    6  C   UNL     1     -11.324  13.756  67.030  1.00  0.00    -0.345 A  
HETATM    7  C   UNL     1     -12.314  13.185  66.215  1.00  0.00    -0.346 A  
HETATM    8  C   UNL     1     -12.000  12.674  64.947  1.00  0.00    -0.459 A  
ENDROOT
BRANCH   6   9
HETATM    9  C   UNL     1     -11.602  14.139  68.478  1.00  0.00    -0.316 C  
BRANCH   9  10
HETATM   10  O   UNL     1     -11.936  13.037  69.352  1.00  0.00    -0.306 OA 
BRANCH  10  11
HETATM   11  N   UNL     1     -10.765  12.304  69.663  1.00  0.00    -0.338 NA 
HETATM   12  H   UNL     1      -9.911  12.737  70.014  1.00  0.00     0.000 HD 
BRANCH  11  13
HETATM   13  C   UNL     1     -10.886  11.020  69.458  1.00  0.00    -0.216 C  
BRANCH  13  14
HETATM   14  C   UNL     1     -10.794  10.056  70.622  1.00  0.00    -0.367 A  
HETATM   15 CL   UNL     1     -13.519  10.195  71.080  1.00  0.00    -0.356 Cl 
HETATM   16  C   UNL     1      -9.540   9.503  70.946  1.00  0.00    -0.216 A  
HETATM   17  C   UNL     1     -11.909   9.634  71.370  1.00  0.00    -0.406 A  
HETATM   18  C   UNL     1      -9.404   8.526  71.941  1.00  0.00    -0.337 A  
HETATM   19 CL   UNL     1     -10.365   6.870  73.836  1.00  0.00    -0.401 Cl 
HETATM   20  C   UNL     1     -10.523   8.101  72.645  1.00  0.00    -0.330 A  
HETATM   21  C   UNL     1     -11.769   8.660  72.376  1.00  0.00    -0.393 A  
ENDBRANCH  13  14
BRANCH  13  22
HETATM   22  C   UNL     1     -11.179  10.412  68.089  1.00  0.00    -0.268 C  
BRANCH  22  23
HETATM   23  N   UNL     1      -9.998  10.200  67.264  1.00  0.00    -0.186 NA 
HETATM   24  C   UNL     1      -9.977   9.556  66.056  1.00  0.00    -0.278 A  
HETATM   25  N   UNL     1      -7.886  10.193  66.606  1.00  0.00    -0.108 NA 
HETATM   26  C   UNL     1      -8.721  10.591  67.543  1.00  0.00    -0.125 A  
HETATM   27  C   UNL     1      -8.655   9.551  65.676  1.00  0.00    -0.138 A  
ENDBRANCH  22  23
ENDBRANCH  13  22
ENDBRANCH  11  13
ENDBRANCH  10  11
ENDBRANCH   9  10
ENDBRANCH   6   9
TORSDOF 7
ENDMDL
MODEL       94
REMARK 921   NORMALIZED FREE ENERGY PREDICTED BY IDOCK:   -5.46 KCAL/MOL
REMARK 922        TOTAL FREE ENERGY PREDICTED BY IDOCK:   -8.82 KCAL/MOL
REMARK 923 INTER-LIGAND FREE ENERGY PREDICTED BY IDOCK:   -7.94 KCAL/MOL
REMARK 924 INTRA-LIGAND FREE ENERGY PREDICTED BY IDOCK:   -0.87 KCAL/MOL
REMARK 927      BINDING AFFINITY PREDICTED BY RF-SCORE:    0.00 PKD
ROOT
HETATM    1 CL   UNL     1      -6.318  19.768  70.303  1.00  0.00    -0.316 Cl 
HETATM    2  C   UNL     1      -6.272  18.260  69.477  1.00  0.00    -0.248 A  
HETATM    3  C   UNL     1      -6.906  18.130  68.244  1.00  0.00    -0.229 A  
HETATM    4  C   UNL     1      -6.930  16.879  67.612  1.00  0.00    -0.137 A  
HETATM    5 CL   UNL     1      -7.736  16.794  66.082  1.00  0.00    -0.305 Cl 
HETATM    6  C   UNL     1      -6.338  15.740  68.200  1.00  0.00    -0.133 A  
HETATM    7  C   UNL     1      -5.657  15.919  69.415  1.00  0.00    -0.118 A  
HETATM    8  C   UNL     1      -5.626  17.169  70.049  1.00  0.00    -0.234 A  
ENDROOT
BRANCH   6   9
HETATM    9  C   UNL     1      -6.547  14.358  67.595  1.00  0.00    -0.152 C  
BRANCH   9  10
HETATM   10  O   UNL     1      -7.779  13.703  67.972  1.00  0.00    -0.114 OA 
BRANCH  10  11
HETATM   11  N   UNL     1      -8.572  13.479  66.821  1.00  0.00    -0.432 NA 
HETATM   12  H   UNL     1      -8.338  12.790  66.106  1.00  0.00     0.000 HD 
BRANCH  11  13
HETATM   13  C   UNL     1      -9.631  14.241  66.763  1.00  0.00    -0.280 C  
BRANCH  13  14
HETATM   14  C   UNL     1     -10.292  14.716  68.039  1.00  0.00    -0.235 A  
HETATM   15 CL   UNL     1     -11.236  12.178  68.611  1.00  0.00    -0.288 Cl 
HETATM   16  C   UNL     1     -10.152  16.066  68.414  1.00  0.00    -0.229 A  
HETATM   17  C   UNL     1     -10.999  13.865  68.911  1.00  0.00    -0.263 A  
HETATM   18  C   UNL     1     -10.648  16.545  69.634  1.00  0.00    -0.302 A  
HETATM   19 CL   UNL     1     -11.885  16.255  72.009  1.00  0.00    -0.598 Cl 
HETATM   20  C   UNL     1     -11.314  15.680  70.493  1.00  0.00    -0.367 A  
HETATM   21  C   UNL     1     -11.506  14.350  70.131  1.00  0.00    -0.280 A  
ENDBRANCH  13  14
BRANCH  13  22
HETATM   22  C   UNL     1     -10.232  14.747  65.454  1.00  0.00    -0.387 C  
BRANCH  22  23
HETATM   23  N   UNL     1     -10.908  13.721  64.671  1.00  0.00    -0.396 NA 
HETATM   24  C   UNL     1     -10.433  12.460  64.434  1.00  0.00    -0.344 A  
HETATM   25  N   UNL     1     -12.404  12.732  63.377  1.00  0.00    -0.700 NA 
HETATM   26  C   UNL     1     -12.111  13.833  64.037  1.00  0.00    -0.403 A  
HETATM   27  C   UNL     1     -11.369  11.872  63.617  1.00  0.00    -0.450 A  
ENDBRANCH  22  23
ENDBRANCH  13  22
ENDBRANCH  11  13
ENDBRANCH  10  11
ENDBRANCH   9  10
ENDBRANCH   6   9
TORSDOF 7
ENDMDL
MODEL       95
REMARK 921   NORMALIZED FREE ENERGY PREDICTED BY IDOCK:   -5.45 KCAL/MOL
REMARK 922        TOTAL FREE ENERGY PREDICTED BY IDOCK:   -8.80 KCAL/MOL
REMARK 923 INTER-LIGAND FREE ENERGY PREDICTED BY IDOCK:   -7.76 KCAL/MOL
REMARK 924 INTRA-LIGAND FREE ENERGY PREDICTED BY IDOCK:   -1.04 KCAL/MOL
REMARK 927      BINDING AFFINITY PREDICTED BY RF-SCORE:    0.00 PKD
ROOT
HETATM    1 CL   UNL     1     -10.215  17.842  66.059  1.00  0.00    -0.334 Cl 
HETATM    2  C   UNL     1     -10.530  16.166  66.277  1.00  0.00    -0.315 A  
HETATM    3  C   UNL     1     -10.447  15.301  65.188  1.00  0.00    -0.438 A  
HETATM    4  C   UNL     1     -10.779  13.950  65.357  1.00  0.00    -0.325 A  
HETATM    5 CL   UNL     1     -10.650  12.936  63.958  1.00  0.00    -0.431 Cl 
HETATM    6  C   UNL     1     -11.209  13.442  66.601  1.00  0.00    -0.330 A  
HETATM    7  C   UNL     1     -11.226  14.327  67.691  1.00  0.00    -0.321 A  
HETATM    8  C   UNL     1     -10.890  15.679  67.528  1.00  0.00    -0.316 A  
ENDROOT
BRANCH   6   9
HETATM    9  C   UNL     1     -11.752  12.023  66.714  1.00  0.00    -0.264 C  
BRANCH   9  10
HETATM   10  O   UNL     1     -11.821  11.499  68.060  1.00  0.00    -0.545 OA 
BRANCH  10  11
HETATM   11  N   UNL     1     -11.642  10.094  68.033  1.00  0.00    -0.667 NA 
HETATM   12  H   UNL     1     -12.273   9.459  67.546  1.00  0.00     0.000 HD 
BRANCH  11  13
HETATM   13  C   UNL     1     -10.590   9.692  68.695  1.00  0.00    -0.217 C  
BRANCH  13  14
HETATM   14  C   UNL     1     -10.740   8.688  69.817  1.00  0.00    -0.215 A  
HETATM   15 CL   UNL     1     -11.072   6.598  68.035  1.00  0.00    -0.321 Cl 
HETATM   16  C   UNL     1     -10.624   9.136  71.148  1.00  0.00    -0.379 A  
HETATM   17  C   UNL     1     -10.936   7.310  69.605  1.00  0.00    -0.186 A  
HETATM   18  C   UNL     1     -10.647   8.243  72.227  1.00  0.00    -0.393 A  
HETATM   19 CL   UNL     1     -10.794   5.782  73.313  1.00  0.00    -0.295 Cl 
HETATM   20  C   UNL     1     -10.809   6.884  71.993  1.00  0.00    -0.225 A  
HETATM   21  C   UNL     1     -10.970   6.416  70.692  1.00  0.00    -0.355 A  
ENDBRANCH  13  14
BRANCH  13  22
HETATM   22  C   UNL     1      -9.168  10.139  68.364  1.00  0.00    -0.133 C  
BRANCH  22  23
HETATM   23  N   UNL     1      -8.797   9.968  66.966  1.00  0.00    -0.138 NA 
HETATM   24  C   UNL     1      -8.287  10.944  66.154  1.00  0.00    -0.168 A  
HETATM   25  N   UNL     1      -8.520   9.034  64.981  1.00  0.00    -0.165 NA 
HETATM   26  C   UNL     1      -8.895   8.826  66.226  1.00  0.00    -0.157 A  
HETATM   27  C   UNL     1      -8.139  10.345  64.925  1.00  0.00    -0.130 A  
ENDBRANCH  22  23
ENDBRANCH  13  22
ENDBRANCH  11  13
ENDBRANCH  10  11
ENDBRANCH   9  10
ENDBRANCH   6   9
TORSDOF 7
ENDMDL
MODEL       96
REMARK 921   NORMALIZED FREE ENERGY PREDICTED BY IDOCK:   -5.44 KCAL/MOL
REMARK 922        TOTAL FREE ENERGY PREDICTED BY IDOCK:   -8.79 KCAL/MOL
REMARK 923 INTER-LIGAND FREE ENERGY PREDICTED BY IDOCK:   -7.94 KCAL/MOL
REMARK 924 INTRA-LIGAND FREE ENERGY PREDICTED BY IDOCK:   -0.85 KCAL/MOL
REMARK 927      BINDING AFFINITY PREDICTED BY RF-SCORE:    0.00 PKD
ROOT
HETATM    1 CL   UNL     1      -7.056   8.385  62.628  1.00  0.00    -0.090 Cl 
HETATM    2  C   UNL     1      -8.258   9.022  63.679  1.00  0.00    -0.177 A  
HETATM    3  C   UNL     1      -9.029  10.107  63.268  1.00  0.00    -0.262 A  
HETATM    4  C   UNL     1      -9.954  10.670  64.158  1.00  0.00    -0.342 A  
HETATM    5 CL   UNL     1     -10.876  12.015  63.575  1.00  0.00    -0.482 Cl 
HETATM    6  C   UNL     1     -10.117  10.175  65.469  1.00  0.00    -0.338 A  
HETATM    7  C   UNL     1      -9.367   9.044  65.832  1.00  0.00    -0.306 A  
HETATM    8  C   UNL     1      -8.444   8.475  64.943  1.00  0.00    -0.166 A  
ENDROOT
BRANCH   6   9
HETATM    9  C   UNL     1     -10.979  10.921  66.479  1.00  0.00    -0.121 C  
BRANCH   9  10
HETATM   10  O   UNL     1     -11.206  10.224  67.725  1.00  0.00    -0.306 OA 
BRANCH  10  11
HETATM   11  N   UNL     1     -12.248  10.860  68.443  1.00  0.00    -0.810 NA 
HETATM   12  H   UNL     1     -13.167  11.051  68.045  1.00  0.00     0.000 HD 
BRANCH  11  13
HETATM   13  C   UNL     1     -11.917  11.178  69.666  1.00  0.00    -0.359 C  
BRANCH  13  14
HETATM   14  C   UNL     1     -11.522  10.096  70.649  1.00  0.00    -0.432 A  
HETATM   15 CL   UNL     1      -8.887  10.154  69.806  1.00  0.00    -0.192 Cl 
HETATM   16  C   UNL     1     -12.501   9.583  71.522  1.00  0.00    -0.463 A  
HETATM   17  C   UNL     1     -10.208   9.608  70.780  1.00  0.00    -0.260 A  
HETATM   18  C   UNL     1     -12.179   8.659  72.524  1.00  0.00    -0.374 A  
HETATM   19 CL   UNL     1     -10.464   7.115  73.914  1.00  0.00    -0.382 Cl 
HETATM   20  C   UNL     1     -10.869   8.215  72.656  1.00  0.00    -0.359 A  
HETATM   21  C   UNL     1      -9.888   8.672  71.780  1.00  0.00    -0.365 A  
ENDBRANCH  13  14
BRANCH  13  22
HETATM   22  C   UNL     1     -11.845  12.617  70.170  1.00  0.00    -0.249 C  
BRANCH  22  23
HETATM   23  N   UNL     1     -11.413  13.581  69.167  1.00  0.00    -0.278 NA 
HETATM   24  C   UNL     1     -10.120  13.970  68.944  1.00  0.00    -0.126 A  
HETATM   25  N   UNL     1     -11.495  15.093  67.556  1.00  0.00    -0.328 NA 
HETATM   26  C   UNL     1     -12.205  14.263  68.290  1.00  0.00    -0.146 A  
HETATM   27  C   UNL     1     -10.198  14.919  67.952  1.00  0.00    -0.228 A  
ENDBRANCH  22  23
ENDBRANCH  13  22
ENDBRANCH  11  13
ENDBRANCH  10  11
ENDBRANCH   9  10
ENDBRANCH   6   9
TORSDOF 7
ENDMDL
MODEL       97
REMARK 921   NORMALIZED FREE ENERGY PREDICTED BY IDOCK:   -5.44 KCAL/MOL
REMARK 922        TOTAL FREE ENERGY PREDICTED BY IDOCK:   -8.78 KCAL/MOL
REMARK 923 INTER-LIGAND FREE ENERGY PREDICTED BY IDOCK:   -8.23 KCAL/MOL
REMARK 924 INTRA-LIGAND FREE ENERGY PREDICTED BY IDOCK:   -0.55 KCAL/MOL
REMARK 927      BINDING AFFINITY PREDICTED BY RF-SCORE:    0.00 PKD
ROOT
HETATM    1 CL   UNL     1      -9.708  10.125  62.615  1.00  0.00    -0.209 Cl 
HETATM    2  C   UNL     1      -9.818  10.759  64.209  1.00  0.00    -0.326 A  
HETATM    3  C   UNL     1      -9.815  12.138  64.405  1.00  0.00    -0.154 A  
HETATM    4  C   UNL     1      -9.828  12.648  65.710  1.00  0.00    -0.228 A  
HETATM    5 CL   UNL     1      -9.824  14.372  65.874  1.00  0.00    -0.338 Cl 
HETATM    6  C   UNL     1      -9.830  11.798  66.837  1.00  0.00    -0.221 A  
HETATM    7  C   UNL     1      -9.892  10.415  66.605  1.00  0.00    -0.251 A  
HETATM    8  C   UNL     1      -9.884   9.900  65.301  1.00  0.00    -0.373 A  
ENDROOT
BRANCH   6   9
HETATM    9  C   UNL     1      -9.644  12.367  68.238  1.00  0.00    -0.211 C  
BRANCH   9  10
HETATM   10  O   UNL     1     -10.713  13.225  68.699  1.00  0.00    -0.254 OA 
BRANCH  10  11
HETATM   11  N   UNL     1     -10.189  14.221  69.557  1.00  0.00    -0.426 NA 
HETATM   12  H   UNL     1      -9.449  14.042  70.236  1.00  0.00     0.000 HD 
BRANCH  11  13
HETATM   13  C   UNL     1     -10.746  15.391  69.396  1.00  0.00    -0.258 C  
BRANCH  13  14
HETATM   14  C   UNL     1      -9.912  16.569  68.940  1.00  0.00    -0.262 A  
HETATM   15 CL   UNL     1      -7.560  15.141  69.225  1.00  0.00    -0.187 Cl 
HETATM   16  C   UNL     1     -10.567  17.756  68.557  1.00  0.00    -0.260 A  
HETATM   17  C   UNL     1      -8.510  16.529  68.823  1.00  0.00    -0.248 A  
HETATM   18  C   UNL     1      -9.863  18.844  68.026  1.00  0.00    -0.404 A  
HETATM   19 CL   UNL     1      -7.622  20.088  67.197  1.00  0.00    -0.309 Cl 
HETATM   20  C   UNL     1      -8.483  18.770  67.889  1.00  0.00    -0.292 A  
HETATM   21  C   UNL     1      -7.803  17.627  68.299  1.00  0.00    -0.256 A  
ENDBRANCH  13  14
BRANCH  13  22
HETATM   22  C   UNL     1     -12.239  15.645  69.590  1.00  0.00    -0.240 C  
BRANCH  22  23
HETATM   23  N   UNL     1     -12.659  15.716  70.982  1.00  0.00    -0.452 NA 
HETATM   24  C   UNL     1     -13.902  15.395  71.456  1.00  0.00    -0.505 A  
HETATM   25  N   UNL     1     -12.610  16.108  73.158  1.00  0.00    -0.491 NA 
HETATM   26  C   UNL     1     -11.904  16.115  72.047  1.00  0.00    -0.530 A  
HETATM   27  C   UNL     1     -13.852  15.661  72.804  1.00  0.00    -0.545 A  
ENDBRANCH  22  23
ENDBRANCH  13  22
ENDBRANCH  11  13
ENDBRANCH  10  11
ENDBRANCH   9  10
ENDBRANCH   6   9
TORSDOF 7
ENDMDL
MODEL       98
REMARK 921   NORMALIZED FREE ENERGY PREDICTED BY IDOCK:   -5.41 KCAL/MOL
REMARK 922        TOTAL FREE ENERGY PREDICTED BY IDOCK:   -8.75 KCAL/MOL
REMARK 923 INTER-LIGAND FREE ENERGY PREDICTED BY IDOCK:   -7.85 KCAL/MOL
REMARK 924 INTRA-LIGAND FREE ENERGY PREDICTED BY IDOCK:   -0.90 KCAL/MOL
REMARK 927      BINDING AFFINITY PREDICTED BY RF-SCORE:    0.00 PKD
ROOT
HETATM    1 CL   UNL     1     -12.899  16.343  74.136  1.00  0.00    -0.410 Cl 
HETATM    2  C   UNL     1     -12.595  15.323  72.787  1.00  0.00    -0.391 A  
HETATM    3  C   UNL     1     -11.610  15.672  71.866  1.00  0.00    -0.547 A  
HETATM    4  C   UNL     1     -11.419  14.876  70.728  1.00  0.00    -0.267 A  
HETATM    5 CL   UNL     1     -10.176  15.374  69.629  1.00  0.00    -0.269 Cl 
HETATM    6  C   UNL     1     -12.210  13.733  70.482  1.00  0.00    -0.440 A  
HETATM    7  C   UNL     1     -13.154  13.376  71.458  1.00  0.00    -0.427 A  
HETATM    8  C   UNL     1     -13.345  14.167  72.600  1.00  0.00    -0.638 A  
ENDROOT
BRANCH   6   9
HETATM    9  C   UNL     1     -12.120  13.000  69.149  1.00  0.00    -0.187 C  
BRANCH   9  10
HETATM   10  O   UNL     1     -12.282  11.566  69.226  1.00  0.00    -0.283 OA 
BRANCH  10  11
HETATM   11  N   UNL     1     -12.197  11.006  67.929  1.00  0.00    -0.433 NA 
HETATM   12  H   UNL     1     -12.982  10.976  67.279  1.00  0.00     0.000 HD 
BRANCH  11  13
HETATM   13  C   UNL     1     -11.013  10.531  67.644  1.00  0.00    -0.314 C  
BRANCH  13  14
HETATM   14  C   UNL     1     -10.310   9.617  68.624  1.00  0.00    -0.226 A  
HETATM   15 CL   UNL     1     -11.067   7.360  67.216  1.00  0.00    -0.217 Cl 
HETATM   16  C   UNL     1      -9.602  10.192  69.699  1.00  0.00    -0.237 A  
HETATM   17  C   UNL     1     -10.275   8.216  68.492  1.00  0.00    -0.208 A  
HETATM   18  C   UNL     1      -8.843   9.409  70.578  1.00  0.00    -0.287 A  
HETATM   19 CL   UNL     1      -7.829   7.075  71.462  1.00  0.00    -0.098 Cl 
HETATM   20  C   UNL     1      -8.796   8.032  70.410  1.00  0.00    -0.141 A  
HETATM   21  C   UNL     1      -9.520   7.431  69.384  1.00  0.00    -0.155 A  
ENDBRANCH  13  14
BRANCH  13  22
HETATM   22  C   UNL     1     -10.295  10.799  66.324  1.00  0.00    -0.244 C  
BRANCH  22  23
HETATM   23  N   UNL     1     -10.138  12.212  66.005  1.00  0.00    -0.230 NA 
HETATM   24  C   UNL     1     -10.697  12.852  64.933  1.00  0.00    -0.312 A  
HETATM   25  N   UNL     1      -9.442  14.308  66.108  1.00  0.00    -0.260 NA 
HETATM   26  C   UNL     1      -9.412  13.134  66.702  1.00  0.00    -0.260 A  
HETATM   27  C   UNL     1     -10.238  14.146  65.009  1.00  0.00    -0.370 A  
ENDBRANCH  22  23
ENDBRANCH  13  22
ENDBRANCH  11  13
ENDBRANCH  10  11
ENDBRANCH   9  10
ENDBRANCH   6   9
TORSDOF 7
ENDMDL
MODEL       99
REMARK 921   NORMALIZED FREE ENERGY PREDICTED BY IDOCK:   -5.41 KCAL/MOL
REMARK 922        TOTAL FREE ENERGY PREDICTED BY IDOCK:   -8.75 KCAL/MOL
REMARK 923 INTER-LIGAND FREE ENERGY PREDICTED BY IDOCK:   -6.52 KCAL/MOL
REMARK 924 INTRA-LIGAND FREE ENERGY PREDICTED BY IDOCK:   -2.23 KCAL/MOL
REMARK 927      BINDING AFFINITY PREDICTED BY RF-SCORE:    0.00 PKD
ROOT
HETATM    1 CL   UNL     1      -9.323  10.982  62.355  1.00  0.00    -0.283 Cl 
HETATM    2  C   UNL     1     -10.248  11.809  63.545  1.00  0.00    -0.450 A  
HETATM    3  C   UNL     1      -9.713  12.925  64.182  1.00  0.00     0.276 A  
HETATM    4  C   UNL     1     -10.442  13.548  65.205  1.00  0.00    -0.364 A  
HETATM    5 CL   UNL     1      -9.712  14.931  65.950  1.00  0.00    -0.354 Cl 
HETATM    6  C   UNL     1     -11.702  13.065  65.617  1.00  0.00    -0.418 A  
HETATM    7  C   UNL     1     -12.239  11.974  64.914  1.00  0.00    -0.187 A  
HETATM    8  C   UNL     1     -11.516  11.351  63.887  1.00  0.00    -0.232 A  
ENDROOT
BRANCH   6   9
HETATM    9  C   UNL     1     -12.383  13.633  66.855  1.00  0.00    -0.262 C  
BRANCH   9  10
HETATM   10  O   UNL     1     -11.846  13.173  68.116  1.00  0.00    -0.336 OA 
BRANCH  10  11
HETATM   11  N   UNL     1     -12.209  11.820  68.324  1.00  0.00    -0.408 NA 
HETATM   12  H   UNL     1     -13.159  11.471  68.204  1.00  0.00     0.000 HD 
BRANCH  11  13
HETATM   13  C   UNL     1     -11.207  11.063  68.684  1.00  0.00    -0.263 C  
BRANCH  13  14
HETATM   14  C   UNL     1     -10.285  10.479  67.635  1.00  0.00    -0.234 A  
HETATM   15 CL   UNL     1      -8.427  12.497  68.004  1.00  0.00    -0.165 Cl 
HETATM   16  C   UNL     1     -10.655   9.278  66.999  1.00  0.00    -0.263 A  
HETATM   17  C   UNL     1      -9.040  11.043  67.295  1.00  0.00    -0.138 A  
HETATM   18  C   UNL     1      -9.800   8.631  66.098  1.00  0.00    -0.269 A  
HETATM   19 CL   UNL     1      -7.493   8.373  64.731  1.00  0.00    -0.091 Cl 
HETATM   20  C   UNL     1      -8.563   9.189  65.802  1.00  0.00    -0.153 A  
HETATM   21  C   UNL     1      -8.187  10.397  66.382  1.00  0.00    -0.141 A  
ENDBRANCH  13  14
BRANCH  13  22
HETATM   22  C   UNL     1     -10.861  10.764  70.140  1.00  0.00    -0.080 C  
BRANCH  22  23
HETATM   23  N   UNL     1     -11.859   9.968  70.841  1.00  0.00    -0.339 NA 
HETATM   24  C   UNL     1     -11.651   8.727  71.380  1.00  0.00    -0.299 A  
HETATM   25  N   UNL     1     -13.799   9.333  71.693  1.00  0.00    -0.340 NA 
HETATM   26  C   UNL     1     -13.160  10.305  71.077  1.00  0.00    -0.373 A  
HETATM   27  C   UNL     1     -12.871   8.347  71.888  1.00  0.00    -0.353 A  
ENDBRANCH  22  23
ENDBRANCH  13  22
ENDBRANCH  11  13
ENDBRANCH  10  11
ENDBRANCH   9  10
ENDBRANCH   6   9
TORSDOF 7
ENDMDL
MODEL      100
REMARK 921   NORMALIZED FREE ENERGY PREDICTED BY IDOCK:   -5.41 KCAL/MOL
REMARK 922        TOTAL FREE ENERGY PREDICTED BY IDOCK:   -8.74 KCAL/MOL
REMARK 923 INTER-LIGAND FREE ENERGY PREDICTED BY IDOCK:   -7.34 KCAL/MOL
REMARK 924 INTRA-LIGAND FREE ENERGY PREDICTED BY IDOCK:   -1.40 KCAL/MOL
REMARK 927      BINDING AFFINITY PREDICTED BY RF-SCORE:    0.00 PKD
ROOT
HETATM    1 CL   UNL     1     -12.882  11.910  63.228  1.00  0.00    -0.542 Cl 
HETATM    2  C   UNL     1     -11.776  12.104  64.530  1.00  0.00    -0.338 A  
HETATM    3  C   UNL     1     -10.635  11.307  64.591  1.00  0.00    -0.392 A  
HETATM    4  C   UNL     1      -9.777  11.416  65.694  1.00  0.00    -0.231 A  
HETATM    5 CL   UNL     1      -8.379  10.393  65.698  1.00  0.00    -0.158 Cl 
HETATM    6  C   UNL     1     -10.046  12.306  66.756  1.00  0.00    -0.224 A  
HETATM    7  C   UNL     1     -11.172  13.136  66.636  1.00  0.00    -0.335 A  
HETATM    8  C   UNL     1     -12.031  13.034  65.532  1.00  0.00    -0.470 A  
ENDROOT
BRANCH   6   9
HETATM    9  C   UNL     1      -9.212  12.267  68.030  1.00  0.00    -0.195 C  
BRANCH   9  10
HETATM   10  O   UNL     1      -9.803  11.534  69.127  1.00  0.00    -0.061 OA 
BRANCH  10  11
HETATM   11  N   UNL     1      -8.873  10.590  69.626  1.00  0.00    -0.388 NA 
HETATM   12  H   UNL     1      -7.873  10.776  69.700  1.00  0.00     0.000 HD 
BRANCH  11  13
HETATM   13  C   UNL     1      -9.420   9.458  69.981  1.00  0.00    -0.228 C  
BRANCH  13  14
HETATM   14  C   UNL     1      -9.582   8.345  68.969  1.00  0.00    -0.160 A  
HETATM   15 CL   UNL     1      -7.573   6.850  70.144  1.00  0.00    -0.097 Cl 
HETATM   16  C   UNL     1     -10.584   8.464  67.985  1.00  0.00    -0.191 A  
HETATM   17  C   UNL     1      -8.819   7.162  68.987  1.00  0.00    -0.131 A  
HETATM   18  C   UNL     1     -10.856   7.424  67.086  1.00  0.00    -0.340 A  
HETATM   19 CL   UNL     1     -10.474   4.960  66.069  1.00  0.00    -0.328 Cl 
HETATM   20  C   UNL     1     -10.112   6.253  67.143  1.00  0.00    -0.168 A  
HETATM   21  C   UNL     1      -9.087   6.124  68.076  1.00  0.00    -0.114 A  
ENDBRANCH  13  14
BRANCH  13  22
HETATM   22  C   UNL     1      -9.870   9.154  71.409  1.00  0.00    -0.284 C  
BRANCH  22  23
HETATM   23  N   UNL     1     -11.309   9.240  71.613  1.00  0.00    -0.381 NA 
HETATM   24  C   UNL     1     -12.118  10.246  71.159  1.00  0.00    -0.395 A  
HETATM   25  N   UNL     1     -13.347   8.761  72.326  1.00  0.00    -0.408 NA 
HETATM   26  C   UNL     1     -12.096   8.353  72.288  1.00  0.00    -0.392 A  
HETATM   27  C   UNL     1     -13.373   9.936  71.627  1.00  0.00    -0.389 A  
ENDBRANCH  22  23
ENDBRANCH  13  22
ENDBRANCH  11  13
ENDBRANCH  10  11
ENDBRANCH   9  10
ENDBRANCH   6   9
TORSDOF 7
ENDMDL
MODEL      101
REMARK 921   NORMALIZED FREE ENERGY PREDICTED BY IDOCK:   -5.39 KCAL/MOL
REMARK 922        TOTAL FREE ENERGY PREDICTED BY IDOCK:   -8.71 KCAL/MOL
REMARK 923 INTER-LIGAND FREE ENERGY PREDICTED BY IDOCK:   -7.97 KCAL/MOL
REMARK 924 INTRA-LIGAND FREE ENERGY PREDICTED BY IDOCK:   -0.74 KCAL/MOL
REMARK 927      BINDING AFFINITY PREDICTED BY RF-SCORE:    0.00 PKD
ROOT
HETATM    1 CL   UNL     1      -9.001   9.335  62.856  1.00  0.00    -0.194 Cl 
HETATM    2  C   UNL     1      -9.758  10.478  63.893  1.00  0.00    -0.325 A  
HETATM    3  C   UNL     1     -10.022  10.139  65.218  1.00  0.00    -0.381 A  
HETATM    4  C   UNL     1     -10.708  11.047  66.036  1.00  0.00    -0.177 A  
HETATM    5 CL   UNL     1     -10.999  10.555  67.672  1.00  0.00    -0.354 Cl 
HETATM    6  C   UNL     1     -11.153  12.294  65.549  1.00  0.00    -0.348 A  
HETATM    7  C   UNL     1     -10.820  12.629  64.226  1.00  0.00    -0.411 A  
HETATM    8  C   UNL     1     -10.130  11.726  63.405  1.00  0.00    -0.470 A  
ENDROOT
BRANCH   6   9
HETATM    9  C   UNL     1     -12.065  13.176  66.392  1.00  0.00    -0.382 C  
BRANCH   9  10
HETATM   10  O   UNL     1     -11.421  13.836  67.506  1.00  0.00    -0.297 OA 
BRANCH  10  11
HETATM   11  N   UNL     1     -12.293  14.808  68.053  1.00  0.00    -0.559 NA 
HETATM   12  H   UNL     1     -13.257  14.933  67.743  1.00  0.00     0.000 HD 
BRANCH  11  13
HETATM   13  C   UNL     1     -11.743  15.530  68.993  1.00  0.00    -0.377 C  
BRANCH  13  14
HETATM   14  C   UNL     1     -10.285  15.922  68.891  1.00  0.00    -0.226 A  
HETATM   15 CL   UNL     1     -10.913  18.318  67.658  1.00  0.00    -0.261 Cl 
HETATM   16  C   UNL     1      -9.311  15.057  69.429  1.00  0.00    -0.120 A  
HETATM   17  C   UNL     1      -9.845  17.137  68.333  1.00  0.00    -0.296 A  
HETATM   18  C   UNL     1      -7.956  15.409  69.461  1.00  0.00    -0.204 A  
HETATM   19 CL   UNL     1      -5.891  17.080  69.014  1.00  0.00    -0.155 Cl 
HETATM   20  C   UNL     1      -7.548  16.628  68.935  1.00  0.00    -0.240 A  
HETATM   21  C   UNL     1      -8.482  17.484  68.358  1.00  0.00    -0.275 A  
ENDBRANCH  13  14
BRANCH  13  22
HETATM   22  C   UNL     1     -12.513  16.068  70.197  1.00  0.00     0.128 C  
BRANCH  22  23
HETATM   23  N   UNL     1     -13.061  15.036  71.067  1.00  0.00    -0.398 NA 
HETATM   24  C   UNL     1     -14.368  14.942  71.463  1.00  0.00    -0.539 A  
HETATM   25  N   UNL     1     -13.173  13.282  72.409  1.00  0.00    -0.473 NA 
HETATM   26  C   UNL     1     -12.383  14.000  71.638  1.00  0.00    -0.228 A  
HETATM   27  C   UNL     1     -14.409  13.857  72.306  1.00  0.00    -0.409 A  
ENDBRANCH  22  23
ENDBRANCH  13  22
ENDBRANCH  11  13
ENDBRANCH  10  11
ENDBRANCH   9  10
ENDBRANCH   6   9
TORSDOF 7
ENDMDL
MODEL      102
REMARK 921   NORMALIZED FREE ENERGY PREDICTED BY IDOCK:   -5.36 KCAL/MOL
REMARK 922        TOTAL FREE ENERGY PREDICTED BY IDOCK:   -8.67 KCAL/MOL
REMARK 923 INTER-LIGAND FREE ENERGY PREDICTED BY IDOCK:   -6.99 KCAL/MOL
REMARK 924 INTRA-LIGAND FREE ENERGY PREDICTED BY IDOCK:   -1.68 KCAL/MOL
REMARK 927      BINDING AFFINITY PREDICTED BY RF-SCORE:    0.00 PKD
ROOT
HETATM    1 CL   UNL     1     -11.759  14.576  64.444  1.00  0.00    -0.403 Cl 
HETATM    2  C   UNL     1     -11.841  13.776  65.963  1.00  0.00    -0.390 A  
HETATM    3  C   UNL     1     -11.984  14.524  67.130  1.00  0.00    -0.373 A  
HETATM    4  C   UNL     1     -11.974  13.872  68.370  1.00  0.00    -0.356 A  
HETATM    5 CL   UNL     1     -12.157  14.868  69.775  1.00  0.00    -0.352 Cl 
HETATM    6  C   UNL     1     -11.808  12.474  68.471  1.00  0.00    -0.341 A  
HETATM    7  C   UNL     1     -11.726  11.744  67.275  1.00  0.00    -0.293 A  
HETATM    8  C   UNL     1     -11.740  12.391  66.031  1.00  0.00    -0.469 A  
ENDROOT
BRANCH   6   9
HETATM    9  C   UNL     1     -11.602  11.814  69.828  1.00  0.00    -0.299 C  
BRANCH   9  10
HETATM   10  O   UNL     1     -11.404  10.382  69.790  1.00  0.00    -0.252 OA 
BRANCH  10  11
HETATM   11  N   UNL     1     -10.101  10.069  70.247  1.00  0.00    -0.392 NA 
HETATM   12  H   UNL     1      -9.657  10.538  71.036  1.00  0.00     0.000 HD 
BRANCH  11  13
HETATM   13  C   UNL     1      -9.523   9.120  69.559  1.00  0.00    -0.168 C  
BRANCH  13  14
HETATM   14  C   UNL     1      -9.125   9.364  68.120  1.00  0.00    -0.129 A  
HETATM   15 CL   UNL     1     -10.856   7.410  67.205  1.00  0.00    -0.393 Cl 
HETATM   16  C   UNL     1      -8.191  10.381  67.838  1.00  0.00    -0.106 A  
HETATM   17  C   UNL     1      -9.679   8.665  67.031  1.00  0.00    -0.201 A  
HETATM   18  C   UNL     1      -7.860  10.728  66.522  1.00  0.00    -0.145 A  
HETATM   19 CL   UNL     1      -8.072  10.502  63.846  1.00  0.00    -0.087 Cl 
HETATM   20  C   UNL     1      -8.444  10.047  65.462  1.00  0.00    -0.147 A  
HETATM   21  C   UNL     1      -9.337   9.009  65.710  1.00  0.00    -0.302 A  
ENDBRANCH  13  14
BRANCH  13  22
HETATM   22  C   UNL     1      -9.161   7.758  70.146  1.00  0.00    -0.153 C  
BRANCH  22  23
HETATM   23  N   UNL     1     -10.135   7.239  71.097  1.00  0.00    -0.187 NA 
HETATM   24  C   UNL     1     -11.370   6.742  70.779  1.00  0.00    -0.325 A  
HETATM   25  N   UNL     1     -11.090   6.687  73.014  1.00  0.00    -0.238 NA 
HETATM   26  C   UNL     1      -9.998   7.160  72.452  1.00  0.00    -0.166 A  
HETATM   27  C   UNL     1     -11.949   6.422  71.984  1.00  0.00    -0.326 A  
ENDBRANCH  22  23
ENDBRANCH  13  22
ENDBRANCH  11  13
ENDBRANCH  10  11
ENDBRANCH   9  10
ENDBRANCH   6   9
TORSDOF 7
ENDMDL
MODEL      103
REMARK 921   NORMALIZED FREE ENERGY PREDICTED BY IDOCK:   -5.36 KCAL/MOL
REMARK 922        TOTAL FREE ENERGY PREDICTED BY IDOCK:   -8.67 KCAL/MOL
REMARK 923 INTER-LIGAND FREE ENERGY PREDICTED BY IDOCK:   -7.37 KCAL/MOL
REMARK 924 INTRA-LIGAND FREE ENERGY PREDICTED BY IDOCK:   -1.30 KCAL/MOL
REMARK 927      BINDING AFFINITY PREDICTED BY RF-SCORE:    0.00 PKD
ROOT
HETATM    1 CL   UNL     1     -10.978   6.286  68.044  1.00  0.00    -0.409 Cl 
HETATM    2  C   UNL     1     -10.202   7.801  67.800  1.00  0.00    -0.212 A  
HETATM    3  C   UNL     1     -10.408   8.499  66.613  1.00  0.00    -0.303 A  
HETATM    4  C   UNL     1      -9.713   9.695  66.388  1.00  0.00    -0.224 A  
HETATM    5 CL   UNL     1     -10.022  10.506  64.889  1.00  0.00    -0.376 Cl 
HETATM    6  C   UNL     1      -8.796  10.207  67.331  1.00  0.00    -0.135 A  
HETATM    7  C   UNL     1      -8.656   9.510  68.542  1.00  0.00    -0.119 A  
HETATM    8  C   UNL     1      -9.353   8.316  68.773  1.00  0.00    -0.143 A  
ENDROOT
BRANCH   6   9
HETATM    9  C   UNL     1      -7.910  11.396  66.984  1.00  0.00    -0.158 C  
BRANCH   9  10
HETATM   10  O   UNL     1      -8.605  12.652  66.815  1.00  0.00    -0.183 OA 
BRANCH  10  11
HETATM   11  N   UNL     1      -9.144  13.069  68.056  1.00  0.00    -0.204 NA 
HETATM   12  H   UNL     1      -8.684  12.900  68.951  1.00  0.00     0.000 HD 
BRANCH  11  13
HETATM   13  C   UNL     1     -10.287  13.691  67.944  1.00  0.00    -0.249 C  
BRANCH  13  14
HETATM   14  C   UNL     1     -10.316  15.193  67.763  1.00  0.00    -0.243 A  
HETATM   15 CL   UNL     1     -10.318  14.960  65.006  1.00  0.00    -0.421 Cl 
HETATM   16  C   UNL     1     -10.370  16.013  68.908  1.00  0.00    -0.235 A  
HETATM   17  C   UNL     1     -10.349  15.823  66.505  1.00  0.00    -0.294 A  
HETATM   18  C   UNL     1     -10.506  17.404  68.808  1.00  0.00    -0.333 A  
HETATM   19 CL   UNL     1     -10.780  19.703  67.432  1.00  0.00    -0.584 Cl 
HETATM   20  C   UNL     1     -10.569  18.001  67.556  1.00  0.00    -0.388 A  
HETATM   21  C   UNL     1     -10.475  17.221  66.407  1.00  0.00    -0.263 A  
ENDBRANCH  13  14
BRANCH  13  22
HETATM   22  C   UNL     1     -11.635  12.974  67.927  1.00  0.00    -0.342 C  
BRANCH  22  23
HETATM   23  N   UNL     1     -11.974  12.307  69.177  1.00  0.00    -0.282 NA 
HETATM   24  C   UNL     1     -11.965  10.954  69.383  1.00  0.00    -0.322 A  
HETATM   25  N   UNL     1     -12.641  11.998  71.262  1.00  0.00    -0.316 NA 
HETATM   26  C   UNL     1     -12.360  12.898  70.344  1.00  0.00    -0.258 A  
HETATM   27  C   UNL     1     -12.397  10.786  70.678  1.00  0.00    -0.372 A  
ENDBRANCH  22  23
ENDBRANCH  13  22
ENDBRANCH  11  13
ENDBRANCH  10  11
ENDBRANCH   9  10
ENDBRANCH   6   9
TORSDOF 7
ENDMDL
MODEL      104
REMARK 921   NORMALIZED FREE ENERGY PREDICTED BY IDOCK:   -5.35 KCAL/MOL
REMARK 922        TOTAL FREE ENERGY PREDICTED BY IDOCK:   -8.66 KCAL/MOL
REMARK 923 INTER-LIGAND FREE ENERGY PREDICTED BY IDOCK:   -7.61 KCAL/MOL
REMARK 924 INTRA-LIGAND FREE ENERGY PREDICTED BY IDOCK:   -1.05 KCAL/MOL
REMARK 927      BINDING AFFINITY PREDICTED BY RF-SCORE:    0.00 PKD
ROOT
HETATM    1 CL   UNL     1      -7.515  17.810  68.674  1.00  0.00    -0.267 Cl 
HETATM    2  C   UNL     1      -8.720  16.721  68.110  1.00  0.00    -0.219 A  
HETATM    3  C   UNL     1      -9.308  16.927  66.864  1.00  0.00    -0.254 A  
HETATM    4  C   UNL     1     -10.344  16.081  66.444  1.00  0.00    -0.305 A  
HETATM    5 CL   UNL     1     -11.025  16.400  64.884  1.00  0.00    -0.366 Cl 
HETATM    6  C   UNL     1     -10.817  15.030  67.257  1.00  0.00    -0.310 A  
HETATM    7  C   UNL     1     -10.164  14.812  68.481  1.00  0.00    -0.232 A  
HETATM    8  C   UNL     1      -9.125  15.654  68.904  1.00  0.00    -0.217 A  
ENDROOT
BRANCH   6   9
HETATM    9  C   UNL     1     -12.068  14.251  66.868  1.00  0.00    -0.409 C  
BRANCH   9  10
HETATM   10  O   UNL     1     -11.838  13.107  66.016  1.00  0.00    -0.366 OA 
BRANCH  10  11
HETATM   11  N   UNL     1     -11.996  11.915  66.764  1.00  0.00    -0.583 NA 
HETATM   12  H   UNL     1     -12.906  11.524  67.007  1.00  0.00     0.000 HD 
BRANCH  11  13
HETATM   13  C   UNL     1     -10.863  11.367  67.114  1.00  0.00    -0.268 C  
BRANCH  13  14
HETATM   14  C   UNL     1     -10.827  10.360  68.243  1.00  0.00    -0.299 A  
HETATM   15 CL   UNL     1     -11.942  12.164  70.020  1.00  0.00    -0.410 Cl 
HETATM   16  C   UNL     1     -10.350   9.061  67.979  1.00  0.00    -0.275 A  
HETATM   17  C   UNL     1     -11.300  10.631  69.542  1.00  0.00    -0.277 A  
HETATM   18  C   UNL     1     -10.389   8.053  68.951  1.00  0.00    -0.222 A  
HETATM   19 CL   UNL     1     -10.979   7.087  71.395  1.00  0.00    -0.260 Cl 
HETATM   20  C   UNL     1     -10.889   8.335  70.215  1.00  0.00    -0.240 A  
HETATM   21  C   UNL     1     -11.328   9.620  70.520  1.00  0.00    -0.360 A  
ENDBRANCH  13  14
BRANCH  13  22
HETATM   22  C   UNL     1      -9.541  11.640  66.401  1.00  0.00    -0.217 C  
BRANCH  22  23
HETATM   23  N   UNL     1      -9.399  10.957  65.123  1.00  0.00    -0.210 NA 
HETATM   24  C   UNL     1      -8.623   9.853  64.894  1.00  0.00    -0.169 A  
HETATM   25  N   UNL     1      -9.610  10.491  62.971  1.00  0.00    -0.329 NA 
HETATM   26  C   UNL     1      -9.997  11.290  63.943  1.00  0.00    -0.321 A  
HETATM   27  C   UNL     1      -8.758   9.592  63.550  1.00  0.00    -0.222 A  
ENDBRANCH  22  23
ENDBRANCH  13  22
ENDBRANCH  11  13
ENDBRANCH  10  11
ENDBRANCH   9  10
ENDBRANCH   6   9
TORSDOF 7
ENDMDL
MODEL      105
REMARK 921   NORMALIZED FREE ENERGY PREDICTED BY IDOCK:   -5.34 KCAL/MOL
REMARK 922        TOTAL FREE ENERGY PREDICTED BY IDOCK:   -8.65 KCAL/MOL
REMARK 923 INTER-LIGAND FREE ENERGY PREDICTED BY IDOCK:   -7.90 KCAL/MOL
REMARK 924 INTRA-LIGAND FREE ENERGY PREDICTED BY IDOCK:   -0.75 KCAL/MOL
REMARK 927      BINDING AFFINITY PREDICTED BY RF-SCORE:    0.00 PKD
ROOT
HETATM    1 CL   UNL     1      -6.595  19.755  69.753  1.00  0.00    -0.380 Cl 
HETATM    2  C   UNL     1      -7.101  18.344  68.912  1.00  0.00    -0.276 A  
HETATM    3  C   UNL     1      -8.228  18.394  68.095  1.00  0.00    -0.303 A  
HETATM    4  C   UNL     1      -8.680  17.223  67.472  1.00  0.00    -0.210 A  
HETATM    5 CL   UNL     1     -10.087  17.364  66.472  1.00  0.00    -0.308 Cl 
HETATM    6  C   UNL     1      -8.029  15.985  67.662  1.00  0.00    -0.160 A  
HETATM    7  C   UNL     1      -6.863  15.980  68.444  1.00  0.00    -0.124 A  
HETATM    8  C   UNL     1      -6.404  17.150  69.065  1.00  0.00    -0.204 A  
ENDROOT
BRANCH   6   9
HETATM    9  C   UNL     1      -8.648  14.695  67.140  1.00  0.00    -0.223 C  
BRANCH   9  10
HETATM   10  O   UNL     1      -9.684  14.129  67.975  1.00  0.00    -0.213 OA 
BRANCH  10  11
HETATM   11  N   UNL     1      -9.241  12.897  68.514  1.00  0.00    -0.376 NA 
HETATM   12  H   UNL     1      -8.361  12.791  69.018  1.00  0.00     0.000 HD 
BRANCH  11  13
HETATM   13  C   UNL     1     -10.070  11.910  68.304  1.00  0.00    -0.203 C  
BRANCH  13  14
HETATM   14  C   UNL     1     -10.933  11.392  69.434  1.00  0.00    -0.260 A  
HETATM   15 CL   UNL     1     -12.248  13.814  69.673  1.00  0.00    -0.380 Cl 
HETATM   16  C   UNL     1     -10.785  10.051  69.840  1.00  0.00    -0.328 A  
HETATM   17  C   UNL     1     -11.922  12.164  70.073  1.00  0.00    -0.315 A  
HETATM   18  C   UNL     1     -11.624   9.480  70.807  1.00  0.00    -0.378 A  
HETATM   19 CL   UNL     1     -13.673   9.541  72.554  1.00  0.00    -0.439 Cl 
HETATM   20  C   UNL     1     -12.614  10.252  71.400  1.00  0.00    -0.434 A  
HETATM   21  C   UNL     1     -12.757  11.592  71.051  1.00  0.00    -0.426 A  
ENDBRANCH  13  14
BRANCH  13  22
HETATM   22  C   UNL     1     -10.274  11.261  66.937  1.00  0.00    -0.219 C  
BRANCH  22  23
HETATM   23  N   UNL     1     -10.893  12.132  65.947  1.00  0.00    -0.268 NA 
HETATM   24  C   UNL     1     -12.082  12.791  66.101  1.00  0.00    -0.364 A  
HETATM   25  N   UNL     1     -11.247  13.214  64.052  1.00  0.00    -0.391 NA 
HETATM   26  C   UNL     1     -10.411  12.438  64.708  1.00  0.00    -0.304 A  
HETATM   27  C   UNL     1     -12.288  13.442  64.908  1.00  0.00    -0.412 A  
ENDBRANCH  22  23
ENDBRANCH  13  22
ENDBRANCH  11  13
ENDBRANCH  10  11
ENDBRANCH   9  10
ENDBRANCH   6   9
TORSDOF 7
ENDMDL
MODEL      106
REMARK 921   NORMALIZED FREE ENERGY PREDICTED BY IDOCK:   -5.34 KCAL/MOL
REMARK 922        TOTAL FREE ENERGY PREDICTED BY IDOCK:   -8.65 KCAL/MOL
REMARK 923 INTER-LIGAND FREE ENERGY PREDICTED BY IDOCK:   -7.53 KCAL/MOL
REMARK 924 INTRA-LIGAND FREE ENERGY PREDICTED BY IDOCK:   -1.12 KCAL/MOL
REMARK 927      BINDING AFFINITY PREDICTED BY RF-SCORE:    0.00 PKD
ROOT
HETATM    1 CL   UNL     1     -14.326  14.975  72.153  1.00  0.00    -0.613 Cl 
HETATM    2  C   UNL     1     -12.861  15.293  71.311  1.00  0.00    -0.425 A  
HETATM    3  C   UNL     1     -12.860  15.337  69.919  1.00  0.00    -0.036 A  
HETATM    4  C   UNL     1     -11.650  15.520  69.237  1.00  0.00    -0.357 A  
HETATM    5 CL   UNL     1     -11.729  15.563  67.507  1.00  0.00    -0.115 Cl 
HETATM    6  C   UNL     1     -10.424  15.649  69.925  1.00  0.00    -0.327 A  
HETATM    7  C   UNL     1     -10.467  15.660  71.328  1.00  0.00     0.589 A  
HETATM    8  C   UNL     1     -11.677  15.482  72.015  1.00  0.00    -0.541 A  
ENDROOT
BRANCH   6   9
HETATM    9  C   UNL     1      -9.104  15.649  69.165  1.00  0.00    -0.256 C  
BRANCH   9  10
HETATM   10  O   UNL     1      -9.044  14.741  68.041  1.00  0.00    -0.172 OA 
BRANCH  10  11
HETATM   11  N   UNL     1      -8.660  13.454  68.488  1.00  0.00    -0.316 NA 
HETATM   12  H   UNL     1      -7.910  13.296  69.161  1.00  0.00     0.000 HD 
BRANCH  11  13
HETATM   13  C   UNL     1      -9.359  12.488  67.955  1.00  0.00    -0.200 C  
BRANCH  13  14
HETATM   14  C   UNL     1     -10.233  11.615  68.829  1.00  0.00    -0.190 A  
HETATM   15 CL   UNL     1      -8.425   9.523  68.718  1.00  0.00    -0.120 Cl 
HETATM   16  C   UNL     1     -11.438  12.146  69.329  1.00  0.00    -0.363 A  
HETATM   17  C   UNL     1      -9.881  10.309  69.221  1.00  0.00    -0.228 A  
HETATM   18  C   UNL     1     -12.239  11.430  70.228  1.00  0.00    -0.433 A  
HETATM   19 CL   UNL     1     -12.815   9.292  71.763  1.00  0.00    -0.422 Cl 
HETATM   20  C   UNL     1     -11.856  10.155  70.626  1.00  0.00    -0.342 A  
HETATM   21  C   UNL     1     -10.693   9.587  70.115  1.00  0.00    -0.299 A  
ENDBRANCH  13  14
BRANCH  13  22
HETATM   22  C   UNL     1      -9.399  12.209  66.454  1.00  0.00    -0.224 C  
BRANCH  22  23
HETATM   23  N   UNL     1     -10.601  12.692  65.787  1.00  0.00    -0.266 NA 
HETATM   24  C   UNL     1     -10.647  13.704  64.867  1.00  0.00    -0.408 A  
HETATM   25  N   UNL     1     -12.730  12.929  65.240  1.00  0.00    -0.688 NA 
HETATM   26  C   UNL     1     -11.874  12.236  65.961  1.00  0.00    -0.341 A  
HETATM   27  C   UNL     1     -11.978  13.843  64.554  1.00  0.00    -0.437 A  
ENDBRANCH  22  23
ENDBRANCH  13  22
ENDBRANCH  11  13
ENDBRANCH  10  11
ENDBRANCH   9  10
ENDBRANCH   6   9
TORSDOF 7
ENDMDL
MODEL      107
REMARK 921   NORMALIZED FREE ENERGY PREDICTED BY IDOCK:   -5.34 KCAL/MOL
REMARK 922        TOTAL FREE ENERGY PREDICTED BY IDOCK:   -8.64 KCAL/MOL
REMARK 923 INTER-LIGAND FREE ENERGY PREDICTED BY IDOCK:   -8.14 KCAL/MOL
REMARK 924 INTRA-LIGAND FREE ENERGY PREDICTED BY IDOCK:   -0.50 KCAL/MOL
REMARK 927      BINDING AFFINITY PREDICTED BY RF-SCORE:    0.00 PKD
ROOT
HETATM    1 CL   UNL     1     -10.735  20.013  65.556  1.00  0.00    -0.426 Cl 
HETATM    2  C   UNL     1      -9.861  18.984  66.620  1.00  0.00    -0.355 A  
HETATM    3  C   UNL     1      -8.622  18.481  66.231  1.00  0.00    -0.223 A  
HETATM    4  C   UNL     1      -7.950  17.582  67.070  1.00  0.00    -0.216 A  
HETATM    5 CL   UNL     1      -6.414  17.001  66.519  1.00  0.00    -0.256 Cl 
HETATM    6  C   UNL     1      -8.503  17.161  68.299  1.00  0.00    -0.236 A  
HETATM    7  C   UNL     1      -9.725  17.732  68.688  1.00  0.00    -0.346 A  
HETATM    8  C   UNL     1     -10.399  18.635  67.854  1.00  0.00    -0.442 A  
ENDROOT
BRANCH   6   9
HETATM    9  C   UNL     1      -7.852  16.039  69.098  1.00  0.00    -0.233 C  
BRANCH   9  10
HETATM   10  O   UNL     1      -8.158  14.702  68.639  1.00  0.00    -0.138 OA 
BRANCH  10  11
HETATM   11  N   UNL     1      -9.496  14.379  68.971  1.00  0.00    -0.387 NA 
HETATM   12  H   UNL     1      -9.897  14.535  69.895  1.00  0.00     0.000 HD 
BRANCH  11  13
HETATM   13  C   UNL     1     -10.167  13.861  67.977  1.00  0.00    -0.246 C  
BRANCH  13  14
HETATM   14  C   UNL     1     -10.195  12.361  67.783  1.00  0.00    -0.212 A  
HETATM   15 CL   UNL     1     -12.077  12.038  69.786  1.00  0.00    -0.344 Cl 
HETATM   16  C   UNL     1      -9.399  11.793  66.769  1.00  0.00    -0.199 A  
HETATM   17  C   UNL     1     -11.021  11.496  68.528  1.00  0.00    -0.223 A  
HETATM   18  C   UNL     1      -9.459  10.426  66.469  1.00  0.00    -0.204 A  
HETATM   19 CL   UNL     1     -10.411   7.928  66.798  1.00  0.00    -0.380 Cl 
HETATM   20  C   UNL     1     -10.304   9.597  67.195  1.00  0.00    -0.254 A  
HETATM   21  C   UNL     1     -11.071  10.122  68.231  1.00  0.00    -0.285 A  
ENDBRANCH  13  14
BRANCH  13  22
HETATM   22  C   UNL     1     -10.997  14.692  67.000  1.00  0.00    -0.317 C  
BRANCH  22  23
HETATM   23  N   UNL     1     -11.522  13.938  65.870  1.00  0.00    -0.318 NA 
HETATM   24  C   UNL     1     -10.925  13.823  64.644  1.00  0.00    -0.400 A  
HETATM   25  N   UNL     1     -12.883  12.710  64.634  1.00  0.00    -0.792 NA 
HETATM   26  C   UNL     1     -12.687  13.228  65.827  1.00  0.00    -0.231 A  
HETATM   27  C   UNL     1     -11.794  13.071  63.891  1.00  0.00    -0.477 A  
ENDBRANCH  22  23
ENDBRANCH  13  22
ENDBRANCH  11  13
ENDBRANCH  10  11
ENDBRANCH   9  10
ENDBRANCH   6   9
TORSDOF 7
ENDMDL
MODEL      108
REMARK 921   NORMALIZED FREE ENERGY PREDICTED BY IDOCK:   -5.34 KCAL/MOL
REMARK 922        TOTAL FREE ENERGY PREDICTED BY IDOCK:   -8.64 KCAL/MOL
REMARK 923 INTER-LIGAND FREE ENERGY PREDICTED BY IDOCK:   -8.09 KCAL/MOL
REMARK 924 INTRA-LIGAND FREE ENERGY PREDICTED BY IDOCK:   -0.55 KCAL/MOL
REMARK 927      BINDING AFFINITY PREDICTED BY RF-SCORE:    0.00 PKD
ROOT
HETATM    1 CL   UNL     1      -5.413   9.054  67.195  1.00  0.00    -0.040 Cl 
HETATM    2  C   UNL     1      -7.022   9.259  67.766  1.00  0.00    -0.081 A  
HETATM    3  C   UNL     1      -8.056   8.518  67.198  1.00  0.00    -0.104 A  
HETATM    4  C   UNL     1      -9.374   8.746  67.615  1.00  0.00    -0.137 A  
HETATM    5 CL   UNL     1     -10.605   7.786  66.863  1.00  0.00    -0.408 Cl 
HETATM    6  C   UNL     1      -9.686   9.717  68.589  1.00  0.00    -0.162 A  
HETATM    7  C   UNL     1      -8.616  10.405  69.184  1.00  0.00    -0.169 A  
HETATM    8  C   UNL     1      -7.295  10.178  68.774  1.00  0.00    -0.084 A  
ENDROOT
BRANCH   6   9
HETATM    9  C   UNL     1     -11.135  10.084  68.883  1.00  0.00    -0.176 C  
BRANCH   9  10
HETATM   10  O   UNL     1     -11.731  11.019  67.955  1.00  0.00    -0.551 OA 
BRANCH  10  11
HETATM   11  N   UNL     1     -10.900  12.158  67.825  1.00  0.00    -0.216 NA 
HETATM   12  H   UNL     1      -9.888  12.102  67.706  1.00  0.00     0.000 HD 
BRANCH  11  13
HETATM   13  C   UNL     1     -11.554  13.288  67.873  1.00  0.00    -0.334 C  
BRANCH  13  14
HETATM   14  C   UNL     1     -11.677  14.036  69.183  1.00  0.00    -0.375 A  
HETATM   15 CL   UNL     1     -10.647  16.351  68.071  1.00  0.00    -0.303 Cl 
HETATM   16  C   UNL     1     -12.233  13.371  70.294  1.00  0.00    -0.405 A  
HETATM   17  C   UNL     1     -11.315  15.387  69.342  1.00  0.00    -0.307 A  
HETATM   18  C   UNL     1     -12.472  14.037  71.503  1.00  0.00    -0.407 A  
HETATM   19 CL   UNL     1     -12.470  16.209  73.096  1.00  0.00    -0.588 Cl 
HETATM   20  C   UNL     1     -12.137  15.379  71.627  1.00  0.00    -0.380 A  
HETATM   21  C   UNL     1     -11.546  16.051  70.561  1.00  0.00    -0.383 A  
ENDBRANCH  13  14
BRANCH  13  22
HETATM   22  C   UNL     1     -12.174  13.952  66.646  1.00  0.00    -0.424 C  
BRANCH  22  23
HETATM   23  N   UNL     1     -11.842  13.306  65.384  1.00  0.00    -0.341 NA 
HETATM   24  C   UNL     1     -12.654  12.452  64.689  1.00  0.00    -0.375 A  
HETATM   25  N   UNL     1     -10.689  12.667  63.608  1.00  0.00    -0.417 NA 
HETATM   26  C   UNL     1     -10.678  13.428  64.682  1.00  0.00    -0.411 A  
HETATM   27  C   UNL     1     -11.913  12.057  63.601  1.00  0.00    -0.515 A  
ENDBRANCH  22  23
ENDBRANCH  13  22
ENDBRANCH  11  13
ENDBRANCH  10  11
ENDBRANCH   9  10
ENDBRANCH   6   9
TORSDOF 7
ENDMDL
MODEL      109
REMARK 921   NORMALIZED FREE ENERGY PREDICTED BY IDOCK:   -5.29 KCAL/MOL
REMARK 922        TOTAL FREE ENERGY PREDICTED BY IDOCK:   -8.57 KCAL/MOL
REMARK 923 INTER-LIGAND FREE ENERGY PREDICTED BY IDOCK:   -6.78 KCAL/MOL
REMARK 924 INTRA-LIGAND FREE ENERGY PREDICTED BY IDOCK:   -1.79 KCAL/MOL
REMARK 927      BINDING AFFINITY PREDICTED BY RF-SCORE:    0.00 PKD
ROOT
HETATM    1 CL   UNL     1      -5.610  10.156  68.183  1.00  0.00    -0.038 Cl 
HETATM    2  C   UNL     1      -7.231  10.727  68.244  1.00  0.00    -0.084 A  
HETATM    3  C   UNL     1      -8.109  10.210  69.194  1.00  0.00    -0.134 A  
HETATM    4  C   UNL     1      -9.448  10.624  69.189  1.00  0.00    -0.170 A  
HETATM    5 CL   UNL     1     -10.480   9.938  70.400  1.00  0.00    -0.347 Cl 
HETATM    6  C   UNL     1      -9.936  11.543  68.236  1.00  0.00    -0.205 A  
HETATM    7  C   UNL     1      -9.012  12.089  67.330  1.00  0.00    -0.176 A  
HETATM    8  C   UNL     1      -7.671  11.682  67.334  1.00  0.00    -0.147 A  
ENDROOT
BRANCH   6   9
HETATM    9  C   UNL     1     -11.429  11.826  68.124  1.00  0.00    -0.316 C  
BRANCH   9  10
HETATM   10  O   UNL     1     -11.928  12.847  69.018  1.00  0.00    -0.295 OA 
BRANCH  10  11
HETATM   11  N   UNL     1     -12.190  14.032  68.289  1.00  0.00    -0.540 NA 
HETATM   12  H   UNL     1     -12.802  14.064  67.473  1.00  0.00     0.000 HD 
BRANCH  11  13
HETATM   13  C   UNL     1     -11.571  15.081  68.762  1.00  0.00    -0.335 C  
BRANCH  13  14
HETATM   14  C   UNL     1     -10.152  15.381  68.331  1.00  0.00    -0.215 A  
HETATM   15 CL   UNL     1     -10.961  16.019  65.763  1.00  0.00    -0.204 Cl 
HETATM   16  C   UNL     1      -9.118  15.278  69.282  1.00  0.00    -0.240 A  
HETATM   17  C   UNL     1      -9.809  15.814  67.036  1.00  0.00    -0.234 A  
HETATM   18  C   UNL     1      -7.801  15.643  68.976  1.00  0.00    -0.204 A  
HETATM   19 CL   UNL     1      -5.883  16.588  67.338  1.00  0.00    -0.172 Cl 
HETATM   20  C   UNL     1      -7.491  16.098  67.702  1.00  0.00    -0.145 A  
HETATM   21  C   UNL     1      -8.483  16.170  66.728  1.00  0.00    -0.289 A  
ENDBRANCH  13  14
BRANCH  13  22
HETATM   22  C   UNL     1     -12.225  16.087  69.706  1.00  0.00    -0.007 C  
BRANCH  22  23
HETATM   23  N   UNL     1     -12.619  15.530  70.993  1.00  0.00    -0.426 NA 
HETATM   24  C   UNL     1     -11.779  15.290  72.047  1.00  0.00    -0.447 A  
HETATM   25  N   UNL     1     -13.867  14.638  72.586  1.00  0.00    -0.508 NA 
HETATM   26  C   UNL     1     -13.872  15.148  71.373  1.00  0.00    -0.502 A  
HETATM   27  C   UNL     1     -12.571  14.723  73.016  1.00  0.00    -0.404 A  
ENDBRANCH  22  23
ENDBRANCH  13  22
ENDBRANCH  11  13
ENDBRANCH  10  11
ENDBRANCH   9  10
ENDBRANCH   6   9
TORSDOF 7
ENDMDL
MODEL      110
REMARK 921   NORMALIZED FREE ENERGY PREDICTED BY IDOCK:   -5.28 KCAL/MOL
REMARK 922        TOTAL FREE ENERGY PREDICTED BY IDOCK:   -8.56 KCAL/MOL
REMARK 923 INTER-LIGAND FREE ENERGY PREDICTED BY IDOCK:   -7.78 KCAL/MOL
REMARK 924 INTRA-LIGAND FREE ENERGY PREDICTED BY IDOCK:   -0.79 KCAL/MOL
REMARK 927      BINDING AFFINITY PREDICTED BY RF-SCORE:    0.00 PKD
ROOT
HETATM    1 CL   UNL     1      -8.241   7.261  64.650  1.00  0.00    -0.079 Cl 
HETATM    2  C   UNL     1      -8.374   8.734  65.528  1.00  0.00    -0.147 A  
HETATM    3  C   UNL     1      -7.241   9.515  65.741  1.00  0.00    -0.097 A  
HETATM    4  C   UNL     1      -7.341  10.674  66.522  1.00  0.00    -0.134 A  
HETATM    5 CL   UNL     1      -5.889  11.593  66.742  1.00  0.00    -0.145 Cl 
HETATM    6  C   UNL     1      -8.561  11.067  67.111  1.00  0.00    -0.136 A  
HETATM    7  C   UNL     1      -9.697  10.291  66.828  1.00  0.00    -0.231 A  
HETATM    8  C   UNL     1      -9.602   9.132  66.044  1.00  0.00    -0.342 A  
ENDROOT
BRANCH   6   9
HETATM    9  C   UNL     1      -8.606  12.214  68.112  1.00  0.00    -0.177 C  
BRANCH   9  10
HETATM   10  O   UNL     1      -9.911  12.802  68.314  1.00  0.00    -0.221 OA 
BRANCH  10  11
HETATM   11  N   UNL     1      -9.787  13.986  69.081  1.00  0.00    -0.426 NA 
HETATM   12  H   UNL     1      -9.004  14.166  69.710  1.00  0.00     0.000 HD 
BRANCH  11  13
HETATM   13  C   UNL     1     -10.772  14.825  68.905  1.00  0.00    -0.252 C  
BRANCH  13  14
HETATM   14  C   UNL     1     -10.552  16.093  68.108  1.00  0.00    -0.290 A  
HETATM   15 CL   UNL     1     -10.783  14.740  65.706  1.00  0.00    -0.313 Cl 
HETATM   16  C   UNL     1     -10.385  17.309  68.800  1.00  0.00    -0.358 A  
HETATM   17  C   UNL     1     -10.561  16.137  66.701  1.00  0.00    -0.274 A  
HETATM   18  C   UNL     1     -10.284  18.531  68.123  1.00  0.00    -0.412 A  
HETATM   19 CL   UNL     1     -10.248  20.057  65.903  1.00  0.00    -0.577 Cl 
HETATM   20  C   UNL     1     -10.328  18.554  66.735  1.00  0.00    -0.401 A  
HETATM   21  C   UNL     1     -10.449  17.364  66.022  1.00  0.00    -0.278 A  
ENDBRANCH  13  14
BRANCH  13  22
HETATM   22  C   UNL     1     -12.189  14.578  69.418  1.00  0.00    -0.247 C  
BRANCH  22  23
HETATM   23  N   UNL     1     -12.430  15.068  70.768  1.00  0.00    -0.325 NA 
HETATM   24  C   UNL     1     -13.660  15.277  71.330  1.00  0.00    -0.507 A  
HETATM   25  N   UNL     1     -12.054  15.861  72.798  1.00  0.00    -0.461 NA 
HETATM   26  C   UNL     1     -11.491  15.406  71.698  1.00  0.00    -0.423 A  
HETATM   27  C   UNL     1     -13.401  15.784  72.582  1.00  0.00    -0.523 A  
ENDBRANCH  22  23
ENDBRANCH  13  22
ENDBRANCH  11  13
ENDBRANCH  10  11
ENDBRANCH   9  10
ENDBRANCH   6   9
TORSDOF 7
ENDMDL
MODEL      111
REMARK 921   NORMALIZED FREE ENERGY PREDICTED BY IDOCK:   -5.24 KCAL/MOL
REMARK 922        TOTAL FREE ENERGY PREDICTED BY IDOCK:   -8.50 KCAL/MOL
REMARK 923 INTER-LIGAND FREE ENERGY PREDICTED BY IDOCK:   -7.21 KCAL/MOL
REMARK 924 INTRA-LIGAND FREE ENERGY PREDICTED BY IDOCK:   -1.28 KCAL/MOL
REMARK 927      BINDING AFFINITY PREDICTED BY RF-SCORE:    0.00 PKD
ROOT
HETATM    1 CL   UNL     1     -12.385  13.211  63.086  1.00  0.00    -0.426 Cl 
HETATM    2  C   UNL     1     -11.309  12.923  64.395  1.00  0.00    -0.358 A  
HETATM    3  C   UNL     1     -11.081  13.925  65.335  1.00  0.00    -0.310 A  
HETATM    4  C   UNL     1     -10.145  13.711  66.356  1.00  0.00    -0.295 A  
HETATM    5 CL   UNL     1      -9.917  15.004  67.487  1.00  0.00    -0.225 Cl 
HETATM    6  C   UNL     1      -9.415  12.508  66.452  1.00  0.00    -0.233 A  
HETATM    7  C   UNL     1      -9.711  11.495  65.524  1.00  0.00    -0.259 A  
HETATM    8  C   UNL     1     -10.649  11.703  64.503  1.00  0.00    -0.373 A  
ENDROOT
BRANCH   6   9
HETATM    9  C   UNL     1      -8.268  12.373  67.444  1.00  0.00    -0.180 C  
BRANCH   9  10
HETATM   10  O   UNL     1      -8.337  11.216  68.309  1.00  0.00    -0.129 OA 
BRANCH  10  11
HETATM   11  N   UNL     1      -9.405  11.370  69.226  1.00  0.00    -0.381 NA 
HETATM   12  H   UNL     1      -9.386  12.032  70.002  1.00  0.00     0.000 HD 
BRANCH  11  13
HETATM   13  C   UNL     1     -10.418  10.581  68.981  1.00  0.00    -0.217 C  
BRANCH  13  14
HETATM   14  C   UNL     1     -10.196   9.093  68.817  1.00  0.00    -0.228 A  
HETATM   15 CL   UNL     1      -9.782   8.756  71.532  1.00  0.00    -0.334 Cl 
HETATM   16  C   UNL     1     -10.314   8.527  67.533  1.00  0.00    -0.334 A  
HETATM   17  C   UNL     1      -9.929   8.225  69.893  1.00  0.00    -0.190 A  
HETATM   18  C   UNL     1     -10.226   7.144  67.329  1.00  0.00    -0.315 A  
HETATM   19 CL   UNL     1      -9.929   4.602  68.168  1.00  0.00    -0.165 Cl 
HETATM   20  C   UNL     1      -9.994   6.303  68.410  1.00  0.00    -0.140 A  
HETATM   21  C   UNL     1      -9.830   6.837  69.685  1.00  0.00    -0.173 A  
ENDBRANCH  13  14
BRANCH  13  22
HETATM   22  C   UNL     1     -11.863  11.069  68.903  1.00  0.00    -0.308 C  
BRANCH  22  23
HETATM   23  N   UNL     1     -12.395  11.567  70.164  1.00  0.00    -0.271 NA 
HETATM   24  C   UNL     1     -12.355  12.869  70.585  1.00  0.00    -0.302 A  
HETATM   25  N   UNL     1     -13.323  11.595  72.171  1.00  0.00    -0.394 NA 
HETATM   26  C   UNL     1     -13.011  10.839  71.139  1.00  0.00    -0.371 A  
HETATM   27  C   UNL     1     -12.922  12.858  71.837  1.00  0.00    -0.301 A  
ENDBRANCH  22  23
ENDBRANCH  13  22
ENDBRANCH  11  13
ENDBRANCH  10  11
ENDBRANCH   9  10
ENDBRANCH   6   9
TORSDOF 7
ENDMDL
MODEL      112
REMARK 921   NORMALIZED FREE ENERGY PREDICTED BY IDOCK:   -5.23 KCAL/MOL
REMARK 922        TOTAL FREE ENERGY PREDICTED BY IDOCK:   -8.49 KCAL/MOL
REMARK 923 INTER-LIGAND FREE ENERGY PREDICTED BY IDOCK:   -7.08 KCAL/MOL
REMARK 924 INTRA-LIGAND FREE ENERGY PREDICTED BY IDOCK:   -1.42 KCAL/MOL
REMARK 927      BINDING AFFINITY PREDICTED BY RF-SCORE:    0.00 PKD
ROOT
HETATM    1 CL   UNL     1      -7.322   9.916  63.905  1.00  0.00    -0.128 Cl 
HETATM    2  C   UNL     1      -8.329   9.087  65.026  1.00  0.00    -0.166 A  
HETATM    3  C   UNL     1      -8.125   7.730  65.264  1.00  0.00    -0.133 A  
HETATM    4  C   UNL     1      -8.997   7.043  66.120  1.00  0.00    -0.136 A  
HETATM    5 CL   UNL     1      -8.680   5.359  66.368  1.00  0.00    -0.118 Cl 
HETATM    6  C   UNL     1     -10.088   7.689  66.740  1.00  0.00    -0.325 A  
HETATM    7  C   UNL     1     -10.231   9.070  66.525  1.00  0.00    -0.318 A  
HETATM    8  C   UNL     1      -9.358   9.762  65.673  1.00  0.00    -0.285 A  
ENDROOT
BRANCH   6   9
HETATM    9  C   UNL     1     -11.133   6.886  67.503  1.00  0.00    -0.213 C  
BRANCH   9  10
HETATM   10  O   UNL     1     -10.743   6.481  68.835  1.00  0.00    -0.221 OA 
BRANCH  10  11
HETATM   11  N   UNL     1     -11.787   6.771  69.747  1.00  0.00    -0.651 NA 
HETATM   12  H   UNL     1     -12.735   6.411  69.644  1.00  0.00     0.000 HD 
BRANCH  11  13
HETATM   13  C   UNL     1     -11.417   7.544  70.732  1.00  0.00    -0.284 C  
BRANCH  13  14
HETATM   14  C   UNL     1     -11.781   9.013  70.719  1.00  0.00    -0.286 A  
HETATM   15 CL   UNL     1     -13.820   8.627  72.548  1.00  0.00    -0.393 Cl 
HETATM   16  C   UNL     1     -11.018   9.894  69.926  1.00  0.00    -0.321 A  
HETATM   17  C   UNL     1     -12.812   9.565  71.502  1.00  0.00    -0.377 A  
HETATM   18  C   UNL     1     -11.234  11.277  69.951  1.00  0.00    -0.264 A  
HETATM   19 CL   UNL     1     -12.474  13.505  70.820  1.00  0.00    -0.433 Cl 
HETATM   20  C   UNL     1     -12.237  11.803  70.756  1.00  0.00    -0.326 A  
HETATM   21  C   UNL     1     -13.035  10.954  71.517  1.00  0.00    -0.556 A  
ENDBRANCH  13  14
BRANCH  13  22
HETATM   22  C   UNL     1     -10.667   7.038  71.962  1.00  0.00    -0.215 C  
BRANCH  22  23
HETATM   23  N   UNL     1      -9.353   7.638  72.151  1.00  0.00    -0.139 NA 
HETATM   24  C   UNL     1      -8.322   7.595  71.252  1.00  0.00    -0.107 A  
HETATM   25  N   UNL     1      -7.660   8.694  73.104  1.00  0.00    -0.377 NA 
HETATM   26  C   UNL     1      -8.919   8.334  73.241  1.00  0.00    -0.213 A  
HETATM   27  C   UNL     1      -7.279   8.241  71.871  1.00  0.00    -0.090 A  
ENDBRANCH  22  23
ENDBRANCH  13  22
ENDBRANCH  11  13
ENDBRANCH  10  11
ENDBRANCH   9  10
ENDBRANCH   6   9
TORSDOF 7
ENDMDL
MODEL      113
REMARK 921   NORMALIZED FREE ENERGY PREDICTED BY IDOCK:   -5.23 KCAL/MOL
REMARK 922        TOTAL FREE ENERGY PREDICTED BY IDOCK:   -8.49 KCAL/MOL
REMARK 923 INTER-LIGAND FREE ENERGY PREDICTED BY IDOCK:   -7.19 KCAL/MOL
REMARK 924 INTRA-LIGAND FREE ENERGY PREDICTED BY IDOCK:   -1.30 KCAL/MOL
REMARK 927      BINDING AFFINITY PREDICTED BY RF-SCORE:    0.00 PKD
ROOT
HETATM    1 CL   UNL     1     -10.290   4.130  74.559  1.00  0.00    -0.265 Cl 
HETATM    2  C   UNL     1     -10.446   4.783  72.977  1.00  0.00    -0.202 A  
HETATM    3  C   UNL     1     -11.463   5.695  72.704  1.00  0.00    -0.339 A  
HETATM    4  C   UNL     1     -11.631   6.166  71.394  1.00  0.00    -0.219 A  
HETATM    5 CL   UNL     1     -12.917   7.297  71.132  1.00  0.00    -0.364 Cl 
HETATM    6  C   UNL     1     -10.804   5.729  70.338  1.00  0.00    -0.360 A  
HETATM    7  C   UNL     1      -9.752   4.856  70.657  1.00  0.00    -0.271 A  
HETATM    8  C   UNL     1      -9.576   4.386  71.967  1.00  0.00    -0.209 A  
ENDROOT
BRANCH   6   9
HETATM    9  C   UNL     1     -11.127   6.098  68.896  1.00  0.00    -0.345 C  
BRANCH   9  10
HETATM   10  O   UNL     1     -10.298   7.137  68.327  1.00  0.00    -0.181 OA 
BRANCH  10  11
HETATM   11  N   UNL     1     -11.042   8.338  68.225  1.00  0.00    -0.333 NA 
HETATM   12  H   UNL     1     -12.061   8.366  68.224  1.00  0.00     0.000 HD 
BRANCH  11  13
HETATM   13  C   UNL     1     -10.295   9.405  68.132  1.00  0.00    -0.211 C  
BRANCH  13  14
HETATM   14  C   UNL     1     -10.791  10.611  67.364  1.00  0.00    -0.353 A  
HETATM   15 CL   UNL     1     -11.938  11.706  69.631  1.00  0.00    -0.384 Cl 
HETATM   16  C   UNL     1     -10.482  10.718  65.993  1.00  0.00    -0.273 A  
HETATM   17  C   UNL     1     -11.505  11.670  67.957  1.00  0.00    -0.315 A  
HETATM   18  C   UNL     1     -10.819  11.857  65.251  1.00  0.00    -0.347 A  
HETATM   19 CL   UNL     1     -11.871  14.320  64.966  1.00  0.00    -0.377 Cl 
HETATM   20  C   UNL     1     -11.495  12.903  65.865  1.00  0.00    -0.346 A  
HETATM   21  C   UNL     1     -11.852  12.809  67.207  1.00  0.00    -0.414 A  
ENDBRANCH  13  14
BRANCH  13  22
HETATM   22  C   UNL     1      -8.936   9.542  68.814  1.00  0.00    -0.133 C  
BRANCH  22  23
HETATM   23  N   UNL     1      -8.914   9.092  70.199  1.00  0.00    -0.168 NA 
HETATM   24  C   UNL     1      -7.983   8.251  70.747  1.00  0.00    -0.100 A  
HETATM   25  N   UNL     1      -9.518   8.793  72.305  1.00  0.00    -0.330 NA 
HETATM   26  C   UNL     1      -9.804   9.415  71.181  1.00  0.00    -0.216 A  
HETATM   27  C   UNL     1      -8.388   8.068  72.048  1.00  0.00    -0.139 A  
ENDBRANCH  22  23
ENDBRANCH  13  22
ENDBRANCH  11  13
ENDBRANCH  10  11
ENDBRANCH   9  10
ENDBRANCH   6   9
TORSDOF 7
ENDMDL
MODEL      114
REMARK 921   NORMALIZED FREE ENERGY PREDICTED BY IDOCK:   -5.23 KCAL/MOL
REMARK 922        TOTAL FREE ENERGY PREDICTED BY IDOCK:   -8.49 KCAL/MOL
REMARK 923 INTER-LIGAND FREE ENERGY PREDICTED BY IDOCK:   -7.51 KCAL/MOL
REMARK 924 INTRA-LIGAND FREE ENERGY PREDICTED BY IDOCK:   -0.98 KCAL/MOL
REMARK 927      BINDING AFFINITY PREDICTED BY RF-SCORE:    0.00 PKD
ROOT
HETATM    1 CL   UNL     1      -8.555   9.236  63.112  1.00  0.00    -0.211 Cl 
HETATM    2  C   UNL     1      -9.598  10.193  64.088  1.00  0.00    -0.272 A  
HETATM    3  C   UNL     1     -10.419  11.146  63.491  1.00  0.00    -0.422 A  
HETATM    4  C   UNL     1     -11.210  11.975  64.298  1.00  0.00    -0.357 A  
HETATM    5 CL   UNL     1     -12.206  13.135  63.484  1.00  0.00    -0.587 Cl 
HETATM    6  C   UNL     1     -11.187  11.879  65.706  1.00  0.00    -0.365 A  
HETATM    7  C   UNL     1     -10.393  10.870  66.273  1.00  0.00    -0.306 A  
HETATM    8  C   UNL     1      -9.603  10.035  65.469  1.00  0.00    -0.328 A  
ENDROOT
BRANCH   6   9
HETATM    9  C   UNL     1     -11.898  12.916  66.566  1.00  0.00    -0.407 C  
BRANCH   9  10
HETATM   10  O   UNL     1     -11.043  13.662  67.461  1.00  0.00    -0.266 OA 
BRANCH  10  11
HETATM   11  N   UNL     1     -10.798  14.949  66.924  1.00  0.00    -0.313 NA 
HETATM   12  H   UNL     1     -10.462  15.104  65.974  1.00  0.00     0.000 HD 
BRANCH  11  13
HETATM   13  C   UNL     1     -11.043  15.918  67.764  1.00  0.00    -0.288 C  
BRANCH  13  14
HETATM   14  C   UNL     1     -11.401  15.602  69.200  1.00  0.00    -0.341 A  
HETATM   15 CL   UNL     1      -8.739  15.379  69.919  1.00  0.00    -0.021 Cl 
HETATM   16  C   UNL     1     -12.759  15.591  69.574  1.00  0.00     0.176 A  
HETATM   17  C   UNL     1     -10.444  15.371  70.207  1.00  0.00    -0.241 A  
HETATM   18  C   UNL     1     -13.152  15.410  70.907  1.00  0.00    -0.528 A  
HETATM   19 CL   UNL     1     -12.668  15.039  73.530  1.00  0.00    -0.641 Cl 
HETATM   20  C   UNL     1     -12.189  15.216  71.888  1.00  0.00    -0.361 A  
HETATM   21  C   UNL     1     -10.841  15.180  71.543  1.00  0.00     0.084 A  
ENDBRANCH  13  14
BRANCH  13  22
HETATM   22  C   UNL     1     -10.935  17.396  67.397  1.00  0.00    -0.056 C  
BRANCH  22  23
HETATM   23  N   UNL     1      -9.638  17.992  67.689  1.00  0.00    -0.266 NA 
HETATM   24  C   UNL     1      -8.466  17.701  67.044  1.00  0.00    -0.236 A  
HETATM   25  N   UNL     1      -8.075  19.207  68.674  1.00  0.00    -0.362 NA 
HETATM   26  C   UNL     1      -9.360  18.924  68.645  1.00  0.00    -0.369 A  
HETATM   27  C   UNL     1      -7.510  18.455  67.683  1.00  0.00    -0.224 A  
ENDBRANCH  22  23
ENDBRANCH  13  22
ENDBRANCH  11  13
ENDBRANCH  10  11
ENDBRANCH   9  10
ENDBRANCH   6   9
TORSDOF 7
ENDMDL
MODEL      115
REMARK 921   NORMALIZED FREE ENERGY PREDICTED BY IDOCK:   -5.22 KCAL/MOL
REMARK 922        TOTAL FREE ENERGY PREDICTED BY IDOCK:   -8.47 KCAL/MOL
REMARK 923 INTER-LIGAND FREE ENERGY PREDICTED BY IDOCK:   -7.13 KCAL/MOL
REMARK 924 INTRA-LIGAND FREE ENERGY PREDICTED BY IDOCK:   -1.35 KCAL/MOL
REMARK 927      BINDING AFFINITY PREDICTED BY RF-SCORE:    0.00 PKD
ROOT
HETATM    1 CL   UNL     1      -9.761  11.018  62.952  1.00  0.00    -0.346 Cl 
HETATM    2  C   UNL     1     -10.220  10.893  64.604  1.00  0.00    -0.345 A  
HETATM    3  C   UNL     1     -10.918  11.937  65.206  1.00  0.00    -0.354 A  
HETATM    4  C   UNL     1     -11.222  11.863  66.573  1.00  0.00    -0.327 A  
HETATM    5 CL   UNL     1     -12.092  13.199  67.251  1.00  0.00    -0.376 Cl 
HETATM    6  C   UNL     1     -10.828  10.760  67.360  1.00  0.00    -0.345 A  
HETATM    7  C   UNL     1     -10.178   9.699  66.710  1.00  0.00    -0.308 A  
HETATM    8  C   UNL     1      -9.876   9.767  65.342  1.00  0.00    -0.365 A  
ENDROOT
BRANCH   6   9
HETATM    9  C   UNL     1     -10.994  10.790  68.874  1.00  0.00    -0.241 C  
BRANCH   9  10
HETATM   10  O   UNL     1     -10.516   9.614  69.567  1.00  0.00    -0.200 OA 
BRANCH  10  11
HETATM   11  N   UNL     1     -11.597   8.971  70.217  1.00  0.00    -0.455 NA 
HETATM   12  H   UNL     1     -12.371   9.477  70.648  1.00  0.00     0.000 HD 
BRANCH  11  13
HETATM   13  C   UNL     1     -11.507   7.668  70.210  1.00  0.00    -0.127 C  
BRANCH  13  14
HETATM   14  C   UNL     1     -10.644   6.975  69.178  1.00  0.00    -0.235 A  
HETATM   15 CL   UNL     1      -8.421   7.082  70.822  1.00  0.00    -0.133 Cl 
HETATM   16  C   UNL     1     -11.234   6.560  67.968  1.00  0.00    -0.251 A  
HETATM   17  C   UNL     1      -9.285   6.668  69.382  1.00  0.00    -0.142 A  
HETATM   18  C   UNL     1     -10.518   5.821  67.018  1.00  0.00    -0.342 A  
HETATM   19 CL   UNL     1      -8.319   4.557  66.109  1.00  0.00    -0.113 Cl 
HETATM   20  C   UNL     1      -9.187   5.502  67.255  1.00  0.00    -0.110 A  
HETATM   21  C   UNL     1      -8.564   5.935  68.422  1.00  0.00    -0.113 A  
ENDBRANCH  13  14
BRANCH  13  22
HETATM   22  C   UNL     1     -12.192   6.773  71.240  1.00  0.00    -0.364 C  
BRANCH  22  23
HETATM   23  N   UNL     1     -11.368   6.458  72.399  1.00  0.00    -0.277 NA 
HETATM   24  C   UNL     1     -11.020   5.199  72.809  1.00  0.00    -0.267 A  
HETATM   25  N   UNL     1     -10.169   6.718  74.239  1.00  0.00    -0.348 NA 
HETATM   26  C   UNL     1     -10.811   7.343  73.275  1.00  0.00    -0.368 A  
HETATM   27  C   UNL     1     -10.291   5.385  73.959  1.00  0.00    -0.272 A  
ENDBRANCH  22  23
ENDBRANCH  13  22
ENDBRANCH  11  13
ENDBRANCH  10  11
ENDBRANCH   9  10
ENDBRANCH   6   9
TORSDOF 7
ENDMDL
MODEL      116
REMARK 921   NORMALIZED FREE ENERGY PREDICTED BY IDOCK:   -5.22 KCAL/MOL
REMARK 922        TOTAL FREE ENERGY PREDICTED BY IDOCK:   -8.47 KCAL/MOL
REMARK 923 INTER-LIGAND FREE ENERGY PREDICTED BY IDOCK:   -7.24 KCAL/MOL
REMARK 924 INTRA-LIGAND FREE ENERGY PREDICTED BY IDOCK:   -1.23 KCAL/MOL
REMARK 927      BINDING AFFINITY PREDICTED BY RF-SCORE:    0.00 PKD
ROOT
HETATM    1 CL   UNL     1     -12.644  13.977  65.768  1.00  0.00    -0.530 Cl 
HETATM    2  C   UNL     1     -11.737  12.548  66.071  1.00  0.00    -0.417 A  
HETATM    3  C   UNL     1     -11.006  11.964  65.039  1.00  0.00    -0.365 A  
HETATM    4  C   UNL     1     -10.331  10.758  65.272  1.00  0.00    -0.258 A  
HETATM    5 CL   UNL     1      -9.443  10.093  63.942  1.00  0.00    -0.336 Cl 
HETATM    6  C   UNL     1     -10.383  10.110  66.524  1.00  0.00    -0.270 A  
HETATM    7  C   UNL     1     -11.080  10.755  67.559  1.00  0.00    -0.374 A  
HETATM    8  C   UNL     1     -11.753  11.963  67.332  1.00  0.00    -0.326 A  
ENDROOT
BRANCH   6   9
HETATM    9  C   UNL     1      -9.810   8.709  66.697  1.00  0.00    -0.266 C  
BRANCH   9  10
HETATM   10  O   UNL     1     -10.605   7.817  67.511  1.00  0.00    -0.260 OA 
BRANCH  10  11
HETATM   11  N   UNL     1      -9.813   6.720  67.929  1.00  0.00    -0.127 NA 
HETATM   12  H   UNL     1      -9.405   6.046  67.282  1.00  0.00     0.000 HD 
BRANCH  11  13
HETATM   13  C   UNL     1      -9.656   6.656  69.224  1.00  0.00    -0.143 C  
BRANCH  13  14
HETATM   14  C   UNL     1     -10.636   7.357  70.141  1.00  0.00    -0.240 A  
HETATM   15 CL   UNL     1      -9.038   9.610  70.290  1.00  0.00    -0.286 Cl 
HETATM   16  C   UNL     1     -11.836   6.701  70.479  1.00  0.00    -0.430 A  
HETATM   17  C   UNL     1     -10.442   8.661  70.635  1.00  0.00    -0.204 A  
HETATM   18  C   UNL     1     -12.831   7.334  71.235  1.00  0.00    -0.391 A  
HETATM   19 CL   UNL     1     -13.869   9.428  72.575  1.00  0.00    -0.454 Cl 
HETATM   20  C   UNL     1     -12.631   8.633  71.685  1.00  0.00    -0.338 A  
HETATM   21  C   UNL     1     -11.438   9.292  71.403  1.00  0.00    -0.439 A  
ENDBRANCH  13  14
BRANCH  13  22
HETATM   22  C   UNL     1      -8.548   5.850  69.898  1.00  0.00    -0.129 C  
BRANCH  22  23
HETATM   23  N   UNL     1      -8.976   4.555  70.408  1.00  0.00    -0.090 NA 
HETATM   24  C   UNL     1      -9.213   4.257  71.722  1.00  0.00    -0.127 A  
HETATM   25  N   UNL     1      -9.532   2.415  70.464  1.00  0.00    -0.135 NA 
HETATM   26  C   UNL     1      -9.207   3.423  69.682  1.00  0.00    -0.154 A  
HETATM   27  C   UNL     1      -9.541   2.922  71.734  1.00  0.00    -0.147 A  
ENDBRANCH  22  23
ENDBRANCH  13  22
ENDBRANCH  11  13
ENDBRANCH  10  11
ENDBRANCH   9  10
ENDBRANCH   6   9
TORSDOF 7
ENDMDL
MODEL      117
REMARK 921   NORMALIZED FREE ENERGY PREDICTED BY IDOCK:   -5.21 KCAL/MOL
REMARK 922        TOTAL FREE ENERGY PREDICTED BY IDOCK:   -8.47 KCAL/MOL
REMARK 923 INTER-LIGAND FREE ENERGY PREDICTED BY IDOCK:   -7.64 KCAL/MOL
REMARK 924 INTRA-LIGAND FREE ENERGY PREDICTED BY IDOCK:   -0.82 KCAL/MOL
REMARK 927      BINDING AFFINITY PREDICTED BY RF-SCORE:    0.00 PKD
ROOT
HETATM    1 CL   UNL     1      -8.310   5.581  65.956  1.00  0.00    -0.118 Cl 
HETATM    2  C   UNL     1      -8.440   7.184  66.562  1.00  0.00    -0.125 A  
HETATM    3  C   UNL     1      -8.890   8.203  65.725  1.00  0.00    -0.173 A  
HETATM    4  C   UNL     1      -8.921   9.521  66.201  1.00  0.00    -0.158 A  
HETATM    5 CL   UNL     1      -9.493  10.733  65.104  1.00  0.00    -0.249 Cl 
HETATM    6  C   UNL     1      -8.494   9.847  67.506  1.00  0.00    -0.115 A  
HETATM    7  C   UNL     1      -8.102   8.790  68.343  1.00  0.00    -0.117 A  
HETATM    8  C   UNL     1      -8.074   7.469  67.872  1.00  0.00    -0.119 A  
ENDROOT
BRANCH   6   9
HETATM    9  C   UNL     1      -8.349  11.302  67.934  1.00  0.00    -0.131 C  
BRANCH   9  10
HETATM   10  O   UNL     1      -9.282  11.739  68.948  1.00  0.00    -0.059 OA 
BRANCH  10  11
HETATM   11  N   UNL     1      -9.658  13.082  68.702  1.00  0.00    -0.407 NA 
HETATM   12  H   UNL     1      -8.986  13.843  68.607  1.00  0.00     0.000 HD 
BRANCH  11  13
HETATM   13  C   UNL     1     -10.950  13.251  68.610  1.00  0.00    -0.264 C  
BRANCH  13  14
HETATM   14  C   UNL     1     -11.714  13.887  69.751  1.00  0.00    -0.372 A  
HETATM   15 CL   UNL     1     -12.358  11.420  70.825  1.00  0.00    -0.482 Cl 
HETATM   16  C   UNL     1     -11.756  15.292  69.839  1.00  0.00    -0.349 A  
HETATM   17  C   UNL     1     -12.343  13.148  70.771  1.00  0.00    -0.321 A  
HETATM   18  C   UNL     1     -12.354  15.942  70.927  1.00  0.00    -0.373 A  
HETATM   19 CL   UNL     1     -13.637  15.987  73.295  1.00  0.00    -0.612 Cl 
HETATM   20  C   UNL     1     -12.942  15.192  71.938  1.00  0.00    -0.359 A  
HETATM   21  C   UNL     1     -12.953  13.803  71.857  1.00  0.00    -0.439 A  
ENDBRANCH  13  14
BRANCH  13  22
HETATM   22  C   UNL     1     -11.757  12.890  67.365  1.00  0.00    -0.372 C  
BRANCH  22  23
HETATM   23  N   UNL     1     -11.657  13.862  66.284  1.00  0.00    -0.349 NA 
HETATM   24  C   UNL     1     -12.608  14.087  65.326  1.00  0.00    -0.470 A  
HETATM   25  N   UNL     1     -10.828  15.415  64.946  1.00  0.00    -0.438 NA 
HETATM   26  C   UNL     1     -10.613  14.704  66.033  1.00  0.00    -0.309 A  
HETATM   27  C   UNL     1     -12.065  15.042  64.499  1.00  0.00    -0.363 A  
ENDBRANCH  22  23
ENDBRANCH  13  22
ENDBRANCH  11  13
ENDBRANCH  10  11
ENDBRANCH   9  10
ENDBRANCH   6   9
TORSDOF 7
ENDMDL
MODEL      118
REMARK 921   NORMALIZED FREE ENERGY PREDICTED BY IDOCK:   -5.21 KCAL/MOL
REMARK 922        TOTAL FREE ENERGY PREDICTED BY IDOCK:   -8.46 KCAL/MOL
REMARK 923 INTER-LIGAND FREE ENERGY PREDICTED BY IDOCK:   -7.52 KCAL/MOL
REMARK 924 INTRA-LIGAND FREE ENERGY PREDICTED BY IDOCK:   -0.94 KCAL/MOL
REMARK 927      BINDING AFFINITY PREDICTED BY RF-SCORE:    0.00 PKD
ROOT
HETATM    1 CL   UNL     1     -11.036  15.844  64.593  1.00  0.00    -0.426 Cl 
HETATM    2  C   UNL     1     -11.370  14.813  65.927  1.00  0.00    -0.331 A  
HETATM    3  C   UNL     1     -11.257  15.306  67.225  1.00  0.00    -0.306 A  
HETATM    4  C   UNL     1     -11.456  14.440  68.309  1.00  0.00    -0.305 A  
HETATM    5 CL   UNL     1     -11.300  15.125  69.892  1.00  0.00    -0.283 Cl 
HETATM    6  C   UNL     1     -11.756  13.074  68.121  1.00  0.00    -0.391 A  
HETATM    7  C   UNL     1     -11.921  12.623  66.801  1.00  0.00    -0.362 A  
HETATM    8  C   UNL     1     -11.727  13.486  65.714  1.00  0.00    -0.371 A  
ENDROOT
BRANCH   6   9
HETATM    9  C   UNL     1     -11.773  12.113  69.303  1.00  0.00    -0.328 C  
BRANCH   9  10
HETATM   10  O   UNL     1     -11.579  10.721  68.965  1.00  0.00    -0.280 OA 
BRANCH  10  11
HETATM   11  N   UNL     1     -11.752   9.921  70.120  1.00  0.00    -0.398 NA 
HETATM   12  H   UNL     1     -12.629   9.869  70.639  1.00  0.00     0.000 HD 
BRANCH  11  13
HETATM   13  C   UNL     1     -10.679   9.257  70.458  1.00  0.00    -0.257 C  
BRANCH  13  14
HETATM   14  C   UNL     1     -10.793   8.034  71.341  1.00  0.00    -0.271 A  
HETATM   15 CL   UNL     1     -11.341   6.400  69.176  1.00  0.00    -0.417 Cl 
HETATM   16  C   UNL     1     -10.563   8.171  72.724  1.00  0.00    -0.386 A  
HETATM   17  C   UNL     1     -11.064   6.743  70.849  1.00  0.00    -0.277 A  
HETATM   18  C   UNL     1     -10.549   7.062  73.580  1.00  0.00    -0.405 A  
HETATM   19 CL   UNL     1     -10.727   4.427  74.108  1.00  0.00    -0.324 Cl 
HETATM   20  C   UNL     1     -10.788   5.794  73.067  1.00  0.00    -0.271 A  
HETATM   21  C   UNL     1     -11.060   5.631  71.711  1.00  0.00    -0.265 A  
ENDBRANCH  13  14
BRANCH  13  22
HETATM   22  C   UNL     1      -9.280   9.611  69.960  1.00  0.00    -0.241 C  
BRANCH  22  23
HETATM   23  N   UNL     1      -8.784   8.742  68.902  1.00  0.00    -0.133 NA 
HETATM   24  C   UNL     1      -7.867   7.738  69.061  1.00  0.00    -0.118 A  
HETATM   25  N   UNL     1      -8.456   7.882  66.891  1.00  0.00    -0.125 NA 
HETATM   26  C   UNL     1      -9.132   8.775  67.583  1.00  0.00    -0.134 A  
HETATM   27  C   UNL     1      -7.668   7.230  67.800  1.00  0.00    -0.112 A  
ENDBRANCH  22  23
ENDBRANCH  13  22
ENDBRANCH  11  13
ENDBRANCH  10  11
ENDBRANCH   9  10
ENDBRANCH   6   9
TORSDOF 7
ENDMDL
MODEL      119
REMARK 921   NORMALIZED FREE ENERGY PREDICTED BY IDOCK:   -5.20 KCAL/MOL
REMARK 922        TOTAL FREE ENERGY PREDICTED BY IDOCK:   -8.45 KCAL/MOL
REMARK 923 INTER-LIGAND FREE ENERGY PREDICTED BY IDOCK:   -7.18 KCAL/MOL
REMARK 924 INTRA-LIGAND FREE ENERGY PREDICTED BY IDOCK:   -1.27 KCAL/MOL
REMARK 927      BINDING AFFINITY PREDICTED BY RF-SCORE:    0.00 PKD
ROOT
HETATM    1 CL   UNL     1     -12.831  13.995  65.511  1.00  0.00    -0.534 Cl 
HETATM    2  C   UNL     1     -11.794  12.658  65.818  1.00  0.00    -0.444 A  
HETATM    3  C   UNL     1     -11.113  12.056  64.763  1.00  0.00    -0.369 A  
HETATM    4  C   UNL     1     -10.331  10.919  65.008  1.00  0.00    -0.288 A  
HETATM    5 CL   UNL     1      -9.514  10.227  63.647  1.00  0.00    -0.334 Cl 
HETATM    6  C   UNL     1     -10.223  10.358  66.299  1.00  0.00    -0.286 A  
HETATM    7  C   UNL     1     -10.874  11.023  67.350  1.00  0.00    -0.327 A  
HETATM    8  C   UNL     1     -11.655  12.163  67.110  1.00  0.00    -0.405 A  
ENDROOT
BRANCH   6   9
HETATM    9  C   UNL     1      -9.532   9.017  66.506  1.00  0.00    -0.206 C  
BRANCH   9  10
HETATM   10  O   UNL     1     -10.022   8.241  67.624  1.00  0.00    -0.166 OA 
BRANCH  10  11
HETATM   11  N   UNL     1      -8.931   7.788  68.404  1.00  0.00    -0.133 NA 
HETATM   12  H   UNL     1      -8.145   7.266  68.017  1.00  0.00     0.000 HD 
BRANCH  11  13
HETATM   13  C   UNL     1      -9.029   8.104  69.668  1.00  0.00    -0.154 C  
BRANCH  13  14
HETATM   14  C   UNL     1     -10.393   8.260  70.305  1.00  0.00    -0.211 A  
HETATM   15 CL   UNL     1     -10.901   5.547  70.114  1.00  0.00    -0.354 Cl 
HETATM   16  C   UNL     1     -10.800   9.539  70.732  1.00  0.00    -0.386 A  
HETATM   17  C   UNL     1     -11.263   7.180  70.549  1.00  0.00    -0.290 A  
HETATM   18  C   UNL     1     -12.002   9.733  71.423  1.00  0.00    -0.493 A  
HETATM   19 CL   UNL     1     -14.286   8.880  72.569  1.00  0.00    -0.436 Cl 
HETATM   20  C   UNL     1     -12.831   8.649  71.681  1.00  0.00    -0.345 A  
HETATM   21  C   UNL     1     -12.476   7.380  71.235  1.00  0.00    -0.381 A  
ENDBRANCH  13  14
BRANCH  13  22
HETATM   22  C   UNL     1      -7.821   8.277  70.587  1.00  0.00    -0.092 C  
BRANCH  22  23
HETATM   23  N   UNL     1      -7.862   7.456  71.789  1.00  0.00    -0.089 NA 
HETATM   24  C   UNL     1      -8.053   7.919  73.062  1.00  0.00    -0.147 A  
HETATM   25  N   UNL     1      -7.753   5.687  73.111  1.00  0.00    -0.100 NA 
HETATM   26  C   UNL     1      -7.713   6.102  71.862  1.00  0.00    -0.097 A  
HETATM   27  C   UNL     1      -7.965   6.807  73.865  1.00  0.00    -0.109 A  
ENDBRANCH  22  23
ENDBRANCH  13  22
ENDBRANCH  11  13
ENDBRANCH  10  11
ENDBRANCH   9  10
ENDBRANCH   6   9
TORSDOF 7
ENDMDL
MODEL      120
REMARK 921   NORMALIZED FREE ENERGY PREDICTED BY IDOCK:   -5.20 KCAL/MOL
REMARK 922        TOTAL FREE ENERGY PREDICTED BY IDOCK:   -8.44 KCAL/MOL
REMARK 923 INTER-LIGAND FREE ENERGY PREDICTED BY IDOCK:   -7.18 KCAL/MOL
REMARK 924 INTRA-LIGAND FREE ENERGY PREDICTED BY IDOCK:   -1.26 KCAL/MOL
REMARK 927      BINDING AFFINITY PREDICTED BY RF-SCORE:    0.00 PKD
ROOT
HETATM    1 CL   UNL     1      -7.599  10.332  64.459  1.00  0.00    -0.129 Cl 
HETATM    2  C   UNL     1      -8.521   9.197  65.364  1.00  0.00    -0.149 A  
HETATM    3  C   UNL     1      -8.213   7.841  65.288  1.00  0.00    -0.142 A  
HETATM    4  C   UNL     1      -9.015   6.914  65.967  1.00  0.00    -0.105 A  
HETATM    5 CL   UNL     1      -8.570   5.246  65.825  1.00  0.00    -0.133 Cl 
HETATM    6  C   UNL     1     -10.139   7.318  66.719  1.00  0.00    -0.291 A  
HETATM    7  C   UNL     1     -10.387   8.696  66.824  1.00  0.00    -0.336 A  
HETATM    8  C   UNL     1      -9.584   9.627  66.150  1.00  0.00    -0.295 A  
ENDROOT
BRANCH   6   9
HETATM    9  C   UNL     1     -11.107   6.286  67.283  1.00  0.00    -0.296 C  
BRANCH   9  10
HETATM   10  O   UNL     1     -10.816   5.842  68.628  1.00  0.00    -0.273 OA 
BRANCH  10  11
HETATM   11  N   UNL     1     -11.774   6.376  69.524  1.00  0.00    -0.588 NA 
HETATM   12  H   UNL     1     -12.776   6.205  69.438  1.00  0.00     0.000 HD 
BRANCH  11  13
HETATM   13  C   UNL     1     -11.250   7.108  70.470  1.00  0.00    -0.290 C  
BRANCH  13  14
HETATM   14  C   UNL     1     -11.858   8.451  70.812  1.00  0.00    -0.178 A  
HETATM   15 CL   UNL     1     -14.146   7.267  71.823  1.00  0.00    -0.507 Cl 
HETATM   16  C   UNL     1     -11.111   9.618  70.561  1.00  0.00    -0.369 A  
HETATM   17  C   UNL     1     -13.118   8.599  71.424  1.00  0.00    -0.245 A  
HETATM   18  C   UNL     1     -11.572  10.882  70.952  1.00  0.00    -0.133 A  
HETATM   19 CL   UNL     1     -13.350  12.547  72.102  1.00  0.00    -0.612 Cl 
HETATM   20  C   UNL     1     -12.803  11.001  71.583  1.00  0.00    -0.435 A  
HETATM   21  C   UNL     1     -13.583   9.871  71.806  1.00  0.00    -0.363 A  
ENDBRANCH  13  14
BRANCH  13  22
HETATM   22  C   UNL     1     -10.061   6.661  71.317  1.00  0.00    -0.188 C  
BRANCH  22  23
HETATM   23  N   UNL     1     -10.298   5.449  72.088  1.00  0.00    -0.206 NA 
HETATM   24  C   UNL     1      -9.688   4.241  71.880  1.00  0.00    -0.165 A  
HETATM   25  N   UNL     1     -11.166   4.055  73.570  1.00  0.00    -0.260 NA 
HETATM   26  C   UNL     1     -11.161   5.298  73.134  1.00  0.00    -0.324 A  
HETATM   27  C   UNL     1     -10.253   3.390  72.799  1.00  0.00    -0.168 A  
ENDBRANCH  22  23
ENDBRANCH  13  22
ENDBRANCH  11  13
ENDBRANCH  10  11
ENDBRANCH   9  10
ENDBRANCH   6   9
TORSDOF 7
ENDMDL
MODEL      121
REMARK 921   NORMALIZED FREE ENERGY PREDICTED BY IDOCK:   -5.19 KCAL/MOL
REMARK 922        TOTAL FREE ENERGY PREDICTED BY IDOCK:   -8.44 KCAL/MOL
REMARK 923 INTER-LIGAND FREE ENERGY PREDICTED BY IDOCK:   -7.61 KCAL/MOL
REMARK 924 INTRA-LIGAND FREE ENERGY PREDICTED BY IDOCK:   -0.83 KCAL/MOL
REMARK 927      BINDING AFFINITY PREDICTED BY RF-SCORE:    0.00 PKD
ROOT
HETATM    1 CL   UNL     1     -12.077  16.010  73.349  1.00  0.00    -0.582 Cl 
HETATM    2  C   UNL     1     -12.000  15.337  71.769  1.00  0.00    -0.385 A  
HETATM    3  C   UNL     1     -11.352  16.034  70.752  1.00  0.00    -0.427 A  
HETATM    4  C   UNL     1     -11.359  15.516  69.450  1.00  0.00    -0.316 A  
HETATM    5 CL   UNL     1     -10.532  16.440  68.240  1.00  0.00    -0.286 Cl 
HETATM    6  C   UNL     1     -12.018  14.309  69.136  1.00  0.00    -0.372 A  
HETATM    7  C   UNL     1     -12.611  13.601  70.194  1.00  0.00    -0.215 A  
HETATM    8  C   UNL     1     -12.603  14.113  71.500  1.00  0.00    -0.434 A  
ENDROOT
BRANCH   6   9
HETATM    9  C   UNL     1     -12.181  13.867  67.688  1.00  0.00    -0.197 C  
BRANCH   9  10
HETATM   10  O   UNL     1     -11.069  13.120  67.144  1.00  0.00    -0.267 OA 
BRANCH  10  11
HETATM   11  N   UNL     1     -11.381  11.739  67.137  1.00  0.00    -0.366 NA 
HETATM   12  H   UNL     1     -12.335  11.381  67.183  1.00  0.00     0.000 HD 
BRANCH  11  13
HETATM   13  C   UNL     1     -10.328  10.969  67.067  1.00  0.00    -0.228 C  
BRANCH  13  14
HETATM   14  C   UNL     1     -10.357   9.590  67.689  1.00  0.00    -0.299 A  
HETATM   15 CL   UNL     1     -10.898  10.625  70.197  1.00  0.00    -0.287 Cl 
HETATM   16  C   UNL     1     -10.169   8.467  66.859  1.00  0.00    -0.375 A  
HETATM   17  C   UNL     1     -10.618   9.358  69.053  1.00  0.00    -0.213 A  
HETATM   18  C   UNL     1     -10.289   7.162  67.352  1.00  0.00    -0.324 A  
HETATM   19 CL   UNL     1     -10.771   5.356  69.292  1.00  0.00    -0.281 Cl 
HETATM   20  C   UNL     1     -10.579   6.957  68.695  1.00  0.00    -0.223 A  
HETATM   21  C   UNL     1     -10.728   8.046  69.549  1.00  0.00    -0.185 A  
ENDBRANCH  13  14
BRANCH  13  22
HETATM   22  C   UNL     1      -9.051  11.358  66.326  1.00  0.00    -0.202 C  
BRANCH  22  23
HETATM   23  N   UNL     1      -9.004  10.914  64.940  1.00  0.00    -0.182 NA 
HETATM   24  C   UNL     1      -9.965  11.152  63.996  1.00  0.00    -0.323 A  
HETATM   25  N   UNL     1      -8.315   9.913  63.092  1.00  0.00    -0.152 NA 
HETATM   26  C   UNL     1      -8.015  10.187  64.344  1.00  0.00    -0.153 A  
HETATM   27  C   UNL     1      -9.524  10.509  62.864  1.00  0.00    -0.333 A  
ENDBRANCH  22  23
ENDBRANCH  13  22
ENDBRANCH  11  13
ENDBRANCH  10  11
ENDBRANCH   9  10
ENDBRANCH   6   9
TORSDOF 7
ENDMDL
MODEL      122
REMARK 921   NORMALIZED FREE ENERGY PREDICTED BY IDOCK:   -5.19 KCAL/MOL
REMARK 922        TOTAL FREE ENERGY PREDICTED BY IDOCK:   -8.43 KCAL/MOL
REMARK 923 INTER-LIGAND FREE ENERGY PREDICTED BY IDOCK:   -8.44 KCAL/MOL
REMARK 924 INTRA-LIGAND FREE ENERGY PREDICTED BY IDOCK:    0.01 KCAL/MOL
REMARK 927      BINDING AFFINITY PREDICTED BY RF-SCORE:    0.00 PKD
ROOT
HETATM    1 CL   UNL     1      -7.557   9.552  63.432  1.00  0.00    -0.112 Cl 
HETATM    2  C   UNL     1      -8.749   9.995  64.589  1.00  0.00    -0.191 A  
HETATM    3  C   UNL     1      -9.771  10.870  64.228  1.00  0.00    -0.347 A  
HETATM    4  C   UNL     1     -10.694  11.287  65.196  1.00  0.00    -0.246 A  
HETATM    5 CL   UNL     1     -11.936  12.374  64.671  1.00  0.00    -0.447 Cl 
HETATM    6  C   UNL     1     -10.609  10.852  66.536  1.00  0.00    -0.295 A  
HETATM    7  C   UNL     1      -9.603   9.925  66.854  1.00  0.00    -0.225 A  
HETATM    8  C   UNL     1      -8.680   9.502  65.888  1.00  0.00    -0.168 A  
ENDROOT
BRANCH   6   9
HETATM    9  C   UNL     1     -11.498  11.469  67.609  1.00  0.00    -0.285 C  
BRANCH   9  10
HETATM   10  O   UNL     1     -11.342  10.907  68.932  1.00  0.00    -0.243 OA 
BRANCH  10  11
HETATM   11  N   UNL     1     -12.613  10.590  69.468  1.00  0.00    -0.662 NA 
HETATM   12  H   UNL     1     -13.469  10.588  68.914  1.00  0.00     0.000 HD 
BRANCH  11  13
HETATM   13  C   UNL     1     -12.583  10.300  70.742  1.00  0.00    -0.352 C  
BRANCH  13  14
HETATM   14  C   UNL     1     -11.779   9.113  71.228  1.00  0.00    -0.396 A  
HETATM   15 CL   UNL     1     -14.060   7.587  71.578  1.00  0.00    -0.542 Cl 
HETATM   16  C   UNL     1     -10.375   9.215  71.266  1.00  0.00    -0.405 A  
HETATM   17  C   UNL     1     -12.356   7.883  71.596  1.00  0.00    -0.315 A  
HETATM   18  C   UNL     1      -9.569   8.120  71.604  1.00  0.00    -0.237 A  
HETATM   19 CL   UNL     1      -9.170   5.550  72.306  1.00  0.00    -0.150 Cl 
HETATM   20  C   UNL     1     -10.159   6.907  71.933  1.00  0.00    -0.183 A  
HETATM   21  C   UNL     1     -11.545   6.788  71.946  1.00  0.00    -0.330 A  
ENDBRANCH  13  14
BRANCH  13  22
HETATM   22  C   UNL     1     -13.280  11.138  71.811  1.00  0.00    -0.381 C  
BRANCH  22  23
HETATM   23  N   UNL     1     -13.066  12.573  71.680  1.00  0.00    -0.376 NA 
HETATM   24  C   UNL     1     -13.695  13.541  72.415  1.00  0.00    -0.602 A  
HETATM   25  N   UNL     1     -12.312  14.509  70.923  1.00  0.00    -0.320 NA 
HETATM   26  C   UNL     1     -12.221  13.200  70.812  1.00  0.00    -0.290 A  
HETATM   27  C   UNL     1     -13.223  14.732  71.917  1.00  0.00    -0.345 A  
ENDBRANCH  22  23
ENDBRANCH  13  22
ENDBRANCH  11  13
ENDBRANCH  10  11
ENDBRANCH   9  10
ENDBRANCH   6   9
TORSDOF 7
ENDMDL
MODEL      123
REMARK 921   NORMALIZED FREE ENERGY PREDICTED BY IDOCK:   -5.19 KCAL/MOL
REMARK 922        TOTAL FREE ENERGY PREDICTED BY IDOCK:   -8.43 KCAL/MOL
REMARK 923 INTER-LIGAND FREE ENERGY PREDICTED BY IDOCK:   -7.10 KCAL/MOL
REMARK 924 INTRA-LIGAND FREE ENERGY PREDICTED BY IDOCK:   -1.33 KCAL/MOL
REMARK 927      BINDING AFFINITY PREDICTED BY RF-SCORE:    0.00 PKD
ROOT
HETATM    1 CL   UNL     1     -13.584  15.242  72.817  1.00  0.00    -0.587 Cl 
HETATM    2  C   UNL     1     -13.114  13.895  71.857  1.00  0.00    -0.385 A  
HETATM    3  C   UNL     1     -13.397  12.603  72.295  1.00  0.00    -0.527 A  
HETATM    4  C   UNL     1     -12.944  11.508  71.546  1.00  0.00    -0.380 A  
HETATM    5 CL   UNL     1     -13.336   9.934  72.153  1.00  0.00    -0.534 Cl 
HETATM    6  C   UNL     1     -12.193  11.680  70.364  1.00  0.00    -0.434 A  
HETATM    7  C   UNL     1     -11.975  12.994  69.919  1.00  0.00    -0.381 A  
HETATM    8  C   UNL     1     -12.430  14.092  70.662  1.00  0.00    -0.435 A  
ENDROOT
BRANCH   6   9
HETATM    9  C   UNL     1     -11.544  10.485  69.677  1.00  0.00    -0.271 C  
BRANCH   9  10
HETATM   10  O   UNL     1     -10.109  10.394  69.829  1.00  0.00    -0.227 OA 
BRANCH  10  11
HETATM   11  N   UNL     1      -9.799   9.666  71.003  1.00  0.00    -0.294 NA 
HETATM   12  H   UNL     1      -9.996  10.010  71.943  1.00  0.00     0.000 HD 
BRANCH  11  13
HETATM   13  C   UNL     1      -9.236   8.512  70.766  1.00  0.00    -0.172 C  
BRANCH  13  14
HETATM   14  C   UNL     1      -9.550   7.322  71.647  1.00  0.00    -0.162 A  
HETATM   15 CL   UNL     1     -11.919   6.828  70.305  1.00  0.00    -0.368 Cl 
HETATM   16  C   UNL     1      -8.623   6.949  72.640  1.00  0.00    -0.131 A  
HETATM   17  C   UNL     1     -10.700   6.524  71.493  1.00  0.00    -0.235 A  
HETATM   18  C   UNL     1      -8.802   5.797  73.416  1.00  0.00    -0.123 A  
HETATM   19 CL   UNL     1     -10.127   3.569  74.147  1.00  0.00    -0.182 Cl 
HETATM   20  C   UNL     1      -9.928   5.007  73.226  1.00  0.00    -0.159 A  
HETATM   21  C   UNL     1     -10.883   5.373  72.282  1.00  0.00    -0.286 A  
ENDBRANCH  13  14
BRANCH  13  22
HETATM   22  C   UNL     1      -8.297   8.261  69.589  1.00  0.00    -0.123 C  
BRANCH  22  23
HETATM   23  N   UNL     1      -8.866   7.433  68.535  1.00  0.00    -0.127 NA 
HETATM   24  C   UNL     1      -8.588   6.110  68.326  1.00  0.00    -0.116 A  
HETATM   25  N   UNL     1     -10.026   6.834  66.750  1.00  0.00    -0.185 NA 
HETATM   26  C   UNL     1      -9.758   7.821  67.578  1.00  0.00    -0.158 A  
HETATM   27  C   UNL     1      -9.306   5.765  67.205  1.00  0.00    -0.115 A  
ENDBRANCH  22  23
ENDBRANCH  13  22
ENDBRANCH  11  13
ENDBRANCH  10  11
ENDBRANCH   9  10
ENDBRANCH   6   9
TORSDOF 7
ENDMDL
MODEL      124
REMARK 921   NORMALIZED FREE ENERGY PREDICTED BY IDOCK:   -5.19 KCAL/MOL
REMARK 922        TOTAL FREE ENERGY PREDICTED BY IDOCK:   -8.43 KCAL/MOL
REMARK 923 INTER-LIGAND FREE ENERGY PREDICTED BY IDOCK:   -7.59 KCAL/MOL
REMARK 924 INTRA-LIGAND FREE ENERGY PREDICTED BY IDOCK:   -0.84 KCAL/MOL
REMARK 927      BINDING AFFINITY PREDICTED BY RF-SCORE:    0.00 PKD
ROOT
HETATM    1 CL   UNL     1      -5.766  10.884  66.467  1.00  0.00    -0.086 Cl 
HETATM    2  C   UNL     1      -7.434  11.062  66.844  1.00  0.00    -0.133 A  
HETATM    3  C   UNL     1      -8.289   9.968  66.723  1.00  0.00    -0.125 A  
HETATM    4  C   UNL     1      -9.660  10.138  66.958  1.00  0.00    -0.171 A  
HETATM    5 CL   UNL     1     -10.659   8.733  66.788  1.00  0.00    -0.287 Cl 
HETATM    6  C   UNL     1     -10.203  11.394  67.303  1.00  0.00    -0.229 A  
HETATM    7  C   UNL     1      -9.307  12.462  67.474  1.00  0.00    -0.181 A  
HETATM    8  C   UNL     1      -7.934  12.296  67.244  1.00  0.00    -0.177 A  
ENDROOT
BRANCH   6   9
HETATM    9  C   UNL     1     -11.711  11.599  67.359  1.00  0.00    -0.201 C  
BRANCH   9  10
HETATM   10  O   UNL     1     -12.356  11.088  68.548  1.00  0.00    -0.536 OA 
BRANCH  10  11
HETATM   11  N   UNL     1     -11.967  11.860  69.670  1.00  0.00    -0.309 NA 
HETATM   12  H   UNL     1     -11.447  12.734  69.594  1.00  0.00     0.000 HD 
BRANCH  11  13
HETATM   13  C   UNL     1     -12.337  11.342  70.811  1.00  0.00    -0.386 C  
BRANCH  13  14
HETATM   14  C   UNL     1     -12.101   9.873  71.087  1.00  0.00    -0.466 A  
HETATM   15 CL   UNL     1      -9.428  10.072  70.402  1.00  0.00    -0.075 Cl 
HETATM   16  C   UNL     1     -13.172   9.092  71.563  1.00  0.00    -0.388 A  
HETATM   17  C   UNL     1     -10.847   9.248  70.947  1.00  0.00    -0.296 A  
HETATM   18  C   UNL     1     -12.995   7.754  71.939  1.00  0.00    -0.309 A  
HETATM   19 CL   UNL     1     -11.513   5.538  72.324  1.00  0.00    -0.268 Cl 
HETATM   20  C   UNL     1     -11.742   7.167  71.823  1.00  0.00    -0.290 A  
HETATM   21  C   UNL     1     -10.673   7.901  71.315  1.00  0.00    -0.257 A  
ENDBRANCH  13  14
BRANCH  13  22
HETATM   22  C   UNL     1     -12.961  12.158  71.941  1.00  0.00    -0.314 C  
BRANCH  22  23
HETATM   23  N   UNL     1     -13.084  13.581  71.653  1.00  0.00    -0.372 NA 
HETATM   24  C   UNL     1     -12.044  14.435  71.405  1.00  0.00    -0.326 A  
HETATM   25  N   UNL     1     -13.985  15.578  71.356  1.00  0.00    -0.559 NA 
HETATM   26  C   UNL     1     -14.237  14.307  71.586  1.00  0.00    -0.388 A  
HETATM   27  C   UNL     1     -12.626  15.670  71.240  1.00  0.00    -0.463 A  
ENDBRANCH  22  23
ENDBRANCH  13  22
ENDBRANCH  11  13
ENDBRANCH  10  11
ENDBRANCH   9  10
ENDBRANCH   6   9
TORSDOF 7
ENDMDL
MODEL      125
REMARK 921   NORMALIZED FREE ENERGY PREDICTED BY IDOCK:   -5.19 KCAL/MOL
REMARK 922        TOTAL FREE ENERGY PREDICTED BY IDOCK:   -8.43 KCAL/MOL
REMARK 923 INTER-LIGAND FREE ENERGY PREDICTED BY IDOCK:   -7.08 KCAL/MOL
REMARK 924 INTRA-LIGAND FREE ENERGY PREDICTED BY IDOCK:   -1.34 KCAL/MOL
REMARK 927      BINDING AFFINITY PREDICTED BY RF-SCORE:    0.00 PKD
ROOT
HETATM    1 CL   UNL     1     -12.276  12.992  63.325  1.00  0.00    -0.589 Cl 
HETATM    2  C   UNL     1     -11.844  12.691  64.961  1.00  0.00    -0.395 A  
HETATM    3  C   UNL     1     -11.032  11.602  65.271  1.00  0.00    -0.327 A  
HETATM    4  C   UNL     1     -10.746  11.317  66.614  1.00  0.00    -0.272 A  
HETATM    5 CL   UNL     1      -9.731   9.948  66.920  1.00  0.00    -0.224 Cl 
HETATM    6  C   UNL     1     -11.270  12.099  67.665  1.00  0.00    -0.345 A  
HETATM    7  C   UNL     1     -12.035  13.224  67.316  1.00  0.00    -0.393 A  
HETATM    8  C   UNL     1     -12.321  13.515  65.974  1.00  0.00    -0.486 A  
ENDROOT
BRANCH   6   9
HETATM    9  C   UNL     1     -11.110  11.659  69.114  1.00  0.00    -0.245 C  
BRANCH   9  10
HETATM   10  O   UNL     1     -11.867  10.484  69.485  1.00  0.00    -0.262 OA 
BRANCH  10  11
HETATM   11  N   UNL     1     -11.335   9.930  70.675  1.00  0.00    -0.312 NA 
HETATM   12  H   UNL     1     -11.009  10.496  71.458  1.00  0.00     0.000 HD 
BRANCH  11  13
HETATM   13  C   UNL     1     -11.303   8.624  70.671  1.00  0.00    -0.247 C  
BRANCH  13  14
HETATM   14  C   UNL     1     -10.328   7.895  69.772  1.00  0.00    -0.219 A  
HETATM   15 CL   UNL     1      -8.152   8.850  71.189  1.00  0.00    -0.193 Cl 
HETATM   16  C   UNL     1     -10.836   7.088  68.735  1.00  0.00    -0.198 A  
HETATM   17  C   UNL     1      -8.931   7.932  69.948  1.00  0.00    -0.146 A  
HETATM   18  C   UNL     1      -9.993   6.304  67.936  1.00  0.00    -0.147 A  
HETATM   19 CL   UNL     1      -7.590   5.337  67.198  1.00  0.00    -0.091 Cl 
HETATM   20  C   UNL     1      -8.621   6.332  68.148  1.00  0.00    -0.116 A  
HETATM   21  C   UNL     1      -8.086   7.152  69.137  1.00  0.00    -0.121 A  
ENDBRANCH  13  14
BRANCH  13  22
HETATM   22  C   UNL     1     -12.170   7.760  71.582  1.00  0.00    -0.313 C  
BRANCH  22  23
HETATM   23  N   UNL     1     -11.420   6.977  72.555  1.00  0.00    -0.259 NA 
HETATM   24  C   UNL     1     -11.362   5.610  72.600  1.00  0.00    -0.305 A  
HETATM   25  N   UNL     1     -10.161   6.471  74.301  1.00  0.00    -0.338 NA 
HETATM   26  C   UNL     1     -10.660   7.454  73.581  1.00  0.00    -0.265 A  
HETATM   27  C   UNL     1     -10.589   5.320  73.700  1.00  0.00    -0.279 A  
ENDBRANCH  22  23
ENDBRANCH  13  22
ENDBRANCH  11  13
ENDBRANCH  10  11
ENDBRANCH   9  10
ENDBRANCH   6   9
TORSDOF 7
ENDMDL
MODEL      126
REMARK 921   NORMALIZED FREE ENERGY PREDICTED BY IDOCK:   -5.17 KCAL/MOL
REMARK 922        TOTAL FREE ENERGY PREDICTED BY IDOCK:   -8.40 KCAL/MOL
REMARK 923 INTER-LIGAND FREE ENERGY PREDICTED BY IDOCK:   -7.50 KCAL/MOL
REMARK 924 INTRA-LIGAND FREE ENERGY PREDICTED BY IDOCK:   -0.90 KCAL/MOL
REMARK 927      BINDING AFFINITY PREDICTED BY RF-SCORE:    0.00 PKD
ROOT
HETATM    1 CL   UNL     1     -11.206  11.081  69.524  1.00  0.00    -0.312 Cl 
HETATM    2  C   UNL     1     -11.417  12.201  68.237  1.00  0.00    -0.305 A  
HETATM    3  C   UNL     1     -11.102  11.822  66.934  1.00  0.00    -0.361 A  
HETATM    4  C   UNL     1     -11.203  12.764  65.901  1.00  0.00    -0.300 A  
HETATM    5 CL   UNL     1     -10.794  12.219  64.308  1.00  0.00    -0.356 Cl 
HETATM    6  C   UNL     1     -11.605  14.094  66.147  1.00  0.00    -0.377 A  
HETATM    7  C   UNL     1     -11.972  14.427  67.461  1.00  0.00    -0.389 A  
HETATM    8  C   UNL     1     -11.877  13.487  68.497  1.00  0.00    -0.398 A  
ENDROOT
BRANCH   6   9
HETATM    9  C   UNL     1     -11.518  15.146  65.049  1.00  0.00    -0.339 C  
BRANCH   9  10
HETATM   10  O   UNL     1     -10.407  16.065  65.167  1.00  0.00    -0.523 OA 
BRANCH  10  11
HETATM   11  N   UNL     1     -10.625  16.939  66.259  1.00  0.00    -0.246 NA 
HETATM   12  H   UNL     1     -11.530  17.360  66.467  1.00  0.00     0.000 HD 
BRANCH  11  13
HETATM   13  C   UNL     1      -9.553  17.154  66.974  1.00  0.00    -0.260 C  
BRANCH  13  14
HETATM   14  C   UNL     1      -8.529  18.170  66.516  1.00  0.00    -0.283 A  
HETATM   15 CL   UNL     1     -10.133  20.285  67.298  1.00  0.00    -0.563 Cl 
HETATM   16  C   UNL     1      -7.308  17.711  65.986  1.00  0.00    -0.301 A  
HETATM   17  C   UNL     1      -8.706  19.562  66.642  1.00  0.00    -0.342 A  
HETATM   18  C   UNL     1      -6.278  18.596  65.643  1.00  0.00    -0.288 A  
HETATM   19 CL   UNL     1      -5.183  21.048  65.426  1.00  0.00    -0.235 Cl 
HETATM   20  C   UNL     1      -6.462  19.963  65.805  1.00  0.00    -0.230 A  
HETATM   21  C   UNL     1      -7.674  20.450  66.287  1.00  0.00    -0.173 A  
ENDBRANCH  13  14
BRANCH  13  22
HETATM   22  C   UNL     1      -9.284  16.468  68.311  1.00  0.00    -0.214 C  
BRANCH  22  23
HETATM   23  N   UNL     1      -8.185  15.512  68.282  1.00  0.00    -0.139 NA 
HETATM   24  C   UNL     1      -8.133  14.384  67.509  1.00  0.00    -0.190 A  
HETATM   25  N   UNL     1      -6.277  14.511  68.780  1.00  0.00    -0.085 NA 
HETATM   26  C   UNL     1      -7.033  15.563  69.012  1.00  0.00    -0.141 A  
HETATM   27  C   UNL     1      -6.949  13.772  67.847  1.00  0.00    -0.155 A  
ENDBRANCH  22  23
ENDBRANCH  13  22
ENDBRANCH  11  13
ENDBRANCH  10  11
ENDBRANCH   9  10
ENDBRANCH   6   9
TORSDOF 7
ENDMDL
MODEL      127
REMARK 921   NORMALIZED FREE ENERGY PREDICTED BY IDOCK:   -5.16 KCAL/MOL
REMARK 922        TOTAL FREE ENERGY PREDICTED BY IDOCK:   -8.39 KCAL/MOL
REMARK 923 INTER-LIGAND FREE ENERGY PREDICTED BY IDOCK:   -8.37 KCAL/MOL
REMARK 924 INTRA-LIGAND FREE ENERGY PREDICTED BY IDOCK:   -0.02 KCAL/MOL
REMARK 927      BINDING AFFINITY PREDICTED BY RF-SCORE:    0.00 PKD
ROOT
HETATM    1 CL   UNL     1     -10.114   3.764  72.576  1.00  0.00    -0.227 Cl 
HETATM    2  C   UNL     1     -10.265   5.293  71.805  1.00  0.00    -0.210 A  
HETATM    3  C   UNL     1     -11.460   6.002  71.907  1.00  0.00    -0.328 A  
HETATM    4  C   UNL     1     -11.603   7.212  71.214  1.00  0.00    -0.294 A  
HETATM    5 CL   UNL     1     -13.117   8.036  71.389  1.00  0.00    -0.299 Cl 
HETATM    6  C   UNL     1     -10.571   7.726  70.401  1.00  0.00    -0.227 A  
HETATM    7  C   UNL     1      -9.359   7.018  70.367  1.00  0.00    -0.159 A  
HETATM    8  C   UNL     1      -9.209   5.810  71.063  1.00  0.00    -0.166 A  
ENDROOT
BRANCH   6   9
HETATM    9  C   UNL     1     -10.818   8.933  69.505  1.00  0.00    -0.153 C  
BRANCH   9  10
HETATM   10  O   UNL     1     -10.990  10.189  70.200  1.00  0.00    -0.273 OA 
BRANCH  10  11
HETATM   11  N   UNL     1     -11.936  10.988  69.513  1.00  0.00    -0.324 NA 
HETATM   12  H   UNL     1     -12.810  10.621  69.137  1.00  0.00     0.000 HD 
BRANCH  11  13
HETATM   13  C   UNL     1     -11.581  12.241  69.410  1.00  0.00    -0.314 C  
BRANCH  13  14
HETATM   14  C   UNL     1     -11.967  13.228  70.490  1.00  0.00    -0.319 A  
HETATM   15 CL   UNL     1     -10.153  15.101  69.564  1.00  0.00    -0.235 Cl 
HETATM   16  C   UNL     1     -12.989  12.879  71.394  1.00  0.00    -0.362 A  
HETATM   17  C   UNL     1     -11.396  14.510  70.610  1.00  0.00    -0.091 A  
HETATM   18  C   UNL     1     -13.466  13.787  72.348  1.00  0.00    -0.672 A  
HETATM   19 CL   UNL     1     -13.526  16.187  73.569  1.00  0.00    -0.501 Cl 
HETATM   20  C   UNL     1     -12.911  15.057  72.428  1.00  0.00    -0.349 A  
HETATM   21  C   UNL     1     -11.870  15.417  71.576  1.00  0.00    -0.450 A  
ENDBRANCH  13  14
BRANCH  13  22
HETATM   22  C   UNL     1     -10.727  12.780  68.264  1.00  0.00    -0.239 C  
BRANCH  22  23
HETATM   23  N   UNL     1     -11.466  13.027  67.033  1.00  0.00    -0.315 NA 
HETATM   24  C   UNL     1     -12.110  14.191  66.712  1.00  0.00    -0.442 A  
HETATM   25  N   UNL     1     -12.413  12.685  65.065  1.00  0.00    -0.563 NA 
HETATM   26  C   UNL     1     -11.652  12.157  66.000  1.00  0.00    -0.358 A  
HETATM   27  C   UNL     1     -12.702  13.950  65.496  1.00  0.00    -0.499 A  
ENDBRANCH  22  23
ENDBRANCH  13  22
ENDBRANCH  11  13
ENDBRANCH  10  11
ENDBRANCH   9  10
ENDBRANCH   6   9
TORSDOF 7
ENDMDL
MODEL      128
REMARK 921   NORMALIZED FREE ENERGY PREDICTED BY IDOCK:   -5.16 KCAL/MOL
REMARK 922        TOTAL FREE ENERGY PREDICTED BY IDOCK:   -8.38 KCAL/MOL
REMARK 923 INTER-LIGAND FREE ENERGY PREDICTED BY IDOCK:   -7.32 KCAL/MOL
REMARK 924 INTRA-LIGAND FREE ENERGY PREDICTED BY IDOCK:   -1.07 KCAL/MOL
REMARK 927      BINDING AFFINITY PREDICTED BY RF-SCORE:    0.00 PKD
ROOT
HETATM    1 CL   UNL     1      -8.776   5.640  73.590  1.00  0.00    -0.123 Cl 
HETATM    2  C   UNL     1      -9.457   7.015  72.815  1.00  0.00    -0.146 A  
HETATM    3  C   UNL     1     -10.792   7.344  73.041  1.00  0.00    -0.423 A  
HETATM    4  C   UNL     1     -11.361   8.421  72.347  1.00  0.00    -0.378 A  
HETATM    5 CL   UNL     1     -13.025   8.769  72.680  1.00  0.00    -0.392 Cl 
HETATM    6  C   UNL     1     -10.620   9.176  71.413  1.00  0.00    -0.412 A  
HETATM    7  C   UNL     1      -9.262   8.856  71.253  1.00  0.00    -0.328 A  
HETATM    8  C   UNL     1      -8.687   7.782  71.948  1.00  0.00    -0.150 A  
ENDROOT
BRANCH   6   9
HETATM    9  C   UNL     1     -11.308  10.209  70.530  1.00  0.00    -0.338 C  
BRANCH   9  10
HETATM   10  O   UNL     1     -11.604   9.767  69.186  1.00  0.00     0.010 OA 
BRANCH  10  11
HETATM   11  N   UNL     1     -12.091  10.856  68.423  1.00  0.00    -0.818 NA 
HETATM   12  H   UNL     1     -12.910  11.403  68.687  1.00  0.00     0.000 HD 
BRANCH  11  13
HETATM   13  C   UNL     1     -11.389  11.092  67.346  1.00  0.00    -0.230 C  
BRANCH  13  14
HETATM   14  C   UNL     1     -11.474  12.442  66.669  1.00  0.00    -0.429 A  
HETATM   15 CL   UNL     1     -10.064  13.665  68.712  1.00  0.00    -0.179 Cl 
HETATM   16  C   UNL     1     -12.108  12.533  65.414  1.00  0.00    -0.494 A  
HETATM   17  C   UNL     1     -10.901  13.614  67.199  1.00  0.00    -0.285 A  
HETATM   18  C   UNL     1     -12.127  13.730  64.687  1.00  0.00    -0.452 A  
HETATM   19 CL   UNL     1     -11.511  16.325  64.304  1.00  0.00    -0.267 Cl 
HETATM   20  C   UNL     1     -11.527  14.866  65.215  1.00  0.00    -0.336 A  
HETATM   21  C   UNL     1     -10.930  14.818  66.472  1.00  0.00    -0.325 A  
ENDBRANCH  13  14
BRANCH  13  22
HETATM   22  C   UNL     1     -10.417  10.083  66.740  1.00  0.00    -0.198 C  
BRANCH  22  23
HETATM   23  N   UNL     1      -9.015  10.458  66.857  1.00  0.00    -0.139 NA 
HETATM   24  C   UNL     1      -8.366  10.755  68.025  1.00  0.00    -0.120 A  
HETATM   25  N   UNL     1      -6.944  10.992  66.294  1.00  0.00    -0.123 NA 
HETATM   26  C   UNL     1      -8.112  10.587  65.842  1.00  0.00    -0.154 A  
HETATM   27  C   UNL     1      -7.089  11.097  67.649  1.00  0.00    -0.089 A  
ENDBRANCH  22  23
ENDBRANCH  13  22
ENDBRANCH  11  13
ENDBRANCH  10  11
ENDBRANCH   9  10
ENDBRANCH   6   9
TORSDOF 7
ENDMDL
MODEL      129
REMARK 921   NORMALIZED FREE ENERGY PREDICTED BY IDOCK:   -5.14 KCAL/MOL
REMARK 922        TOTAL FREE ENERGY PREDICTED BY IDOCK:   -8.37 KCAL/MOL
REMARK 923 INTER-LIGAND FREE ENERGY PREDICTED BY IDOCK:   -7.18 KCAL/MOL
REMARK 924 INTRA-LIGAND FREE ENERGY PREDICTED BY IDOCK:   -1.19 KCAL/MOL
REMARK 927      BINDING AFFINITY PREDICTED BY RF-SCORE:    0.00 PKD
ROOT
HETATM    1 CL   UNL     1      -8.989   4.530  72.226  1.00  0.00    -0.136 Cl 
HETATM    2  C   UNL     1      -9.762   6.060  72.098  1.00  0.00    -0.154 A  
HETATM    3  C   UNL     1     -11.128   6.123  71.834  1.00  0.00    -0.324 A  
HETATM    4  C   UNL     1     -11.738   7.373  71.655  1.00  0.00    -0.279 A  
HETATM    5 CL   UNL     1     -13.439   7.370  71.331  1.00  0.00    -0.431 Cl 
HETATM    6  C   UNL     1     -10.999   8.573  71.721  1.00  0.00    -0.376 A  
HETATM    7  C   UNL     1      -9.636   8.478  72.047  1.00  0.00    -0.371 A  
HETATM    8  C   UNL     1      -9.023   7.231  72.232  1.00  0.00    -0.150 A  
ENDROOT
BRANCH   6   9
HETATM    9  C   UNL     1     -11.638   9.899  71.330  1.00  0.00    -0.379 C  
BRANCH   9  10
HETATM   10  O   UNL     1     -11.544  10.235  69.926  1.00  0.00    -0.254 OA 
BRANCH  10  11
HETATM   11  N   UNL     1     -10.394  11.029  69.702  1.00  0.00    -0.446 NA 
HETATM   12  H   UNL     1      -9.928  11.560  70.438  1.00  0.00     0.000 HD 
BRANCH  11  13
HETATM   13  C   UNL     1      -9.987  11.017  68.461  1.00  0.00    -0.193 C  
BRANCH  13  14
HETATM   14  C   UNL     1     -10.391  12.132  67.521  1.00  0.00    -0.219 A  
HETATM   15 CL   UNL     1      -7.880  13.287  67.654  1.00  0.00    -0.154 Cl 
HETATM   16  C   UNL     1     -11.692  12.126  66.981  1.00  0.00    -0.373 A  
HETATM   17  C   UNL     1      -9.515  13.155  67.107  1.00  0.00    -0.239 A  
HETATM   18  C   UNL     1     -12.094  13.068  66.025  1.00  0.00    -0.493 A  
HETATM   19 CL   UNL     1     -11.681  15.178  64.402  1.00  0.00    -0.356 Cl 
HETATM   20  C   UNL     1     -11.203  14.049  65.608  1.00  0.00    -0.310 A  
HETATM   21  C   UNL     1      -9.925  14.106  66.155  1.00  0.00    -0.328 A  
ENDBRANCH  13  14
BRANCH  13  22
HETATM   22  C   UNL     1      -9.056   9.948  67.892  1.00  0.00    -0.131 C  
BRANCH  22  23
HETATM   23  N   UNL     1      -9.663   8.629  67.772  1.00  0.00    -0.159 NA 
HETATM   24  C   UNL     1     -10.535   8.241  66.792  1.00  0.00    -0.243 A  
HETATM   25  N   UNL     1     -10.219   6.540  68.234  1.00  0.00    -0.158 NA 
HETATM   26  C   UNL     1      -9.480   7.564  68.604  1.00  0.00    -0.146 A  
HETATM   27  C   UNL     1     -10.878   6.948  67.108  1.00  0.00    -0.377 A  
ENDBRANCH  22  23
ENDBRANCH  13  22
ENDBRANCH  11  13
ENDBRANCH  10  11
ENDBRANCH   9  10
ENDBRANCH   6   9
TORSDOF 7
ENDMDL
MODEL      130
REMARK 921   NORMALIZED FREE ENERGY PREDICTED BY IDOCK:   -5.14 KCAL/MOL
REMARK 922        TOTAL FREE ENERGY PREDICTED BY IDOCK:   -8.36 KCAL/MOL
REMARK 923 INTER-LIGAND FREE ENERGY PREDICTED BY IDOCK:   -7.05 KCAL/MOL
REMARK 924 INTRA-LIGAND FREE ENERGY PREDICTED BY IDOCK:   -1.31 KCAL/MOL
REMARK 927      BINDING AFFINITY PREDICTED BY RF-SCORE:    0.00 PKD
ROOT
HETATM    1 CL   UNL     1      -7.447  17.233  67.506  1.00  0.00    -0.180 Cl 
HETATM    2  C   UNL     1      -8.901  16.374  67.186  1.00  0.00    -0.195 A  
HETATM    3  C   UNL     1      -9.916  16.354  68.140  1.00  0.00    -0.242 A  
HETATM    4  C   UNL     1     -11.066  15.589  67.906  1.00  0.00    -0.321 A  
HETATM    5 CL   UNL     1     -12.284  15.614  69.138  1.00  0.00    -0.250 Cl 
HETATM    6  C   UNL     1     -11.220  14.824  66.730  1.00  0.00    -0.344 A  
HETATM    7  C   UNL     1     -10.206  14.912  65.762  1.00  0.00    -0.358 A  
HETATM    8  C   UNL     1      -9.055  15.680  65.991  1.00  0.00    -0.346 A  
ENDROOT
BRANCH   6   9
HETATM    9  C   UNL     1     -12.382  13.850  66.584  1.00  0.00    -0.369 C  
BRANCH   9  10
HETATM   10  O   UNL     1     -12.034  12.557  66.039  1.00  0.00    -0.481 OA 
BRANCH  10  11
HETATM   11  N   UNL     1     -11.894  11.618  67.089  1.00  0.00    -0.607 NA 
HETATM   12  H   UNL     1     -12.587  11.498  67.828  1.00  0.00     0.000 HD 
BRANCH  11  13
HETATM   13  C   UNL     1     -10.792  10.921  67.019  1.00  0.00    -0.266 C  
BRANCH  13  14
HETATM   14  C   UNL     1     -10.675   9.614  67.772  1.00  0.00    -0.316 A  
HETATM   15 CL   UNL     1     -11.105  10.861  70.204  1.00  0.00    -0.297 Cl 
HETATM   16  C   UNL     1     -10.467   8.427  67.042  1.00  0.00    -0.375 A  
HETATM   17  C   UNL     1     -10.818   9.506  69.169  1.00  0.00    -0.173 A  
HETATM   18  C   UNL     1     -10.455   7.173  67.668  1.00  0.00    -0.306 A  
HETATM   19 CL   UNL     1     -10.661   5.547  69.805  1.00  0.00    -0.395 Cl 
HETATM   20  C   UNL     1     -10.631   7.088  69.043  1.00  0.00    -0.217 A  
HETATM   21  C   UNL     1     -10.796   8.247  69.796  1.00  0.00    -0.186 A  
ENDBRANCH  13  14
BRANCH  13  22
HETATM   22  C   UNL     1      -9.597  11.322  66.157  1.00  0.00    -0.214 C  
BRANCH  22  23
HETATM   23  N   UNL     1      -8.458  11.827  66.911  1.00  0.00    -0.170 NA 
HETATM   24  C   UNL     1      -8.529  12.610  68.032  1.00  0.00    -0.177 A  
HETATM   25  N   UNL     1      -6.369  12.262  67.494  1.00  0.00    -0.123 NA 
HETATM   26  C   UNL     1      -7.137  11.619  66.639  1.00  0.00    -0.025 A  
HETATM   27  C   UNL     1      -7.223  12.880  68.365  1.00  0.00    -0.113 A  
ENDBRANCH  22  23
ENDBRANCH  13  22
ENDBRANCH  11  13
ENDBRANCH  10  11
ENDBRANCH   9  10
ENDBRANCH   6   9
TORSDOF 7
ENDMDL
MODEL      131
REMARK 921   NORMALIZED FREE ENERGY PREDICTED BY IDOCK:   -5.14 KCAL/MOL
REMARK 922        TOTAL FREE ENERGY PREDICTED BY IDOCK:   -8.36 KCAL/MOL
REMARK 923 INTER-LIGAND FREE ENERGY PREDICTED BY IDOCK:   -6.10 KCAL/MOL
REMARK 924 INTRA-LIGAND FREE ENERGY PREDICTED BY IDOCK:   -2.25 KCAL/MOL
REMARK 927      BINDING AFFINITY PREDICTED BY RF-SCORE:    0.00 PKD
ROOT
HETATM    1 CL   UNL     1      -9.932   3.799  71.874  1.00  0.00    -0.246 Cl 
HETATM    2  C   UNL     1     -10.179   5.445  71.441  1.00  0.00    -0.216 A  
HETATM    3  C   UNL     1      -9.154   6.369  71.630  1.00  0.00    -0.144 A  
HETATM    4  C   UNL     1      -9.387   7.722  71.347  1.00  0.00    -0.141 A  
HETATM    5 CL   UNL     1      -8.066   8.811  71.607  1.00  0.00    -0.179 Cl 
HETATM    6  C   UNL     1     -10.641   8.177  70.887  1.00  0.00    -0.236 A  
HETATM    7  C   UNL     1     -11.634   7.212  70.651  1.00  0.00    -0.354 A  
HETATM    8  C   UNL     1     -11.404   5.857  70.928  1.00  0.00    -0.218 A  
ENDROOT
BRANCH   6   9
HETATM    9  C   UNL     1     -10.932   9.668  70.775  1.00  0.00    -0.327 C  
BRANCH   9  10
HETATM   10  O   UNL     1     -10.377  10.316  69.608  1.00  0.00    -0.229 OA 
BRANCH  10  11
HETATM   11  N   UNL     1     -11.163  10.007  68.472  1.00  0.00    -0.474 NA 
HETATM   12  H   UNL     1     -12.180  10.091  68.455  1.00  0.00     0.000 HD 
BRANCH  11  13
HETATM   13  C   UNL     1     -10.461   9.605  67.447  1.00  0.00    -0.257 C  
BRANCH  13  14
HETATM   14  C   UNL     1      -9.853   8.218  67.444  1.00  0.00    -0.246 A  
HETATM   15 CL   UNL     1      -7.381   9.192  68.216  1.00  0.00    -0.078 Cl 
HETATM   16  C   UNL     1     -10.677   7.118  67.137  1.00  0.00    -0.422 A  
HETATM   17  C   UNL     1      -8.513   7.957  67.787  1.00  0.00    -0.125 A  
HETATM   18  C   UNL     1     -10.204   5.802  67.220  1.00  0.00    -0.248 A  
HETATM   19 CL   UNL     1      -8.318   3.949  67.737  1.00  0.00    -0.094 Cl 
HETATM   20  C   UNL     1      -8.887   5.566  67.592  1.00  0.00    -0.105 A  
HETATM   21  C   UNL     1      -8.037   6.635  67.860  1.00  0.00    -0.113 A  
ENDBRANCH  13  14
BRANCH  13  22
HETATM   22  C   UNL     1     -10.252  10.445  66.189  1.00  0.00    -0.223 C  
BRANCH  22  23
HETATM   23  N   UNL     1     -10.467  11.872  66.381  1.00  0.00    -0.217 NA 
HETATM   24  C   UNL     1      -9.553  12.752  66.895  1.00  0.00    -0.235 A  
HETATM   25  N   UNL     1     -11.472  13.841  66.440  1.00  0.00    -0.325 NA 
HETATM   26  C   UNL     1     -11.599  12.577  66.095  1.00  0.00    -0.395 A  
HETATM   27  C   UNL     1     -10.204  13.962  66.936  1.00  0.00    -0.257 A  
ENDBRANCH  22  23
ENDBRANCH  13  22
ENDBRANCH  11  13
ENDBRANCH  10  11
ENDBRANCH   9  10
ENDBRANCH   6   9
TORSDOF 7
ENDMDL
MODEL      132
REMARK 921   NORMALIZED FREE ENERGY PREDICTED BY IDOCK:   -5.13 KCAL/MOL
REMARK 922        TOTAL FREE ENERGY PREDICTED BY IDOCK:   -8.35 KCAL/MOL
REMARK 923 INTER-LIGAND FREE ENERGY PREDICTED BY IDOCK:   -7.57 KCAL/MOL
REMARK 924 INTRA-LIGAND FREE ENERGY PREDICTED BY IDOCK:   -0.77 KCAL/MOL
REMARK 927      BINDING AFFINITY PREDICTED BY RF-SCORE:    0.00 PKD
ROOT
HETATM    1 CL   UNL     1     -11.759   5.278  72.806  1.00  0.00    -0.293 Cl 
HETATM    2  C   UNL     1     -11.340   6.704  71.941  1.00  0.00    -0.279 A  
HETATM    3  C   UNL     1     -11.116   6.637  70.567  1.00  0.00    -0.359 A  
HETATM    4  C   UNL     1     -10.700   7.786  69.881  1.00  0.00    -0.245 A  
HETATM    5 CL   UNL     1     -10.443   7.625  68.176  1.00  0.00    -0.245 Cl 
HETATM    6  C   UNL     1     -10.488   9.011  70.549  1.00  0.00    -0.271 A  
HETATM    7  C   UNL     1     -10.779   9.059  71.922  1.00  0.00    -0.401 A  
HETATM    8  C   UNL     1     -11.200   7.913  72.611  1.00  0.00    -0.459 A  
ENDROOT
BRANCH   6   9
HETATM    9  C   UNL     1      -9.849  10.188  69.824  1.00  0.00    -0.208 C  
BRANCH   9  10
HETATM   10  O   UNL     1     -10.734  10.924  68.949  1.00  0.00    -0.189 OA 
BRANCH  10  11
HETATM   11  N   UNL     1     -11.339  11.985  69.666  1.00  0.00    -0.461 NA 
HETATM   12  H   UNL     1     -11.850  11.851  70.538  1.00  0.00     0.000 HD 
BRANCH  11  13
HETATM   13  C   UNL     1     -11.179  13.152  69.100  1.00  0.00    -0.247 C  
BRANCH  13  14
HETATM   14  C   UNL     1     -11.346  13.296  67.603  1.00  0.00    -0.328 A  
HETATM   15 CL   UNL     1      -8.640  12.919  67.166  1.00  0.00    -0.202 Cl 
HETATM   16  C   UNL     1     -12.639  13.493  67.080  1.00  0.00     0.191 A  
HETATM   17  C   UNL     1     -10.280  13.188  66.689  1.00  0.00    -0.259 A  
HETATM   18  C   UNL     1     -12.875  13.528  65.700  1.00  0.00    -0.380 A  
HETATM   19 CL   UNL     1     -12.107  13.386  63.122  1.00  0.00    -0.390 Cl 
HETATM   20  C   UNL     1     -11.813  13.387  64.816  1.00  0.00    -0.380 A  
HETATM   21  C   UNL     1     -10.518  13.234  65.303  1.00  0.00    -0.324 A  
ENDBRANCH  13  14
BRANCH  13  22
HETATM   22  C   UNL     1     -10.882  14.430  69.881  1.00  0.00     0.009 C  
BRANCH  22  23
HETATM   23  N   UNL     1     -11.854  14.734  70.922  1.00  0.00    -0.308 NA 
HETATM   24  C   UNL     1     -11.582  15.376  72.100  1.00  0.00    -0.462 A  
HETATM   25  N   UNL     1     -13.761  14.808  72.039  1.00  0.00    -0.385 NA 
HETATM   26  C   UNL     1     -13.184  14.434  70.916  1.00  0.00    -0.288 A  
HETATM   27  C   UNL     1     -12.776  15.396  72.782  1.00  0.00    -0.410 A  
ENDBRANCH  22  23
ENDBRANCH  13  22
ENDBRANCH  11  13
ENDBRANCH  10  11
ENDBRANCH   9  10
ENDBRANCH   6   9
TORSDOF 7
ENDMDL
MODEL      133
REMARK 921   NORMALIZED FREE ENERGY PREDICTED BY IDOCK:   -5.13 KCAL/MOL
REMARK 922        TOTAL FREE ENERGY PREDICTED BY IDOCK:   -8.34 KCAL/MOL
REMARK 923 INTER-LIGAND FREE ENERGY PREDICTED BY IDOCK:   -7.46 KCAL/MOL
REMARK 924 INTRA-LIGAND FREE ENERGY PREDICTED BY IDOCK:   -0.88 KCAL/MOL
REMARK 927      BINDING AFFINITY PREDICTED BY RF-SCORE:    0.00 PKD
ROOT
HETATM    1 CL   UNL     1     -13.001  16.067  73.916  1.00  0.00    -0.615 Cl 
HETATM    2  C   UNL     1     -12.641  14.994  72.622  1.00  0.00    -0.370 A  
HETATM    3  C   UNL     1     -11.692  15.357  71.669  1.00  0.00    -0.483 A  
HETATM    4  C   UNL     1     -11.458  14.513  70.575  1.00  0.00    -0.185 A  
HETATM    5 CL   UNL     1     -10.264  15.032  69.432  1.00  0.00    -0.239 Cl 
HETATM    6  C   UNL     1     -12.170  13.306  70.405  1.00  0.00    -0.404 A  
HETATM    7  C   UNL     1     -13.076  12.941  71.413  1.00  0.00    -0.331 A  
HETATM    8  C   UNL     1     -13.310  13.780  72.512  1.00  0.00    -0.656 A  
ENDROOT
BRANCH   6   9
HETATM    9  C   UNL     1     -12.043  12.507  69.114  1.00  0.00    -0.138 C  
BRANCH   9  10
HETATM   10  O   UNL     1     -12.401  11.110  69.221  1.00  0.00    -0.381 OA 
BRANCH  10  11
HETATM   11  N   UNL     1     -11.810  10.384  68.159  1.00  0.00    -0.738 NA 
HETATM   12  H   UNL     1     -12.159  10.410  67.201  1.00  0.00     0.000 HD 
BRANCH  11  13
HETATM   13  C   UNL     1     -10.774   9.678  68.525  1.00  0.00    -0.200 C  
BRANCH  13  14
HETATM   14  C   UNL     1      -9.964   8.929  67.488  1.00  0.00    -0.258 A  
HETATM   15 CL   UNL     1     -11.351   6.581  67.956  1.00  0.00    -0.240 Cl 
HETATM   16  C   UNL     1      -8.986   9.631  66.756  1.00  0.00    -0.156 A  
HETATM   17  C   UNL     1     -10.171   7.573  67.171  1.00  0.00    -0.280 A  
HETATM   18  C   UNL     1      -8.277   9.025  65.711  1.00  0.00    -0.120 A  
HETATM   19 CL   UNL     1      -7.683   6.962  64.083  1.00  0.00    -0.112 Cl 
HETATM   20  C   UNL     1      -8.521   7.695  65.394  1.00  0.00    -0.098 A  
HETATM   21  C   UNL     1      -9.451   6.964  66.128  1.00  0.00    -0.054 A  
ENDBRANCH  13  14
BRANCH  13  22
HETATM   22  C   UNL     1     -10.277   9.600  69.966  1.00  0.00    -0.255 C  
BRANCH  22  23
HETATM   23  N   UNL     1     -10.753   8.436  70.701  1.00  0.00    -0.215 NA 
HETATM   24  C   UNL     1     -12.055   8.193  71.048  1.00  0.00    -0.207 A  
HETATM   25  N   UNL     1     -10.743   6.540  71.839  1.00  0.00    -0.215 NA 
HETATM   26  C   UNL     1     -10.002   7.401  71.174  1.00  0.00    -0.185 A  
HETATM   27  C   UNL     1     -12.021   7.021  71.765  1.00  0.00    -0.326 A  
ENDBRANCH  22  23
ENDBRANCH  13  22
ENDBRANCH  11  13
ENDBRANCH  10  11
ENDBRANCH   9  10
ENDBRANCH   6   9
TORSDOF 7
ENDMDL
MODEL      134
REMARK 921   NORMALIZED FREE ENERGY PREDICTED BY IDOCK:   -5.11 KCAL/MOL
REMARK 922        TOTAL FREE ENERGY PREDICTED BY IDOCK:   -8.32 KCAL/MOL
REMARK 923 INTER-LIGAND FREE ENERGY PREDICTED BY IDOCK:   -7.05 KCAL/MOL
REMARK 924 INTRA-LIGAND FREE ENERGY PREDICTED BY IDOCK:   -1.27 KCAL/MOL
REMARK 927      BINDING AFFINITY PREDICTED BY RF-SCORE:    0.00 PKD
ROOT
HETATM    1 CL   UNL     1     -11.953  13.968  64.194  1.00  0.00    -0.462 Cl 
HETATM    2  C   UNL     1     -11.722  13.134  65.679  1.00  0.00    -0.364 A  
HETATM    3  C   UNL     1     -11.201  11.842  65.671  1.00  0.00    -0.360 A  
HETATM    4  C   UNL     1     -11.087  11.139  66.878  1.00  0.00    -0.247 A  
HETATM    5 CL   UNL     1     -10.430   9.539  66.788  1.00  0.00    -0.292 Cl 
HETATM    6  C   UNL     1     -11.499  11.701  68.105  1.00  0.00    -0.382 A  
HETATM    7  C   UNL     1     -11.964  13.026  68.086  1.00  0.00    -0.322 A  
HETATM    8  C   UNL     1     -12.076  13.735  66.882  1.00  0.00    -0.454 A  
ENDROOT
BRANCH   6   9
HETATM    9  C   UNL     1     -11.550  10.853  69.369  1.00  0.00    -0.316 C  
BRANCH   9  10
HETATM   10  O   UNL     1     -10.263  10.470  69.904  1.00  0.00    -0.197 OA 
BRANCH  10  11
HETATM   11  N   UNL     1     -10.437   9.842  71.161  1.00  0.00    -0.282 NA 
HETATM   12  H   UNL     1     -11.014  10.231  71.906  1.00  0.00     0.000 HD 
BRANCH  11  13
HETATM   13  C   UNL     1      -9.786   8.714  71.272  1.00  0.00    -0.238 C  
BRANCH  13  14
HETATM   14  C   UNL     1      -9.901   7.664  70.189  1.00  0.00    -0.184 A  
HETATM   15 CL   UNL     1     -12.502   7.058  70.913  1.00  0.00    -0.380 Cl 
HETATM   16  C   UNL     1      -8.808   7.462  69.323  1.00  0.00    -0.136 A  
HETATM   17  C   UNL     1     -11.067   6.909  69.959  1.00  0.00    -0.299 A  
HETATM   18  C   UNL     1      -8.887   6.582  68.235  1.00  0.00    -0.119 A  
HETATM   19 CL   UNL     1     -10.173   4.826  66.648  1.00  0.00    -0.273 Cl 
HETATM   20  C   UNL     1     -10.059   5.872  68.008  1.00  0.00    -0.162 A  
HETATM   21  C   UNL     1     -11.141   6.019  68.872  1.00  0.00    -0.349 A  
ENDBRANCH  13  14
BRANCH  13  22
HETATM   22  C   UNL     1      -8.845   8.399  72.432  1.00  0.00    -0.224 C  
BRANCH  22  23
HETATM   23  N   UNL     1      -9.143   7.153  73.124  1.00  0.00    -0.133 NA 
HETATM   24  C   UNL     1     -10.311   6.866  73.777  1.00  0.00    -0.376 A  
HETATM   25  N   UNL     1      -8.890   5.130  73.980  1.00  0.00    -0.117 NA 
HETATM   26  C   UNL     1      -8.326   6.067  73.248  1.00  0.00    -0.115 A  
HETATM   27  C   UNL     1     -10.124   5.614  74.313  1.00  0.00    -0.264 A  
ENDBRANCH  22  23
ENDBRANCH  13  22
ENDBRANCH  11  13
ENDBRANCH  10  11
ENDBRANCH   9  10
ENDBRANCH   6   9
TORSDOF 7
ENDMDL
MODEL      135
REMARK 921   NORMALIZED FREE ENERGY PREDICTED BY IDOCK:   -5.11 KCAL/MOL
REMARK 922        TOTAL FREE ENERGY PREDICTED BY IDOCK:   -8.32 KCAL/MOL
REMARK 923 INTER-LIGAND FREE ENERGY PREDICTED BY IDOCK:   -7.29 KCAL/MOL
REMARK 924 INTRA-LIGAND FREE ENERGY PREDICTED BY IDOCK:   -1.03 KCAL/MOL
REMARK 927      BINDING AFFINITY PREDICTED BY RF-SCORE:    0.00 PKD
ROOT
HETATM    1 CL   UNL     1      -9.775   5.748  66.754  1.00  0.00    -0.159 Cl 
HETATM    2  C   UNL     1      -9.711   7.458  66.586  1.00  0.00    -0.194 A  
HETATM    3  C   UNL     1      -8.735   8.036  65.776  1.00  0.00    -0.175 A  
HETATM    4  C   UNL     1      -8.640   9.432  65.704  1.00  0.00    -0.142 A  
HETATM    5 CL   UNL     1      -7.403  10.077  64.677  1.00  0.00    -0.141 Cl 
HETATM    6  C   UNL     1      -9.501  10.273  66.442  1.00  0.00    -0.218 A  
HETATM    7  C   UNL     1     -10.511   9.660  67.201  1.00  0.00    -0.317 A  
HETATM    8  C   UNL     1     -10.613   8.263  67.273  1.00  0.00    -0.335 A  
ENDROOT
BRANCH   6   9
HETATM    9  C   UNL     1      -9.254  11.774  66.503  1.00  0.00    -0.201 C  
BRANCH   9  10
HETATM   10  O   UNL     1     -10.172  12.579  65.727  1.00  0.00    -0.260 OA 
BRANCH  10  11
HETATM   11  N   UNL     1      -9.763  13.934  65.761  1.00  0.00    -0.483 NA 
HETATM   12  H   UNL     1      -8.934  14.281  65.278  1.00  0.00     0.000 HD 
BRANCH  11  13
HETATM   13  C   UNL     1     -10.550  14.697  66.471  1.00  0.00    -0.300 C  
BRANCH  13  14
HETATM   14  C   UNL     1     -10.119  16.103  66.829  1.00  0.00    -0.275 A  
HETATM   15 CL   UNL     1      -8.704  15.212  69.034  1.00  0.00    -0.204 Cl 
HETATM   16  C   UNL     1     -10.512  17.167  65.994  1.00  0.00    -0.271 A  
HETATM   17  C   UNL     1      -9.294  16.406  67.930  1.00  0.00    -0.214 A  
HETATM   18  C   UNL     1     -10.060  18.475  66.210  1.00  0.00    -0.422 A  
HETATM   19 CL   UNL     1      -8.629  20.342  67.523  1.00  0.00    -0.398 Cl 
HETATM   20  C   UNL     1      -9.220  18.745  67.283  1.00  0.00    -0.287 A  
HETATM   21  C   UNL     1      -8.849  17.722  68.151  1.00  0.00    -0.267 A  
ENDBRANCH  13  14
BRANCH  13  22
HETATM   22  C   UNL     1     -11.943  14.272  66.929  1.00  0.00    -0.438 C  
BRANCH  22  23
HETATM   23  N   UNL     1     -12.026  13.915  68.338  1.00  0.00    -0.366 NA 
HETATM   24  C   UNL     1     -12.258  14.787  69.368  1.00  0.00    -0.216 A  
HETATM   25  N   UNL     1     -11.966  12.710  70.192  1.00  0.00    -0.341 NA 
HETATM   26  C   UNL     1     -11.883  12.670  68.879  1.00  0.00    -0.302 A  
HETATM   27  C   UNL     1     -12.200  14.020  70.507  1.00  0.00    -0.365 A  
ENDBRANCH  22  23
ENDBRANCH  13  22
ENDBRANCH  11  13
ENDBRANCH  10  11
ENDBRANCH   9  10
ENDBRANCH   6   9
TORSDOF 7
ENDMDL
MODEL      136
REMARK 921   NORMALIZED FREE ENERGY PREDICTED BY IDOCK:   -5.11 KCAL/MOL
REMARK 922        TOTAL FREE ENERGY PREDICTED BY IDOCK:   -8.32 KCAL/MOL
REMARK 923 INTER-LIGAND FREE ENERGY PREDICTED BY IDOCK:   -7.05 KCAL/MOL
REMARK 924 INTRA-LIGAND FREE ENERGY PREDICTED BY IDOCK:   -1.27 KCAL/MOL
REMARK 927      BINDING AFFINITY PREDICTED BY RF-SCORE:    0.00 PKD
ROOT
HETATM    1 CL   UNL     1      -6.454  10.328  62.567  1.00  0.00    -0.126 Cl 
HETATM    2  C   UNL     1      -7.587   9.965  63.807  1.00  0.00    -0.136 A  
HETATM    3  C   UNL     1      -7.263   9.027  64.785  1.00  0.00    -0.096 A  
HETATM    4  C   UNL     1      -8.220   8.679  65.748  1.00  0.00    -0.126 A  
HETATM    5 CL   UNL     1      -7.743   7.507  66.931  1.00  0.00    -0.108 Cl 
HETATM    6  C   UNL     1      -9.512   9.245  65.747  1.00  0.00    -0.329 A  
HETATM    7  C   UNL     1      -9.787  10.230  64.785  1.00  0.00    -0.403 A  
HETATM    8  C   UNL     1      -8.832  10.585  63.822  1.00  0.00    -0.208 A  
ENDROOT
BRANCH   6   9
HETATM    9  C   UNL     1     -10.594   8.710  66.676  1.00  0.00    -0.060 C  
BRANCH   9  10
HETATM   10  O   UNL     1     -10.712   9.398  67.942  1.00  0.00    -0.249 OA 
BRANCH  10  11
HETATM   11  N   UNL     1     -11.748  10.360  67.867  1.00  0.00    -0.680 NA 
HETATM   12  H   UNL     1     -12.623  10.202  67.368  1.00  0.00     0.000 HD 
BRANCH  11  13
HETATM   13  C   UNL     1     -11.474  11.470  68.500  1.00  0.00    -0.292 C  
BRANCH  13  14
HETATM   14  C   UNL     1     -10.695  12.565  67.804  1.00  0.00    -0.242 A  
HETATM   15 CL   UNL     1     -12.477  12.624  65.688  1.00  0.00    -0.397 Cl 
HETATM   16  C   UNL     1      -9.551  13.089  68.437  1.00  0.00    -0.178 A  
HETATM   17  C   UNL     1     -11.083  13.134  66.576  1.00  0.00    -0.294 A  
HETATM   18  C   UNL     1      -8.847  14.174  67.898  1.00  0.00    -0.182 A  
HETATM   19 CL   UNL     1      -8.430  16.101  66.061  1.00  0.00    -0.291 Cl 
HETATM   20  C   UNL     1      -9.267  14.741  66.701  1.00  0.00    -0.275 A  
HETATM   21  C   UNL     1     -10.369  14.217  66.032  1.00  0.00    -0.318 A  
ENDBRANCH  13  14
BRANCH  13  22
HETATM   22  C   UNL     1     -11.951  11.767  69.920  1.00  0.00    -0.332 C  
BRANCH  22  23
HETATM   23  N   UNL     1     -12.160  10.582  70.741  1.00  0.00    -0.337 NA 
HETATM   24  C   UNL     1     -11.175   9.760  71.217  1.00  0.00    -0.347 A  
HETATM   25  N   UNL     1     -13.186   8.968  71.851  1.00  0.00    -0.375 NA 
HETATM   26  C   UNL     1     -13.355  10.082  71.170  1.00  0.00    -0.305 A  
HETATM   27  C   UNL     1     -11.836   8.759  71.888  1.00  0.00    -0.367 A  
ENDBRANCH  22  23
ENDBRANCH  13  22
ENDBRANCH  11  13
ENDBRANCH  10  11
ENDBRANCH   9  10
ENDBRANCH   6   9
TORSDOF 7
ENDMDL
MODEL      137
REMARK 921   NORMALIZED FREE ENERGY PREDICTED BY IDOCK:   -5.09 KCAL/MOL
REMARK 922        TOTAL FREE ENERGY PREDICTED BY IDOCK:   -8.30 KCAL/MOL
REMARK 923 INTER-LIGAND FREE ENERGY PREDICTED BY IDOCK:   -7.28 KCAL/MOL
REMARK 924 INTRA-LIGAND FREE ENERGY PREDICTED BY IDOCK:   -1.02 KCAL/MOL
REMARK 927      BINDING AFFINITY PREDICTED BY RF-SCORE:    0.00 PKD
ROOT
HETATM    1 CL   UNL     1     -14.015  15.821  72.600  1.00  0.00    -0.632 Cl 
HETATM    2  C   UNL     1     -13.388  14.358  71.952  1.00  0.00    -0.374 A  
HETATM    3  C   UNL     1     -12.518  14.401  70.865  1.00  0.00    -0.424 A  
HETATM    4  C   UNL     1     -12.071  13.202  70.293  1.00  0.00    -0.328 A  
HETATM    5 CL   UNL     1     -10.991  13.337  68.945  1.00  0.00    -0.283 Cl 
HETATM    6  C   UNL     1     -12.491  11.947  70.781  1.00  0.00    -0.384 A  
HETATM    7  C   UNL     1     -13.321  11.937  71.914  1.00  0.00    -0.405 A  
HETATM    8  C   UNL     1     -13.767  13.134  72.492  1.00  0.00    -0.563 A  
ENDROOT
BRANCH   6   9
HETATM    9  C   UNL     1     -12.154  10.668  70.026  1.00  0.00    -0.316 C  
BRANCH   9  10
HETATM   10  O   UNL     1     -11.554   9.623  70.825  1.00  0.00    -0.280 OA 
BRANCH  10  11
HETATM   11  N   UNL     1     -10.148   9.793  70.855  1.00  0.00    -0.331 NA 
HETATM   12  H   UNL     1      -9.683  10.508  71.414  1.00  0.00     0.000 HD 
BRANCH  11  13
HETATM   13  C   UNL     1      -9.506   8.945  70.097  1.00  0.00    -0.180 C  
BRANCH  13  14
HETATM   14  C   UNL     1      -9.416   9.182  68.605  1.00  0.00    -0.145 A  
HETATM   15 CL   UNL     1     -10.615   6.752  68.046  1.00  0.00    -0.250 Cl 
HETATM   16  C   UNL     1      -8.874  10.398  68.143  1.00  0.00    -0.132 A  
HETATM   17  C   UNL     1      -9.898   8.273  67.643  1.00  0.00    -0.169 A  
HETATM   18  C   UNL     1      -8.860  10.724  66.780  1.00  0.00    -0.147 A  
HETATM   19 CL   UNL     1      -9.392  10.243  64.184  1.00  0.00    -0.307 Cl 
HETATM   20  C   UNL     1      -9.370   9.825  65.852  1.00  0.00    -0.205 A  
HETATM   21  C   UNL     1      -9.872   8.598  66.274  1.00  0.00    -0.320 A  
ENDBRANCH  13  14
BRANCH  13  22
HETATM   22  C   UNL     1      -8.770   7.723  70.640  1.00  0.00    -0.139 C  
BRANCH  22  23
HETATM   23  N   UNL     1      -9.397   7.116  71.806  1.00  0.00    -0.147 NA 
HETATM   24  C   UNL     1     -10.568   6.408  71.801  1.00  0.00    -0.220 A  
HETATM   25  N   UNL     1      -9.780   6.543  73.907  1.00  0.00    -0.203 NA 
HETATM   26  C   UNL     1      -8.943   7.149  73.092  1.00  0.00    -0.133 A  
HETATM   27  C   UNL     1     -10.793   6.077  73.116  1.00  0.00    -0.259 A  
ENDBRANCH  22  23
ENDBRANCH  13  22
ENDBRANCH  11  13
ENDBRANCH  10  11
ENDBRANCH   9  10
ENDBRANCH   6   9
TORSDOF 7
ENDMDL
MODEL      138
REMARK 921   NORMALIZED FREE ENERGY PREDICTED BY IDOCK:   -5.09 KCAL/MOL
REMARK 922        TOTAL FREE ENERGY PREDICTED BY IDOCK:   -8.29 KCAL/MOL
REMARK 923 INTER-LIGAND FREE ENERGY PREDICTED BY IDOCK:   -7.41 KCAL/MOL
REMARK 924 INTRA-LIGAND FREE ENERGY PREDICTED BY IDOCK:   -0.87 KCAL/MOL
REMARK 927      BINDING AFFINITY PREDICTED BY RF-SCORE:    0.00 PKD
ROOT
HETATM    1 CL   UNL     1      -7.499   8.058  63.691  1.00  0.00    -0.110 Cl 
HETATM    2  C   UNL     1      -8.030   9.126  64.930  1.00  0.00    -0.123 A  
HETATM    3  C   UNL     1      -7.152  10.080  65.440  1.00  0.00    -0.138 A  
HETATM    4  C   UNL     1      -7.566  10.896  66.502  1.00  0.00    -0.142 A  
HETATM    5 CL   UNL     1      -6.421  12.059  67.083  1.00  0.00    -0.148 Cl 
HETATM    6  C   UNL     1      -8.848  10.769  67.078  1.00  0.00    -0.137 A  
HETATM    7  C   UNL     1      -9.728   9.839  66.502  1.00  0.00    -0.267 A  
HETATM    8  C   UNL     1      -9.320   9.023  65.437  1.00  0.00    -0.213 A  
ENDROOT
BRANCH   6   9
HETATM    9  C   UNL     1      -9.204  11.525  68.352  1.00  0.00    -0.190 C  
BRANCH   9  10
HETATM   10  O   UNL     1     -10.195  12.566  68.191  1.00  0.00    -0.217 OA 
BRANCH  10  11
HETATM   11  N   UNL     1      -9.661  13.615  67.404  1.00  0.00    -0.220 NA 
HETATM   12  H   UNL     1      -8.726  13.589  66.996  1.00  0.00     0.000 HD 
BRANCH  11  13
HETATM   13  C   UNL     1     -10.481  14.620  67.251  1.00  0.00    -0.266 C  
BRANCH  13  14
HETATM   14  C   UNL     1      -9.969  16.039  67.370  1.00  0.00    -0.241 A  
HETATM   15 CL   UNL     1      -8.418  15.400  69.571  1.00  0.00    -0.254 Cl 
HETATM   16  C   UNL     1     -10.385  16.992  66.420  1.00  0.00    -0.304 A  
HETATM   17  C   UNL     1      -9.048  16.453  68.352  1.00  0.00    -0.214 A  
HETATM   18  C   UNL     1      -9.867  18.294  66.411  1.00  0.00    -0.358 A  
HETATM   19 CL   UNL     1      -8.266  20.254  67.332  1.00  0.00    -0.378 Cl 
HETATM   20  C   UNL     1      -8.936  18.671  67.370  1.00  0.00    -0.272 A  
HETATM   21  C   UNL     1      -8.537  17.764  68.347  1.00  0.00    -0.292 A  
ENDBRANCH  13  14
BRANCH  13  22
HETATM   22  C   UNL     1     -11.956  14.454  66.894  1.00  0.00    -0.399 C  
BRANCH  22  23
HETATM   23  N   UNL     1     -12.192  13.924  65.558  1.00  0.00    -0.417 NA 
HETATM   24  C   UNL     1     -12.320  12.599  65.239  1.00  0.00    -0.466 A  
HETATM   25  N   UNL     1     -12.473  13.841  63.366  1.00  0.00    -0.803 NA 
HETATM   26  C   UNL     1     -12.318  14.638  64.403  1.00  0.00    -0.398 A  
HETATM   27  C   UNL     1     -12.478  12.572  63.874  1.00  0.00    -0.445 A  
ENDBRANCH  22  23
ENDBRANCH  13  22
ENDBRANCH  11  13
ENDBRANCH  10  11
ENDBRANCH   9  10
ENDBRANCH   6   9
TORSDOF 7
ENDMDL
MODEL      139
REMARK 921   NORMALIZED FREE ENERGY PREDICTED BY IDOCK:   -5.06 KCAL/MOL
REMARK 922        TOTAL FREE ENERGY PREDICTED BY IDOCK:   -8.26 KCAL/MOL
REMARK 923 INTER-LIGAND FREE ENERGY PREDICTED BY IDOCK:   -6.21 KCAL/MOL
REMARK 924 INTRA-LIGAND FREE ENERGY PREDICTED BY IDOCK:   -2.05 KCAL/MOL
REMARK 927      BINDING AFFINITY PREDICTED BY RF-SCORE:    0.00 PKD
ROOT
HETATM    1 CL   UNL     1      -7.733   6.733  68.793  1.00  0.00    -0.108 Cl 
HETATM    2  C   UNL     1      -8.365   7.724  67.538  1.00  0.00    -0.120 A  
HETATM    3  C   UNL     1      -7.507   8.542  66.807  1.00  0.00    -0.083 A  
HETATM    4  C   UNL     1      -8.038   9.403  65.837  1.00  0.00    -0.114 A  
HETATM    5 CL   UNL     1      -6.910  10.390  64.969  1.00  0.00    -0.104 Cl 
HETATM    6  C   UNL     1      -9.426   9.473  65.589  1.00  0.00    -0.326 A  
HETATM    7  C   UNL     1     -10.257   8.593  66.301  1.00  0.00    -0.121 A  
HETATM    8  C   UNL     1      -9.729   7.727  67.269  1.00  0.00    -0.224 A  
ENDROOT
BRANCH   6   9
HETATM    9  C   UNL     1      -9.997  10.551  64.676  1.00  0.00    -0.347 C  
BRANCH   9  10
HETATM   10  O   UNL     1     -10.027  11.881  65.242  1.00  0.00    -0.246 OA 
BRANCH  10  11
HETATM   11  N   UNL     1     -11.298  12.127  65.815  1.00  0.00    -0.344 NA 
HETATM   12  H   UNL     1     -12.175  12.000  65.309  1.00  0.00     0.000 HD 
BRANCH  11  13
HETATM   13  C   UNL     1     -11.240  12.533  67.056  1.00  0.00    -0.302 C  
BRANCH  13  14
HETATM   14  C   UNL     1     -10.804  11.577  68.145  1.00  0.00    -0.259 A  
HETATM   15 CL   UNL     1      -8.163  12.370  67.919  1.00  0.00    -0.152 Cl 
HETATM   16  C   UNL     1     -11.781  10.796  68.793  1.00  0.00    -0.315 A  
HETATM   17  C   UNL     1      -9.473  11.462  68.590  1.00  0.00    -0.163 A  
HETATM   18  C   UNL     1     -11.459   9.971  69.878  1.00  0.00    -0.274 A  
HETATM   19 CL   UNL     1      -9.756   8.920  71.682  1.00  0.00    -0.376 Cl 
HETATM   20  C   UNL     1     -10.145   9.898  70.321  1.00  0.00    -0.237 A  
HETATM   21  C   UNL     1      -9.150  10.625  69.674  1.00  0.00     0.132 A  
ENDBRANCH  13  14
BRANCH  13  22
HETATM   22  C   UNL     1     -11.538  13.967  67.485  1.00  0.00    -0.367 C  
BRANCH  22  23
HETATM   23  N   UNL     1     -11.068  14.981  66.551  1.00  0.00    -0.336 NA 
HETATM   24  C   UNL     1     -10.142  15.950  66.829  1.00  0.00    -0.271 A  
HETATM   25  N   UNL     1     -10.876  16.195  64.712  1.00  0.00    -0.669 NA 
HETATM   26  C   UNL     1     -11.463  15.150  65.256  1.00  0.00    -0.266 A  
HETATM   27  C   UNL     1     -10.051  16.699  65.680  1.00  0.00    -0.217 A  
ENDBRANCH  22  23
ENDBRANCH  13  22
ENDBRANCH  11  13
ENDBRANCH  10  11
ENDBRANCH   9  10
ENDBRANCH   6   9
TORSDOF 7
ENDMDL
MODEL      140
REMARK 921   NORMALIZED FREE ENERGY PREDICTED BY IDOCK:   -5.05 KCAL/MOL
REMARK 922        TOTAL FREE ENERGY PREDICTED BY IDOCK:   -8.23 KCAL/MOL
REMARK 923 INTER-LIGAND FREE ENERGY PREDICTED BY IDOCK:   -6.22 KCAL/MOL
REMARK 924 INTRA-LIGAND FREE ENERGY PREDICTED BY IDOCK:   -2.01 KCAL/MOL
REMARK 927      BINDING AFFINITY PREDICTED BY RF-SCORE:    0.00 PKD
ROOT
HETATM    1 CL   UNL     1      -7.620   5.795  68.858  1.00  0.00    -0.088 Cl 
HETATM    2  C   UNL     1      -8.461   6.919  67.866  1.00  0.00    -0.120 A  
HETATM    3  C   UNL     1      -7.743   7.798  67.058  1.00  0.00    -0.104 A  
HETATM    4  C   UNL     1      -8.431   8.763  66.310  1.00  0.00    -0.124 A  
HETATM    5 CL   UNL     1      -7.471   9.819  65.329  1.00  0.00    -0.114 Cl 
HETATM    6  C   UNL     1      -9.837   8.878  66.364  1.00  0.00    -0.353 A  
HETATM    7  C   UNL     1     -10.534   7.940  67.142  1.00  0.00    -0.414 A  
HETATM    8  C   UNL     1      -9.850   6.970  67.888  1.00  0.00    -0.161 A  
ENDROOT
BRANCH   6   9
HETATM    9  C   UNL     1     -10.545  10.053  65.702  1.00  0.00     0.169 C  
BRANCH   9  10
HETATM   10  O   UNL     1     -10.570  11.272  66.481  1.00  0.00    -0.247 OA 
BRANCH  10  11
HETATM   11  N   UNL     1     -11.697  11.266  67.338  1.00  0.00    -0.584 NA 
HETATM   12  H   UNL     1     -12.625  10.966  67.040  1.00  0.00     0.000 HD 
BRANCH  11  13
HETATM   13  C   UNL     1     -11.432  11.684  68.547  1.00  0.00    -0.298 C  
BRANCH  13  14
HETATM   14  C   UNL     1     -10.690  10.785  69.512  1.00  0.00    -0.268 A  
HETATM   15 CL   UNL     1     -13.005  10.209  70.913  1.00  0.00    -0.442 Cl 
HETATM   16  C   UNL     1      -9.309  10.582  69.323  1.00  0.00    -0.177 A  
HETATM   17  C   UNL     1     -11.315  10.090  70.565  1.00  0.00    -0.335 A  
HETATM   18  C   UNL     1      -8.585   9.681  70.115  1.00  0.00    -0.243 A  
HETATM   19 CL   UNL     1      -8.351   7.843  72.071  1.00  0.00    -0.144 Cl 
HETATM   20  C   UNL     1      -9.229   8.982  71.127  1.00  0.00    -0.256 A  
HETATM   21  C   UNL     1     -10.584   9.194  71.366  1.00  0.00    -0.412 A  
ENDBRANCH  13  14
BRANCH  13  22
HETATM   22  C   UNL     1     -11.784  13.082  69.049  1.00  0.00    -0.329 C  
BRANCH  22  23
HETATM   23  N   UNL     1     -10.906  14.134  68.554  1.00  0.00    -0.244 NA 
HETATM   24  C   UNL     1      -9.566  14.238  68.812  1.00  0.00    -0.153 A  
HETATM   25  N   UNL     1     -10.225  15.979  67.543  1.00  0.00    -0.268 NA 
HETATM   26  C   UNL     1     -11.255  15.189  67.762  1.00  0.00    -0.323 A  
HETATM   27  C   UNL     1      -9.170  15.397  68.189  1.00  0.00    -0.186 A  
ENDBRANCH  22  23
ENDBRANCH  13  22
ENDBRANCH  11  13
ENDBRANCH  10  11
ENDBRANCH   9  10
ENDBRANCH   6   9
TORSDOF 7
ENDMDL
MODEL      141
REMARK 921   NORMALIZED FREE ENERGY PREDICTED BY IDOCK:   -5.04 KCAL/MOL
REMARK 922        TOTAL FREE ENERGY PREDICTED BY IDOCK:   -8.22 KCAL/MOL
REMARK 923 INTER-LIGAND FREE ENERGY PREDICTED BY IDOCK:   -6.70 KCAL/MOL
REMARK 924 INTRA-LIGAND FREE ENERGY PREDICTED BY IDOCK:   -1.51 KCAL/MOL
REMARK 927      BINDING AFFINITY PREDICTED BY RF-SCORE:    0.00 PKD
ROOT
HETATM    1 CL   UNL     1     -13.468  15.350  70.959  1.00  0.00    -0.542 Cl 
HETATM    2  C   UNL     1     -12.048  15.282  69.993  1.00  0.00    -0.352 A  
HETATM    3  C   UNL     1     -12.155  15.057  68.623  1.00  0.00    -0.198 A  
HETATM    4  C   UNL     1     -10.990  14.926  67.854  1.00  0.00    -0.286 A  
HETATM    5 CL   UNL     1     -11.204  14.649  66.157  1.00  0.00    -0.338 Cl 
HETATM    6  C   UNL     1      -9.707  15.003  68.435  1.00  0.00    -0.216 A  
HETATM    7  C   UNL     1      -9.633  15.288  69.808  1.00  0.00    -0.140 A  
HETATM    8  C   UNL     1     -10.795  15.424  70.580  1.00  0.00    -0.318 A  
ENDROOT
BRANCH   6   9
HETATM    9  C   UNL     1      -8.465  14.662  67.620  1.00  0.00    -0.180 C  
BRANCH   9  10
HETATM   10  O   UNL     1      -8.448  13.332  67.055  1.00  0.00    -0.195 OA 
BRANCH  10  11
HETATM   11  N   UNL     1      -8.740  12.381  68.063  1.00  0.00    -0.179 NA 
HETATM   12  H   UNL     1      -8.221  12.317  68.938  1.00  0.00     0.000 HD 
BRANCH  11  13
HETATM   13  C   UNL     1      -9.738  11.594  67.762  1.00  0.00    -0.173 C  
BRANCH  13  14
HETATM   14  C   UNL     1     -10.592  11.001  68.862  1.00  0.00    -0.239 A  
HETATM   15 CL   UNL     1      -8.545   9.331  69.685  1.00  0.00    -0.138 Cl 
HETATM   16  C   UNL     1     -11.899  11.492  69.045  1.00  0.00    -0.408 A  
HETATM   17  C   UNL     1     -10.131  10.016  69.757  1.00  0.00    -0.248 A  
HETATM   18  C   UNL     1     -12.702  11.062  70.110  1.00  0.00    -0.200 A  
HETATM   19 CL   UNL     1     -13.183   9.617  72.332  1.00  0.00    -0.473 Cl 
HETATM   20  C   UNL     1     -12.215  10.113  70.999  1.00  0.00    -0.374 A  
HETATM   21  C   UNL     1     -10.943   9.578  70.819  1.00  0.00    -0.389 A  
ENDBRANCH  13  14
BRANCH  13  22
HETATM   22  C   UNL     1     -10.148  11.268  66.328  1.00  0.00    -0.230 C  
BRANCH  22  23
HETATM   23  N   UNL     1      -9.380  10.193  65.716  1.00  0.00    -0.175 NA 
HETATM   24  C   UNL     1      -8.473  10.341  64.702  1.00  0.00    -0.175 A  
HETATM   25  N   UNL     1      -8.642   8.161  65.249  1.00  0.00    -0.142 NA 
HETATM   26  C   UNL     1      -9.430   8.867  66.033  1.00  0.00    -0.252 A  
HETATM   27  C   UNL     1      -8.041   9.067  64.419  1.00  0.00    -0.146 A  
ENDBRANCH  22  23
ENDBRANCH  13  22
ENDBRANCH  11  13
ENDBRANCH  10  11
ENDBRANCH   9  10
ENDBRANCH   6   9
TORSDOF 7
ENDMDL
MODEL      142
REMARK 921   NORMALIZED FREE ENERGY PREDICTED BY IDOCK:   -5.03 KCAL/MOL
REMARK 922        TOTAL FREE ENERGY PREDICTED BY IDOCK:   -8.20 KCAL/MOL
REMARK 923 INTER-LIGAND FREE ENERGY PREDICTED BY IDOCK:   -7.36 KCAL/MOL
REMARK 924 INTRA-LIGAND FREE ENERGY PREDICTED BY IDOCK:   -0.84 KCAL/MOL
REMARK 927      BINDING AFFINITY PREDICTED BY RF-SCORE:    0.00 PKD
ROOT
HETATM    1 CL   UNL     1      -6.398  17.554  69.661  1.00  0.00    -0.230 Cl 
HETATM    2  C   UNL     1      -7.541  17.331  68.396  1.00  0.00    -0.241 A  
HETATM    3  C   UNL     1      -8.576  18.248  68.231  1.00  0.00    -0.299 A  
HETATM    4  C   UNL     1      -9.547  18.020  67.247  1.00  0.00    -0.269 A  
HETATM    5 CL   UNL     1     -10.803  19.204  67.102  1.00  0.00    -0.547 Cl 
HETATM    6  C   UNL     1      -9.512  16.875  66.423  1.00  0.00    -0.306 A  
HETATM    7  C   UNL     1      -8.424  16.001  66.575  1.00  0.00    -0.348 A  
HETATM    8  C   UNL     1      -7.447  16.228  67.555  1.00  0.00    -0.172 A  
ENDROOT
BRANCH   6   9
HETATM    9  C   UNL     1     -10.679  16.547  65.501  1.00  0.00    -0.256 C  
BRANCH   9  10
HETATM   10  O   UNL     1     -11.271  15.243  65.700  1.00  0.00    -0.323 OA 
BRANCH  10  11
HETATM   11  N   UNL     1     -10.747  14.332  64.751  1.00  0.00    -0.489 NA 
HETATM   12  H   UNL     1     -10.187  14.620  63.949  1.00  0.00     0.000 HD 
BRANCH  11  13
HETATM   13  C   UNL     1     -11.052  13.087  65.004  1.00  0.00    -0.294 C  
BRANCH  13  14
HETATM   14  C   UNL     1     -10.138  11.975  64.535  1.00  0.00    -0.293 A  
HETATM   15 CL   UNL     1      -8.580  12.159  66.814  1.00  0.00    -0.186 Cl 
HETATM   16  C   UNL     1     -10.422  11.335  63.312  1.00  0.00    -0.370 A  
HETATM   17  C   UNL     1      -9.043  11.501  65.283  1.00  0.00    -0.017 A  
HETATM   18  C   UNL     1      -9.680  10.231  62.873  1.00  0.00    -0.198 A  
HETATM   19 CL   UNL     1      -7.741   8.378  63.127  1.00  0.00    -0.129 Cl 
HETATM   20  C   UNL     1      -8.624   9.760  63.643  1.00  0.00    -0.201 A  
HETATM   21  C   UNL     1      -8.293  10.399  64.835  1.00  0.00    -0.165 A  
ENDBRANCH  13  14
BRANCH  13  22
HETATM   22  C   UNL     1     -12.276  12.669  65.814  1.00  0.00    -0.361 C  
BRANCH  22  23
HETATM   23  N   UNL     1     -12.033  12.547  67.245  1.00  0.00    -0.505 NA 
HETATM   24  C   UNL     1     -11.798  11.377  67.915  1.00  0.00    -0.165 A  
HETATM   25  N   UNL     1     -11.808  13.091  69.377  1.00  0.00    -0.322 NA 
HETATM   26  C   UNL     1     -12.003  13.557  68.161  1.00  0.00    -0.341 A  
HETATM   27  C   UNL     1     -11.678  11.738  69.236  1.00  0.00    -0.335 A  
ENDBRANCH  22  23
ENDBRANCH  13  22
ENDBRANCH  11  13
ENDBRANCH  10  11
ENDBRANCH   9  10
ENDBRANCH   6   9
TORSDOF 7
ENDMDL
MODEL      143
REMARK 921   NORMALIZED FREE ENERGY PREDICTED BY IDOCK:   -5.02 KCAL/MOL
REMARK 922        TOTAL FREE ENERGY PREDICTED BY IDOCK:   -8.19 KCAL/MOL
REMARK 923 INTER-LIGAND FREE ENERGY PREDICTED BY IDOCK:   -6.83 KCAL/MOL
REMARK 924 INTRA-LIGAND FREE ENERGY PREDICTED BY IDOCK:   -1.37 KCAL/MOL
REMARK 927      BINDING AFFINITY PREDICTED BY RF-SCORE:    0.00 PKD
ROOT
HETATM    1 CL   UNL     1      -8.837   3.108  66.039  1.00  0.00    -0.134 Cl 
HETATM    2  C   UNL     1      -9.512   4.132  67.244  1.00  0.00    -0.189 A  
HETATM    3  C   UNL     1      -9.332   3.826  68.590  1.00  0.00    -0.226 A  
HETATM    4  C   UNL     1      -9.950   4.621  69.565  1.00  0.00    -0.196 A  
HETATM    5 CL   UNL     1      -9.679   4.178  71.218  1.00  0.00    -0.245 Cl 
HETATM    6  C   UNL     1     -10.763   5.721  69.218  1.00  0.00    -0.386 A  
HETATM    7  C   UNL     1     -10.876   6.038  67.855  1.00  0.00    -0.378 A  
HETATM    8  C   UNL     1     -10.256   5.248  66.876  1.00  0.00    -0.279 A  
ENDROOT
BRANCH   6   9
HETATM    9  C   UNL     1     -11.579   6.448  70.279  1.00  0.00    -0.383 C  
BRANCH   9  10
HETATM   10  O   UNL     1     -11.050   7.729  70.690  1.00  0.00    -0.251 OA 
BRANCH  10  11
HETATM   11  N   UNL     1     -11.514   8.739  69.813  1.00  0.00    -0.430 NA 
HETATM   12  H   UNL     1     -12.465   8.770  69.447  1.00  0.00     0.000 HD 
BRANCH  11  13
HETATM   13  C   UNL     1     -10.604   9.629  69.518  1.00  0.00    -0.229 C  
BRANCH  13  14
HETATM   14  C   UNL     1     -10.938  10.771  68.583  1.00  0.00    -0.285 A  
HETATM   15 CL   UNL     1     -10.155   9.314  66.364  1.00  0.00    -0.349 Cl 
HETATM   16  C   UNL     1     -11.485  11.952  69.122  1.00  0.00    -0.356 A  
HETATM   17  C   UNL     1     -10.784  10.701  67.185  1.00  0.00    -0.272 A  
HETATM   18  C   UNL     1     -11.913  13.004  68.303  1.00  0.00    -0.306 A  
HETATM   19 CL   UNL     1     -12.348  14.171  65.914  1.00  0.00    -0.481 Cl 
HETATM   20  C   UNL     1     -11.782  12.899  66.924  1.00  0.00    -0.382 A  
HETATM   21  C   UNL     1     -11.206  11.763  66.364  1.00  0.00    -0.382 A  
ENDBRANCH  13  14
BRANCH  13  22
HETATM   22  C   UNL     1      -9.199   9.624  70.116  1.00  0.00    -0.246 C  
BRANCH  22  23
HETATM   23  N   UNL     1      -8.168   9.121  69.218  1.00  0.00    -0.114 NA 
HETATM   24  C   UNL     1      -7.184   9.874  68.637  1.00  0.00    -0.072 A  
HETATM   25  N   UNL     1      -7.003   7.736  67.948  1.00  0.00    -0.075 NA 
HETATM   26  C   UNL     1      -8.004   7.834  68.797  1.00  0.00    -0.125 A  
HETATM   27  C   UNL     1      -6.485   8.997  67.842  1.00  0.00    -0.057 A  
ENDBRANCH  22  23
ENDBRANCH  13  22
ENDBRANCH  11  13
ENDBRANCH  10  11
ENDBRANCH   9  10
ENDBRANCH   6   9
TORSDOF 7
ENDMDL
MODEL      144
REMARK 921   NORMALIZED FREE ENERGY PREDICTED BY IDOCK:   -5.02 KCAL/MOL
REMARK 922        TOTAL FREE ENERGY PREDICTED BY IDOCK:   -8.19 KCAL/MOL
REMARK 923 INTER-LIGAND FREE ENERGY PREDICTED BY IDOCK:   -7.31 KCAL/MOL
REMARK 924 INTRA-LIGAND FREE ENERGY PREDICTED BY IDOCK:   -0.88 KCAL/MOL
REMARK 927      BINDING AFFINITY PREDICTED BY RF-SCORE:    0.00 PKD
ROOT
HETATM    1 CL   UNL     1      -6.291  19.290  68.853  1.00  0.00    -0.276 Cl 
HETATM    2  C   UNL     1      -7.182  18.057  68.053  1.00  0.00    -0.230 A  
HETATM    3  C   UNL     1      -8.283  18.397  67.270  1.00  0.00    -0.246 A  
HETATM    4  C   UNL     1      -9.050  17.382  66.683  1.00  0.00    -0.258 A  
HETATM    5 CL   UNL     1     -10.403  17.883  65.724  1.00  0.00    -0.269 Cl 
HETATM    6  C   UNL     1      -8.744  16.018  66.874  1.00  0.00    -0.259 A  
HETATM    7  C   UNL     1      -7.594  15.710  67.619  1.00  0.00    -0.179 A  
HETATM    8  C   UNL     1      -6.821  16.723  68.205  1.00  0.00    -0.153 A  
ENDROOT
BRANCH   6   9
HETATM    9  C   UNL     1      -9.700  14.934  66.393  1.00  0.00    -0.285 C  
BRANCH   9  10
HETATM   10  O   UNL     1      -9.983  13.894  67.357  1.00  0.00    -0.235 OA 
BRANCH  10  11
HETATM   11  N   UNL     1      -9.180  12.760  67.085  1.00  0.00    -0.212 NA 
HETATM   12  H   UNL     1      -8.171  12.810  66.939  1.00  0.00     0.000 HD 
BRANCH  11  13
HETATM   13  C   UNL     1      -9.856  11.643  67.038  1.00  0.00    -0.193 C  
BRANCH  13  14
HETATM   14  C   UNL     1     -10.232  10.932  68.319  1.00  0.00    -0.191 A  
HETATM   15 CL   UNL     1      -7.945   9.376  68.243  1.00  0.00    -0.094 Cl 
HETATM   16  C   UNL     1     -11.412  11.315  68.987  1.00  0.00    -0.369 A  
HETATM   17  C   UNL     1      -9.434   9.938  68.919  1.00  0.00    -0.170 A  
HETATM   18  C   UNL     1     -11.761  10.772  70.230  1.00  0.00    -0.442 A  
HETATM   19 CL   UNL     1     -11.347   9.180  72.364  1.00  0.00    -0.067 Cl 
HETATM   20  C   UNL     1     -10.942   9.816  70.818  1.00  0.00    -0.336 A  
HETATM   21  C   UNL     1      -9.792   9.386  70.162  1.00  0.00    -0.272 A  
ENDBRANCH  13  14
BRANCH  13  22
HETATM   22  C   UNL     1     -10.356  11.018  65.737  1.00  0.00    -0.257 C  
BRANCH  22  23
HETATM   23  N   UNL     1     -11.249  11.874  64.967  1.00  0.00    -0.310 NA 
HETATM   24  C   UNL     1     -11.121  12.162  63.636  1.00  0.00    -0.457 A  
HETATM   25  N   UNL     1     -12.900  13.261  64.476  1.00  0.00    -0.680 NA 
HETATM   26  C   UNL     1     -12.350  12.535  65.427  1.00  0.00    -0.359 A  
HETATM   27  C   UNL     1     -12.146  13.036  63.358  1.00  0.00    -0.515 A  
ENDBRANCH  22  23
ENDBRANCH  13  22
ENDBRANCH  11  13
ENDBRANCH  10  11
ENDBRANCH   9  10
ENDBRANCH   6   9
TORSDOF 7
ENDMDL
MODEL      145
REMARK 921   NORMALIZED FREE ENERGY PREDICTED BY IDOCK:   -5.02 KCAL/MOL
REMARK 922        TOTAL FREE ENERGY PREDICTED BY IDOCK:   -8.19 KCAL/MOL
REMARK 923 INTER-LIGAND FREE ENERGY PREDICTED BY IDOCK:   -7.88 KCAL/MOL
REMARK 924 INTRA-LIGAND FREE ENERGY PREDICTED BY IDOCK:   -0.30 KCAL/MOL
REMARK 927      BINDING AFFINITY PREDICTED BY RF-SCORE:    0.00 PKD
ROOT
HETATM    1 CL   UNL     1      -7.185  10.442  62.442  1.00  0.00    -0.152 Cl 
HETATM    2  C   UNL     1      -8.089   9.974  63.828  1.00  0.00    -0.158 A  
HETATM    3  C   UNL     1      -7.698   8.856  64.561  1.00  0.00    -0.119 A  
HETATM    4  C   UNL     1      -8.482   8.435  65.644  1.00  0.00    -0.164 A  
HETATM    5 CL   UNL     1      -7.931   7.038  66.508  1.00  0.00    -0.106 Cl 
HETATM    6  C   UNL     1      -9.669   9.107  66.005  1.00  0.00    -0.358 A  
HETATM    7  C   UNL     1     -10.004  10.264  65.282  1.00  0.00    -0.387 A  
HETATM    8  C   UNL     1      -9.220  10.692  64.201  1.00  0.00    -0.267 A  
ENDROOT
BRANCH   6   9
HETATM    9  C   UNL     1     -10.605   8.519  67.053  1.00  0.00    -0.235 C  
BRANCH   9  10
HETATM   10  O   UNL     1     -10.327   8.916  68.415  1.00  0.00    -0.195 OA 
BRANCH  10  11
HETATM   11  N   UNL     1     -11.424   9.647  68.932  1.00  0.00    -0.456 NA 
HETATM   12  H   UNL     1     -12.287   9.805  68.411  1.00  0.00     0.000 HD 
BRANCH  11  13
HETATM   13  C   UNL     1     -11.225  10.099  70.141  1.00  0.00    -0.310 C  
BRANCH  13  14
HETATM   14  C   UNL     1     -12.006  11.295  70.641  1.00  0.00    -0.435 A  
HETATM   15 CL   UNL     1     -13.551   9.715  72.306  1.00  0.00    -0.496 Cl 
HETATM   16  C   UNL     1     -11.662  12.576  70.166  1.00  0.00    -0.255 A  
HETATM   17  C   UNL     1     -13.030  11.207  71.603  1.00  0.00    -0.443 A  
HETATM   18  C   UNL     1     -12.273  13.732  70.667  1.00  0.00    -0.434 A  
HETATM   19 CL   UNL     1     -13.978  15.045  72.287  1.00  0.00    -0.565 Cl 
HETATM   20  C   UNL     1     -13.258  13.624  71.639  1.00  0.00    -0.367 A  
HETATM   21  C   UNL     1     -13.650  12.369  72.097  1.00  0.00    -0.405 A  
ENDBRANCH  13  14
BRANCH  13  22
HETATM   22  C   UNL     1     -10.266   9.445  71.134  1.00  0.00    -0.291 C  
BRANCH  22  23
HETATM   23  N   UNL     1     -10.695   8.136  71.606  1.00  0.00    -0.230 NA 
HETATM   24  C   UNL     1     -10.091   7.412  72.598  1.00  0.00    -0.208 A  
HETATM   25  N   UNL     1     -11.826   6.242  71.761  1.00  0.00    -0.312 NA 
HETATM   26  C   UNL     1     -11.752   7.405  71.149  1.00  0.00    -0.294 A  
HETATM   27  C   UNL     1     -10.800   6.235  72.665  1.00  0.00    -0.242 A  
ENDBRANCH  22  23
ENDBRANCH  13  22
ENDBRANCH  11  13
ENDBRANCH  10  11
ENDBRANCH   9  10
ENDBRANCH   6   9
TORSDOF 7
ENDMDL
MODEL      146
REMARK 921   NORMALIZED FREE ENERGY PREDICTED BY IDOCK:   -5.01 KCAL/MOL
REMARK 922        TOTAL FREE ENERGY PREDICTED BY IDOCK:   -8.18 KCAL/MOL
REMARK 923 INTER-LIGAND FREE ENERGY PREDICTED BY IDOCK:   -7.43 KCAL/MOL
REMARK 924 INTRA-LIGAND FREE ENERGY PREDICTED BY IDOCK:   -0.76 KCAL/MOL
REMARK 927      BINDING AFFINITY PREDICTED BY RF-SCORE:    0.00 PKD
ROOT
HETATM    1 CL   UNL     1     -12.651  15.845  74.551  1.00  0.00    -0.691 Cl 
HETATM    2  C   UNL     1     -12.401  15.156  72.996  1.00  0.00    -0.402 A  
HETATM    3  C   UNL     1     -11.654  15.849  72.046  1.00  0.00    -0.525 A  
HETATM    4  C   UNL     1     -11.518  15.317  70.756  1.00  0.00    -0.325 A  
HETATM    5 CL   UNL     1     -10.575  16.235  69.630  1.00  0.00    -0.310 Cl 
HETATM    6  C   UNL     1     -12.131  14.100  70.388  1.00  0.00    -0.417 A  
HETATM    7  C   UNL     1     -12.827  13.398  71.385  1.00  0.00    -0.420 A  
HETATM    8  C   UNL     1     -12.962  13.924  72.678  1.00  0.00    -0.440 A  
ENDROOT
BRANCH   6   9
HETATM    9  C   UNL     1     -12.136  13.643  68.935  1.00  0.00    -0.300 C  
BRANCH   9  10
HETATM   10  O   UNL     1     -10.830  13.417  68.358  1.00  0.00    -0.247 OA 
BRANCH  10  11
HETATM   11  N   UNL     1     -10.963  12.705  67.142  1.00  0.00    -0.253 NA 
HETATM   12  H   UNL     1     -11.795  12.170  66.894  1.00  0.00     0.000 HD 
BRANCH  11  13
HETATM   13  C   UNL     1      -9.915  12.800  66.367  1.00  0.00    -0.265 C  
BRANCH  13  14
HETATM   14  C   UNL     1      -9.390  11.574  65.651  1.00  0.00    -0.221 A  
HETATM   15 CL   UNL     1      -7.516  11.099  67.630  1.00  0.00    -0.097 Cl 
HETATM   16  C   UNL     1     -10.004  11.178  64.447  1.00  0.00    -0.354 A  
HETATM   17  C   UNL     1      -8.351  10.767  66.153  1.00  0.00    -0.166 A  
HETATM   18  C   UNL     1      -9.637   9.995  63.791  1.00  0.00    -0.191 A  
HETATM   19 CL   UNL     1      -8.210   7.724  63.541  1.00  0.00    -0.044 Cl 
HETATM   20  C   UNL     1      -8.631   9.198  64.321  1.00  0.00    -0.175 A  
HETATM   21  C   UNL     1      -7.977   9.585  65.487  1.00  0.00    -0.112 A  
ENDBRANCH  13  14
BRANCH  13  22
HETATM   22  C   UNL     1      -9.197  14.117  66.083  1.00  0.00    -0.055 C  
BRANCH  22  23
HETATM   23  N   UNL     1     -10.052  15.157  65.528  1.00  0.00    -0.357 NA 
HETATM   24  C   UNL     1     -10.941  14.991  64.501  1.00  0.00    -0.191 A  
HETATM   25  N   UNL     1     -10.958  17.142  65.170  1.00  0.00    -0.516 NA 
HETATM   26  C   UNL     1     -10.115  16.462  65.919  1.00  0.00    -0.347 A  
HETATM   27  C   UNL     1     -11.479  16.238  64.287  1.00  0.00    -0.002 A  
ENDBRANCH  22  23
ENDBRANCH  13  22
ENDBRANCH  11  13
ENDBRANCH  10  11
ENDBRANCH   9  10
ENDBRANCH   6   9
TORSDOF 7
ENDMDL
MODEL      147
REMARK 921   NORMALIZED FREE ENERGY PREDICTED BY IDOCK:   -5.00 KCAL/MOL
REMARK 922        TOTAL FREE ENERGY PREDICTED BY IDOCK:   -8.17 KCAL/MOL
REMARK 923 INTER-LIGAND FREE ENERGY PREDICTED BY IDOCK:   -6.88 KCAL/MOL
REMARK 924 INTRA-LIGAND FREE ENERGY PREDICTED BY IDOCK:   -1.29 KCAL/MOL
REMARK 927      BINDING AFFINITY PREDICTED BY RF-SCORE:    0.00 PKD
ROOT
HETATM    1 CL   UNL     1     -13.249  14.766  72.720  1.00  0.00    -0.528 Cl 
HETATM    2  C   UNL     1     -12.521  14.513  71.183  1.00  0.00    -0.341 A  
HETATM    3  C   UNL     1     -12.082  15.606  70.440  1.00  0.00    -0.425 A  
HETATM    4  C   UNL     1     -11.559  15.400  69.156  1.00  0.00    -0.339 A  
HETATM    5 CL   UNL     1     -11.033  16.807  68.293  1.00  0.00    -0.362 Cl 
HETATM    6  C   UNL     1     -11.477  14.110  68.588  1.00  0.00    -0.332 A  
HETATM    7  C   UNL     1     -11.874  13.025  69.386  1.00  0.00    -0.380 A  
HETATM    8  C   UNL     1     -12.393  13.226  70.672  1.00  0.00    -0.416 A  
ENDROOT
BRANCH   6   9
HETATM    9  C   UNL     1     -11.093  13.930  67.125  1.00  0.00    -0.300 C  
BRANCH   9  10
HETATM   10  O   UNL     1      -9.788  13.351  66.900  1.00  0.00    -0.242 OA 
BRANCH  10  11
HETATM   11  N   UNL     1      -9.786  12.641  65.675  1.00  0.00    -0.419 NA 
HETATM   12  H   UNL     1      -9.900  13.091  64.767  1.00  0.00     0.000 HD 
BRANCH  11  13
HETATM   13  C   UNL     1      -9.624  11.353  65.821  1.00  0.00    -0.233 C  
BRANCH  13  14
HETATM   14  C   UNL     1      -9.617  10.743  67.206  1.00  0.00    -0.182 A  
HETATM   15 CL   UNL     1      -7.002  11.534  67.648  1.00  0.00    -0.084 Cl 
HETATM   16  C   UNL     1     -10.793  10.135  67.685  1.00  0.00    -0.346 A  
HETATM   17  C   UNL     1      -8.509  10.798  68.073  1.00  0.00    -0.124 A  
HETATM   18  C   UNL     1     -10.886   9.647  68.995  1.00  0.00    -0.206 A  
HETATM   19 CL   UNL     1      -9.917   9.182  71.465  1.00  0.00    -0.383 Cl 
HETATM   20  C   UNL     1      -9.790   9.740  69.843  1.00  0.00    -0.243 A  
HETATM   21  C   UNL     1      -8.600  10.298  69.385  1.00  0.00    -0.167 A  
ENDBRANCH  13  14
BRANCH  13  22
HETATM   22  C   UNL     1      -9.494  10.385  64.647  1.00  0.00    -0.280 C  
BRANCH  22  23
HETATM   23  N   UNL     1      -8.283   9.576  64.670  1.00  0.00    -0.136 NA 
HETATM   24  C   UNL     1      -8.222   8.243  64.974  1.00  0.00    -0.158 A  
HETATM   25  N   UNL     1      -6.146   9.017  64.568  1.00  0.00    -0.069 NA 
HETATM   26  C   UNL     1      -7.012   9.995  64.405  1.00  0.00    -0.129 A  
HETATM   27  C   UNL     1      -6.886   7.923  64.919  1.00  0.00    -0.054 A  
ENDBRANCH  22  23
ENDBRANCH  13  22
ENDBRANCH  11  13
ENDBRANCH  10  11
ENDBRANCH   9  10
ENDBRANCH   6   9
TORSDOF 7
ENDMDL
MODEL      148
REMARK 921   NORMALIZED FREE ENERGY PREDICTED BY IDOCK:   -5.00 KCAL/MOL
REMARK 922        TOTAL FREE ENERGY PREDICTED BY IDOCK:   -8.16 KCAL/MOL
REMARK 923 INTER-LIGAND FREE ENERGY PREDICTED BY IDOCK:   -7.51 KCAL/MOL
REMARK 924 INTRA-LIGAND FREE ENERGY PREDICTED BY IDOCK:   -0.66 KCAL/MOL
REMARK 927      BINDING AFFINITY PREDICTED BY RF-SCORE:    0.00 PKD
ROOT
HETATM    1 CL   UNL     1      -5.252  15.997  71.615  1.00  0.00    -0.004 Cl 
HETATM    2  C   UNL     1      -5.470  16.465  69.975  1.00  0.00    -0.185 A  
HETATM    3  C   UNL     1      -5.684  17.806  69.664  1.00  0.00    -0.234 A  
HETATM    4  C   UNL     1      -5.937  18.171  68.334  1.00  0.00    -0.180 A  
HETATM    5 CL   UNL     1      -6.193  19.856  68.025  1.00  0.00    -0.258 Cl 
HETATM    6  C   UNL     1      -5.994  17.212  67.301  1.00  0.00    -0.181 A  
HETATM    7  C   UNL     1      -5.716  15.878  67.639  1.00  0.00    -0.163 A  
HETATM    8  C   UNL     1      -5.458  15.509  68.967  1.00  0.00    -0.099 A  
ENDROOT
BRANCH   6   9
HETATM    9  C   UNL     1      -6.464  17.603  65.905  1.00  0.00    -0.188 C  
BRANCH   9  10
HETATM   10  O   UNL     1      -7.898  17.648  65.731  1.00  0.00    -0.548 OA 
BRANCH  10  11
HETATM   11  N   UNL     1      -8.440  16.351  65.899  1.00  0.00    -0.350 NA 
HETATM   12  H   UNL     1      -7.882  15.499  65.840  1.00  0.00     0.000 HD 
BRANCH  11  13
HETATM   13  C   UNL     1      -9.724  16.351  66.138  1.00  0.00    -0.327 C  
BRANCH  13  14
HETATM   14  C   UNL     1     -10.392  15.109  66.688  1.00  0.00    -0.274 A  
HETATM   15 CL   UNL     1     -11.975  14.842  64.435  1.00  0.00    -0.458 Cl 
HETATM   16  C   UNL     1      -9.975  14.612  67.938  1.00  0.00    -0.221 A  
HETATM   17  C   UNL     1     -11.376  14.382  65.990  1.00  0.00    -0.335 A  
HETATM   18  C   UNL     1     -10.475  13.410  68.454  1.00  0.00    -0.257 A  
HETATM   19 CL   UNL     1     -12.005  11.195  68.346  1.00  0.00    -0.302 Cl 
HETATM   20  C   UNL     1     -11.422  12.693  67.734  1.00  0.00    -0.322 A  
HETATM   21  C   UNL     1     -11.885  13.180  66.515  1.00  0.00    -0.456 A  
ENDBRANCH  13  14
BRANCH  13  22
HETATM   22  C   UNL     1     -10.615  17.577  65.946  1.00  0.00    -0.203 C  
BRANCH  22  23
HETATM   23  N   UNL     1     -10.290  18.694  66.821  1.00  0.00    -0.386 NA 
HETATM   24  C   UNL     1     -10.166  20.000  66.431  1.00  0.00    -0.478 A  
HETATM   25  N   UNL     1      -9.736  19.830  68.636  1.00  0.00    -0.375 NA 
HETATM   26  C   UNL     1     -10.050  18.642  68.163  1.00  0.00    -0.378 A  
HETATM   27  C   UNL     1      -9.807  20.682  67.569  1.00  0.00    -0.344 A  
ENDBRANCH  22  23
ENDBRANCH  13  22
ENDBRANCH  11  13
ENDBRANCH  10  11
ENDBRANCH   9  10
ENDBRANCH   6   9
TORSDOF 7
ENDMDL
MODEL      149
REMARK 921   NORMALIZED FREE ENERGY PREDICTED BY IDOCK:   -4.99 KCAL/MOL
REMARK 922        TOTAL FREE ENERGY PREDICTED BY IDOCK:   -8.15 KCAL/MOL
REMARK 923 INTER-LIGAND FREE ENERGY PREDICTED BY IDOCK:   -6.98 KCAL/MOL
REMARK 924 INTRA-LIGAND FREE ENERGY PREDICTED BY IDOCK:   -1.17 KCAL/MOL
REMARK 927      BINDING AFFINITY PREDICTED BY RF-SCORE:    0.00 PKD
ROOT
HETATM    1 CL   UNL     1      -9.598  11.366  62.851  1.00  0.00    -0.387 Cl 
HETATM    2  C   UNL     1     -10.239  11.239  64.441  1.00  0.00    -0.320 A  
HETATM    3  C   UNL     1     -10.965  12.299  64.979  1.00  0.00    -0.344 A  
HETATM    4  C   UNL     1     -11.419  12.221  66.303  1.00  0.00    -0.380 A  
HETATM    5 CL   UNL     1     -12.314  13.577  66.901  1.00  0.00    -0.351 Cl 
HETATM    6  C   UNL     1     -11.149  11.097  67.113  1.00  0.00    -0.352 A  
HETATM    7  C   UNL     1     -10.467  10.021  66.522  1.00  0.00    -0.223 A  
HETATM    8  C   UNL     1     -10.014  10.094  65.197  1.00  0.00    -0.379 A  
ENDROOT
BRANCH   6   9
HETATM    9  C   UNL     1     -11.479  11.115  68.600  1.00  0.00    -0.298 C  
BRANCH   9  10
HETATM   10  O   UNL     1     -10.726  10.182  69.407  1.00  0.00    -0.208 OA 
BRANCH  10  11
HETATM   11  N   UNL     1     -11.616   9.351  70.129  1.00  0.00    -0.439 NA 
HETATM   12  H   UNL     1     -12.483   9.689  70.547  1.00  0.00     0.000 HD 
BRANCH  11  13
HETATM   13  C   UNL     1     -11.218   8.109  70.210  1.00  0.00    -0.182 C  
BRANCH  13  14
HETATM   14  C   UNL     1      -9.925   7.684  69.548  1.00  0.00    -0.182 A  
HETATM   15 CL   UNL     1     -11.273   6.544  67.418  1.00  0.00    -0.396 Cl 
HETATM   16  C   UNL     1      -8.705   8.027  70.163  1.00  0.00    -0.135 A  
HETATM   17  C   UNL     1      -9.869   7.009  68.314  1.00  0.00    -0.144 A  
HETATM   18  C   UNL     1      -7.474   7.757  69.551  1.00  0.00    -0.094 A  
HETATM   19 CL   UNL     1      -5.935   6.828  67.545  1.00  0.00    -0.023 Cl 
HETATM   20  C   UNL     1      -7.443   7.119  68.318  1.00  0.00    -0.102 A  
HETATM   21  C   UNL     1      -8.631   6.730  67.706  1.00  0.00    -0.121 A  
ENDBRANCH  13  14
BRANCH  13  22
HETATM   22  C   UNL     1     -11.966   7.037  70.998  1.00  0.00    -0.361 C  
BRANCH  22  23
HETATM   23  N   UNL     1     -11.301   6.624  72.227  1.00  0.00    -0.264 NA 
HETATM   24  C   UNL     1     -11.079   5.331  72.615  1.00  0.00    -0.260 A  
HETATM   25  N   UNL     1     -10.307   6.736  74.199  1.00  0.00    -0.361 NA 
HETATM   26  C   UNL     1     -10.795   7.438  73.198  1.00  0.00    -0.386 A  
HETATM   27  C   UNL     1     -10.475   5.425  73.847  1.00  0.00    -0.280 A  
ENDBRANCH  22  23
ENDBRANCH  13  22
ENDBRANCH  11  13
ENDBRANCH  10  11
ENDBRANCH   9  10
ENDBRANCH   6   9
TORSDOF 7
ENDMDL
MODEL      150
REMARK 921   NORMALIZED FREE ENERGY PREDICTED BY IDOCK:   -4.98 KCAL/MOL
REMARK 922        TOTAL FREE ENERGY PREDICTED BY IDOCK:   -8.14 KCAL/MOL
REMARK 923 INTER-LIGAND FREE ENERGY PREDICTED BY IDOCK:   -7.32 KCAL/MOL
REMARK 924 INTRA-LIGAND FREE ENERGY PREDICTED BY IDOCK:   -0.82 KCAL/MOL
REMARK 927      BINDING AFFINITY PREDICTED BY RF-SCORE:    0.00 PKD
ROOT
HETATM    1 CL   UNL     1     -11.735   5.066  72.916  1.00  0.00    -0.282 Cl 
HETATM    2  C   UNL     1     -11.174   6.439  72.047  1.00  0.00    -0.281 A  
HETATM    3  C   UNL     1     -10.822   6.310  70.705  1.00  0.00    -0.339 A  
HETATM    4  C   UNL     1     -10.293   7.414  70.023  1.00  0.00    -0.219 A  
HETATM    5 CL   UNL     1      -9.880   7.176  68.358  1.00  0.00    -0.150 Cl 
HETATM    6  C   UNL     1     -10.094   8.655  70.665  1.00  0.00    -0.237 A  
HETATM    7  C   UNL     1     -10.514   8.769  72.000  1.00  0.00    -0.414 A  
HETATM    8  C   UNL     1     -11.048   7.668  72.685  1.00  0.00    -0.412 A  
ENDROOT
BRANCH   6   9
HETATM    9  C   UNL     1      -9.339   9.777  69.965  1.00  0.00    -0.235 C  
BRANCH   9  10
HETATM   10  O   UNL     1     -10.105  10.515  68.985  1.00  0.00    -0.197 OA 
BRANCH  10  11
HETATM   11  N   UNL     1      -9.864  11.901  69.136  1.00  0.00    -0.396 NA 
HETATM   12  H   UNL     1     -10.037  12.408  70.004  1.00  0.00     0.000 HD 
BRANCH  11  13
HETATM   13  C   UNL     1      -9.398  12.469  68.056  1.00  0.00    -0.205 C  
BRANCH  13  14
HETATM   14  C   UNL     1     -10.170  12.374  66.758  1.00  0.00    -0.234 A  
HETATM   15 CL   UNL     1      -8.233  10.768  65.607  1.00  0.00    -0.154 Cl 
HETATM   16  C   UNL     1     -11.423  13.012  66.666  1.00  0.00    -0.382 A  
HETATM   17  C   UNL     1      -9.731  11.631  65.645  1.00  0.00    -0.236 A  
HETATM   18  C   UNL     1     -12.235  12.875  65.533  1.00  0.00    -0.527 A  
HETATM   19 CL   UNL     1     -12.810  11.906  63.086  1.00  0.00    -0.446 Cl 
HETATM   20  C   UNL     1     -11.796  12.111  64.460  1.00  0.00    -0.343 A  
HETATM   21  C   UNL     1     -10.544  11.504  64.503  1.00  0.00    -0.387 A  
ENDBRANCH  13  14
BRANCH  13  22
HETATM   22  C   UNL     1      -8.114  13.295  68.027  1.00  0.00    -0.157 C  
BRANCH  22  23
HETATM   23  N   UNL     1      -8.329  14.735  67.992  1.00  0.00    -0.136 NA 
HETATM   24  C   UNL     1      -8.346  15.563  69.082  1.00  0.00    -0.253 A  
HETATM   25  N   UNL     1      -8.760  16.761  67.220  1.00  0.00    -0.196 NA 
HETATM   26  C   UNL     1      -8.556  15.504  66.889  1.00  0.00    -0.256 A  
HETATM   27  C   UNL     1      -8.631  16.810  68.580  1.00  0.00    -0.245 A  
ENDBRANCH  22  23
ENDBRANCH  13  22
ENDBRANCH  11  13
ENDBRANCH  10  11
ENDBRANCH   9  10
ENDBRANCH   6   9
TORSDOF 7
ENDMDL
MODEL      151
REMARK 921   NORMALIZED FREE ENERGY PREDICTED BY IDOCK:   -4.97 KCAL/MOL
REMARK 922        TOTAL FREE ENERGY PREDICTED BY IDOCK:   -8.12 KCAL/MOL
REMARK 923 INTER-LIGAND FREE ENERGY PREDICTED BY IDOCK:   -6.46 KCAL/MOL
REMARK 924 INTRA-LIGAND FREE ENERGY PREDICTED BY IDOCK:   -1.66 KCAL/MOL
REMARK 927      BINDING AFFINITY PREDICTED BY RF-SCORE:    0.00 PKD
ROOT
HETATM    1 CL   UNL     1     -11.990  12.375  69.066  1.00  0.00    -0.322 Cl 
HETATM    2  C   UNL     1     -11.766  10.992  70.063  1.00  0.00    -0.355 A  
HETATM    3  C   UNL     1     -12.857  10.437  70.728  1.00  0.00    -0.450 A  
HETATM    4  C   UNL     1     -12.655   9.357  71.598  1.00  0.00    -0.375 A  
HETATM    5 CL   UNL     1     -14.059   8.720  72.388  1.00  0.00    -0.499 Cl 
HETATM    6  C   UNL     1     -11.370   8.823  71.830  1.00  0.00    -0.431 A  
HETATM    7  C   UNL     1     -10.301   9.367  71.100  1.00  0.00    -0.377 A  
HETATM    8  C   UNL     1     -10.499  10.445  70.225  1.00  0.00    -0.110 A  
ENDROOT
BRANCH   6   9
HETATM    9  C   UNL     1     -11.146   7.786  72.924  1.00  0.00    -0.398 C  
BRANCH   9  10
HETATM   10  O   UNL     1     -10.248   6.709  72.573  1.00  0.00    -0.179 OA 
BRANCH  10  11
HETATM   11  N   UNL     1     -10.945   5.734  71.819  1.00  0.00    -0.264 NA 
HETATM   12  H   UNL     1     -11.886   5.416  72.048  1.00  0.00     0.000 HD 
BRANCH  11  13
HETATM   13  C   UNL     1     -10.264   5.281  70.800  1.00  0.00    -0.246 C  
BRANCH  13  14
HETATM   14  C   UNL     1      -9.999   6.177  69.609  1.00  0.00    -0.210 A  
HETATM   15 CL   UNL     1      -7.436   6.747  70.481  1.00  0.00    -0.085 Cl 
HETATM   16  C   UNL     1     -11.003   6.317  68.630  1.00  0.00    -0.423 A  
HETATM   17  C   UNL     1      -8.776   6.840  69.392  1.00  0.00    -0.136 A  
HETATM   18  C   UNL     1     -10.783   7.045  67.453  1.00  0.00    -0.383 A  
HETATM   19 CL   UNL     1      -9.271   8.520  65.781  1.00  0.00    -0.238 Cl 
HETATM   20  C   UNL     1      -9.557   7.664  67.245  1.00  0.00    -0.157 A  
HETATM   21  C   UNL     1      -8.561   7.578  68.214  1.00  0.00    -0.124 A  
ENDBRANCH  13  14
BRANCH  13  22
HETATM   22  C   UNL     1      -9.650   3.884  70.754  1.00  0.00    -0.188 C  
BRANCH  22  23
HETATM   23  N   UNL     1      -9.474   3.265  72.060  1.00  0.00    -0.124 NA 
HETATM   24  C   UNL     1     -10.285   2.305  72.602  1.00  0.00    -0.154 A  
HETATM   25  N   UNL     1      -8.656   2.827  74.068  1.00  0.00    -0.072 NA 
HETATM   26  C   UNL     1      -8.489   3.529  72.966  1.00  0.00    -0.082 A  
HETATM   27  C   UNL     1      -9.768   2.062  73.852  1.00  0.00    -0.082 A  
ENDBRANCH  22  23
ENDBRANCH  13  22
ENDBRANCH  11  13
ENDBRANCH  10  11
ENDBRANCH   9  10
ENDBRANCH   6   9
TORSDOF 7
ENDMDL
MODEL      152
REMARK 921   NORMALIZED FREE ENERGY PREDICTED BY IDOCK:   -4.97 KCAL/MOL
REMARK 922        TOTAL FREE ENERGY PREDICTED BY IDOCK:   -8.12 KCAL/MOL
REMARK 923 INTER-LIGAND FREE ENERGY PREDICTED BY IDOCK:   -7.26 KCAL/MOL
REMARK 924 INTRA-LIGAND FREE ENERGY PREDICTED BY IDOCK:   -0.86 KCAL/MOL
REMARK 927      BINDING AFFINITY PREDICTED BY RF-SCORE:    0.00 PKD
ROOT
HETATM    1 CL   UNL     1      -9.425  11.294  62.696  1.00  0.00    -0.339 Cl 
HETATM    2  C   UNL     1     -10.211  11.418  64.219  1.00  0.00    -0.315 A  
HETATM    3  C   UNL     1     -11.026  12.516  64.488  1.00  0.00    -0.359 A  
HETATM    4  C   UNL     1     -11.603  12.650  65.758  1.00  0.00    -0.387 A  
HETATM    5 CL   UNL     1     -12.604  14.040  66.016  1.00  0.00    -0.499 Cl 
HETATM    6  C   UNL     1     -11.370  11.706  66.781  1.00  0.00    -0.354 A  
HETATM    7  C   UNL     1     -10.592  10.582  66.460  1.00  0.00    -0.240 A  
HETATM    8  C   UNL     1     -10.016  10.441  65.189  1.00  0.00    -0.390 A  
ENDROOT
BRANCH   6   9
HETATM    9  C   UNL     1     -11.842  11.973  68.204  1.00  0.00    -0.286 C  
BRANCH   9  10
HETATM   10  O   UNL     1     -10.915  11.582  69.242  1.00  0.00    -0.231 OA 
BRANCH  10  11
HETATM   11  N   UNL     1     -11.369  10.395  69.865  1.00  0.00    -0.281 NA 
HETATM   12  H   UNL     1     -12.356  10.180  70.008  1.00  0.00     0.000 HD 
BRANCH  11  13
HETATM   13  C   UNL     1     -10.401   9.601  70.241  1.00  0.00    -0.280 C  
BRANCH  13  14
HETATM   14  C   UNL     1     -10.713   8.353  71.038  1.00  0.00    -0.267 A  
HETATM   15 CL   UNL     1     -11.249   6.902  68.743  1.00  0.00    -0.144 Cl 
HETATM   16  C   UNL     1     -10.583   8.394  72.440  1.00  0.00    -0.405 A  
HETATM   17  C   UNL     1     -11.074   7.126  70.449  1.00  0.00    -0.280 A  
HETATM   18  C   UNL     1     -10.753   7.247  73.226  1.00  0.00    -0.428 A  
HETATM   19 CL   UNL     1     -11.243   4.622  73.580  1.00  0.00    -0.408 Cl 
HETATM   20  C   UNL     1     -11.078   6.039  72.621  1.00  0.00    -0.275 A  
HETATM   21  C   UNL     1     -11.255   5.977  71.242  1.00  0.00    -0.323 A  
ENDBRANCH  13  14
BRANCH  13  22
HETATM   22  C   UNL     1      -8.938   9.827  69.869  1.00  0.00    -0.229 C  
BRANCH  22  23
HETATM   23  N   UNL     1      -8.318   8.708  69.174  1.00  0.00    -0.118 NA 
HETATM   24  C   UNL     1      -7.505   7.767  69.747  1.00  0.00    -0.089 A  
HETATM   25  N   UNL     1      -7.695   7.353  67.541  1.00  0.00    -0.109 NA 
HETATM   26  C   UNL     1      -8.426   8.403  67.848  1.00  0.00    -0.131 A  
HETATM   27  C   UNL     1      -7.120   6.948  68.713  1.00  0.00    -0.089 A  
ENDBRANCH  22  23
ENDBRANCH  13  22
ENDBRANCH  11  13
ENDBRANCH  10  11
ENDBRANCH   9  10
ENDBRANCH   6   9
TORSDOF 7
ENDMDL
MODEL      153
REMARK 921   NORMALIZED FREE ENERGY PREDICTED BY IDOCK:   -4.97 KCAL/MOL
REMARK 922        TOTAL FREE ENERGY PREDICTED BY IDOCK:   -8.12 KCAL/MOL
REMARK 923 INTER-LIGAND FREE ENERGY PREDICTED BY IDOCK:   -6.62 KCAL/MOL
REMARK 924 INTRA-LIGAND FREE ENERGY PREDICTED BY IDOCK:   -1.50 KCAL/MOL
REMARK 927      BINDING AFFINITY PREDICTED BY RF-SCORE:    0.00 PKD
ROOT
HETATM    1 CL   UNL     1     -14.289   6.979  72.039  1.00  0.00    -0.424 Cl 
HETATM    2  C   UNL     1     -12.641   7.067  71.556  1.00  0.00    -0.385 A  
HETATM    3  C   UNL     1     -11.693   7.592  72.431  1.00  0.00    -0.335 A  
HETATM    4  C   UNL     1     -10.366   7.732  72.003  1.00  0.00    -0.214 A  
HETATM    5 CL   UNL     1      -9.244   8.391  73.146  1.00  0.00    -0.286 Cl 
HETATM    6  C   UNL     1      -9.965   7.365  70.700  1.00  0.00    -0.186 A  
HETATM    7  C   UNL     1     -10.932   6.785  69.864  1.00  0.00    -0.340 A  
HETATM    8  C   UNL     1     -12.260   6.639  70.289  1.00  0.00    -0.049 A  
ENDROOT
BRANCH   6   9
HETATM    9  C   UNL     1      -8.570   7.707  70.193  1.00  0.00    -0.140 C  
BRANCH   9  10
HETATM   10  O   UNL     1      -8.527   8.344  68.896  1.00  0.00    -0.122 OA 
BRANCH  10  11
HETATM   11  N   UNL     1      -8.778   9.731  69.038  1.00  0.00    -0.139 NA 
HETATM   12  H   UNL     1      -8.191  10.351  69.596  1.00  0.00     0.000 HD 
BRANCH  11  13
HETATM   13  C   UNL     1      -9.833  10.138  68.384  1.00  0.00    -0.151 C  
BRANCH  13  14
HETATM   14  C   UNL     1     -10.419  11.504  68.669  1.00  0.00    -0.224 A  
HETATM   15 CL   UNL     1     -12.264  10.451  70.442  1.00  0.00    -0.382 Cl 
HETATM   16  C   UNL     1      -9.849  12.630  68.044  1.00  0.00    -0.218 A  
HETATM   17  C   UNL     1     -11.476  11.722  69.574  1.00  0.00    -0.295 A  
HETATM   18  C   UNL     1     -10.275  13.930  68.346  1.00  0.00    -0.243 A  
HETATM   19 CL   UNL     1     -11.790  15.721  69.670  1.00  0.00    -0.360 Cl 
HETATM   20  C   UNL     1     -11.297  14.124  69.266  1.00  0.00    -0.281 A  
HETATM   21  C   UNL     1     -11.909  13.028  69.868  1.00  0.00    -0.377 A  
ENDBRANCH  13  14
BRANCH  13  22
HETATM   22  C   UNL     1     -10.501   9.325  67.277  1.00  0.00    -0.264 C  
BRANCH  22  23
HETATM   23  N   UNL     1      -9.943   9.548  65.951  1.00  0.00    -0.294 NA 
HETATM   24  C   UNL     1      -8.983   8.778  65.353  1.00  0.00    -0.160 A  
HETATM   25  N   UNL     1      -9.533  10.487  63.991  1.00  0.00    -0.263 NA 
HETATM   26  C   UNL     1     -10.265  10.550  65.083  1.00  0.00    -0.288 A  
HETATM   27  C   UNL     1      -8.734   9.388  64.146  1.00  0.00    -0.198 A  
ENDBRANCH  22  23
ENDBRANCH  13  22
ENDBRANCH  11  13
ENDBRANCH  10  11
ENDBRANCH   9  10
ENDBRANCH   6   9
TORSDOF 7
ENDMDL
MODEL      154
REMARK 921   NORMALIZED FREE ENERGY PREDICTED BY IDOCK:   -4.96 KCAL/MOL
REMARK 922        TOTAL FREE ENERGY PREDICTED BY IDOCK:   -8.11 KCAL/MOL
REMARK 923 INTER-LIGAND FREE ENERGY PREDICTED BY IDOCK:   -7.08 KCAL/MOL
REMARK 924 INTRA-LIGAND FREE ENERGY PREDICTED BY IDOCK:   -1.03 KCAL/MOL
REMARK 927      BINDING AFFINITY PREDICTED BY RF-SCORE:    0.00 PKD
ROOT
HETATM    1 CL   UNL     1     -11.332  15.015  67.955  1.00  0.00    -0.330 Cl 
HETATM    2  C   UNL     1     -11.831  13.681  68.917  1.00  0.00    -0.364 A  
HETATM    3  C   UNL     1     -12.412  13.907  70.163  1.00  0.00    -0.355 A  
HETATM    4  C   UNL     1     -12.746  12.815  70.975  1.00  0.00    -0.243 A  
HETATM    5 CL   UNL     1     -13.465  13.176  72.509  1.00  0.00    -0.646 Cl 
HETATM    6  C   UNL     1     -12.497  11.487  70.569  1.00  0.00    -0.367 A  
HETATM    7  C   UNL     1     -11.965  11.291  69.285  1.00  0.00    -0.411 A  
HETATM    8  C   UNL     1     -11.633  12.380  68.467  1.00  0.00    -0.358 A  
ENDROOT
BRANCH   6   9
HETATM    9  C   UNL     1     -12.684  10.330  71.543  1.00  0.00    -0.452 C  
BRANCH   9  10
HETATM   10  O   UNL     1     -12.391   9.021  71.004  1.00  0.00    -0.280 OA 
BRANCH  10  11
HETATM   11  N   UNL     1     -12.137   8.116  72.063  1.00  0.00    -0.320 NA 
HETATM   12  H   UNL     1     -12.847   7.830  72.737  1.00  0.00     0.000 HD 
BRANCH  11  13
HETATM   13  C   UNL     1     -10.904   7.684  72.093  1.00  0.00    -0.247 C  
BRANCH  13  14
HETATM   14  C   UNL     1     -10.605   6.230  71.797  1.00  0.00    -0.266 A  
HETATM   15 CL   UNL     1     -10.581   6.688  69.068  1.00  0.00    -0.246 Cl 
HETATM   16  C   UNL     1     -10.434   5.340  72.875  1.00  0.00    -0.253 A  
HETATM   17  C   UNL     1     -10.433   5.722  70.495  1.00  0.00    -0.263 A  
HETATM   18  C   UNL     1     -10.052   4.007  72.672  1.00  0.00    -0.225 A  
HETATM   19 CL   UNL     1      -9.343   1.913  71.133  1.00  0.00    -0.180 Cl 
HETATM   20  C   UNL     1      -9.855   3.536  71.381  1.00  0.00    -0.144 A  
HETATM   21  C   UNL     1     -10.059   4.381  70.293  1.00  0.00    -0.173 A  
ENDBRANCH  13  14
BRANCH  13  22
HETATM   22  C   UNL     1      -9.703   8.587  72.360  1.00  0.00    -0.287 C  
BRANCH  22  23
HETATM   23  N   UNL     1      -8.811   8.749  71.220  1.00  0.00    -0.208 NA 
HETATM   24  C   UNL     1      -7.577   8.172  71.088  1.00  0.00    -0.082 A  
HETATM   25  N   UNL     1      -8.001   9.463  69.290  1.00  0.00    -0.088 NA 
HETATM   26  C   UNL     1      -9.037   9.497  70.101  1.00  0.00    -0.240 A  
HETATM   27  C   UNL     1      -7.088   8.641  69.892  1.00  0.00    -0.050 A  
ENDBRANCH  22  23
ENDBRANCH  13  22
ENDBRANCH  11  13
ENDBRANCH  10  11
ENDBRANCH   9  10
ENDBRANCH   6   9
TORSDOF 7
ENDMDL
MODEL      155
REMARK 921   NORMALIZED FREE ENERGY PREDICTED BY IDOCK:   -4.96 KCAL/MOL
REMARK 922        TOTAL FREE ENERGY PREDICTED BY IDOCK:   -8.11 KCAL/MOL
REMARK 923 INTER-LIGAND FREE ENERGY PREDICTED BY IDOCK:   -7.15 KCAL/MOL
REMARK 924 INTRA-LIGAND FREE ENERGY PREDICTED BY IDOCK:   -0.96 KCAL/MOL
REMARK 927      BINDING AFFINITY PREDICTED BY RF-SCORE:    0.00 PKD
ROOT
HETATM    1 CL   UNL     1     -11.925  13.053  63.336  1.00  0.00    -0.616 Cl 
HETATM    2  C   UNL     1     -11.414  12.125  64.690  1.00  0.00    -0.328 A  
HETATM    3  C   UNL     1     -10.553  11.047  64.501  1.00  0.00    -0.383 A  
HETATM    4  C   UNL     1     -10.201  10.248  65.598  1.00  0.00    -0.231 A  
HETATM    5 CL   UNL     1      -9.126   8.926  65.285  1.00  0.00    -0.231 Cl 
HETATM    6  C   UNL     1     -10.707  10.499  66.890  1.00  0.00    -0.281 A  
HETATM    7  C   UNL     1     -11.525  11.628  67.057  1.00  0.00    -0.336 A  
HETATM    8  C   UNL     1     -11.877  12.433  65.964  1.00  0.00    -0.459 A  
ENDROOT
BRANCH   6   9
HETATM    9  C   UNL     1     -10.471   9.508  68.022  1.00  0.00    -0.230 C  
BRANCH   9  10
HETATM   10  O   UNL     1      -9.359   9.821  68.891  1.00  0.00    -0.148 OA 
BRANCH  10  11
HETATM   11  N   UNL     1      -8.707   8.627  69.281  1.00  0.00    -0.131 NA 
HETATM   12  H   UNL     1      -7.967   8.189  68.732  1.00  0.00     0.000 HD 
BRANCH  11  13
HETATM   13  C   UNL     1      -9.144   8.140  70.411  1.00  0.00    -0.150 C  
BRANCH  13  14
HETATM   14  C   UNL     1      -9.135   6.645  70.645  1.00  0.00    -0.155 A  
HETATM   15 CL   UNL     1     -11.259   6.262  68.914  1.00  0.00    -0.440 Cl 
HETATM   16  C   UNL     1      -8.157   6.098  71.499  1.00  0.00    -0.114 A  
HETATM   17  C   UNL     1     -10.022   5.754  70.010  1.00  0.00    -0.191 A  
HETATM   18  C   UNL     1      -8.028   4.714  71.675  1.00  0.00    -0.101 A  
HETATM   19 CL   UNL     1      -8.707   2.152  71.193  1.00  0.00    -0.098 Cl 
HETATM   20  C   UNL     1      -8.893   3.853  71.013  1.00  0.00    -0.084 A  
HETATM   21  C   UNL     1      -9.897   4.365  70.196  1.00  0.00    -0.288 A  
ENDBRANCH  13  14
BRANCH  13  22
HETATM   22  C   UNL     1      -9.626   9.010  71.570  1.00  0.00    -0.270 C  
BRANCH  22  23
HETATM   23  N   UNL     1     -11.075   9.102  71.687  1.00  0.00    -0.356 NA 
HETATM   24  C   UNL     1     -11.841  10.155  71.266  1.00  0.00    -0.360 A  
HETATM   25  N   UNL     1     -13.160   8.600  72.224  1.00  0.00    -0.373 NA 
HETATM   26  C   UNL     1     -11.914   8.176  72.233  1.00  0.00    -0.377 A  
HETATM   27  C   UNL     1     -13.127   9.828  71.623  1.00  0.00    -0.419 A  
ENDBRANCH  22  23
ENDBRANCH  13  22
ENDBRANCH  11  13
ENDBRANCH  10  11
ENDBRANCH   9  10
ENDBRANCH   6   9
TORSDOF 7
ENDMDL
MODEL      156
REMARK 921   NORMALIZED FREE ENERGY PREDICTED BY IDOCK:   -4.95 KCAL/MOL
REMARK 922        TOTAL FREE ENERGY PREDICTED BY IDOCK:   -8.10 KCAL/MOL
REMARK 923 INTER-LIGAND FREE ENERGY PREDICTED BY IDOCK:   -5.47 KCAL/MOL
REMARK 924 INTRA-LIGAND FREE ENERGY PREDICTED BY IDOCK:   -2.64 KCAL/MOL
REMARK 927      BINDING AFFINITY PREDICTED BY RF-SCORE:    0.00 PKD
ROOT
HETATM    1 CL   UNL     1      -8.007   8.025  63.666  1.00  0.00    -0.146 Cl 
HETATM    2  C   UNL     1      -8.333   9.252  64.825  1.00  0.00    -0.162 A  
HETATM    3  C   UNL     1      -7.401   9.522  65.824  1.00  0.00    -0.097 A  
HETATM    4  C   UNL     1      -7.706  10.470  66.811  1.00  0.00    -0.118 A  
HETATM    5 CL   UNL     1      -6.498  10.752  68.020  1.00  0.00    -0.061 Cl 
HETATM    6  C   UNL     1      -8.941  11.152  66.827  1.00  0.00    -0.169 A  
HETATM    7  C   UNL     1      -9.834  10.900  65.773  1.00  0.00    -0.286 A  
HETATM    8  C   UNL     1      -9.532   9.956  64.781  1.00  0.00    -0.356 A  
ENDROOT
BRANCH   6   9
HETATM    9  C   UNL     1      -9.329  12.027  68.012  1.00  0.00    -0.196 C  
BRANCH   9  10
HETATM   10  O   UNL     1     -10.418  11.521  68.817  1.00  0.00    -0.201 OA 
BRANCH  10  11
HETATM   11  N   UNL     1      -9.918  10.609  69.778  1.00  0.00    -0.440 NA 
HETATM   12  H   UNL     1      -9.184  10.846  70.445  1.00  0.00     0.000 HD 
BRANCH  11  13
HETATM   13  C   UNL     1     -10.488   9.435  69.726  1.00  0.00    -0.226 C  
BRANCH  13  14
HETATM   14  C   UNL     1      -9.960   8.379  68.779  1.00  0.00    -0.197 A  
HETATM   15 CL   UNL     1      -7.603   8.134  70.208  1.00  0.00    -0.078 Cl 
HETATM   16  C   UNL     1     -10.777   7.955  67.713  1.00  0.00    -0.189 A  
HETATM   17  C   UNL     1      -8.710   7.749  68.936  1.00  0.00    -0.135 A  
HETATM   18  C   UNL     1     -10.393   6.908  66.865  1.00  0.00    -0.332 A  
HETATM   19 CL   UNL     1      -8.715   4.966  66.046  1.00  0.00    -0.121 Cl 
HETATM   20  C   UNL     1      -9.169   6.280  67.058  1.00  0.00    -0.124 A  
HETATM   21  C   UNL     1      -8.321   6.705  68.077  1.00  0.00    -0.117 A  
ENDBRANCH  13  14
BRANCH  13  22
HETATM   22  C   UNL     1     -11.651   9.026  70.626  1.00  0.00    -0.224 C  
BRANCH  22  23
HETATM   23  N   UNL     1     -11.346   7.932  71.538  1.00  0.00    -0.251 NA 
HETATM   24  C   UNL     1     -10.469   7.992  72.587  1.00  0.00    -0.339 A  
HETATM   25  N   UNL     1     -11.334   5.916  72.448  1.00  0.00    -0.295 NA 
HETATM   26  C   UNL     1     -11.865   6.670  71.509  1.00  0.00    -0.337 A  
HETATM   27  C   UNL     1     -10.466   6.727  73.125  1.00  0.00    -0.270 A  
ENDBRANCH  22  23
ENDBRANCH  13  22
ENDBRANCH  11  13
ENDBRANCH  10  11
ENDBRANCH   9  10
ENDBRANCH   6   9
TORSDOF 7
ENDMDL
MODEL      157
REMARK 921   NORMALIZED FREE ENERGY PREDICTED BY IDOCK:   -4.92 KCAL/MOL
REMARK 922        TOTAL FREE ENERGY PREDICTED BY IDOCK:   -8.05 KCAL/MOL
REMARK 923 INTER-LIGAND FREE ENERGY PREDICTED BY IDOCK:   -7.22 KCAL/MOL
REMARK 924 INTRA-LIGAND FREE ENERGY PREDICTED BY IDOCK:   -0.83 KCAL/MOL
REMARK 927      BINDING AFFINITY PREDICTED BY RF-SCORE:    0.00 PKD
ROOT
HETATM    1 CL   UNL     1      -7.162   6.666  68.834  1.00  0.00    -0.089 Cl 
HETATM    2  C   UNL     1      -7.687   8.133  68.107  1.00  0.00    -0.110 A  
HETATM    3  C   UNL     1      -6.770   8.936  67.434  1.00  0.00    -0.066 A  
HETATM    4  C   UNL     1      -7.188  10.167  66.910  1.00  0.00    -0.092 A  
HETATM    5 CL   UNL     1      -5.991  11.110  66.086  1.00  0.00    -0.133 Cl 
HETATM    6  C   UNL     1      -8.515  10.623  67.057  1.00  0.00    -0.129 A  
HETATM    7  C   UNL     1      -9.428   9.763  67.689  1.00  0.00    -0.164 A  
HETATM    8  C   UNL     1      -9.016   8.529  68.211  1.00  0.00    -0.139 A  
ENDROOT
BRANCH   6   9
HETATM    9  C   UNL     1      -8.898  12.042  66.657  1.00  0.00    -0.191 C  
BRANCH   9  10
HETATM   10  O   UNL     1      -9.462  12.847  67.716  1.00  0.00    -0.188 OA 
BRANCH  10  11
HETATM   11  N   UNL     1     -10.175  13.936  67.159  1.00  0.00    -0.256 NA 
HETATM   12  H   UNL     1      -9.798  14.534  66.424  1.00  0.00     0.000 HD 
BRANCH  11  13
HETATM   13  C   UNL     1     -11.362  14.101  67.678  1.00  0.00    -0.319 C  
BRANCH  13  14
HETATM   14  C   UNL     1     -11.504  14.537  69.120  1.00  0.00    -0.324 A  
HETATM   15 CL   UNL     1     -10.409  17.020  68.579  1.00  0.00    -0.336 Cl 
HETATM   16  C   UNL     1     -12.097  13.652  70.042  1.00  0.00    -0.417 A  
HETATM   17  C   UNL     1     -11.123  15.810  69.587  1.00  0.00    -0.307 A  
HETATM   18  C   UNL     1     -12.353  14.034  71.365  1.00  0.00    -0.410 A  
HETATM   19 CL   UNL     1     -12.353  15.791  73.407  1.00  0.00    -0.575 Cl 
HETATM   20  C   UNL     1     -11.999  15.306  71.795  1.00  0.00    -0.385 A  
HETATM   21  C   UNL     1     -11.372  16.188  70.919  1.00  0.00    -0.394 A  
ENDBRANCH  13  14
BRANCH  13  22
HETATM   22  C   UNL     1     -12.657  13.931  66.886  1.00  0.00     0.011 C  
BRANCH  22  23
HETATM   23  N   UNL     1     -12.459  13.664  65.468  1.00  0.00    -0.482 NA 
HETATM   24  C   UNL     1     -12.358  12.423  64.898  1.00  0.00    -0.402 A  
HETATM   25  N   UNL     1     -12.115  14.002  63.309  1.00  0.00    -0.348 NA 
HETATM   26  C   UNL     1     -12.335  14.585  64.469  1.00  0.00    -0.414 A  
HETATM   27  C   UNL     1     -12.129  12.659  63.563  1.00  0.00    -0.561 A  
ENDBRANCH  22  23
ENDBRANCH  13  22
ENDBRANCH  11  13
ENDBRANCH  10  11
ENDBRANCH   9  10
ENDBRANCH   6   9
TORSDOF 7
ENDMDL
MODEL      158
REMARK 921   NORMALIZED FREE ENERGY PREDICTED BY IDOCK:   -4.91 KCAL/MOL
REMARK 922        TOTAL FREE ENERGY PREDICTED BY IDOCK:   -8.04 KCAL/MOL
REMARK 923 INTER-LIGAND FREE ENERGY PREDICTED BY IDOCK:   -6.77 KCAL/MOL
REMARK 924 INTRA-LIGAND FREE ENERGY PREDICTED BY IDOCK:   -1.27 KCAL/MOL
REMARK 927      BINDING AFFINITY PREDICTED BY RF-SCORE:    0.00 PKD
ROOT
HETATM    1 CL   UNL     1      -9.065  10.991  64.101  1.00  0.00    -0.154 Cl 
HETATM    2  C   UNL     1      -9.374   9.673  65.161  1.00  0.00    -0.259 A  
HETATM    3  C   UNL     1      -8.728   8.457  64.956  1.00  0.00    -0.092 A  
HETATM    4  C   UNL     1      -9.041   7.364  65.776  1.00  0.00     0.041 A  
HETATM    5 CL   UNL     1      -8.196   5.885  65.460  1.00  0.00    -0.131 Cl 
HETATM    6  C   UNL     1     -10.006   7.460  66.801  1.00  0.00    -0.300 A  
HETATM    7  C   UNL     1     -10.596   8.716  67.020  1.00  0.00    -0.293 A  
HETATM    8  C   UNL     1     -10.283   9.812  66.204  1.00  0.00    -0.278 A  
ENDROOT
BRANCH   6   9
HETATM    9  C   UNL     1     -10.472   6.216  67.546  1.00  0.00    -0.240 C  
BRANCH   9  10
HETATM   10  O   UNL     1     -10.304   6.262  68.981  1.00  0.00    -0.172 OA 
BRANCH  10  11
HETATM   11  N   UNL     1     -11.571   6.225  69.612  1.00  0.00    -0.526 NA 
HETATM   12  H   UNL     1     -12.423   5.924  69.138  1.00  0.00     0.000 HD 
BRANCH  11  13
HETATM   13  C   UNL     1     -11.543   6.613  70.859  1.00  0.00    -0.361 C  
BRANCH  13  14
HETATM   14  C   UNL     1     -11.975   8.017  71.224  1.00  0.00    -0.321 A  
HETATM   15 CL   UNL     1      -9.595   9.092  70.309  1.00  0.00    -0.226 Cl 
HETATM   16  C   UNL     1     -13.259   8.212  71.769  1.00  0.00    -0.365 A  
HETATM   17  C   UNL     1     -11.180   9.158  70.996  1.00  0.00    -0.312 A  
HETATM   18  C   UNL     1     -13.759   9.494  72.029  1.00  0.00    -0.435 A  
HETATM   19 CL   UNL     1     -13.599  12.183  72.044  1.00  0.00    -0.397 Cl 
HETATM   20  C   UNL     1     -12.970  10.607  71.767  1.00  0.00    -0.472 A  
HETATM   21  C   UNL     1     -11.681  10.444  71.268  1.00  0.00    -0.320 A  
ENDBRANCH  13  14
BRANCH  13  22
HETATM   22  C   UNL     1     -11.145   5.698  72.015  1.00  0.00    -0.230 C  
BRANCH  22  23
HETATM   23  N   UNL     1     -10.084   6.229  72.860  1.00  0.00    -0.178 NA 
HETATM   24  C   UNL     1     -10.237   6.665  74.148  1.00  0.00    -0.363 A  
HETATM   25  N   UNL     1      -8.095   6.946  73.507  1.00  0.00    -0.100 NA 
HETATM   26  C   UNL     1      -8.772   6.391  72.524  1.00  0.00    -0.123 A  
HETATM   27  C   UNL     1      -8.995   7.119  74.522  1.00  0.00    -0.166 A  
ENDBRANCH  22  23
ENDBRANCH  13  22
ENDBRANCH  11  13
ENDBRANCH  10  11
ENDBRANCH   9  10
ENDBRANCH   6   9
TORSDOF 7
ENDMDL
MODEL      159
REMARK 921   NORMALIZED FREE ENERGY PREDICTED BY IDOCK:   -4.91 KCAL/MOL
REMARK 922        TOTAL FREE ENERGY PREDICTED BY IDOCK:   -8.04 KCAL/MOL
REMARK 923 INTER-LIGAND FREE ENERGY PREDICTED BY IDOCK:   -6.86 KCAL/MOL
REMARK 924 INTRA-LIGAND FREE ENERGY PREDICTED BY IDOCK:   -1.17 KCAL/MOL
REMARK 927      BINDING AFFINITY PREDICTED BY RF-SCORE:    0.00 PKD
ROOT
HETATM    1 CL   UNL     1      -8.892  20.452  67.124  1.00  0.00    -0.443 Cl 
HETATM    2  C   UNL     1      -8.885  18.897  67.856  1.00  0.00    -0.298 A  
HETATM    3  C   UNL     1      -7.675  18.312  68.223  1.00  0.00    -0.303 A  
HETATM    4  C   UNL     1      -7.670  17.013  68.749  1.00  0.00    -0.249 A  
HETATM    5 CL   UNL     1      -6.128  16.354  69.182  1.00  0.00    -0.152 Cl 
HETATM    6  C   UNL     1      -8.862  16.273  68.906  1.00  0.00    -0.253 A  
HETATM    7  C   UNL     1     -10.069  16.913  68.582  1.00  0.00    -0.291 A  
HETATM    8  C   UNL     1     -10.079  18.214  68.060  1.00  0.00    -0.376 A  
ENDROOT
BRANCH   6   9
HETATM    9  C   UNL     1      -8.815  14.800  69.292  1.00  0.00    -0.029 C  
BRANCH   9  10
HETATM   10  O   UNL     1      -8.561  13.888  68.199  1.00  0.00    -0.164 OA 
BRANCH  10  11
HETATM   11  N   UNL     1      -8.603  12.554  68.672  1.00  0.00    -0.362 NA 
HETATM   12  H   UNL     1      -7.821  12.105  69.149  1.00  0.00     0.000 HD 
BRANCH  11  13
HETATM   13  C   UNL     1      -9.740  11.955  68.439  1.00  0.00    -0.201 C  
BRANCH  13  14
HETATM   14  C   UNL     1     -10.481  12.216  67.146  1.00  0.00    -0.241 A  
HETATM   15 CL   UNL     1     -12.191  14.013  68.372  1.00  0.00    -0.309 Cl 
HETATM   16  C   UNL     1     -10.046  11.569  65.972  1.00  0.00    -0.270 A  
HETATM   17  C   UNL     1     -11.556  13.119  67.035  1.00  0.00    -0.359 A  
HETATM   18  C   UNL     1     -10.619  11.847  64.725  1.00  0.00    -0.346 A  
HETATM   19 CL   UNL     1     -12.333  13.141  63.098  1.00  0.00    -0.426 Cl 
HETATM   20  C   UNL     1     -11.657  12.766  64.634  1.00  0.00    -0.338 A  
HETATM   21  C   UNL     1     -12.138  13.389  65.782  1.00  0.00    -0.481 A  
ENDBRANCH  13  14
BRANCH  13  22
HETATM   22  C   UNL     1     -10.363  10.936  69.390  1.00  0.00    -0.145 C  
BRANCH  22  23
HETATM   23  N   UNL     1      -9.798   9.597  69.285  1.00  0.00    -0.179 NA 
HETATM   24  C   UNL     1     -10.112   8.674  68.325  1.00  0.00    -0.192 A  
HETATM   25  N   UNL     1      -8.620   7.787  69.762  1.00  0.00    -0.133 NA 
HETATM   26  C   UNL     1      -8.874   9.030  70.114  1.00  0.00    -0.182 A  
HETATM   27  C   UNL     1      -9.382   7.556  68.650  1.00  0.00    -0.143 A  
ENDBRANCH  22  23
ENDBRANCH  13  22
ENDBRANCH  11  13
ENDBRANCH  10  11
ENDBRANCH   9  10
ENDBRANCH   6   9
TORSDOF 7
ENDMDL
MODEL      160
REMARK 921   NORMALIZED FREE ENERGY PREDICTED BY IDOCK:   -4.91 KCAL/MOL
REMARK 922        TOTAL FREE ENERGY PREDICTED BY IDOCK:   -8.03 KCAL/MOL
REMARK 923 INTER-LIGAND FREE ENERGY PREDICTED BY IDOCK:   -7.06 KCAL/MOL
REMARK 924 INTRA-LIGAND FREE ENERGY PREDICTED BY IDOCK:   -0.98 KCAL/MOL
REMARK 927      BINDING AFFINITY PREDICTED BY RF-SCORE:    0.00 PKD
ROOT
HETATM    1 CL   UNL     1     -10.642   4.859  66.288  1.00  0.00    -0.347 Cl 
HETATM    2  C   UNL     1     -10.289   6.312  67.135  1.00  0.00    -0.229 A  
HETATM    3  C   UNL     1      -9.377   7.219  66.600  1.00  0.00    -0.215 A  
HETATM    4  C   UNL     1      -9.036   8.365  67.332  1.00  0.00    -0.134 A  
HETATM    5 CL   UNL     1      -7.896   9.445  66.602  1.00  0.00    -0.104 Cl 
HETATM    6  C   UNL     1      -9.584   8.619  68.608  1.00  0.00    -0.159 A  
HETATM    7  C   UNL     1     -10.544   7.716  69.092  1.00  0.00    -0.195 A  
HETATM    8  C   UNL     1     -10.891   6.571  68.362  1.00  0.00    -0.357 A  
ENDROOT
BRANCH   6   9
HETATM    9  C   UNL     1      -9.053   9.760  69.466  1.00  0.00    -0.216 C  
BRANCH   9  10
HETATM   10  O   UNL     1      -9.230  11.082  68.908  1.00  0.00    -0.179 OA 
BRANCH  10  11
HETATM   11  N   UNL     1     -10.433  11.648  69.395  1.00  0.00    -0.436 NA 
HETATM   12  H   UNL     1     -10.764  11.521  70.352  1.00  0.00     0.000 HD 
BRANCH  11  13
HETATM   13  C   UNL     1     -11.078  12.348  68.501  1.00  0.00    -0.258 C  
BRANCH  13  14
HETATM   14  C   UNL     1     -10.857  13.842  68.406  1.00  0.00    -0.269 A  
HETATM   15 CL   UNL     1      -8.408  13.502  67.165  1.00  0.00    -0.181 Cl 
HETATM   16  C   UNL     1     -11.863  14.708  68.879  1.00  0.00    -0.344 A  
HETATM   17  C   UNL     1      -9.718  14.424  67.817  1.00  0.00    -0.221 A  
HETATM   18  C   UNL     1     -11.768  16.097  68.725  1.00  0.00    -0.231 A  
HETATM   19 CL   UNL     1     -10.552  18.348  67.883  1.00  0.00    -0.406 Cl 
HETATM   20  C   UNL     1     -10.650  16.646  68.112  1.00  0.00    -0.336 A  
HETATM   21  C   UNL     1      -9.620  15.820  67.673  1.00  0.00    -0.220 A  
ENDBRANCH  13  14
BRANCH  13  22
HETATM   22  C   UNL     1     -12.027  11.732  67.475  1.00  0.00    -0.002 C  
BRANCH  22  23
HETATM   23  N   UNL     1     -11.737  12.099  66.096  1.00  0.00    -0.522 NA 
HETATM   24  C   UNL     1     -12.424  13.026  65.359  1.00  0.00    -0.476 A  
HETATM   25  N   UNL     1     -10.804  12.109  64.091  1.00  0.00    -0.327 NA 
HETATM   26  C   UNL     1     -10.752  11.591  65.301  1.00  0.00    -0.279 A  
HETATM   27  C   UNL     1     -11.837  13.003  64.116  1.00  0.00    -0.416 A  
ENDBRANCH  22  23
ENDBRANCH  13  22
ENDBRANCH  11  13
ENDBRANCH  10  11
ENDBRANCH   9  10
ENDBRANCH   6   9
TORSDOF 7
ENDMDL
MODEL      161
REMARK 921   NORMALIZED FREE ENERGY PREDICTED BY IDOCK:   -4.90 KCAL/MOL
REMARK 922        TOTAL FREE ENERGY PREDICTED BY IDOCK:   -8.03 KCAL/MOL
REMARK 923 INTER-LIGAND FREE ENERGY PREDICTED BY IDOCK:   -6.62 KCAL/MOL
REMARK 924 INTRA-LIGAND FREE ENERGY PREDICTED BY IDOCK:   -1.41 KCAL/MOL
REMARK 927      BINDING AFFINITY PREDICTED BY RF-SCORE:    0.00 PKD
ROOT
HETATM    1 CL   UNL     1     -12.425  12.652  63.119  1.00  0.00    -0.390 Cl 
HETATM    2  C   UNL     1     -11.712  12.207  64.619  1.00  0.00    -0.332 A  
HETATM    3  C   UNL     1     -12.092  12.866  65.786  1.00  0.00    -0.513 A  
HETATM    4  C   UNL     1     -11.452  12.552  66.992  1.00  0.00    -0.356 A  
HETATM    5 CL   UNL     1     -11.979  13.413  68.400  1.00  0.00    -0.388 Cl 
HETATM    6  C   UNL     1     -10.421  11.591  67.056  1.00  0.00    -0.263 A  
HETATM    7  C   UNL     1     -10.103  10.903  65.874  1.00  0.00    -0.307 A  
HETATM    8  C   UNL     1     -10.743  11.211  64.665  1.00  0.00    -0.350 A  
ENDROOT
BRANCH   6   9
HETATM    9  C   UNL     1      -9.608  11.408  68.331  1.00  0.00    -0.197 C  
BRANCH   9  10
HETATM   10  O   UNL     1     -10.188  10.510  69.304  1.00  0.00    -0.208 OA 
BRANCH  10  11
HETATM   11  N   UNL     1      -9.157   9.861  70.027  1.00  0.00    -0.338 NA 
HETATM   12  H   UNL     1      -8.526  10.349  70.661  1.00  0.00     0.000 HD 
BRANCH  11  13
HETATM   13  C   UNL     1      -9.095   8.575  69.802  1.00  0.00    -0.153 C  
BRANCH  13  14
HETATM   14  C   UNL     1      -8.502   8.062  68.507  1.00  0.00    -0.128 A  
HETATM   15 CL   UNL     1     -11.006   7.568  67.440  1.00  0.00    -0.251 Cl 
HETATM   16  C   UNL     1      -7.102   8.076  68.351  1.00  0.00    -0.084 A  
HETATM   17  C   UNL     1      -9.278   7.619  67.419  1.00  0.00    -0.132 A  
HETATM   18  C   UNL     1      -6.495   7.714  67.141  1.00  0.00    -0.055 A  
HETATM   19 CL   UNL     1      -6.542   6.911  64.570  1.00  0.00    -0.042 Cl 
HETATM   20  C   UNL     1      -7.282   7.312  66.070  1.00  0.00    -0.074 A  
HETATM   21  C   UNL     1      -8.666   7.247  66.208  1.00  0.00    -0.162 A  
ENDBRANCH  13  14
BRANCH  13  22
HETATM   22  C   UNL     1      -9.543   7.523  70.813  1.00  0.00    -0.166 C  
BRANCH  22  23
HETATM   23  N   UNL     1     -10.927   7.659  71.245  1.00  0.00    -0.236 NA 
HETATM   24  C   UNL     1     -11.960   6.841  70.874  1.00  0.00    -0.383 A  
HETATM   25  N   UNL     1     -12.738   8.474  72.217  1.00  0.00    -0.369 NA 
HETATM   26  C   UNL     1     -11.437   8.613  72.076  1.00  0.00    -0.367 A  
HETATM   27  C   UNL     1     -13.074   7.375  71.476  1.00  0.00    -0.374 A  
ENDBRANCH  22  23
ENDBRANCH  13  22
ENDBRANCH  11  13
ENDBRANCH  10  11
ENDBRANCH   9  10
ENDBRANCH   6   9
TORSDOF 7
ENDMDL
MODEL      162
REMARK 921   NORMALIZED FREE ENERGY PREDICTED BY IDOCK:   -4.88 KCAL/MOL
REMARK 922        TOTAL FREE ENERGY PREDICTED BY IDOCK:   -8.00 KCAL/MOL
REMARK 923 INTER-LIGAND FREE ENERGY PREDICTED BY IDOCK:   -6.97 KCAL/MOL
REMARK 924 INTRA-LIGAND FREE ENERGY PREDICTED BY IDOCK:   -1.03 KCAL/MOL
REMARK 927      BINDING AFFINITY PREDICTED BY RF-SCORE:    0.00 PKD
ROOT
HETATM    1 CL   UNL     1     -10.507   4.096  74.349  1.00  0.00    -0.281 Cl 
HETATM    2  C   UNL     1     -10.589   4.805  72.784  1.00  0.00    -0.211 A  
HETATM    3  C   UNL     1     -11.381   5.932  72.578  1.00  0.00    -0.352 A  
HETATM    4  C   UNL     1     -11.505   6.459  71.285  1.00  0.00    -0.314 A  
HETATM    5 CL   UNL     1     -12.506   7.861  71.108  1.00  0.00    -0.267 Cl 
HETATM    6  C   UNL     1     -10.856   5.869  70.180  1.00  0.00    -0.402 A  
HETATM    7  C   UNL     1     -10.018   4.770  70.431  1.00  0.00    -0.315 A  
HETATM    8  C   UNL     1      -9.888   4.242  71.723  1.00  0.00    -0.250 A  
ENDROOT
BRANCH   6   9
HETATM    9  C   UNL     1     -11.160   6.335  68.762  1.00  0.00    -0.346 C  
BRANCH   9  10
HETATM   10  O   UNL     1     -10.258   7.337  68.239  1.00  0.00    -0.168 OA 
BRANCH  10  11
HETATM   11  N   UNL     1     -10.995   8.474  67.828  1.00  0.00    -0.486 NA 
HETATM   12  H   UNL     1     -11.988   8.443  67.597  1.00  0.00     0.000 HD 
BRANCH  11  13
HETATM   13  C   UNL     1     -10.279   9.565  67.771  1.00  0.00    -0.216 C  
BRANCH  13  14
HETATM   14  C   UNL     1     -10.821  10.789  67.066  1.00  0.00    -0.311 A  
HETATM   15 CL   UNL     1     -11.741  11.871  69.441  1.00  0.00    -0.374 Cl 
HETATM   16  C   UNL     1     -10.633  10.910  65.675  1.00  0.00    -0.233 A  
HETATM   17  C   UNL     1     -11.459  11.852  67.735  1.00  0.00    -0.319 A  
HETATM   18  C   UNL     1     -11.016  12.065  64.981  1.00  0.00    -0.355 A  
HETATM   19 CL   UNL     1     -12.045  14.549  64.823  1.00  0.00    -0.443 Cl 
HETATM   20  C   UNL     1     -11.615  13.114  65.666  1.00  0.00    -0.338 A  
HETATM   21  C   UNL     1     -11.853  13.006  67.033  1.00  0.00    -0.437 A  
ENDBRANCH  13  14
BRANCH  13  22
HETATM   22  C   UNL     1      -8.913   9.709  68.438  1.00  0.00    -0.123 C  
BRANCH  22  23
HETATM   23  N   UNL     1      -7.797   9.789  67.505  1.00  0.00    -0.095 NA 
HETATM   24  C   UNL     1      -7.312   8.752  66.754  1.00  0.00    -0.082 A  
HETATM   25  N   UNL     1      -6.082  10.600  66.368  1.00  0.00    -0.088 NA 
HETATM   26  C   UNL     1      -7.044  10.890  67.219  1.00  0.00    -0.097 A  
HETATM   27  C   UNL     1      -6.240   9.275  66.071  1.00  0.00    -0.067 A  
ENDBRANCH  22  23
ENDBRANCH  13  22
ENDBRANCH  11  13
ENDBRANCH  10  11
ENDBRANCH   9  10
ENDBRANCH   6   9
TORSDOF 7
ENDMDL
MODEL      163
REMARK 921   NORMALIZED FREE ENERGY PREDICTED BY IDOCK:   -4.88 KCAL/MOL
REMARK 922        TOTAL FREE ENERGY PREDICTED BY IDOCK:   -8.00 KCAL/MOL
REMARK 923 INTER-LIGAND FREE ENERGY PREDICTED BY IDOCK:   -6.83 KCAL/MOL
REMARK 924 INTRA-LIGAND FREE ENERGY PREDICTED BY IDOCK:   -1.17 KCAL/MOL
REMARK 927      BINDING AFFINITY PREDICTED BY RF-SCORE:    0.00 PKD
ROOT
HETATM    1 CL   UNL     1     -10.774   9.292  67.977  1.00  0.00    -0.264 Cl 
HETATM    2  C   UNL     1     -11.110  10.671  67.006  1.00  0.00    -0.145 A  
HETATM    3  C   UNL     1     -10.614  10.737  65.706  1.00  0.00    -0.204 A  
HETATM    4  C   UNL     1     -10.826  11.896  64.947  1.00  0.00    -0.305 A  
HETATM    5 CL   UNL     1     -10.179  11.904  63.340  1.00  0.00    -0.467 Cl 
HETATM    6  C   UNL     1     -11.522  13.007  65.470  1.00  0.00    -0.352 A  
HETATM    7  C   UNL     1     -12.060  12.885  66.761  1.00  0.00    -0.335 A  
HETATM    8  C   UNL     1     -11.854  11.726  67.523  1.00  0.00    -0.227 A  
ENDROOT
BRANCH   6   9
HETATM    9  C   UNL     1     -11.569  14.323  64.704  1.00  0.00    -0.408 C  
BRANCH   9  10
HETATM   10  O   UNL     1     -10.340  15.083  64.713  1.00  0.00    -0.349 OA 
BRANCH  10  11
HETATM   11  N   UNL     1     -10.568  16.352  65.299  1.00  0.00    -0.609 NA 
HETATM   12  H   UNL     1     -11.327  16.971  65.013  1.00  0.00     0.000 HD 
BRANCH  11  13
HETATM   13  C   UNL     1      -9.713  16.653  66.239  1.00  0.00    -0.304 C  
BRANCH  13  14
HETATM   14  C   UNL     1     -10.078  16.437  67.692  1.00  0.00    -0.263 A  
HETATM   15 CL   UNL     1     -10.522  19.140  68.084  1.00  0.00    -0.456 Cl 
HETATM   16  C   UNL     1     -10.094  15.123  68.199  1.00  0.00    -0.222 A  
HETATM   17  C   UNL     1     -10.461  17.478  68.559  1.00  0.00    -0.361 A  
HETATM   18  C   UNL     1     -10.526  14.845  69.503  1.00  0.00    -0.213 A  
HETATM   19 CL   UNL     1     -11.501  15.541  71.915  1.00  0.00    -0.499 Cl 
HETATM   20  C   UNL     1     -10.930  15.885  70.330  1.00  0.00    -0.350 A  
HETATM   21  C   UNL     1     -10.884  17.198  69.871  1.00  0.00     0.310 A  
ENDBRANCH  13  14
BRANCH  13  22
HETATM   22  C   UNL     1      -8.304  17.170  65.959  1.00  0.00    -0.134 C  
BRANCH  22  23
HETATM   23  N   UNL     1      -7.327  16.833  66.986  1.00  0.00    -0.181 NA 
HETATM   24  C   UNL     1      -6.764  15.600  67.174  1.00  0.00    -0.045 A  
HETATM   25  N   UNL     1      -5.991  17.026  68.737  1.00  0.00    -0.148 NA 
HETATM   26  C   UNL     1      -6.812  17.668  67.933  1.00  0.00    -0.190 A  
HETATM   27  C   UNL     1      -5.952  15.740  68.274  1.00  0.00    -0.111 A  
ENDBRANCH  22  23
ENDBRANCH  13  22
ENDBRANCH  11  13
ENDBRANCH  10  11
ENDBRANCH   9  10
ENDBRANCH   6   9
TORSDOF 7
ENDMDL
MODEL      164
REMARK 921   NORMALIZED FREE ENERGY PREDICTED BY IDOCK:   -4.87 KCAL/MOL
REMARK 922        TOTAL FREE ENERGY PREDICTED BY IDOCK:   -7.98 KCAL/MOL
REMARK 923 INTER-LIGAND FREE ENERGY PREDICTED BY IDOCK:   -7.70 KCAL/MOL
REMARK 924 INTRA-LIGAND FREE ENERGY PREDICTED BY IDOCK:   -0.28 KCAL/MOL
REMARK 927      BINDING AFFINITY PREDICTED BY RF-SCORE:    0.00 PKD
ROOT
HETATM    1 CL   UNL     1     -11.593   4.986  73.133  1.00  0.00    -0.373 Cl 
HETATM    2  C   UNL     1     -11.406   6.336  72.085  1.00  0.00    -0.297 A  
HETATM    3  C   UNL     1     -10.909   6.147  70.798  1.00  0.00    -0.350 A  
HETATM    4  C   UNL     1     -10.687   7.261  69.976  1.00  0.00    -0.245 A  
HETATM    5 CL   UNL     1     -10.067   6.946  68.389  1.00  0.00    -0.164 Cl 
HETATM    6  C   UNL     1     -10.942   8.574  70.423  1.00  0.00    -0.254 A  
HETATM    7  C   UNL     1     -11.498   8.726  71.704  1.00  0.00    -0.386 A  
HETATM    8  C   UNL     1     -11.726   7.615  72.528  1.00  0.00    -0.352 A  
ENDROOT
BRANCH   6   9
HETATM    9  C   UNL     1     -10.510   9.775  69.591  1.00  0.00    -0.242 C  
BRANCH   9  10
HETATM   10  O   UNL     1     -11.341  10.056  68.442  1.00  0.00    -0.183 OA 
BRANCH  10  11
HETATM   11  N   UNL     1     -12.337  11.000  68.794  1.00  0.00    -0.731 NA 
HETATM   12  H   UNL     1     -13.281  10.737  69.076  1.00  0.00     0.000 HD 
BRANCH  11  13
HETATM   13  C   UNL     1     -11.928  12.238  68.721  1.00  0.00    -0.231 C  
BRANCH  13  14
HETATM   14  C   UNL     1     -12.079  13.155  69.916  1.00  0.00    -0.357 A  
HETATM   15 CL   UNL     1     -11.369  15.376  68.425  1.00  0.00    -0.326 Cl 
HETATM   16  C   UNL     1     -12.507  12.608  71.141  1.00  0.00    -0.326 A  
HETATM   17  C   UNL     1     -11.867  14.546  69.859  1.00  0.00    -0.317 A  
HETATM   18  C   UNL     1     -12.768  13.417  72.255  1.00  0.00    -0.161 A  
HETATM   19 CL   UNL     1     -12.945  15.790  73.518  1.00  0.00    -0.652 Cl 
HETATM   20  C   UNL     1     -12.583  14.791  72.166  1.00  0.00    -0.334 A  
HETATM   21  C   UNL     1     -12.120  15.356  70.981  1.00  0.00    -0.417 A  
ENDBRANCH  13  14
BRANCH  13  22
HETATM   22  C   UNL     1     -11.237  12.824  67.493  1.00  0.00    -0.289 C  
BRANCH  22  23
HETATM   23  N   UNL     1      -9.813  12.528  67.410  1.00  0.00    -0.199 NA 
HETATM   24  C   UNL     1      -8.901  12.719  68.412  1.00  0.00    -0.117 A  
HETATM   25  N   UNL     1      -7.853  11.923  66.583  1.00  0.00    -0.068 NA 
HETATM   26  C   UNL     1      -9.142  12.021  66.336  1.00  0.00    -0.193 A  
HETATM   27  C   UNL     1      -7.692  12.353  67.871  1.00  0.00    -0.135 A  
ENDBRANCH  22  23
ENDBRANCH  13  22
ENDBRANCH  11  13
ENDBRANCH  10  11
ENDBRANCH   9  10
ENDBRANCH   6   9
TORSDOF 7
ENDMDL
MODEL      165
REMARK 921   NORMALIZED FREE ENERGY PREDICTED BY IDOCK:   -4.86 KCAL/MOL
REMARK 922        TOTAL FREE ENERGY PREDICTED BY IDOCK:   -7.96 KCAL/MOL
REMARK 923 INTER-LIGAND FREE ENERGY PREDICTED BY IDOCK:   -7.06 KCAL/MOL
REMARK 924 INTRA-LIGAND FREE ENERGY PREDICTED BY IDOCK:   -0.90 KCAL/MOL
REMARK 927      BINDING AFFINITY PREDICTED BY RF-SCORE:    0.00 PKD
ROOT
HETATM    1 CL   UNL     1     -12.251  13.121  63.216  1.00  0.00    -0.575 Cl 
HETATM    2  C   UNL     1     -11.691  12.599  64.755  1.00  0.00    -0.352 A  
HETATM    3  C   UNL     1     -12.107  13.267  65.904  1.00  0.00    -0.493 A  
HETATM    4  C   UNL     1     -11.588  12.885  67.149  1.00  0.00    -0.363 A  
HETATM    5 CL   UNL     1     -12.153  13.763  68.531  1.00  0.00    -0.389 Cl 
HETATM    6  C   UNL     1     -10.641  11.846  67.269  1.00  0.00    -0.261 A  
HETATM    7  C   UNL     1     -10.287  11.154  66.099  1.00  0.00    -0.302 A  
HETATM    8  C   UNL     1     -10.807  11.530  64.852  1.00  0.00    -0.345 A  
ENDROOT
BRANCH   6   9
HETATM    9  C   UNL     1      -9.945  11.581  68.597  1.00  0.00    -0.199 C  
BRANCH   9  10
HETATM   10  O   UNL     1      -9.330  10.278  68.718  1.00  0.00    -0.150 OA 
BRANCH  10  11
HETATM   11  N   UNL     1      -9.078   9.994  70.083  1.00  0.00    -0.379 NA 
HETATM   12  H   UNL     1      -8.567  10.625  70.700  1.00  0.00     0.000 HD 
BRANCH  11  13
HETATM   13  C   UNL     1      -9.564   8.847  70.474  1.00  0.00    -0.202 C  
BRANCH  13  14
HETATM   14  C   UNL     1      -8.758   7.959  71.397  1.00  0.00    -0.148 A  
HETATM   15 CL   UNL     1      -7.458   6.759  69.270  1.00  0.00    -0.092 Cl 
HETATM   16  C   UNL     1      -8.924   8.100  72.789  1.00  0.00    -0.313 A  
HETATM   17  C   UNL     1      -7.801   7.031  70.943  1.00  0.00    -0.096 A  
HETATM   18  C   UNL     1      -8.133   7.385  73.698  1.00  0.00    -0.157 A  
HETATM   19 CL   UNL     1      -6.172   5.654  74.341  1.00  0.00    -0.064 Cl 
HETATM   20  C   UNL     1      -7.173   6.499  73.227  1.00  0.00    -0.081 A  
HETATM   21  C   UNL     1      -7.015   6.306  71.857  1.00  0.00    -0.077 A  
ENDBRANCH  13  14
BRANCH  13  22
HETATM   22  C   UNL     1     -10.958   8.351  70.095  1.00  0.00    -0.215 C  
BRANCH  22  23
HETATM   23  N   UNL     1     -12.027   8.874  70.934  1.00  0.00    -0.256 NA 
HETATM   24  C   UNL     1     -12.797   8.136  71.792  1.00  0.00    -0.333 A  
HETATM   25  N   UNL     1     -13.474  10.285  71.831  1.00  0.00    -0.351 NA 
HETATM   26  C   UNL     1     -12.451  10.168  71.010  1.00  0.00    -0.375 A  
HETATM   27  C   UNL     1     -13.696   9.029  72.324  1.00  0.00    -0.492 A  
ENDBRANCH  22  23
ENDBRANCH  13  22
ENDBRANCH  11  13
ENDBRANCH  10  11
ENDBRANCH   9  10
ENDBRANCH   6   9
TORSDOF 7
ENDMDL
MODEL      166
REMARK 921   NORMALIZED FREE ENERGY PREDICTED BY IDOCK:   -4.85 KCAL/MOL
REMARK 922        TOTAL FREE ENERGY PREDICTED BY IDOCK:   -7.95 KCAL/MOL
REMARK 923 INTER-LIGAND FREE ENERGY PREDICTED BY IDOCK:   -7.15 KCAL/MOL
REMARK 924 INTRA-LIGAND FREE ENERGY PREDICTED BY IDOCK:   -0.80 KCAL/MOL
REMARK 927      BINDING AFFINITY PREDICTED BY RF-SCORE:    0.00 PKD
ROOT
HETATM    1 CL   UNL     1     -11.562  15.947  64.344  1.00  0.00    -0.340 Cl 
HETATM    2  C   UNL     1     -11.419  14.601  65.404  1.00  0.00    -0.352 A  
HETATM    3  C   UNL     1     -10.845  13.418  64.944  1.00  0.00    -0.363 A  
HETATM    4  C   UNL     1     -10.800  12.301  65.790  1.00  0.00    -0.278 A  
HETATM    5 CL   UNL     1     -10.071  10.867  65.148  1.00  0.00    -0.330 Cl 
HETATM    6  C   UNL     1     -11.335  12.338  67.095  1.00  0.00    -0.398 A  
HETATM    7  C   UNL     1     -11.854  13.562  67.548  1.00  0.00    -0.406 A  
HETATM    8  C   UNL     1     -11.896  14.684  66.708  1.00  0.00    -0.334 A  
ENDROOT
BRANCH   6   9
HETATM    9  C   UNL     1     -11.455  11.064  67.921  1.00  0.00    -0.282 C  
BRANCH   9  10
HETATM   10  O   UNL     1     -10.213  10.575  68.477  1.00  0.00    -0.160 OA 
BRANCH  10  11
HETATM   11  N   UNL     1     -10.369  10.353  69.867  1.00  0.00    -0.398 NA 
HETATM   12  H   UNL     1     -10.413  11.107  70.552  1.00  0.00     0.000 HD 
BRANCH  11  13
HETATM   13  C   UNL     1     -10.450   9.089  70.186  1.00  0.00    -0.214 C  
BRANCH  13  14
HETATM   14  C   UNL     1     -10.075   8.028  69.174  1.00  0.00    -0.202 A  
HETATM   15 CL   UNL     1      -7.371   8.458  69.576  1.00  0.00    -0.071 Cl 
HETATM   16  C   UNL     1     -11.103   7.301  68.542  1.00  0.00     0.063 A  
HETATM   17  C   UNL     1      -8.745   7.683  68.866  1.00  0.00    -0.135 A  
HETATM   18  C   UNL     1     -10.822   6.236  67.676  1.00  0.00    -0.433 A  
HETATM   19 CL   UNL     1      -9.158   4.557  66.385  1.00  0.00    -0.117 Cl 
HETATM   20  C   UNL     1      -9.503   5.893  67.412  1.00  0.00    -0.111 A  
HETATM   21  C   UNL     1      -8.465   6.620  67.989  1.00  0.00    -0.116 A  
ENDBRANCH  13  14
BRANCH  13  22
HETATM   22  C   UNL     1     -10.856   8.597  71.573  1.00  0.00    -0.282 C  
BRANCH  22  23
HETATM   23  N   UNL     1     -12.293   8.460  71.762  1.00  0.00    -0.313 NA 
HETATM   24  C   UNL     1     -13.008   7.303  71.609  1.00  0.00    -0.372 A  
HETATM   25  N   UNL     1     -14.406   8.986  72.146  1.00  0.00    -0.343 NA 
HETATM   26  C   UNL     1     -13.172   9.443  72.113  1.00  0.00    -0.460 A  
HETATM   27  C   UNL     1     -14.317   7.658  71.836  1.00  0.00    -0.404 A  
ENDBRANCH  22  23
ENDBRANCH  13  22
ENDBRANCH  11  13
ENDBRANCH  10  11
ENDBRANCH   9  10
ENDBRANCH   6   9
TORSDOF 7
ENDMDL
MODEL      167
REMARK 921   NORMALIZED FREE ENERGY PREDICTED BY IDOCK:   -4.83 KCAL/MOL
REMARK 922        TOTAL FREE ENERGY PREDICTED BY IDOCK:   -7.93 KCAL/MOL
REMARK 923 INTER-LIGAND FREE ENERGY PREDICTED BY IDOCK:   -7.10 KCAL/MOL
REMARK 924 INTRA-LIGAND FREE ENERGY PREDICTED BY IDOCK:   -0.83 KCAL/MOL
REMARK 927      BINDING AFFINITY PREDICTED BY RF-SCORE:    0.00 PKD
ROOT
HETATM    1 CL   UNL     1     -11.727   5.397  72.742  1.00  0.00    -0.311 Cl 
HETATM    2  C   UNL     1     -11.416   6.571  71.525  1.00  0.00    -0.302 A  
HETATM    3  C   UNL     1     -11.351   6.181  70.190  1.00  0.00    -0.433 A  
HETATM    4  C   UNL     1     -11.022   7.128  69.211  1.00  0.00    -0.136 A  
HETATM    5 CL   UNL     1     -10.962   6.568  67.573  1.00  0.00    -0.424 Cl 
HETATM    6  C   UNL     1     -10.740   8.470  69.544  1.00  0.00    -0.181 A  
HETATM    7  C   UNL     1     -10.871   8.844  70.891  1.00  0.00    -0.308 A  
HETATM    8  C   UNL     1     -11.205   7.901  71.873  1.00  0.00    -0.320 A  
ENDROOT
BRANCH   6   9
HETATM    9  C   UNL     1     -10.194   9.431  68.496  1.00  0.00    -0.199 C  
BRANCH   9  10
HETATM   10  O   UNL     1     -11.129   9.802  67.458  1.00  0.00    -0.234 OA 
BRANCH  10  11
HETATM   11  N   UNL     1     -11.292  11.209  67.443  1.00  0.00    -0.453 NA 
HETATM   12  H   UNL     1     -11.602  11.744  68.254  1.00  0.00     0.000 HD 
BRANCH  11  13
HETATM   13  C   UNL     1     -11.007  11.753  66.291  1.00  0.00    -0.300 C  
BRANCH  13  14
HETATM   14  C   UNL     1     -10.492  13.175  66.233  1.00  0.00    -0.291 A  
HETATM   15 CL   UNL     1     -12.876  14.101  65.178  1.00  0.00    -0.398 Cl 
HETATM   16  C   UNL     1      -9.196  13.447  66.714  1.00  0.00    -0.242 A  
HETATM   17  C   UNL     1     -11.260  14.262  65.773  1.00  0.00    -0.317 A  
HETATM   18  C   UNL     1      -8.700  14.755  66.787  1.00  0.00    -0.255 A  
HETATM   19 CL   UNL     1      -8.897  17.425  66.487  1.00  0.00    -0.281 Cl 
HETATM   20  C   UNL     1      -9.488  15.815  66.357  1.00  0.00    -0.297 A  
HETATM   21  C   UNL     1     -10.756  15.574  65.837  1.00  0.00    -0.346 A  
ENDBRANCH  13  14
BRANCH  13  22
HETATM   22  C   UNL     1     -11.108  11.009  64.961  1.00  0.00     0.053 C  
BRANCH  22  23
HETATM   23  N   UNL     1      -9.824  10.721  64.338  1.00  0.00    -0.287 NA 
HETATM   24  C   UNL     1      -9.549  10.823  63.001  1.00  0.00    -0.353 A  
HETATM   25  N   UNL     1      -7.720  10.085  64.091  1.00  0.00    -0.142 NA 
HETATM   26  C   UNL     1      -8.686  10.300  64.960  1.00  0.00    -0.182 A  
HETATM   27  C   UNL     1      -8.245  10.409  62.870  1.00  0.00    -0.157 A  
ENDBRANCH  22  23
ENDBRANCH  13  22
ENDBRANCH  11  13
ENDBRANCH  10  11
ENDBRANCH   9  10
ENDBRANCH   6   9
TORSDOF 7
ENDMDL
MODEL      168
REMARK 921   NORMALIZED FREE ENERGY PREDICTED BY IDOCK:   -4.83 KCAL/MOL
REMARK 922        TOTAL FREE ENERGY PREDICTED BY IDOCK:   -7.92 KCAL/MOL
REMARK 923 INTER-LIGAND FREE ENERGY PREDICTED BY IDOCK:   -6.65 KCAL/MOL
REMARK 924 INTRA-LIGAND FREE ENERGY PREDICTED BY IDOCK:   -1.26 KCAL/MOL
REMARK 927      BINDING AFFINITY PREDICTED BY RF-SCORE:    0.00 PKD
ROOT
HETATM    1 CL   UNL     1      -7.284  16.698  68.706  1.00  0.00    -0.193 Cl 
HETATM    2  C   UNL     1      -8.657  15.671  68.576  1.00  0.00    -0.180 A  
HETATM    3  C   UNL     1      -9.686  15.774  69.509  1.00  0.00    -0.276 A  
HETATM    4  C   UNL     1     -10.766  14.883  69.443  1.00  0.00    -0.256 A  
HETATM    5 CL   UNL     1     -12.007  15.072  70.636  1.00  0.00    -0.338 Cl 
HETATM    6  C   UNL     1     -10.833  13.872  68.460  1.00  0.00    -0.274 A  
HETATM    7  C   UNL     1      -9.809  13.833  67.500  1.00  0.00    -0.230 A  
HETATM    8  C   UNL     1      -8.729  14.725  67.560  1.00  0.00    -0.195 A  
ENDROOT
BRANCH   6   9
HETATM    9  C   UNL     1     -11.909  12.796  68.526  1.00  0.00    -0.306 C  
BRANCH   9  10
HETATM   10  O   UNL     1     -11.791  11.748  67.537  1.00  0.00    -0.577 OA 
BRANCH  10  11
HETATM   11  N   UNL     1     -11.697  10.491  68.182  1.00  0.00    -0.760 NA 
HETATM   12  H   UNL     1     -12.510   9.927  68.430  1.00  0.00     0.000 HD 
BRANCH  11  13
HETATM   13  C   UNL     1     -10.468  10.125  68.429  1.00  0.00    -0.208 C  
BRANCH  13  14
HETATM   14  C   UNL     1      -9.606   9.571  67.315  1.00  0.00    -0.192 A  
HETATM   15 CL   UNL     1     -10.611   7.018  67.672  1.00  0.00    -0.299 Cl 
HETATM   16  C   UNL     1      -8.775  10.454  66.598  1.00  0.00    -0.141 A  
HETATM   17  C   UNL     1      -9.627   8.221  66.914  1.00  0.00    -0.207 A  
HETATM   18  C   UNL     1      -8.033  10.026  65.489  1.00  0.00    -0.139 A  
HETATM   19 CL   UNL     1      -7.219   8.180  63.704  1.00  0.00    -0.085 Cl 
HETATM   20  C   UNL     1      -8.094   8.697  65.091  1.00  0.00    -0.143 A  
HETATM   21  C   UNL     1      -8.873   7.791  65.807  1.00  0.00    -0.141 A  
ENDBRANCH  13  14
BRANCH  13  22
HETATM   22  C   UNL     1      -9.805  10.274  69.796  1.00  0.00    -0.161 C  
BRANCH  22  23
HETATM   23  N   UNL     1     -10.210   9.270  70.770  1.00  0.00    -0.263 NA 
HETATM   24  C   UNL     1     -11.255   9.388  71.646  1.00  0.00    -0.361 A  
HETATM   25  N   UNL     1     -10.214   7.418  71.978  1.00  0.00    -0.189 NA 
HETATM   26  C   UNL     1      -9.628   8.055  70.986  1.00  0.00    -0.160 A  
HETATM   27  C   UNL     1     -11.228   8.235  72.394  1.00  0.00    -0.381 A  
ENDBRANCH  22  23
ENDBRANCH  13  22
ENDBRANCH  11  13
ENDBRANCH  10  11
ENDBRANCH   9  10
ENDBRANCH   6   9
TORSDOF 7
ENDMDL
MODEL      169
REMARK 921   NORMALIZED FREE ENERGY PREDICTED BY IDOCK:   -4.81 KCAL/MOL
REMARK 922        TOTAL FREE ENERGY PREDICTED BY IDOCK:   -7.89 KCAL/MOL
REMARK 923 INTER-LIGAND FREE ENERGY PREDICTED BY IDOCK:   -6.99 KCAL/MOL
REMARK 924 INTRA-LIGAND FREE ENERGY PREDICTED BY IDOCK:   -0.90 KCAL/MOL
REMARK 927      BINDING AFFINITY PREDICTED BY RF-SCORE:    0.00 PKD
ROOT
HETATM    1 CL   UNL     1      -9.153  17.779  66.063  1.00  0.00    -0.113 Cl 
HETATM    2  C   UNL     1      -9.617  16.126  66.152  1.00  0.00    -0.327 A  
HETATM    3  C   UNL     1     -10.696  15.671  65.398  1.00  0.00    -0.424 A  
HETATM    4  C   UNL     1     -11.118  14.341  65.533  1.00  0.00    -0.323 A  
HETATM    5 CL   UNL     1     -12.465  13.848  64.563  1.00  0.00    -0.372 Cl 
HETATM    6  C   UNL     1     -10.484  13.450  66.426  1.00  0.00    -0.286 A  
HETATM    7  C   UNL     1      -9.364  13.924  67.127  1.00  0.00    -0.244 A  
HETATM    8  C   UNL     1      -8.936  15.252  66.992  1.00  0.00    -0.254 A  
ENDROOT
BRANCH   6   9
HETATM    9  C   UNL     1     -11.079  12.075  66.702  1.00  0.00    -0.310 C  
BRANCH   9  10
HETATM   10  O   UNL     1     -11.683  11.919  68.006  1.00  0.00    -0.372 OA 
BRANCH  10  11
HETATM   11  N   UNL     1     -11.993  10.555  68.227  1.00  0.00    -0.784 NA 
HETATM   12  H   UNL     1     -12.702  10.049  67.697  1.00  0.00     0.000 HD 
BRANCH  11  13
HETATM   13  C   UNL     1     -11.282  10.008  69.177  1.00  0.00    -0.149 C  
BRANCH  13  14
HETATM   14  C   UNL     1     -10.173   9.039  68.830  1.00  0.00    -0.226 A  
HETATM   15 CL   UNL     1      -8.277  11.053  68.834  1.00  0.00    -0.145 Cl 
HETATM   16  C   UNL     1     -10.484   7.671  68.702  1.00  0.00    -0.203 A  
HETATM   17  C   UNL     1      -8.826   9.421  68.680  1.00  0.00    -0.132 A  
HETATM   18  C   UNL     1      -9.488   6.709  68.487  1.00  0.00    -0.123 A  
HETATM   19 CL   UNL     1      -6.933   5.922  68.155  1.00  0.00    -0.067 Cl 
HETATM   20  C   UNL     1      -8.162   7.105  68.375  1.00  0.00    -0.125 A  
HETATM   21  C   UNL     1      -7.829   8.455  68.454  1.00  0.00    -0.113 A  
ENDBRANCH  13  14
BRANCH  13  22
HETATM   22  C   UNL     1     -11.465  10.335  70.658  1.00  0.00    -0.349 C  
BRANCH  22  23
HETATM   23  N   UNL     1     -11.306   9.193  71.547  1.00  0.00    -0.342 NA 
HETATM   24  C   UNL     1     -10.148   8.835  72.182  1.00  0.00    -0.292 A  
HETATM   25  N   UNL     1     -11.768   7.349  72.677  1.00  0.00    -0.242 NA 
HETATM   26  C   UNL     1     -12.264   8.285  71.895  1.00  0.00    -0.337 A  
HETATM   27  C   UNL     1     -10.455   7.681  72.863  1.00  0.00    -0.336 A  
ENDBRANCH  22  23
ENDBRANCH  13  22
ENDBRANCH  11  13
ENDBRANCH  10  11
ENDBRANCH   9  10
ENDBRANCH   6   9
TORSDOF 7
ENDMDL
MODEL      170
REMARK 921   NORMALIZED FREE ENERGY PREDICTED BY IDOCK:   -4.79 KCAL/MOL
REMARK 922        TOTAL FREE ENERGY PREDICTED BY IDOCK:   -7.86 KCAL/MOL
REMARK 923 INTER-LIGAND FREE ENERGY PREDICTED BY IDOCK:   -6.74 KCAL/MOL
REMARK 924 INTRA-LIGAND FREE ENERGY PREDICTED BY IDOCK:   -1.12 KCAL/MOL
REMARK 927      BINDING AFFINITY PREDICTED BY RF-SCORE:    0.00 PKD
ROOT
HETATM    1 CL   UNL     1     -12.543  14.964  64.494  1.00  0.00    -0.242 Cl 
HETATM    2  C   UNL     1     -11.684  13.519  64.857  1.00  0.00    -0.357 A  
HETATM    3  C   UNL     1     -10.828  12.968  63.906  1.00  0.00    -0.347 A  
HETATM    4  C   UNL     1     -10.190  11.750  64.178  1.00  0.00    -0.322 A  
HETATM    5 CL   UNL     1      -9.142  11.127  62.948  1.00  0.00    -0.318 Cl 
HETATM    6  C   UNL     1     -10.402  11.058  65.390  1.00  0.00    -0.330 A  
HETATM    7  C   UNL     1     -11.223  11.669  66.350  1.00  0.00    -0.349 A  
HETATM    8  C   UNL     1     -11.860  12.890  66.084  1.00  0.00    -0.487 A  
ENDROOT
BRANCH   6   9
HETATM    9  C   UNL     1      -9.858   9.648  65.583  1.00  0.00    -0.299 C  
BRANCH   9  10
HETATM   10  O   UNL     1      -9.730   9.223  66.958  1.00  0.00    -0.163 OA 
BRANCH  10  11
HETATM   11  N   UNL     1      -8.463   9.606  67.460  1.00  0.00    -0.125 NA 
HETATM   12  H   UNL     1      -7.588   9.426  66.968  1.00  0.00     0.000 HD 
BRANCH  11  13
HETATM   13  C   UNL     1      -8.523  10.214  68.615  1.00  0.00    -0.122 C  
BRANCH  13  14
HETATM   14  C   UNL     1      -9.733  10.028  69.505  1.00  0.00    -0.253 A  
HETATM   15 CL   UNL     1      -8.770   7.624  70.479  1.00  0.00    -0.137 Cl 
HETATM   16  C   UNL     1     -10.721  11.032  69.526  1.00  0.00    -0.231 A  
HETATM   17  C   UNL     1      -9.903   8.925  70.364  1.00  0.00    -0.189 A  
HETATM   18  C   UNL     1     -11.810  10.972  70.404  1.00  0.00    -0.460 A  
HETATM   19 CL   UNL     1     -13.254   9.837  72.375  1.00  0.00    -0.440 Cl 
HETATM   20  C   UNL     1     -11.941   9.890  71.265  1.00  0.00    -0.402 A  
HETATM   21  C   UNL     1     -11.004   8.862  71.238  1.00  0.00    -0.363 A  
ENDBRANCH  13  14
BRANCH  13  22
HETATM   22  C   UNL     1      -7.395  11.081  69.168  1.00  0.00    -0.121 C  
BRANCH  22  23
HETATM   23  N   UNL     1      -7.404  12.455  68.684  1.00  0.00    -0.108 NA 
HETATM   24  C   UNL     1      -8.183  12.934  67.666  1.00  0.00    -0.177 A  
HETATM   25  N   UNL     1      -6.866  14.587  68.447  1.00  0.00    -0.096 NA 
HETATM   26  C   UNL     1      -6.646  13.492  69.144  1.00  0.00    -0.109 A  
HETATM   27  C   UNL     1      -7.821  14.253  67.527  1.00  0.00    -0.194 A  
ENDBRANCH  22  23
ENDBRANCH  13  22
ENDBRANCH  11  13
ENDBRANCH  10  11
ENDBRANCH   9  10
ENDBRANCH   6   9
TORSDOF 7
ENDMDL
MODEL      171
REMARK 921   NORMALIZED FREE ENERGY PREDICTED BY IDOCK:   -4.79 KCAL/MOL
REMARK 922        TOTAL FREE ENERGY PREDICTED BY IDOCK:   -7.86 KCAL/MOL
REMARK 923 INTER-LIGAND FREE ENERGY PREDICTED BY IDOCK:   -6.56 KCAL/MOL
REMARK 924 INTRA-LIGAND FREE ENERGY PREDICTED BY IDOCK:   -1.30 KCAL/MOL
REMARK 927      BINDING AFFINITY PREDICTED BY RF-SCORE:    0.00 PKD
ROOT
HETATM    1 CL   UNL     1     -12.826  11.797  63.128  1.00  0.00    -0.414 Cl 
HETATM    2  C   UNL     1     -11.511  11.810  64.236  1.00  0.00    -0.307 A  
HETATM    3  C   UNL     1     -10.309  11.199  63.888  1.00  0.00    -0.441 A  
HETATM    4  C   UNL     1      -9.268  11.146  64.825  1.00  0.00    -0.138 A  
HETATM    5 CL   UNL     1      -7.804  10.370  64.319  1.00  0.00    -0.108 Cl 
HETATM    6  C   UNL     1      -9.409  11.687  66.120  1.00  0.00    -0.237 A  
HETATM    7  C   UNL     1     -10.611  12.348  66.419  1.00  0.00    -0.271 A  
HETATM    8  C   UNL     1     -11.654  12.407  65.484  1.00  0.00    -0.432 A  
ENDROOT
BRANCH   6   9
HETATM    9  C   UNL     1      -8.343  11.445  67.182  1.00  0.00    -0.155 C  
BRANCH   9  10
HETATM   10  O   UNL     1      -8.024  12.592  68.003  1.00  0.00    -0.131 OA 
BRANCH  10  11
HETATM   11  N   UNL     1      -7.588  13.659  67.182  1.00  0.00    -0.365 NA 
HETATM   12  H   UNL     1      -7.151  13.522  66.270  1.00  0.00     0.000 HD 
BRANCH  11  13
HETATM   13  C   UNL     1      -7.798  14.837  67.706  1.00  0.00    -0.151 C  
BRANCH  13  14
HETATM   14  C   UNL     1      -9.127  15.148  68.359  1.00  0.00    -0.185 A  
HETATM   15 CL   UNL     1     -10.315  15.680  65.917  1.00  0.00    -0.341 Cl 
HETATM   16  C   UNL     1      -9.242  15.020  69.757  1.00  0.00     0.089 A  
HETATM   17  C   UNL     1     -10.282  15.508  67.638  1.00  0.00    -0.255 A  
HETATM   18  C   UNL     1     -10.470  15.189  70.411  1.00  0.00    -0.107 A  
HETATM   19 CL   UNL     1     -13.118  15.677  70.472  1.00  0.00    -0.327 Cl 
HETATM   20  C   UNL     1     -11.602  15.512  69.676  1.00  0.00    -0.348 A  
HETATM   21  C   UNL     1     -11.511  15.688  68.298  1.00  0.00    -0.353 A  
ENDBRANCH  13  14
BRANCH  13  22
HETATM   22  C   UNL     1      -6.740  15.937  67.754  1.00  0.00    -0.157 C  
BRANCH  22  23
HETATM   23  N   UNL     1      -7.208  17.238  67.296  1.00  0.00    -0.158 NA 
HETATM   24  C   UNL     1      -7.553  18.288  68.104  1.00  0.00    -0.269 A  
HETATM   25  N   UNL     1      -7.873  18.860  65.948  1.00  0.00    -0.470 NA 
HETATM   26  C   UNL     1      -7.390  17.637  66.004  1.00  0.00    -0.266 A  
HETATM   27  C   UNL     1      -7.977  19.275  67.246  1.00  0.00    -0.260 A  
ENDBRANCH  22  23
ENDBRANCH  13  22
ENDBRANCH  11  13
ENDBRANCH  10  11
ENDBRANCH   9  10
ENDBRANCH   6   9
TORSDOF 7
ENDMDL
MODEL      172
REMARK 921   NORMALIZED FREE ENERGY PREDICTED BY IDOCK:   -4.75 KCAL/MOL
REMARK 922        TOTAL FREE ENERGY PREDICTED BY IDOCK:   -7.82 KCAL/MOL
REMARK 923 INTER-LIGAND FREE ENERGY PREDICTED BY IDOCK:   -7.07 KCAL/MOL
REMARK 924 INTRA-LIGAND FREE ENERGY PREDICTED BY IDOCK:   -0.75 KCAL/MOL
REMARK 927      BINDING AFFINITY PREDICTED BY RF-SCORE:    0.00 PKD
ROOT
HETATM    1 CL   UNL     1      -8.497   4.534  66.173  1.00  0.00    -0.113 Cl 
HETATM    2  C   UNL     1      -9.199   6.079  66.446  1.00  0.00    -0.151 A  
HETATM    3  C   UNL     1      -8.490   7.229  66.107  1.00  0.00    -0.144 A  
HETATM    4  C   UNL     1      -9.036   8.486  66.403  1.00  0.00    -0.165 A  
HETATM    5 CL   UNL     1      -8.096   9.869  65.951  1.00  0.00    -0.118 Cl 
HETATM    6  C   UNL     1     -10.283   8.619  67.048  1.00  0.00    -0.360 A  
HETATM    7  C   UNL     1     -10.999   7.442  67.323  1.00  0.00    -0.234 A  
HETATM    8  C   UNL     1     -10.459   6.183  67.026  1.00  0.00    -0.341 A  
ENDROOT
BRANCH   6   9
HETATM    9  C   UNL     1     -10.764   9.980  67.535  1.00  0.00    -0.281 C  
BRANCH   9  10
HETATM   10  O   UNL     1     -10.492  10.265  68.926  1.00  0.00    -0.188 OA 
BRANCH  10  11
HETATM   11  N   UNL     1     -10.061  11.606  69.063  1.00  0.00    -0.403 NA 
HETATM   12  H   UNL     1      -9.082  11.871  69.174  1.00  0.00     0.000 HD 
BRANCH  11  13
HETATM   13  C   UNL     1     -11.038  12.472  69.032  1.00  0.00    -0.234 C  
BRANCH  13  14
HETATM   14  C   UNL     1     -11.166  13.429  67.866  1.00  0.00    -0.303 A  
HETATM   15 CL   UNL     1      -8.760  14.651  68.479  1.00  0.00    -0.172 Cl 
HETATM   16  C   UNL     1     -12.280  13.313  67.013  1.00  0.00    -0.310 A  
HETATM   17  C   UNL     1     -10.197  14.401  67.550  1.00  0.00    -0.240 A  
HETATM   18  C   UNL     1     -12.404  14.095  65.858  1.00  0.00    -0.486 A  
HETATM   19 CL   UNL     1     -11.549  15.955  64.107  1.00  0.00    -0.248 Cl 
HETATM   20  C   UNL     1     -11.421  15.026  65.548  1.00  0.00    -0.265 A  
HETATM   21  C   UNL     1     -10.329  15.193  66.395  1.00  0.00    -0.292 A  
ENDBRANCH  13  14
BRANCH  13  22
HETATM   22  C   UNL     1     -12.127  12.548  70.100  1.00  0.00    -0.292 C  
BRANCH  22  23
HETATM   23  N   UNL     1     -12.308  13.874  70.676  1.00  0.00    -0.360 NA 
HETATM   24  C   UNL     1     -11.302  14.731  71.031  1.00  0.00    -0.142 A  
HETATM   25  N   UNL     1     -13.293  15.661  71.527  1.00  0.00    -0.496 NA 
HETATM   26  C   UNL     1     -13.492  14.486  70.968  1.00  0.00    -0.289 A  
HETATM   27  C   UNL     1     -11.936  15.825  71.570  1.00  0.00    -0.440 A  
ENDBRANCH  22  23
ENDBRANCH  13  22
ENDBRANCH  11  13
ENDBRANCH  10  11
ENDBRANCH   9  10
ENDBRANCH   6   9
TORSDOF 7
ENDMDL
MODEL      173
REMARK 921   NORMALIZED FREE ENERGY PREDICTED BY IDOCK:   -4.75 KCAL/MOL
REMARK 922        TOTAL FREE ENERGY PREDICTED BY IDOCK:   -7.82 KCAL/MOL
REMARK 923 INTER-LIGAND FREE ENERGY PREDICTED BY IDOCK:   -6.75 KCAL/MOL
REMARK 924 INTRA-LIGAND FREE ENERGY PREDICTED BY IDOCK:   -1.07 KCAL/MOL
REMARK 927      BINDING AFFINITY PREDICTED BY RF-SCORE:    0.00 PKD
ROOT
HETATM    1 CL   UNL     1     -13.429  15.494  73.047  1.00  0.00    -0.619 Cl 
HETATM    2  C   UNL     1     -12.864  14.328  71.918  1.00  0.00    -0.348 A  
HETATM    3  C   UNL     1     -12.124  14.740  70.812  1.00  0.00    -0.374 A  
HETATM    4  C   UNL     1     -11.732  13.794  69.855  1.00  0.00    -0.284 A  
HETATM    5 CL   UNL     1     -10.814  14.382  68.509  1.00  0.00    -0.249 Cl 
HETATM    6  C   UNL     1     -12.079  12.431  69.975  1.00  0.00    -0.335 A  
HETATM    7  C   UNL     1     -12.774  12.039  71.131  1.00  0.00    -0.365 A  
HETATM    8  C   UNL     1     -13.165  12.982  72.093  1.00  0.00    -0.558 A  
ENDROOT
BRANCH   6   9
HETATM    9  C   UNL     1     -11.815  11.460  68.832  1.00  0.00    -0.347 C  
BRANCH   9  10
HETATM   10  O   UNL     1     -11.654  10.078  69.225  1.00  0.00    -0.121 OA 
BRANCH  10  11
HETATM   11  N   UNL     1     -11.190   9.320  68.123  1.00  0.00    -0.458 NA 
HETATM   12  H   UNL     1     -11.694   9.252  67.239  1.00  0.00     0.000 HD 
BRANCH  11  13
HETATM   13  C   UNL     1     -10.055   8.715  68.349  1.00  0.00    -0.191 C  
BRANCH  13  14
HETATM   14  C   UNL     1      -9.991   7.572  69.339  1.00  0.00    -0.178 A  
HETATM   15 CL   UNL     1      -9.341   9.277  71.418  1.00  0.00    -0.239 Cl 
HETATM   16  C   UNL     1     -10.290   6.270  68.892  1.00  0.00    -0.246 A  
HETATM   17  C   UNL     1      -9.702   7.743  70.706  1.00  0.00    -0.173 A  
HETATM   18  C   UNL     1     -10.353   5.186  69.777  1.00  0.00    -0.332 A  
HETATM   19 CL   UNL     1     -10.215   4.063  72.222  1.00  0.00    -0.247 Cl 
HETATM   20  C   UNL     1     -10.095   5.384  71.127  1.00  0.00    -0.212 A  
HETATM   21  C   UNL     1      -9.755   6.651  71.592  1.00  0.00    -0.170 A  
ENDBRANCH  13  14
BRANCH  13  22
HETATM   22  C   UNL     1      -8.760   9.058  67.617  1.00  0.00    -0.124 C  
BRANCH  22  23
HETATM   23  N   UNL     1      -8.183  10.341  67.992  1.00  0.00    -0.112 NA 
HETATM   24  C   UNL     1      -8.543  11.556  67.475  1.00  0.00    -0.143 A  
HETATM   25  N   UNL     1      -6.874  11.837  68.963  1.00  0.00    -0.099 NA 
HETATM   26  C   UNL     1      -7.193  10.561  68.905  1.00  0.00    -0.086 A  
HETATM   27  C   UNL     1      -7.707  12.465  68.080  1.00  0.00    -0.135 A  
ENDBRANCH  22  23
ENDBRANCH  13  22
ENDBRANCH  11  13
ENDBRANCH  10  11
ENDBRANCH   9  10
ENDBRANCH   6   9
TORSDOF 7
ENDMDL
MODEL      174
REMARK 921   NORMALIZED FREE ENERGY PREDICTED BY IDOCK:   -4.75 KCAL/MOL
REMARK 922        TOTAL FREE ENERGY PREDICTED BY IDOCK:   -7.82 KCAL/MOL
REMARK 923 INTER-LIGAND FREE ENERGY PREDICTED BY IDOCK:   -6.68 KCAL/MOL
REMARK 924 INTRA-LIGAND FREE ENERGY PREDICTED BY IDOCK:   -1.14 KCAL/MOL
REMARK 927      BINDING AFFINITY PREDICTED BY RF-SCORE:    0.00 PKD
ROOT
HETATM    1 CL   UNL     1     -10.269   3.103  63.887  1.00  0.00    -0.185 Cl 
HETATM    2  C   UNL     1      -9.781   4.443  64.846  1.00  0.00    -0.145 A  
HETATM    3  C   UNL     1     -10.438   4.708  66.046  1.00  0.00    -0.303 A  
HETATM    4  C   UNL     1     -10.087   5.846  66.786  1.00  0.00    -0.192 A  
HETATM    5 CL   UNL     1     -10.948   6.109  68.266  1.00  0.00    -0.399 Cl 
HETATM    6  C   UNL     1      -9.091   6.741  66.340  1.00  0.00    -0.175 A  
HETATM    7  C   UNL     1      -8.408   6.414  65.158  1.00  0.00    -0.109 A  
HETATM    8  C   UNL     1      -8.753   5.274  64.417  1.00  0.00    -0.046 A  
ENDROOT
BRANCH   6   9
HETATM    9  C   UNL     1      -8.865   8.067  67.054  1.00  0.00    -0.133 C  
BRANCH   9  10
HETATM   10  O   UNL     1      -9.726   9.148  66.629  1.00  0.00    -0.184 OA 
BRANCH  10  11
HETATM   11  N   UNL     1     -10.715   9.385  67.614  1.00  0.00    -0.402 NA 
HETATM   12  H   UNL     1     -11.681   9.069  67.525  1.00  0.00     0.000 HD 
BRANCH  11  13
HETATM   13  C   UNL     1     -10.270  10.049  68.648  1.00  0.00    -0.180 C  
BRANCH  13  14
HETATM   14  C   UNL     1     -10.287   9.411  70.020  1.00  0.00    -0.265 A  
HETATM   15 CL   UNL     1     -12.788  10.453  70.582  1.00  0.00    -0.422 Cl 
HETATM   16  C   UNL     1      -9.197   8.608  70.409  1.00  0.00    -0.189 A  
HETATM   17  C   UNL     1     -11.365   9.530  70.918  1.00  0.00    -0.341 A  
HETATM   18  C   UNL     1      -9.198   7.905  71.620  1.00  0.00    -0.180 A  
HETATM   19 CL   UNL     1     -10.309   7.114  73.943  1.00  0.00    -0.388 Cl 
HETATM   20  C   UNL     1     -10.287   8.011  72.477  1.00  0.00    -0.306 A  
HETATM   21  C   UNL     1     -11.360   8.831  72.140  1.00  0.00    -0.411 A  
ENDBRANCH  13  14
BRANCH  13  22
HETATM   22  C   UNL     1      -9.663  11.446  68.551  1.00  0.00    -0.197 C  
BRANCH  22  23
HETATM   23  N   UNL     1     -10.409  12.364  67.701  1.00  0.00    -0.214 NA 
HETATM   24  C   UNL     1     -11.668  12.837  67.953  1.00  0.00    -0.357 A  
HETATM   25  N   UNL     1     -10.937  13.654  65.984  1.00  0.00    -0.286 NA 
HETATM   26  C   UNL     1      -9.996  12.905  66.518  1.00  0.00    -0.259 A  
HETATM   27  C   UNL     1     -11.980  13.621  66.868  1.00  0.00    -0.410 A  
ENDBRANCH  22  23
ENDBRANCH  13  22
ENDBRANCH  11  13
ENDBRANCH  10  11
ENDBRANCH   9  10
ENDBRANCH   6   9
TORSDOF 7
ENDMDL
MODEL      175
REMARK 921   NORMALIZED FREE ENERGY PREDICTED BY IDOCK:   -4.74 KCAL/MOL
REMARK 922        TOTAL FREE ENERGY PREDICTED BY IDOCK:   -7.80 KCAL/MOL
REMARK 923 INTER-LIGAND FREE ENERGY PREDICTED BY IDOCK:   -6.40 KCAL/MOL
REMARK 924 INTRA-LIGAND FREE ENERGY PREDICTED BY IDOCK:   -1.40 KCAL/MOL
REMARK 927      BINDING AFFINITY PREDICTED BY RF-SCORE:    0.00 PKD
ROOT
HETATM    1 CL   UNL     1      -6.799   9.354  62.500  1.00  0.00    -0.095 Cl 
HETATM    2  C   UNL     1      -8.102   9.820  63.520  1.00  0.00    -0.150 A  
HETATM    3  C   UNL     1      -9.081  10.685  63.037  1.00  0.00    -0.286 A  
HETATM    4  C   UNL     1     -10.099  11.121  63.897  1.00  0.00    -0.348 A  
HETATM    5 CL   UNL     1     -11.280  12.194  63.225  1.00  0.00    -0.453 Cl 
HETATM    6  C   UNL     1     -10.151  10.716  65.248  1.00  0.00    -0.363 A  
HETATM    7  C   UNL     1      -9.183   9.798  65.687  1.00  0.00    -0.252 A  
HETATM    8  C   UNL     1      -8.166   9.356  64.829  1.00  0.00    -0.145 A  
ENDROOT
BRANCH   6   9
HETATM    9  C   UNL     1     -11.144  11.354  66.211  1.00  0.00    -0.221 C  
BRANCH   9  10
HETATM   10  O   UNL     1     -10.719  11.395  67.592  1.00  0.00    -0.195 OA 
BRANCH  10  11
HETATM   11  N   UNL     1     -11.541  10.545  68.370  1.00  0.00    -0.635 NA 
HETATM   12  H   UNL     1     -12.511  10.335  68.133  1.00  0.00     0.000 HD 
BRANCH  11  13
HETATM   13  C   UNL     1     -10.938  10.057  69.421  1.00  0.00    -0.244 C  
BRANCH  13  14
HETATM   14  C   UNL     1      -9.632   9.310  69.264  1.00  0.00    -0.161 A  
HETATM   15 CL   UNL     1     -10.852   7.273  67.844  1.00  0.00    -0.223 Cl 
HETATM   16  C   UNL     1      -8.456   9.882  69.789  1.00  0.00    -0.206 A  
HETATM   17  C   UNL     1      -9.512   8.091  68.570  1.00  0.00    -0.142 A  
HETATM   18  C   UNL     1      -7.201   9.295  69.586  1.00  0.00    -0.063 A  
HETATM   19 CL   UNL     1      -5.558   7.411  68.582  1.00  0.00    -0.022 Cl 
HETATM   20  C   UNL     1      -7.103   8.109  68.870  1.00  0.00    -0.066 A  
HETATM   21  C   UNL     1      -8.252   7.497  68.376  1.00  0.00    -0.125 A  
ENDBRANCH  13  14
BRANCH  13  22
HETATM   22  C   UNL     1     -11.451  10.245  70.847  1.00  0.00    -0.339 C  
BRANCH  22  23
HETATM   23  N   UNL     1     -12.488   9.300  71.238  1.00  0.00    -0.318 NA 
HETATM   24  C   UNL     1     -13.760   9.629  71.622  1.00  0.00    -0.253 A  
HETATM   25  N   UNL     1     -13.493   7.395  71.742  1.00  0.00    -0.342 NA 
HETATM   26  C   UNL     1     -12.380   7.941  71.299  1.00  0.00    -0.281 A  
HETATM   27  C   UNL     1     -14.358   8.434  71.944  1.00  0.00    -0.473 A  
ENDBRANCH  22  23
ENDBRANCH  13  22
ENDBRANCH  11  13
ENDBRANCH  10  11
ENDBRANCH   9  10
ENDBRANCH   6   9
TORSDOF 7
ENDMDL
MODEL      176
REMARK 921   NORMALIZED FREE ENERGY PREDICTED BY IDOCK:   -4.74 KCAL/MOL
REMARK 922        TOTAL FREE ENERGY PREDICTED BY IDOCK:   -7.79 KCAL/MOL
REMARK 923 INTER-LIGAND FREE ENERGY PREDICTED BY IDOCK:   -6.78 KCAL/MOL
REMARK 924 INTRA-LIGAND FREE ENERGY PREDICTED BY IDOCK:   -1.01 KCAL/MOL
REMARK 927      BINDING AFFINITY PREDICTED BY RF-SCORE:    0.00 PKD
ROOT
HETATM    1 CL   UNL     1     -13.196  14.638  72.982  1.00  0.00    -0.591 Cl 
HETATM    2  C   UNL     1     -12.577  14.565  71.380  1.00  0.00    -0.341 A  
HETATM    3  C   UNL     1     -12.094  15.723  70.773  1.00  0.00    -0.448 A  
HETATM    4  C   UNL     1     -11.662  15.672  69.441  1.00  0.00    -0.383 A  
HETATM    5 CL   UNL     1     -11.076  17.151  68.755  1.00  0.00    -0.119 Cl 
HETATM    6  C   UNL     1     -11.714  14.479  68.690  1.00  0.00    -0.364 A  
HETATM    7  C   UNL     1     -12.150  13.318  69.348  1.00  0.00    -0.301 A  
HETATM    8  C   UNL     1     -12.579  13.362  70.682  1.00  0.00    -0.325 A  
ENDROOT
BRANCH   6   9
HETATM    9  C   UNL     1     -11.428  14.491  67.194  1.00  0.00    -0.368 C  
BRANCH   9  10
HETATM   10  O   UNL     1     -10.034  14.355  66.835  1.00  0.00    -0.251 OA 
BRANCH  10  11
HETATM   11  N   UNL     1      -9.920  13.601  65.642  1.00  0.00    -0.425 NA 
HETATM   12  H   UNL     1      -9.915  14.021  64.713  1.00  0.00     0.000 HD 
BRANCH  11  13
HETATM   13  C   UNL     1      -9.822  12.315  65.848  1.00  0.00    -0.251 C  
BRANCH  13  14
HETATM   14  C   UNL     1      -9.071  11.797  67.056  1.00  0.00    -0.187 A  
HETATM   15 CL   UNL     1     -11.259  10.334  67.910  1.00  0.00    -0.346 Cl 
HETATM   16  C   UNL     1      -7.724  12.171  67.229  1.00  0.00    -0.168 A  
HETATM   17  C   UNL     1      -9.630  10.910  67.996  1.00  0.00    -0.162 A  
HETATM   18  C   UNL     1      -6.944  11.643  68.265  1.00  0.00    -0.074 A  
HETATM   19 CL   UNL     1      -6.539  10.062  70.409  1.00  0.00    -0.121 Cl 
HETATM   20  C   UNL     1      -7.507  10.745  69.162  1.00  0.00    -0.123 A  
HETATM   21  C   UNL     1      -8.848  10.389  69.042  1.00  0.00    -0.176 A  
ENDBRANCH  13  14
BRANCH  13  22
HETATM   22  C   UNL     1     -10.482  11.268  64.953  1.00  0.00    -0.314 C  
BRANCH  22  23
HETATM   23  N   UNL     1      -9.561  10.579  64.059  1.00  0.00    -0.287 NA 
HETATM   24  C   UNL     1      -9.063  11.082  62.888  1.00  0.00    -0.317 A  
HETATM   25  N   UNL     1      -8.283   8.992  63.200  1.00  0.00    -0.171 NA 
HETATM   26  C   UNL     1      -9.043   9.327  64.222  1.00  0.00    -0.021 A  
HETATM   27  C   UNL     1      -8.287  10.075  62.366  1.00  0.00    -0.151 A  
ENDBRANCH  22  23
ENDBRANCH  13  22
ENDBRANCH  11  13
ENDBRANCH  10  11
ENDBRANCH   9  10
ENDBRANCH   6   9
TORSDOF 7
ENDMDL
MODEL      177
REMARK 921   NORMALIZED FREE ENERGY PREDICTED BY IDOCK:   -4.73 KCAL/MOL
REMARK 922        TOTAL FREE ENERGY PREDICTED BY IDOCK:   -7.79 KCAL/MOL
REMARK 923 INTER-LIGAND FREE ENERGY PREDICTED BY IDOCK:   -5.57 KCAL/MOL
REMARK 924 INTRA-LIGAND FREE ENERGY PREDICTED BY IDOCK:   -2.22 KCAL/MOL
REMARK 927      BINDING AFFINITY PREDICTED BY RF-SCORE:    0.00 PKD
ROOT
HETATM    1 CL   UNL     1      -8.756   4.762  64.001  1.00  0.00    -0.144 Cl 
HETATM    2  C   UNL     1      -8.711   4.529  65.704  1.00  0.00    -0.124 A  
HETATM    3  C   UNL     1      -7.859   5.307  66.484  1.00  0.00    -0.100 A  
HETATM    4  C   UNL     1      -7.771   5.060  67.861  1.00  0.00    -0.084 A  
HETATM    5 CL   UNL     1      -6.691   6.068  68.765  1.00  0.00    -0.061 Cl 
HETATM    6  C   UNL     1      -8.516   4.033  68.479  1.00  0.00    -0.106 A  
HETATM    7  C   UNL     1      -9.408   3.307  67.674  1.00  0.00    -0.245 A  
HETATM    8  C   UNL     1      -9.503   3.553  66.297  1.00  0.00    -0.157 A  
ENDROOT
BRANCH   6   9
HETATM    9  C   UNL     1      -8.258   3.654  69.931  1.00  0.00    -0.052 C  
BRANCH   9  10
HETATM   10  O   UNL     1      -8.641   4.654  70.903  1.00  0.00    -0.101 OA 
BRANCH  10  11
HETATM   11  N   UNL     1     -10.042   4.856  70.852  1.00  0.00    -0.224 NA 
HETATM   12  H   UNL     1     -10.715   4.094  70.778  1.00  0.00     0.000 HD 
BRANCH  11  13
HETATM   13  C   UNL     1     -10.388   6.115  70.908  1.00  0.00    -0.215 C  
BRANCH  13  14
HETATM   14  C   UNL     1     -10.308   6.977  69.667  1.00  0.00    -0.222 A  
HETATM   15 CL   UNL     1      -8.554   8.738  70.882  1.00  0.00    -0.203 Cl 
HETATM   16  C   UNL     1     -11.022   6.580  68.519  1.00  0.00    -0.360 A  
HETATM   17  C   UNL     1      -9.511   8.134  69.575  1.00  0.00    -0.156 A  
HETATM   18  C   UNL     1     -10.907   7.275  67.308  1.00  0.00    -0.354 A  
HETATM   19 CL   UNL     1      -9.914   9.222  65.733  1.00  0.00    -0.320 Cl 
HETATM   20  C   UNL     1     -10.090   8.395  67.231  1.00  0.00    -0.253 A  
HETATM   21  C   UNL     1      -9.406   8.836  68.360  1.00  0.00    -0.141 A  
ENDBRANCH  13  14
BRANCH  13  22
HETATM   22  C   UNL     1     -10.937   6.780  72.168  1.00  0.00    -0.238 C  
BRANCH  22  23
HETATM   23  N   UNL     1     -12.185   7.502  71.967  1.00  0.00    -0.291 NA 
HETATM   24  C   UNL     1     -13.391   6.935  71.654  1.00  0.00    -0.219 A  
HETATM   25  N   UNL     1     -13.617   9.174  71.759  1.00  0.00    -0.399 NA 
HETATM   26  C   UNL     1     -12.374   8.851  72.048  1.00  0.00    -0.390 A  
HETATM   27  C   UNL     1     -14.259   7.992  71.514  1.00  0.00    -0.413 A  
ENDBRANCH  22  23
ENDBRANCH  13  22
ENDBRANCH  11  13
ENDBRANCH  10  11
ENDBRANCH   9  10
ENDBRANCH   6   9
TORSDOF 7
ENDMDL
MODEL      178
REMARK 921   NORMALIZED FREE ENERGY PREDICTED BY IDOCK:   -4.72 KCAL/MOL
REMARK 922        TOTAL FREE ENERGY PREDICTED BY IDOCK:   -7.77 KCAL/MOL
REMARK 923 INTER-LIGAND FREE ENERGY PREDICTED BY IDOCK:   -6.80 KCAL/MOL
REMARK 924 INTRA-LIGAND FREE ENERGY PREDICTED BY IDOCK:   -0.98 KCAL/MOL
REMARK 927      BINDING AFFINITY PREDICTED BY RF-SCORE:    0.00 PKD
ROOT
HETATM    1 CL   UNL     1     -10.350  17.813  66.081  1.00  0.00    -0.374 Cl 
HETATM    2  C   UNL     1     -10.275  16.125  65.766  1.00  0.00    -0.374 A  
HETATM    3  C   UNL     1     -11.118  15.563  64.810  1.00  0.00    -0.421 A  
HETATM    4  C   UNL     1     -11.106  14.176  64.612  1.00  0.00    -0.371 A  
HETATM    5 CL   UNL     1     -12.181  13.551  63.406  1.00  0.00    -0.476 Cl 
HETATM    6  C   UNL     1     -10.270  13.327  65.368  1.00  0.00    -0.304 A  
HETATM    7  C   UNL     1      -9.391  13.931  66.282  1.00  0.00    -0.180 A  
HETATM    8  C   UNL     1      -9.396  15.319  66.480  1.00  0.00    -0.309 A  
ENDROOT
BRANCH   6   9
HETATM    9  C   UNL     1     -10.414  11.813  65.278  1.00  0.00    -0.274 C  
BRANCH   9  10
HETATM   10  O   UNL     1     -10.812  11.161  66.505  1.00  0.00    -0.274 OA 
BRANCH  10  11
HETATM   11  N   UNL     1      -9.708  10.464  67.053  1.00  0.00    -0.173 NA 
HETATM   12  H   UNL     1      -9.104   9.851  66.504  1.00  0.00     0.000 HD 
BRANCH  11  13
HETATM   13  C   UNL     1      -9.538  10.681  68.330  1.00  0.00    -0.162 C  
BRANCH  13  14
HETATM   14  C   UNL     1     -10.592  10.234  69.320  1.00  0.00    -0.254 A  
HETATM   15 CL   UNL     1      -9.448   7.726  69.557  1.00  0.00    -0.160 Cl 
HETATM   16  C   UNL     1     -11.583  11.154  69.717  1.00  0.00    -0.409 A  
HETATM   17  C   UNL     1     -10.608   8.958  69.914  1.00  0.00    -0.221 A  
HETATM   18  C   UNL     1     -12.522  10.838  70.707  1.00  0.00    -0.481 A  
HETATM   19 CL   UNL     1     -13.623   9.211  72.550  1.00  0.00    -0.522 Cl 
HETATM   20  C   UNL     1     -12.499   9.584  71.303  1.00  0.00    -0.346 A  
HETATM   21  C   UNL     1     -11.559   8.639  70.901  1.00  0.00    -0.307 A  
ENDBRANCH  13  14
BRANCH  13  22
HETATM   22  C   UNL     1      -8.283  11.324  68.913  1.00  0.00    -0.079 C  
BRANCH  22  23
HETATM   23  N   UNL     1      -7.045  10.921  68.259  1.00  0.00    -0.073 NA 
HETATM   24  C   UNL     1      -6.415  11.609  67.257  1.00  0.00    -0.120 A  
HETATM   25  N   UNL     1      -5.273   9.719  67.708  1.00  0.00    -0.036 NA 
HETATM   26  C   UNL     1      -6.307   9.803  68.518  1.00  0.00    -0.047 A  
HETATM   27  C   UNL     1      -5.328  10.836  66.922  1.00  0.00    -0.051 A  
ENDBRANCH  22  23
ENDBRANCH  13  22
ENDBRANCH  11  13
ENDBRANCH  10  11
ENDBRANCH   9  10
ENDBRANCH   6   9
TORSDOF 7
ENDMDL
MODEL      179
REMARK 921   NORMALIZED FREE ENERGY PREDICTED BY IDOCK:   -4.71 KCAL/MOL
REMARK 922        TOTAL FREE ENERGY PREDICTED BY IDOCK:   -7.76 KCAL/MOL
REMARK 923 INTER-LIGAND FREE ENERGY PREDICTED BY IDOCK:   -6.45 KCAL/MOL
REMARK 924 INTRA-LIGAND FREE ENERGY PREDICTED BY IDOCK:   -1.31 KCAL/MOL
REMARK 927      BINDING AFFINITY PREDICTED BY RF-SCORE:    0.00 PKD
ROOT
HETATM    1 CL   UNL     1     -13.003  11.867  63.222  1.00  0.00    -0.436 Cl 
HETATM    2  C   UNL     1     -12.304  12.789  64.494  1.00  0.00    -0.445 A  
HETATM    3  C   UNL     1     -11.879  14.092  64.248  1.00  0.00    -0.420 A  
HETATM    4  C   UNL     1     -11.241  14.812  65.267  1.00  0.00    -0.366 A  
HETATM    5 CL   UNL     1     -10.742  16.426  64.887  1.00  0.00    -0.320 Cl 
HETATM    6  C   UNL     1     -11.003  14.244  66.537  1.00  0.00    -0.316 A  
HETATM    7  C   UNL     1     -11.496  12.950  66.771  1.00  0.00    -0.391 A  
HETATM    8  C   UNL     1     -12.139  12.228  65.755  1.00  0.00    -0.287 A  
ENDROOT
BRANCH   6   9
HETATM    9  C   UNL     1     -10.137  14.968  67.560  1.00  0.00    -0.228 C  
BRANCH   9  10
HETATM   10  O   UNL     1      -9.038  14.193  68.091  1.00  0.00    -0.179 OA 
BRANCH  10  11
HETATM   11  N   UNL     1      -8.364  13.535  67.034  1.00  0.00    -0.379 NA 
HETATM   12  H   UNL     1      -8.312  13.908  66.086  1.00  0.00     0.000 HD 
BRANCH  11  13
HETATM   13  C   UNL     1      -7.815  12.404  67.391  1.00  0.00    -0.174 C  
BRANCH  13  14
HETATM   14  C   UNL     1      -8.644  11.138  67.423  1.00  0.00    -0.137 A  
HETATM   15 CL   UNL     1      -7.800  10.404  64.892  1.00  0.00    -0.133 Cl 
HETATM   16  C   UNL     1      -9.384  10.842  68.584  1.00  0.00    -0.188 A  
HETATM   17  C   UNL     1      -8.674  10.203  66.371  1.00  0.00    -0.130 A  
HETATM   18  C   UNL     1     -10.086   9.637  68.719  1.00  0.00    -0.193 A  
HETATM   19 CL   UNL     1     -10.900   7.216  67.863  1.00  0.00    -0.248 Cl 
HETATM   20  C   UNL     1     -10.075   8.715  67.681  1.00  0.00    -0.213 A  
HETATM   21  C   UNL     1      -9.388   8.998  66.505  1.00  0.00    -0.246 A  
ENDBRANCH  13  14
BRANCH  13  22
HETATM   22  C   UNL     1      -6.334  12.261  67.734  1.00  0.00    -0.101 C  
BRANCH  22  23
HETATM   23  N   UNL     1      -6.026  12.447  69.145  1.00  0.00    -0.075 NA 
HETATM   24  C   UNL     1      -5.717  13.640  69.740  1.00  0.00    -0.107 A  
HETATM   25  N   UNL     1      -5.624  11.988  71.270  1.00  0.00    -0.382 NA 
HETATM   26  C   UNL     1      -5.985  11.484  70.110  1.00  0.00    -0.159 A  
HETATM   27  C   UNL     1      -5.456  13.328  71.054  1.00  0.00    -0.196 A  
ENDBRANCH  22  23
ENDBRANCH  13  22
ENDBRANCH  11  13
ENDBRANCH  10  11
ENDBRANCH   9  10
ENDBRANCH   6   9
TORSDOF 7
ENDMDL
MODEL      180
REMARK 921   NORMALIZED FREE ENERGY PREDICTED BY IDOCK:   -4.70 KCAL/MOL
REMARK 922        TOTAL FREE ENERGY PREDICTED BY IDOCK:   -7.74 KCAL/MOL
REMARK 923 INTER-LIGAND FREE ENERGY PREDICTED BY IDOCK:   -6.72 KCAL/MOL
REMARK 924 INTRA-LIGAND FREE ENERGY PREDICTED BY IDOCK:   -1.03 KCAL/MOL
REMARK 927      BINDING AFFINITY PREDICTED BY RF-SCORE:    0.00 PKD
ROOT
HETATM    1 CL   UNL     1     -13.201  15.740  71.505  1.00  0.00    -0.523 Cl 
HETATM    2  C   UNL     1     -12.076  15.377  70.257  1.00  0.00    -0.369 A  
HETATM    3  C   UNL     1     -12.536  14.917  69.025  1.00  0.00     0.057 A  
HETATM    4  C   UNL     1     -11.610  14.550  68.039  1.00  0.00    -0.336 A  
HETATM    5 CL   UNL     1     -12.257  13.987  66.534  1.00  0.00    -0.487 Cl 
HETATM    6  C   UNL     1     -10.219  14.624  68.264  1.00  0.00    -0.227 A  
HETATM    7  C   UNL     1      -9.789  15.148  69.493  1.00  0.00    -0.191 A  
HETATM    8  C   UNL     1     -10.711  15.520  70.482  1.00  0.00    -0.309 A  
ENDROOT
BRANCH   6   9
HETATM    9  C   UNL     1      -9.238  14.037  67.257  1.00  0.00    -0.230 C  
BRANCH   9  10
HETATM   10  O   UNL     1      -8.456  12.921  67.740  1.00  0.00    -0.159 OA 
BRANCH  10  11
HETATM   11  N   UNL     1      -9.259  12.099  68.567  1.00  0.00    -0.348 NA 
HETATM   12  H   UNL     1      -9.297  12.193  69.582  1.00  0.00     0.000 HD 
BRANCH  11  13
HETATM   13  C   UNL     1      -9.947  11.209  67.904  1.00  0.00    -0.173 C  
BRANCH  13  14
HETATM   14  C   UNL     1      -9.295  10.432  66.781  1.00  0.00    -0.181 A  
HETATM   15 CL   UNL     1      -7.825   8.904  68.558  1.00  0.00    -0.102 Cl 
HETATM   16  C   UNL     1      -9.671  10.716  65.453  1.00  0.00    -0.306 A  
HETATM   17  C   UNL     1      -8.368   9.394  66.991  1.00  0.00    -0.127 A  
HETATM   18  C   UNL     1      -9.185   9.962  64.376  1.00  0.00    -0.317 A  
HETATM   19 CL   UNL     1      -7.733   7.969  63.294  1.00  0.00    -0.136 Cl 
HETATM   20  C   UNL     1      -8.295   8.922  64.610  1.00  0.00    -0.170 A  
HETATM   21  C   UNL     1      -7.873   8.645  65.907  1.00  0.00    -0.102 A  
ENDBRANCH  13  14
BRANCH  13  22
HETATM   22  C   UNL     1     -11.394  10.848  68.234  1.00  0.00    -0.308 C  
BRANCH  22  23
HETATM   23  N   UNL     1     -11.615  10.473  69.624  1.00  0.00    -0.266 NA 
HETATM   24  C   UNL     1     -10.966   9.469  70.289  1.00  0.00    -0.269 A  
HETATM   25  N   UNL     1     -12.477  10.425  71.660  1.00  0.00    -0.395 NA 
HETATM   26  C   UNL     1     -12.497  11.041  70.496  1.00  0.00    -0.344 A  
HETATM   27  C   UNL     1     -11.528   9.448  71.543  1.00  0.00    -0.397 A  
ENDBRANCH  22  23
ENDBRANCH  13  22
ENDBRANCH  11  13
ENDBRANCH  10  11
ENDBRANCH   9  10
ENDBRANCH   6   9
TORSDOF 7
ENDMDL
MODEL      181
REMARK 921   NORMALIZED FREE ENERGY PREDICTED BY IDOCK:   -4.69 KCAL/MOL
REMARK 922        TOTAL FREE ENERGY PREDICTED BY IDOCK:   -7.72 KCAL/MOL
REMARK 923 INTER-LIGAND FREE ENERGY PREDICTED BY IDOCK:   -6.94 KCAL/MOL
REMARK 924 INTRA-LIGAND FREE ENERGY PREDICTED BY IDOCK:   -0.78 KCAL/MOL
REMARK 927      BINDING AFFINITY PREDICTED BY RF-SCORE:    0.00 PKD
ROOT
HETATM    1 CL   UNL     1     -12.957  12.589  64.357  1.00  0.00    -0.373 Cl 
HETATM    2  C   UNL     1     -11.764  12.798  65.577  1.00  0.00    -0.395 A  
HETATM    3  C   UNL     1     -12.151  13.165  66.864  1.00  0.00    -0.377 A  
HETATM    4  C   UNL     1     -11.169  13.409  67.834  1.00  0.00    -0.275 A  
HETATM    5 CL   UNL     1     -11.726  13.861  69.411  1.00  0.00    -0.342 Cl 
HETATM    6  C   UNL     1      -9.793  13.305  67.538  1.00  0.00    -0.220 A  
HETATM    7  C   UNL     1      -9.439  12.876  66.249  1.00  0.00    -0.205 A  
HETATM    8  C   UNL     1     -10.418  12.627  65.276  1.00  0.00    -0.312 A  
ENDROOT
BRANCH   6   9
HETATM    9  C   UNL     1      -8.746  13.764  68.544  1.00  0.00    -0.118 C  
BRANCH   9  10
HETATM   10  O   UNL     1      -7.741  14.661  68.019  1.00  0.00    -0.112 OA 
BRANCH  10  11
HETATM   11  N   UNL     1      -7.160  15.399  69.078  1.00  0.00    -0.132 NA 
HETATM   12  H   UNL     1      -7.056  15.032  70.024  1.00  0.00     0.000 HD 
BRANCH  11  13
HETATM   13  C   UNL     1      -6.768  16.594  68.726  1.00  0.00    -0.174 C  
BRANCH  13  14
HETATM   14  C   UNL     1      -7.714  17.510  67.980  1.00  0.00    -0.211 A  
HETATM   15 CL   UNL     1      -5.995  17.688  65.819  1.00  0.00    -0.174 Cl 
HETATM   16  C   UNL     1      -8.950  17.836  68.572  1.00  0.00    -0.288 A  
HETATM   17  C   UNL     1      -7.451  18.017  66.693  1.00  0.00    -0.224 A  
HETATM   18  C   UNL     1      -9.913  18.592  67.891  1.00  0.00    -0.374 A  
HETATM   19 CL   UNL     1     -10.844  19.943  65.754  1.00  0.00    -0.459 Cl 
HETATM   20  C   UNL     1      -9.645  19.054  66.609  1.00  0.00    -0.340 A  
HETATM   21  C   UNL     1      -8.416  18.784  66.014  1.00  0.00    -0.062 A  
ENDBRANCH  13  14
BRANCH  13  22
HETATM   22  C   UNL     1      -5.396  17.166  69.076  1.00  0.00    -0.148 C  
BRANCH  22  23
HETATM   23  N   UNL     1      -5.430  18.240  70.059  1.00  0.00    -0.230 NA 
HETATM   24  C   UNL     1      -5.749  19.546  69.800  1.00  0.00    -0.253 A  
HETATM   25  N   UNL     1      -5.226  19.317  71.980  1.00  0.00    -0.700 NA 
HETATM   26  C   UNL     1      -5.149  18.142  71.391  1.00  0.00    -0.138 A  
HETATM   27  C   UNL     1      -5.600  20.196  71.002  1.00  0.00    -0.307 A  
ENDBRANCH  22  23
ENDBRANCH  13  22
ENDBRANCH  11  13
ENDBRANCH  10  11
ENDBRANCH   9  10
ENDBRANCH   6   9
TORSDOF 7
ENDMDL
MODEL      182
REMARK 921   NORMALIZED FREE ENERGY PREDICTED BY IDOCK:   -4.69 KCAL/MOL
REMARK 922        TOTAL FREE ENERGY PREDICTED BY IDOCK:   -7.72 KCAL/MOL
REMARK 923 INTER-LIGAND FREE ENERGY PREDICTED BY IDOCK:   -6.59 KCAL/MOL
REMARK 924 INTRA-LIGAND FREE ENERGY PREDICTED BY IDOCK:   -1.14 KCAL/MOL
REMARK 927      BINDING AFFINITY PREDICTED BY RF-SCORE:    0.00 PKD
ROOT
HETATM    1 CL   UNL     1      -9.425   4.221  69.332  1.00  0.00    -0.241 Cl 
HETATM    2  C   UNL     1      -8.973   5.876  69.223  1.00  0.00    -0.117 A  
HETATM    3  C   UNL     1      -8.827   6.470  67.971  1.00  0.00    -0.114 A  
HETATM    4  C   UNL     1      -8.384   7.797  67.887  1.00  0.00    -0.123 A  
HETATM    5 CL   UNL     1      -8.227   8.467  66.298  1.00  0.00    -0.106 Cl 
HETATM    6  C   UNL     1      -8.068   8.547  69.040  1.00  0.00    -0.115 A  
HETATM    7  C   UNL     1      -8.282   7.939  70.288  1.00  0.00    -0.124 A  
HETATM    8  C   UNL     1      -8.729   6.613  70.377  1.00  0.00    -0.151 A  
ENDROOT
BRANCH   6   9
HETATM    9  C   UNL     1      -7.403   9.913  68.920  1.00  0.00    -0.078 C  
BRANCH   9  10
HETATM   10  O   UNL     1      -8.205  10.931  68.280  1.00  0.00    -0.115 OA 
BRANCH  10  11
HETATM   11  N   UNL     1      -9.297  11.272  69.115  1.00  0.00    -0.407 NA 
HETATM   12  H   UNL     1      -9.185  11.679  70.044  1.00  0.00     0.000 HD 
BRANCH  11  13
HETATM   13  C   UNL     1     -10.461  11.016  68.580  1.00  0.00    -0.189 C  
BRANCH  13  14
HETATM   14  C   UNL     1     -11.042  11.956  67.546  1.00  0.00    -0.332 A  
HETATM   15 CL   UNL     1     -11.562  13.891  69.454  1.00  0.00    -0.328 Cl 
HETATM   16  C   UNL     1     -11.050  11.557  66.195  1.00  0.00    -0.302 A  
HETATM   17  C   UNL     1     -11.529  13.242  67.852  1.00  0.00    -0.306 A  
HETATM   18  C   UNL     1     -11.475  12.421  65.177  1.00  0.00    -0.379 A  
HETATM   19 CL   UNL     1     -12.401  14.773  64.247  1.00  0.00    -0.472 Cl 
HETATM   20  C   UNL     1     -11.921  13.697  65.499  1.00  0.00    -0.384 A  
HETATM   21  C   UNL     1     -11.965  14.104  66.829  1.00  0.00    -0.475 A  
ENDBRANCH  13  14
BRANCH  13  22
HETATM   22  C   UNL     1     -11.273   9.763  68.897  1.00  0.00    -0.030 C  
BRANCH  22  23
HETATM   23  N   UNL     1     -11.900   9.773  70.211  1.00  0.00    -0.196 NA 
HETATM   24  C   UNL     1     -11.811   8.773  71.142  1.00  0.00    -0.295 A  
HETATM   25  N   UNL     1     -13.126  10.423  71.933  1.00  0.00    -0.466 NA 
HETATM   26  C   UNL     1     -12.679  10.759  70.741  1.00  0.00    -0.360 A  
HETATM   27  C   UNL     1     -12.592   9.192  72.193  1.00  0.00    -0.381 A  
ENDBRANCH  22  23
ENDBRANCH  13  22
ENDBRANCH  11  13
ENDBRANCH  10  11
ENDBRANCH   9  10
ENDBRANCH   6   9
TORSDOF 7
ENDMDL
MODEL      183
REMARK 921   NORMALIZED FREE ENERGY PREDICTED BY IDOCK:   -4.68 KCAL/MOL
REMARK 922        TOTAL FREE ENERGY PREDICTED BY IDOCK:   -7.72 KCAL/MOL
REMARK 923 INTER-LIGAND FREE ENERGY PREDICTED BY IDOCK:   -5.59 KCAL/MOL
REMARK 924 INTRA-LIGAND FREE ENERGY PREDICTED BY IDOCK:   -2.13 KCAL/MOL
REMARK 927      BINDING AFFINITY PREDICTED BY RF-SCORE:    0.00 PKD
ROOT
HETATM    1 CL   UNL     1      -9.679   3.357  64.909  1.00  0.00    -0.158 Cl 
HETATM    2  C   UNL     1      -9.008   3.969  66.368  1.00  0.00    -0.128 A  
HETATM    3  C   UNL     1      -8.081   5.008  66.319  1.00  0.00    -0.108 A  
HETATM    4  C   UNL     1      -7.480   5.451  67.505  1.00  0.00    -0.084 A  
HETATM    5 CL   UNL     1      -6.339   6.746  67.364  1.00  0.00    -0.042 Cl 
HETATM    6  C   UNL     1      -7.780   4.862  68.752  1.00  0.00    -0.077 A  
HETATM    7  C   UNL     1      -8.761   3.858  68.775  1.00  0.00    -0.135 A  
HETATM    8  C   UNL     1      -9.368   3.414  67.591  1.00  0.00    -0.246 A  
ENDROOT
BRANCH   6   9
HETATM    9  C   UNL     1      -6.974   5.221  69.994  1.00  0.00    -0.060 C  
BRANCH   9  10
HETATM   10  O   UNL     1      -7.169   6.568  70.482  1.00  0.00    -0.070 OA 
BRANCH  10  11
HETATM   11  N   UNL     1      -8.483   6.706  70.990  1.00  0.00    -0.128 NA 
HETATM   12  H   UNL     1      -8.957   5.976  71.522  1.00  0.00     0.000 HD 
BRANCH  11  13
HETATM   13  C   UNL     1      -9.030   7.859  70.710  1.00  0.00    -0.140 C  
BRANCH  13  14
HETATM   14  C   UNL     1      -9.248   8.263  69.268  1.00  0.00    -0.151 A  
HETATM   15 CL   UNL     1     -11.275   6.406  68.951  1.00  0.00    -0.410 Cl 
HETATM   16  C   UNL     1      -8.475   9.312  68.733  1.00  0.00    -0.129 A  
HETATM   17  C   UNL     1     -10.227   7.682  68.438  1.00  0.00    -0.198 A  
HETATM   18  C   UNL     1      -8.700   9.804  67.441  1.00  0.00    -0.133 A  
HETATM   19 CL   UNL     1      -9.999   9.870  65.082  1.00  0.00    -0.362 Cl 
HETATM   20  C   UNL     1      -9.693   9.237  66.652  1.00  0.00    -0.219 A  
HETATM   21  C   UNL     1     -10.444   8.171  67.137  1.00  0.00    -0.396 A  
ENDBRANCH  13  14
BRANCH  13  22
HETATM   22  C   UNL     1      -9.531   8.832  71.775  1.00  0.00    -0.293 C  
BRANCH  22  23
HETATM   23  N   UNL     1     -10.975   9.021  71.780  1.00  0.00    -0.359 NA 
HETATM   24  C   UNL     1     -11.643  10.059  71.189  1.00  0.00    -0.378 A  
HETATM   25  N   UNL     1     -13.119   8.708  72.226  1.00  0.00    -0.373 NA 
HETATM   26  C   UNL     1     -11.906   8.217  72.370  1.00  0.00    -0.388 A  
HETATM   27  C   UNL     1     -12.968   9.852  71.493  1.00  0.00    -0.422 A  
ENDBRANCH  22  23
ENDBRANCH  13  22
ENDBRANCH  11  13
ENDBRANCH  10  11
ENDBRANCH   9  10
ENDBRANCH   6   9
TORSDOF 7
ENDMDL
MODEL      184
REMARK 921   NORMALIZED FREE ENERGY PREDICTED BY IDOCK:   -4.68 KCAL/MOL
REMARK 922        TOTAL FREE ENERGY PREDICTED BY IDOCK:   -7.72 KCAL/MOL
REMARK 923 INTER-LIGAND FREE ENERGY PREDICTED BY IDOCK:   -6.94 KCAL/MOL
REMARK 924 INTRA-LIGAND FREE ENERGY PREDICTED BY IDOCK:   -0.78 KCAL/MOL
REMARK 927      BINDING AFFINITY PREDICTED BY RF-SCORE:    0.00 PKD
ROOT
HETATM    1 CL   UNL     1     -14.213  15.577  72.443  1.00  0.00    -0.633 Cl 
HETATM    2  C   UNL     1     -13.438  14.212  71.742  1.00  0.00    -0.390 A  
HETATM    3  C   UNL     1     -12.626  14.380  70.622  1.00  0.00    -0.424 A  
HETATM    4  C   UNL     1     -12.059  13.254  70.009  1.00  0.00    -0.315 A  
HETATM    5 CL   UNL     1     -11.061  13.541  68.623  1.00  0.00    -0.282 Cl 
HETATM    6  C   UNL     1     -12.300  11.949  70.489  1.00  0.00    -0.372 A  
HETATM    7  C   UNL     1     -13.075  11.819  71.653  1.00  0.00    -0.443 A  
HETATM    8  C   UNL     1     -13.641  12.943  72.272  1.00  0.00    -0.611 A  
ENDROOT
BRANCH   6   9
HETATM    9  C   UNL     1     -11.839  10.733  69.696  1.00  0.00    -0.320 C  
BRANCH   9  10
HETATM   10  O   UNL     1     -10.668  10.067  70.218  1.00  0.00    -0.276 OA 
BRANCH  10  11
HETATM   11  N   UNL     1      -9.712   9.903  69.187  1.00  0.00    -0.187 NA 
HETATM   12  H   UNL     1      -8.753  10.244  69.252  1.00  0.00     0.000 HD 
BRANCH  11  13
HETATM   13  C   UNL     1     -10.178   9.272  68.142  1.00  0.00    -0.205 C  
BRANCH  13  14
HETATM   14  C   UNL     1      -9.851   9.769  66.750  1.00  0.00    -0.265 A  
HETATM   15 CL   UNL     1      -7.767   7.968  66.490  1.00  0.00    -0.092 Cl 
HETATM   16  C   UNL     1     -10.651  10.782  66.186  1.00  0.00    -0.241 A  
HETATM   17  C   UNL     1      -8.818   9.233  65.957  1.00  0.00    -0.160 A  
HETATM   18  C   UNL     1     -10.469  11.211  64.865  1.00  0.00    -0.372 A  
HETATM   19 CL   UNL     1      -9.268  11.140  62.455  1.00  0.00    -0.357 Cl 
HETATM   20  C   UNL     1      -9.464  10.645  64.091  1.00  0.00    -0.281 A  
HETATM   21  C   UNL     1      -8.630   9.673  64.634  1.00  0.00    -0.201 A  
ENDBRANCH  13  14
BRANCH  13  22
HETATM   22  C   UNL     1     -11.010   7.995  68.234  1.00  0.00     0.218 C  
BRANCH  22  23
HETATM   23  N   UNL     1     -10.237   6.799  68.539  1.00  0.00    -0.166 NA 
HETATM   24  C   UNL     1      -9.426   6.632  69.628  1.00  0.00    -0.142 A  
HETATM   25  N   UNL     1      -9.343   4.786  68.339  1.00  0.00    -0.125 NA 
HETATM   26  C   UNL     1     -10.179   5.651  67.804  1.00  0.00    -0.193 A  
HETATM   27  C   UNL     1      -8.870   5.384  69.474  1.00  0.00    -0.105 A  
ENDBRANCH  22  23
ENDBRANCH  13  22
ENDBRANCH  11  13
ENDBRANCH  10  11
ENDBRANCH   9  10
ENDBRANCH   6   9
TORSDOF 7
ENDMDL
MODEL      185
REMARK 921   NORMALIZED FREE ENERGY PREDICTED BY IDOCK:   -4.68 KCAL/MOL
REMARK 922        TOTAL FREE ENERGY PREDICTED BY IDOCK:   -7.71 KCAL/MOL
REMARK 923 INTER-LIGAND FREE ENERGY PREDICTED BY IDOCK:   -7.07 KCAL/MOL
REMARK 924 INTRA-LIGAND FREE ENERGY PREDICTED BY IDOCK:   -0.64 KCAL/MOL
REMARK 927      BINDING AFFINITY PREDICTED BY RF-SCORE:    0.00 PKD
ROOT
HETATM    1 CL   UNL     1      -8.905  18.000  68.011  1.00  0.00    -0.268 Cl 
HETATM    2  C   UNL     1      -9.810  16.573  68.323  1.00  0.00    -0.243 A  
HETATM    3  C   UNL     1     -10.834  16.598  69.268  1.00  0.00    -0.310 A  
HETATM    4  C   UNL     1     -11.518  15.413  69.574  1.00  0.00    -0.319 A  
HETATM    5 CL   UNL     1     -12.777  15.524  70.757  1.00  0.00    -0.499 Cl 
HETATM    6  C   UNL     1     -11.187  14.187  68.957  1.00  0.00    -0.303 A  
HETATM    7  C   UNL     1     -10.191  14.208  67.968  1.00  0.00    -0.232 A  
HETATM    8  C   UNL     1      -9.508  15.391  67.655  1.00  0.00    -0.205 A  
ENDROOT
BRANCH   6   9
HETATM    9  C   UNL     1     -11.804  12.883  69.445  1.00  0.00    -0.312 C  
BRANCH   9  10
HETATM   10  O   UNL     1     -11.031  11.695  69.161  1.00  0.00    -0.227 OA 
BRANCH  10  11
HETATM   11  N   UNL     1     -11.154  10.779  70.234  1.00  0.00    -0.454 NA 
HETATM   12  H   UNL     1     -11.728  10.956  71.058  1.00  0.00     0.000 HD 
BRANCH  11  13
HETATM   13  C   UNL     1     -10.460   9.685  70.065  1.00  0.00    -0.261 C  
BRANCH  13  14
HETATM   14  C   UNL     1     -10.824   8.432  70.833  1.00  0.00    -0.267 A  
HETATM   15 CL   UNL     1     -11.084   6.962  68.503  1.00  0.00    -0.184 Cl 
HETATM   16  C   UNL     1     -10.843   8.480  72.240  1.00  0.00    -0.418 A  
HETATM   17  C   UNL     1     -11.095   7.195  70.217  1.00  0.00    -0.274 A  
HETATM   18  C   UNL     1     -11.068   7.332  73.011  1.00  0.00    -0.361 A  
HETATM   19 CL   UNL     1     -11.532   4.698  73.327  1.00  0.00    -0.394 Cl 
HETATM   20  C   UNL     1     -11.300   6.116  72.382  1.00  0.00    -0.296 A  
HETATM   21  C   UNL     1     -11.331   6.045  70.992  1.00  0.00    -0.299 A  
ENDBRANCH  13  14
BRANCH  13  22
HETATM   22  C   UNL     1      -9.305   9.567  69.073  1.00  0.00    -0.155 C  
BRANCH  22  23
HETATM   23  N   UNL     1      -8.061  10.170  69.530  1.00  0.00    -0.159 NA 
HETATM   24  C   UNL     1      -7.457  11.265  68.974  1.00  0.00    -0.116 A  
HETATM   25  N   UNL     1      -6.199  10.497  70.678  1.00  0.00    -0.268 NA 
HETATM   26  C   UNL     1      -7.282   9.757  70.571  1.00  0.00    -0.120 A  
HETATM   27  C   UNL     1      -6.298  11.439  69.692  1.00  0.00    -0.127 A  
ENDBRANCH  22  23
ENDBRANCH  13  22
ENDBRANCH  11  13
ENDBRANCH  10  11
ENDBRANCH   9  10
ENDBRANCH   6   9
TORSDOF 7
ENDMDL
MODEL      186
REMARK 921   NORMALIZED FREE ENERGY PREDICTED BY IDOCK:   -4.67 KCAL/MOL
REMARK 922        TOTAL FREE ENERGY PREDICTED BY IDOCK:   -7.69 KCAL/MOL
REMARK 923 INTER-LIGAND FREE ENERGY PREDICTED BY IDOCK:   -7.07 KCAL/MOL
REMARK 924 INTRA-LIGAND FREE ENERGY PREDICTED BY IDOCK:   -0.62 KCAL/MOL
REMARK 927      BINDING AFFINITY PREDICTED BY RF-SCORE:    0.00 PKD
ROOT
HETATM    1 CL   UNL     1      -7.827   1.532  69.640  1.00  0.00    -0.044 Cl 
HETATM    2  C   UNL     1      -8.697   2.999  69.423  1.00  0.00    -0.077 A  
HETATM    3  C   UNL     1      -9.267   3.632  70.525  1.00  0.00    -0.210 A  
HETATM    4  C   UNL     1     -10.040   4.785  70.332  1.00  0.00    -0.231 A  
HETATM    5 CL   UNL     1     -10.716   5.517  71.749  1.00  0.00    -0.295 Cl 
HETATM    6  C   UNL     1     -10.268   5.317  69.045  1.00  0.00    -0.269 A  
HETATM    7  C   UNL     1      -9.631   4.689  67.962  1.00  0.00    -0.207 A  
HETATM    8  C   UNL     1      -8.853   3.538  68.151  1.00  0.00    -0.153 A  
ENDROOT
BRANCH   6   9
HETATM    9  C   UNL     1     -11.267   6.448  68.839  1.00  0.00    -0.307 C  
BRANCH   9  10
HETATM   10  O   UNL     1     -10.904   7.410  67.822  1.00  0.00    -0.194 OA 
BRANCH  10  11
HETATM   11  N   UNL     1      -9.759   8.132  68.237  1.00  0.00    -0.157 NA 
HETATM   12  H   UNL     1      -8.866   7.689  68.453  1.00  0.00     0.000 HD 
BRANCH  11  13
HETATM   13  C   UNL     1      -9.957   9.421  68.314  1.00  0.00    -0.174 C  
BRANCH  13  14
HETATM   14  C   UNL     1     -10.248  10.219  67.062  1.00  0.00    -0.282 A  
HETATM   15 CL   UNL     1      -8.687   8.542  65.511  1.00  0.00    -0.205 Cl 
HETATM   16  C   UNL     1     -11.117  11.324  67.149  1.00  0.00    -0.364 A  
HETATM   17  C   UNL     1      -9.741   9.884  65.792  1.00  0.00    -0.266 A  
HETATM   18  C   UNL     1     -11.511  12.039  66.010  1.00  0.00    -0.399 A  
HETATM   19 CL   UNL     1     -11.541  12.519  63.360  1.00  0.00    -0.554 Cl 
HETATM   20  C   UNL     1     -11.023  11.671  64.763  1.00  0.00    -0.289 A  
HETATM   21  C   UNL     1     -10.130  10.609  64.651  1.00  0.00    -0.417 A  
ENDBRANCH  13  14
BRANCH  13  22
HETATM   22  C   UNL     1      -9.970  10.191  69.633  1.00  0.00    -0.232 C  
BRANCH  22  23
HETATM   23  N   UNL     1     -11.130   9.922  70.471  1.00  0.00    -0.307 NA 
HETATM   24  C   UNL     1     -12.323  10.590  70.415  1.00  0.00    -0.324 A  
HETATM   25  N   UNL     1     -12.405   9.039  72.047  1.00  0.00    -0.373 NA 
HETATM   26  C   UNL     1     -11.234   8.977  71.450  1.00  0.00    -0.324 A  
HETATM   27  C   UNL     1     -13.091  10.036  71.412  1.00  0.00    -0.417 A  
ENDBRANCH  22  23
ENDBRANCH  13  22
ENDBRANCH  11  13
ENDBRANCH  10  11
ENDBRANCH   9  10
ENDBRANCH   6   9
TORSDOF 7
ENDMDL
MODEL      187
REMARK 921   NORMALIZED FREE ENERGY PREDICTED BY IDOCK:   -4.66 KCAL/MOL
REMARK 922        TOTAL FREE ENERGY PREDICTED BY IDOCK:   -7.69 KCAL/MOL
REMARK 923 INTER-LIGAND FREE ENERGY PREDICTED BY IDOCK:   -7.30 KCAL/MOL
REMARK 924 INTRA-LIGAND FREE ENERGY PREDICTED BY IDOCK:   -0.39 KCAL/MOL
REMARK 927      BINDING AFFINITY PREDICTED BY RF-SCORE:    0.00 PKD
ROOT
HETATM    1 CL   UNL     1     -10.127  16.867  65.933  1.00  0.00    -0.327 Cl 
HETATM    2  C   UNL     1     -10.302  15.189  66.259  1.00  0.00    -0.294 A  
HETATM    3  C   UNL     1     -10.459  14.293  65.204  1.00  0.00    -0.432 A  
HETATM    4  C   UNL     1     -10.677  12.937  65.479  1.00  0.00    -0.279 A  
HETATM    5 CL   UNL     1     -10.863  11.885  64.116  1.00  0.00    -0.374 Cl 
HETATM    6  C   UNL     1     -10.756  12.453  66.803  1.00  0.00    -0.263 A  
HETATM    7  C   UNL     1     -10.534  13.371  67.842  1.00  0.00    -0.243 A  
HETATM    8  C   UNL     1     -10.311  14.728  67.571  1.00  0.00    -0.238 A  
ENDROOT
BRANCH   6   9
HETATM    9  C   UNL     1     -11.189  11.019  67.080  1.00  0.00    -0.217 C  
BRANCH   9  10
HETATM   10  O   UNL     1     -10.274  10.248  67.892  1.00  0.00    -0.167 OA 
BRANCH  10  11
HETATM   11  N   UNL     1     -10.770   8.931  68.049  1.00  0.00    -0.445 NA 
HETATM   12  H   UNL     1     -11.289   8.438  67.323  1.00  0.00     0.000 HD 
BRANCH  11  13
HETATM   13  C   UNL     1     -10.498   8.410  69.216  1.00  0.00    -0.215 C  
BRANCH  13  14
HETATM   14  C   UNL     1     -10.306   6.914  69.349  1.00  0.00    -0.220 A  
HETATM   15 CL   UNL     1     -10.500   6.545  66.614  1.00  0.00    -0.263 Cl 
HETATM   16  C   UNL     1     -10.086   6.371  70.630  1.00  0.00    -0.221 A  
HETATM   17  C   UNL     1     -10.277   6.034  68.251  1.00  0.00    -0.181 A  
HETATM   18  C   UNL     1      -9.796   5.012  70.811  1.00  0.00    -0.279 A  
HETATM   19 CL   UNL     1      -9.342   2.509  69.925  1.00  0.00    -0.199 Cl 
HETATM   20  C   UNL     1      -9.741   4.168  69.709  1.00  0.00    -0.208 A  
HETATM   21  C   UNL     1      -9.996   4.668  68.436  1.00  0.00    -0.134 A  
ENDBRANCH  13  14
BRANCH  13  22
HETATM   22  C   UNL     1     -10.300   9.240  70.482  1.00  0.00    -0.254 C  
BRANCH  22  23
HETATM   23  N   UNL     1     -11.530   9.795  71.031  1.00  0.00    -0.352 NA 
HETATM   24  C   UNL     1     -11.953  11.088  70.886  1.00  0.00    -0.286 A  
HETATM   25  N   UNL     1     -13.426   9.954  72.158  1.00  0.00    -0.415 NA 
HETATM   26  C   UNL     1     -12.462   9.140  71.782  1.00  0.00    -0.372 A  
HETATM   27  C   UNL     1     -13.121  11.166  71.606  1.00  0.00    -0.424 A  
ENDBRANCH  22  23
ENDBRANCH  13  22
ENDBRANCH  11  13
ENDBRANCH  10  11
ENDBRANCH   9  10
ENDBRANCH   6   9
TORSDOF 7
ENDMDL
MODEL      188
REMARK 921   NORMALIZED FREE ENERGY PREDICTED BY IDOCK:   -4.66 KCAL/MOL
REMARK 922        TOTAL FREE ENERGY PREDICTED BY IDOCK:   -7.68 KCAL/MOL
REMARK 923 INTER-LIGAND FREE ENERGY PREDICTED BY IDOCK:   -6.72 KCAL/MOL
REMARK 924 INTRA-LIGAND FREE ENERGY PREDICTED BY IDOCK:   -0.96 KCAL/MOL
REMARK 927      BINDING AFFINITY PREDICTED BY RF-SCORE:    0.00 PKD
ROOT
HETATM    1 CL   UNL     1      -8.794  19.807  68.351  1.00  0.00    -0.345 Cl 
HETATM    2  C   UNL     1      -9.164  18.138  68.173  1.00  0.00    -0.291 A  
HETATM    3  C   UNL     1      -8.238  17.178  68.575  1.00  0.00    -0.261 A  
HETATM    4  C   UNL     1      -8.514  15.822  68.356  1.00  0.00    -0.170 A  
HETATM    5 CL   UNL     1      -7.315  14.688  68.884  1.00  0.00    -0.121 Cl 
HETATM    6  C   UNL     1      -9.703  15.400  67.725  1.00  0.00    -0.211 A  
HETATM    7  C   UNL     1     -10.641  16.388  67.385  1.00  0.00    -0.306 A  
HETATM    8  C   UNL     1     -10.372  17.746  67.606  1.00  0.00    -0.375 A  
ENDROOT
BRANCH   6   9
HETATM    9  C   UNL     1      -9.892  13.943  67.321  1.00  0.00    -0.244 C  
BRANCH   9  10
HETATM   10  O   UNL     1     -10.279  13.054  68.393  1.00  0.00    -0.242 OA 
BRANCH  10  11
HETATM   11  N   UNL     1      -9.301  12.042  68.549  1.00  0.00    -0.336 NA 
HETATM   12  H   UNL     1      -8.308  12.238  68.674  1.00  0.00     0.000 HD 
BRANCH  11  13
HETATM   13  C   UNL     1      -9.794  10.833  68.517  1.00  0.00    -0.177 C  
BRANCH  13  14
HETATM   14  C   UNL     1     -10.031  10.078  69.807  1.00  0.00    -0.276 A  
HETATM   15 CL   UNL     1     -12.648  10.966  69.961  1.00  0.00    -0.315 Cl 
HETATM   16  C   UNL     1      -8.989   9.290  70.333  1.00  0.00    -0.278 A  
HETATM   17  C   UNL     1     -11.263  10.075  70.490  1.00  0.00    -0.336 A  
HETATM   18  C   UNL     1      -9.177   8.484  71.464  1.00  0.00    -0.288 A  
HETATM   19 CL   UNL     1     -10.655   7.450  73.464  1.00  0.00    -0.422 Cl 
HETATM   20  C   UNL     1     -10.410   8.472  72.102  1.00  0.00    -0.339 A  
HETATM   21  C   UNL     1     -11.446   9.273  71.632  1.00  0.00    -0.468 A  
ENDBRANCH  13  14
BRANCH  13  22
HETATM   22  C   UNL     1     -10.213  10.130  67.228  1.00  0.00    -0.222 C  
BRANCH  22  23
HETATM   23  N   UNL     1      -9.148  10.003  66.243  1.00  0.00    -0.147 NA 
HETATM   24  C   UNL     1      -9.124  10.607  65.015  1.00  0.00    -0.202 A  
HETATM   25  N   UNL     1      -7.282   9.333  65.263  1.00  0.00    -0.089 NA 
HETATM   26  C   UNL     1      -8.006   9.267  66.361  1.00  0.00    -0.107 A  
HETATM   27  C   UNL     1      -7.966  10.164  64.420  1.00  0.00    -0.153 A  
ENDBRANCH  22  23
ENDBRANCH  13  22
ENDBRANCH  11  13
ENDBRANCH  10  11
ENDBRANCH   9  10
ENDBRANCH   6   9
TORSDOF 7
ENDMDL
MODEL      189
REMARK 921   NORMALIZED FREE ENERGY PREDICTED BY IDOCK:   -4.65 KCAL/MOL
REMARK 922        TOTAL FREE ENERGY PREDICTED BY IDOCK:   -7.68 KCAL/MOL
REMARK 923 INTER-LIGAND FREE ENERGY PREDICTED BY IDOCK:   -6.56 KCAL/MOL
REMARK 924 INTRA-LIGAND FREE ENERGY PREDICTED BY IDOCK:   -1.12 KCAL/MOL
REMARK 927      BINDING AFFINITY PREDICTED BY RF-SCORE:    0.00 PKD
ROOT
HETATM    1 CL   UNL     1     -12.273  12.738  63.419  1.00  0.00    -0.623 Cl 
HETATM    2  C   UNL     1     -11.743  12.494  65.037  1.00  0.00    -0.362 A  
HETATM    3  C   UNL     1     -10.794  11.513  65.311  1.00  0.00    -0.319 A  
HETATM    4  C   UNL     1     -10.423  11.267  66.640  1.00  0.00    -0.247 A  
HETATM    5 CL   UNL     1      -9.237  10.032  66.903  1.00  0.00    -0.165 Cl 
HETATM    6  C   UNL     1     -10.996  11.982  67.714  1.00  0.00    -0.279 A  
HETATM    7  C   UNL     1     -11.906  13.004  67.399  1.00  0.00    -0.411 A  
HETATM    8  C   UNL     1     -12.277  13.256  66.070  1.00  0.00    -0.483 A  
ENDROOT
BRANCH   6   9
HETATM    9  C   UNL     1     -10.728  11.566  69.154  1.00  0.00    -0.168 C  
BRANCH   9  10
HETATM   10  O   UNL     1     -11.738  10.719  69.747  1.00  0.00    -0.270 OA 
BRANCH  10  11
HETATM   11  N   UNL     1     -11.319  10.307  71.035  1.00  0.00    -0.301 NA 
HETATM   12  H   UNL     1     -11.349  10.914  71.854  1.00  0.00     0.000 HD 
BRANCH  11  13
HETATM   13  C   UNL     1     -10.890   9.073  71.072  1.00  0.00    -0.276 C  
BRANCH  13  14
HETATM   14  C   UNL     1      -9.502   8.770  71.593  1.00  0.00    -0.358 A  
HETATM   15 CL   UNL     1     -10.511   7.370  73.756  1.00  0.00    -0.352 Cl 
HETATM   16  C   UNL     1      -8.388   9.216  70.854  1.00  0.00    -0.231 A  
HETATM   17  C   UNL     1      -9.256   8.014  72.755  1.00  0.00    -0.252 A  
HETATM   18  C   UNL     1      -7.080   8.878  71.223  1.00  0.00    -0.103 A  
HETATM   19 CL   UNL     1      -5.260   7.652  72.785  1.00  0.00    -0.037 Cl 
HETATM   20  C   UNL     1      -6.863   8.104  72.356  1.00  0.00    -0.085 A  
HETATM   21  C   UNL     1      -7.941   7.685  73.130  1.00  0.00    -0.152 A  
ENDBRANCH  13  14
BRANCH  13  22
HETATM   22  C   UNL     1     -11.744   7.874  70.665  1.00  0.00    -0.157 C  
BRANCH  22  23
HETATM   23  N   UNL     1     -11.133   7.020  69.657  1.00  0.00    -0.243 NA 
HETATM   24  C   UNL     1     -10.714   5.732  69.854  1.00  0.00    -0.342 A  
HETATM   25  N   UNL     1     -10.263   6.354  67.736  1.00  0.00    -0.145 NA 
HETATM   26  C   UNL     1     -10.867   7.344  68.359  1.00  0.00    -0.017 A  
HETATM   27  C   UNL     1     -10.164   5.346  68.654  1.00  0.00    -0.176 A  
ENDBRANCH  22  23
ENDBRANCH  13  22
ENDBRANCH  11  13
ENDBRANCH  10  11
ENDBRANCH   9  10
ENDBRANCH   6   9
TORSDOF 7
ENDMDL
MODEL      190
REMARK 921   NORMALIZED FREE ENERGY PREDICTED BY IDOCK:   -4.65 KCAL/MOL
REMARK 922        TOTAL FREE ENERGY PREDICTED BY IDOCK:   -7.67 KCAL/MOL
REMARK 923 INTER-LIGAND FREE ENERGY PREDICTED BY IDOCK:   -6.31 KCAL/MOL
REMARK 924 INTRA-LIGAND FREE ENERGY PREDICTED BY IDOCK:   -1.36 KCAL/MOL
REMARK 927      BINDING AFFINITY PREDICTED BY RF-SCORE:    0.00 PKD
ROOT
HETATM    1 CL   UNL     1     -11.656  10.348  70.736  1.00  0.00    -0.436 Cl 
HETATM    2  C   UNL     1     -11.820  11.714  69.705  1.00  0.00    -0.357 A  
HETATM    3  C   UNL     1     -11.834  11.538  68.324  1.00  0.00    -0.327 A  
HETATM    4  C   UNL     1     -11.890  12.662  67.488  1.00  0.00    -0.334 A  
HETATM    5 CL   UNL     1     -11.905  12.363  65.781  1.00  0.00    -0.475 Cl 
HETATM    6  C   UNL     1     -11.920  13.972  68.009  1.00  0.00    -0.386 A  
HETATM    7  C   UNL     1     -11.964  14.113  69.406  1.00  0.00    -0.382 A  
HETATM    8  C   UNL     1     -11.912  12.992  70.246  1.00  0.00    -0.360 A  
ENDROOT
BRANCH   6   9
HETATM    9  C   UNL     1     -11.781  15.177  67.088  1.00  0.00    -0.130 C  
BRANCH   9  10
HETATM   10  O   UNL     1     -10.429  15.488  66.683  1.00  0.00    -0.287 OA 
BRANCH  10  11
HETATM   11  N   UNL     1      -9.670  15.876  67.813  1.00  0.00    -0.219 NA 
HETATM   12  H   UNL     1     -10.085  16.265  68.660  1.00  0.00     0.000 HD 
BRANCH  11  13
HETATM   13  C   UNL     1      -8.385  15.686  67.668  1.00  0.00    -0.155 C  
BRANCH  13  14
HETATM   14  C   UNL     1      -7.664  14.687  68.546  1.00  0.00    -0.126 A  
HETATM   15 CL   UNL     1      -8.456  12.566  66.957  1.00  0.00    -0.180 Cl 
HETATM   16  C   UNL     1      -6.932  15.162  69.653  1.00  0.00    -0.192 A  
HETATM   17  C   UNL     1      -7.635  13.303  68.288  1.00  0.00    -0.139 A  
HETATM   18  C   UNL     1      -6.156  14.304  70.442  1.00  0.00    -0.176 A  
HETATM   19 CL   UNL     1      -5.131  11.899  71.092  1.00  0.00    -0.128 Cl 
HETATM   20  C   UNL     1      -6.117  12.946  70.150  1.00  0.00    -0.092 A  
HETATM   21  C   UNL     1      -6.864  12.441  69.089  1.00  0.00    -0.069 A  
ENDBRANCH  13  14
BRANCH  13  22
HETATM   22  C   UNL     1      -7.549  16.385  66.598  1.00  0.00    -0.253 C  
BRANCH  22  23
HETATM   23  N   UNL     1      -7.429  17.825  66.780  1.00  0.00    -0.197 NA 
HETATM   24  C   UNL     1      -8.149  18.774  66.105  1.00  0.00    -0.199 A  
HETATM   25  N   UNL     1      -6.702  19.783  67.506  1.00  0.00    -0.213 NA 
HETATM   26  C   UNL     1      -6.588  18.477  67.633  1.00  0.00    -0.205 A  
HETATM   27  C   UNL     1      -7.670  19.979  66.561  1.00  0.00    -0.298 A  
ENDBRANCH  22  23
ENDBRANCH  13  22
ENDBRANCH  11  13
ENDBRANCH  10  11
ENDBRANCH   9  10
ENDBRANCH   6   9
TORSDOF 7
ENDMDL
MODEL      191
REMARK 921   NORMALIZED FREE ENERGY PREDICTED BY IDOCK:   -4.64 KCAL/MOL
REMARK 922        TOTAL FREE ENERGY PREDICTED BY IDOCK:   -7.66 KCAL/MOL
REMARK 923 INTER-LIGAND FREE ENERGY PREDICTED BY IDOCK:   -6.84 KCAL/MOL
REMARK 924 INTRA-LIGAND FREE ENERGY PREDICTED BY IDOCK:   -0.82 KCAL/MOL
REMARK 927      BINDING AFFINITY PREDICTED BY RF-SCORE:    0.00 PKD
ROOT
HETATM    1 CL   UNL     1      -7.343   6.612  64.036  1.00  0.00    -0.071 Cl 
HETATM    2  C   UNL     1      -8.134   7.475  65.295  1.00  0.00    -0.130 A  
HETATM    3  C   UNL     1      -9.069   6.824  66.097  1.00  0.00    -0.138 A  
HETATM    4  C   UNL     1      -9.765   7.552  67.071  1.00  0.00    -0.198 A  
HETATM    5 CL   UNL     1     -10.911   6.674  68.028  1.00  0.00    -0.333 Cl 
HETATM    6  C   UNL     1      -9.554   8.935  67.254  1.00  0.00    -0.212 A  
HETATM    7  C   UNL     1      -8.563   9.548  66.471  1.00  0.00    -0.142 A  
HETATM    8  C   UNL     1      -7.860   8.823  65.498  1.00  0.00    -0.098 A  
ENDROOT
BRANCH   6   9
HETATM    9  C   UNL     1     -10.458   9.742  68.177  1.00  0.00    -0.216 C  
BRANCH   9  10
HETATM   10  O   UNL     1     -11.074  10.901  67.573  1.00  0.00    -0.279 OA 
BRANCH  10  11
HETATM   11  N   UNL     1     -10.330  12.061  67.899  1.00  0.00    -0.192 NA 
HETATM   12  H   UNL     1      -9.412  12.031  68.343  1.00  0.00     0.000 HD 
BRANCH  11  13
HETATM   13  C   UNL     1     -10.934  13.174  67.577  1.00  0.00    -0.263 C  
BRANCH  13  14
HETATM   14  C   UNL     1     -10.230  14.500  67.770  1.00  0.00    -0.226 A  
HETATM   15 CL   UNL     1     -11.535  14.956  70.167  1.00  0.00    -0.301 Cl 
HETATM   16  C   UNL     1      -9.282  14.910  66.812  1.00  0.00    -0.281 A  
HETATM   17  C   UNL     1     -10.430  15.329  68.890  1.00  0.00    -0.241 A  
HETATM   18  C   UNL     1      -8.520  16.073  66.986  1.00  0.00    -0.245 A  
HETATM   19 CL   UNL     1      -7.745  18.262  68.350  1.00  0.00    -0.300 Cl 
HETATM   20  C   UNL     1      -8.711  16.859  68.115  1.00  0.00    -0.226 A  
HETATM   21  C   UNL     1      -9.671  16.502  69.057  1.00  0.00    -0.258 A  
ENDBRANCH  13  14
BRANCH  13  22
HETATM   22  C   UNL     1     -12.324  13.223  66.946  1.00  0.00    -0.161 C  
BRANCH  22  23
HETATM   23  N   UNL     1     -12.318  13.297  65.492  1.00  0.00    -0.462 NA 
HETATM   24  C   UNL     1     -12.031  12.262  64.644  1.00  0.00    -0.366 A  
HETATM   25  N   UNL     1     -12.442  14.125  63.445  1.00  0.00    -0.707 NA 
HETATM   26  C   UNL     1     -12.587  14.393  64.725  1.00  0.00    -0.265 A  
HETATM   27  C   UNL     1     -12.099  12.803  63.382  1.00  0.00    -0.534 A  
ENDBRANCH  22  23
ENDBRANCH  13  22
ENDBRANCH  11  13
ENDBRANCH  10  11
ENDBRANCH   9  10
ENDBRANCH   6   9
TORSDOF 7
ENDMDL
MODEL      192
REMARK 921   NORMALIZED FREE ENERGY PREDICTED BY IDOCK:   -4.64 KCAL/MOL
REMARK 922        TOTAL FREE ENERGY PREDICTED BY IDOCK:   -7.66 KCAL/MOL
REMARK 923 INTER-LIGAND FREE ENERGY PREDICTED BY IDOCK:   -6.44 KCAL/MOL
REMARK 924 INTRA-LIGAND FREE ENERGY PREDICTED BY IDOCK:   -1.22 KCAL/MOL
REMARK 927      BINDING AFFINITY PREDICTED BY RF-SCORE:    0.00 PKD
ROOT
HETATM    1 CL   UNL     1      -8.178  17.457  67.956  1.00  0.00    -0.223 Cl 
HETATM    2  C   UNL     1      -9.209  16.104  67.703  1.00  0.00    -0.205 A  
HETATM    3  C   UNL     1      -9.375  15.594  66.418  1.00  0.00    -0.332 A  
HETATM    4  C   UNL     1     -10.276  14.541  66.208  1.00  0.00    -0.297 A  
HETATM    5 CL   UNL     1     -10.428  13.959  64.583  1.00  0.00    -0.452 Cl 
HETATM    6  C   UNL     1     -11.032  13.990  67.264  1.00  0.00    -0.303 A  
HETATM    7  C   UNL     1     -10.797  14.487  68.556  1.00  0.00    -0.256 A  
HETATM    8  C   UNL     1      -9.894  15.538  68.773  1.00  0.00    -0.217 A  
ENDROOT
BRANCH   6   9
HETATM    9  C   UNL     1     -12.143  12.987  66.982  1.00  0.00    -0.267 C  
BRANCH   9  10
HETATM   10  O   UNL     1     -11.944  11.674  67.555  1.00  0.00    -0.622 OA 
BRANCH  10  11
HETATM   11  N   UNL     1     -11.019  10.946  66.769  1.00  0.00    -0.228 NA 
HETATM   12  H   UNL     1     -11.059  10.906  65.751  1.00  0.00     0.000 HD 
BRANCH  11  13
HETATM   13  C   UNL     1     -10.110  10.329  67.475  1.00  0.00    -0.198 C  
BRANCH  13  14
HETATM   14  C   UNL     1     -10.517   9.490  68.667  1.00  0.00    -0.237 A  
HETATM   15 CL   UNL     1     -10.620   7.187  67.138  1.00  0.00    -0.385 Cl 
HETATM   16  C   UNL     1     -10.626  10.111  69.927  1.00  0.00    -0.331 A  
HETATM   17  C   UNL     1     -10.741   8.102  68.600  1.00  0.00    -0.025 A  
HETATM   18  C   UNL     1     -10.895   9.373  71.087  1.00  0.00    -0.427 A  
HETATM   19 CL   UNL     1     -11.368   7.087  72.432  1.00  0.00    -0.294 Cl 
HETATM   20  C   UNL     1     -11.081   8.000  71.002  1.00  0.00    -0.253 A  
HETATM   21  C   UNL     1     -11.022   7.365  69.765  1.00  0.00    -0.215 A  
ENDBRANCH  13  14
BRANCH  13  22
HETATM   22  C   UNL     1      -8.622  10.352  67.133  1.00  0.00    -0.130 C  
BRANCH  22  23
HETATM   23  N   UNL     1      -7.823  11.211  67.996  1.00  0.00    -0.109 NA 
HETATM   24  C   UNL     1      -6.993  10.783  68.996  1.00  0.00    -0.085 A  
HETATM   25  N   UNL     1      -6.981  13.035  68.922  1.00  0.00    -0.100 NA 
HETATM   26  C   UNL     1      -7.764  12.574  67.969  1.00  0.00    -0.140 A  
HETATM   27  C   UNL     1      -6.495  11.931  69.566  1.00  0.00    -0.113 A  
ENDBRANCH  22  23
ENDBRANCH  13  22
ENDBRANCH  11  13
ENDBRANCH  10  11
ENDBRANCH   9  10
ENDBRANCH   6   9
TORSDOF 7
ENDMDL
MODEL      193
REMARK 921   NORMALIZED FREE ENERGY PREDICTED BY IDOCK:   -4.62 KCAL/MOL
REMARK 922        TOTAL FREE ENERGY PREDICTED BY IDOCK:   -7.63 KCAL/MOL
REMARK 923 INTER-LIGAND FREE ENERGY PREDICTED BY IDOCK:   -6.94 KCAL/MOL
REMARK 924 INTRA-LIGAND FREE ENERGY PREDICTED BY IDOCK:   -0.69 KCAL/MOL
REMARK 927      BINDING AFFINITY PREDICTED BY RF-SCORE:    0.00 PKD
ROOT
HETATM    1 CL   UNL     1     -12.696  14.141  65.563  1.00  0.00    -0.519 Cl 
HETATM    2  C   UNL     1     -11.690  12.805  65.959  1.00  0.00    -0.418 A  
HETATM    3  C   UNL     1     -11.010  12.129  64.949  1.00  0.00    -0.355 A  
HETATM    4  C   UNL     1     -10.252  10.995  65.269  1.00  0.00    -0.284 A  
HETATM    5 CL   UNL     1      -9.436  10.208  63.959  1.00  0.00    -0.338 Cl 
HETATM    6  C   UNL     1     -10.169  10.509  66.591  1.00  0.00    -0.289 A  
HETATM    7  C   UNL     1     -10.818  11.246  67.594  1.00  0.00    -0.286 A  
HETATM    8  C   UNL     1     -11.573  12.385  67.279  1.00  0.00    -0.435 A  
ENDROOT
BRANCH   6   9
HETATM    9  C   UNL     1      -9.507   9.169  66.885  1.00  0.00    -0.171 C  
BRANCH   9  10
HETATM   10  O   UNL     1     -10.261   8.007  66.469  1.00  0.00    -0.264 OA 
BRANCH  10  11
HETATM   11  N   UNL     1     -11.158   7.629  67.496  1.00  0.00    -0.511 NA 
HETATM   12  H   UNL     1     -12.005   8.151  67.720  1.00  0.00     0.000 HD 
BRANCH  11  13
HETATM   13  C   UNL     1     -10.796   6.545  68.130  1.00  0.00    -0.295 C  
BRANCH  13  14
HETATM   14  C   UNL     1      -9.851   5.564  67.471  1.00  0.00    -0.165 A  
HETATM   15 CL   UNL     1      -7.688   6.540  68.893  1.00  0.00    -0.107 Cl 
HETATM   16  C   UNL     1     -10.373   4.633  66.551  1.00  0.00    -0.235 A  
HETATM   17  C   UNL     1      -8.476   5.490  67.768  1.00  0.00    -0.098 A  
HETATM   18  C   UNL     1      -9.572   3.631  65.988  1.00  0.00    -0.143 A  
HETATM   19 CL   UNL     1      -7.252   2.301  65.663  1.00  0.00    -0.063 Cl 
HETATM   20  C   UNL     1      -8.225   3.557  66.320  1.00  0.00    -0.100 A  
HETATM   21  C   UNL     1      -7.672   4.490  67.192  1.00  0.00    -0.090 A  
ENDBRANCH  13  14
BRANCH  13  22
HETATM   22  C   UNL     1     -11.232   6.220  69.557  1.00  0.00    -0.430 C  
BRANCH  22  23
HETATM   23  N   UNL     1     -10.856   7.226  70.540  1.00  0.00    -0.237 NA 
HETATM   24  C   UNL     1     -10.816   7.038  71.895  1.00  0.00    -0.224 A  
HETATM   25  N   UNL     1     -10.262   9.169  71.416  1.00  0.00    -0.327 NA 
HETATM   26  C   UNL     1     -10.488   8.517  70.294  1.00  0.00    -0.220 A  
HETATM   27  C   UNL     1     -10.461   8.259  72.417  1.00  0.00    -0.334 A  
ENDBRANCH  22  23
ENDBRANCH  13  22
ENDBRANCH  11  13
ENDBRANCH  10  11
ENDBRANCH   9  10
ENDBRANCH   6   9
TORSDOF 7
ENDMDL
MODEL      194
REMARK 921   NORMALIZED FREE ENERGY PREDICTED BY IDOCK:   -4.62 KCAL/MOL
REMARK 922        TOTAL FREE ENERGY PREDICTED BY IDOCK:   -7.63 KCAL/MOL
REMARK 923 INTER-LIGAND FREE ENERGY PREDICTED BY IDOCK:   -7.60 KCAL/MOL
REMARK 924 INTRA-LIGAND FREE ENERGY PREDICTED BY IDOCK:   -0.02 KCAL/MOL
REMARK 927      BINDING AFFINITY PREDICTED BY RF-SCORE:    0.00 PKD
ROOT
HETATM    1 CL   UNL     1      -8.520   9.396  62.862  1.00  0.00    -0.192 Cl 
HETATM    2  C   UNL     1      -9.694  10.279  63.756  1.00  0.00    -0.235 A  
HETATM    3  C   UNL     1     -10.443  11.268  63.122  1.00  0.00    -0.293 A  
HETATM    4  C   UNL     1     -11.343  12.036  63.873  1.00  0.00    -0.425 A  
HETATM    5 CL   UNL     1     -12.238  13.247  63.016  1.00  0.00    -0.285 Cl 
HETATM    6  C   UNL     1     -11.504  11.842  65.262  1.00  0.00    -0.313 A  
HETATM    7  C   UNL     1     -10.778  10.798  65.858  1.00  0.00    -0.143 A  
HETATM    8  C   UNL     1      -9.879  10.024  65.110  1.00  0.00    -0.388 A  
ENDROOT
BRANCH   6   9
HETATM    9  C   UNL     1     -12.336  12.813  66.089  1.00  0.00    -0.120 C  
BRANCH   9  10
HETATM   10  O   UNL     1     -11.647  13.408  67.213  1.00  0.00    -0.321 OA 
BRANCH  10  11
HETATM   11  N   UNL     1     -12.517  13.466  68.329  1.00  0.00    -0.040 NA 
HETATM   12  H   UNL     1     -13.524  13.607  68.247  1.00  0.00     0.000 HD 
BRANCH  11  13
HETATM   13  C   UNL     1     -11.905  13.321  69.474  1.00  0.00    -0.327 C  
BRANCH  13  14
HETATM   14  C   UNL     1     -11.837  11.958  70.127  1.00  0.00    -0.390 A  
HETATM   15 CL   UNL     1      -9.356  11.439  69.016  1.00  0.00    -0.042 Cl 
HETATM   16  C   UNL     1     -12.893  11.555  70.968  1.00  0.00    -0.358 A  
HETATM   17  C   UNL     1     -10.742  11.083  69.987  1.00  0.00     0.116 A  
HETATM   18  C   UNL     1     -12.842  10.353  71.686  1.00  0.00    -0.579 A  
HETATM   19 CL   UNL     1     -11.655   8.067  72.472  1.00  0.00    -0.447 Cl 
HETATM   20  C   UNL     1     -11.738   9.521  71.557  1.00  0.00    -0.402 A  
HETATM   21  C   UNL     1     -10.698   9.871  70.701  1.00  0.00    -0.372 A  
ENDBRANCH  13  14
BRANCH  13  22
HETATM   22  C   UNL     1     -11.182  14.459  70.190  1.00  0.00    -0.099 C  
BRANCH  22  23
HETATM   23  N   UNL     1     -11.795  14.857  71.450  1.00  0.00    -0.337 NA 
HETATM   24  C   UNL     1     -12.841  14.221  72.061  1.00  0.00    -0.347 A  
HETATM   25  N   UNL     1     -12.243  16.022  73.276  1.00  0.00    -0.491 NA 
HETATM   26  C   UNL     1     -11.449  15.921  72.231  1.00  0.00    -0.259 A  
HETATM   27  C   UNL     1     -13.111  14.969  73.182  1.00  0.00    -0.511 A  
ENDBRANCH  22  23
ENDBRANCH  13  22
ENDBRANCH  11  13
ENDBRANCH  10  11
ENDBRANCH   9  10
ENDBRANCH   6   9
TORSDOF 7
ENDMDL
MODEL      195
REMARK 921   NORMALIZED FREE ENERGY PREDICTED BY IDOCK:   -4.61 KCAL/MOL
REMARK 922        TOTAL FREE ENERGY PREDICTED BY IDOCK:   -7.62 KCAL/MOL
REMARK 923 INTER-LIGAND FREE ENERGY PREDICTED BY IDOCK:   -6.82 KCAL/MOL
REMARK 924 INTRA-LIGAND FREE ENERGY PREDICTED BY IDOCK:   -0.80 KCAL/MOL
REMARK 927      BINDING AFFINITY PREDICTED BY RF-SCORE:    0.00 PKD
ROOT
HETATM    1 CL   UNL     1      -8.193   7.142  71.177  1.00  0.00    -0.111 Cl 
HETATM    2  C   UNL     1      -7.985   8.336  69.957  1.00  0.00    -0.104 A  
HETATM    3  C   UNL     1      -7.372   9.546  70.273  1.00  0.00    -0.135 A  
HETATM    4  C   UNL     1      -7.275  10.544  69.294  1.00  0.00    -0.103 A  
HETATM    5 CL   UNL     1      -6.499  12.020  69.761  1.00  0.00    -0.107 Cl 
HETATM    6  C   UNL     1      -7.795  10.361  67.995  1.00  0.00    -0.104 A  
HETATM    7  C   UNL     1      -8.354   9.109  67.692  1.00  0.00    -0.116 A  
HETATM    8  C   UNL     1      -8.450   8.105  68.667  1.00  0.00    -0.127 A  
ENDROOT
BRANCH   6   9
HETATM    9  C   UNL     1      -7.856  11.523  67.013  1.00  0.00    -0.161 C  
BRANCH   9  10
HETATM   10  O   UNL     1      -8.821  12.550  67.336  1.00  0.00    -0.170 OA 
BRANCH  10  11
HETATM   11  N   UNL     1     -10.131  12.025  67.225  1.00  0.00    -0.194 NA 
HETATM   12  H   UNL     1     -10.382  11.277  66.577  1.00  0.00     0.000 HD 
BRANCH  11  13
HETATM   13  C   UNL     1     -10.988  12.590  68.033  1.00  0.00    -0.232 C  
BRANCH  13  14
HETATM   14  C   UNL     1     -11.501  11.836  69.240  1.00  0.00    -0.369 A  
HETATM   15 CL   UNL     1     -12.559  14.138  70.352  1.00  0.00    -0.408 Cl 
HETATM   16  C   UNL     1     -11.310  10.442  69.300  1.00  0.00    -0.296 A  
HETATM   17  C   UNL     1     -12.215  12.444  70.290  1.00  0.00    -0.267 A  
HETATM   18  C   UNL     1     -11.852   9.671  70.336  1.00  0.00    -0.219 A  
HETATM   19 CL   UNL     1     -13.284   9.338  72.594  1.00  0.00    -0.426 Cl 
HETATM   20  C   UNL     1     -12.580  10.288  71.345  1.00  0.00    -0.434 A  
HETATM   21  C   UNL     1     -12.750  11.670  71.335  1.00  0.00    -0.445 A  
ENDBRANCH  13  14
BRANCH  13  22
HETATM   22  C   UNL     1     -11.478  14.027  67.865  1.00  0.00    -0.316 C  
BRANCH  22  23
HETATM   23  N   UNL     1     -11.652  14.442  66.480  1.00  0.00    -0.367 NA 
HETATM   24  C   UNL     1     -12.650  14.022  65.644  1.00  0.00    -0.512 A  
HETATM   25  N   UNL     1     -11.274  15.418  64.532  1.00  0.00    -0.345 NA 
HETATM   26  C   UNL     1     -10.861  15.303  65.777  1.00  0.00    -0.358 A  
HETATM   27  C   UNL     1     -12.386  14.628  64.438  1.00  0.00    -0.398 A  
ENDBRANCH  22  23
ENDBRANCH  13  22
ENDBRANCH  11  13
ENDBRANCH  10  11
ENDBRANCH   9  10
ENDBRANCH   6   9
TORSDOF 7
ENDMDL
MODEL      196
REMARK 921   NORMALIZED FREE ENERGY PREDICTED BY IDOCK:   -4.60 KCAL/MOL
REMARK 922        TOTAL FREE ENERGY PREDICTED BY IDOCK:   -7.61 KCAL/MOL
REMARK 923 INTER-LIGAND FREE ENERGY PREDICTED BY IDOCK:   -5.05 KCAL/MOL
REMARK 924 INTRA-LIGAND FREE ENERGY PREDICTED BY IDOCK:   -2.56 KCAL/MOL
REMARK 927      BINDING AFFINITY PREDICTED BY RF-SCORE:    0.00 PKD
ROOT
HETATM    1 CL   UNL     1      -8.904   8.837  64.724  1.00  0.00    -0.146 Cl 
HETATM    2  C   UNL     1      -9.384   9.441  66.261  1.00  0.00    -0.198 A  
HETATM    3  C   UNL     1      -8.504   9.364  67.338  1.00  0.00    -0.125 A  
HETATM    4  C   UNL     1      -8.929   9.788  68.604  1.00  0.00    -0.130 A  
HETATM    5 CL   UNL     1      -7.779   9.663  69.894  1.00  0.00    -0.124 Cl 
HETATM    6  C   UNL     1     -10.233  10.281  68.822  1.00  0.00    -0.205 A  
HETATM    7  C   UNL     1     -11.075  10.400  67.704  1.00  0.00    -0.361 A  
HETATM    8  C   UNL     1     -10.653   9.981  66.434  1.00  0.00    -0.138 A  
ENDROOT
BRANCH   6   9
HETATM    9  C   UNL     1     -10.736  10.548  70.235  1.00  0.00    -0.100 C  
BRANCH   9  10
HETATM   10  O   UNL     1     -11.625   9.542  70.771  1.00  0.00    -0.275 OA 
BRANCH  10  11
HETATM   11  N   UNL     1     -10.892   8.642  71.581  1.00  0.00    -0.278 NA 
HETATM   12  H   UNL     1     -10.285   8.943  72.343  1.00  0.00     0.000 HD 
BRANCH  11  13
HETATM   13  C   UNL     1     -11.069   7.389  71.258  1.00  0.00    -0.246 C  
BRANCH  13  14
HETATM   14  C   UNL     1     -10.473   6.846  69.977  1.00  0.00    -0.231 A  
HETATM   15 CL   UNL     1      -8.052   6.322  71.210  1.00  0.00    -0.116 Cl 
HETATM   16  C   UNL     1     -11.282   6.783  68.826  1.00  0.00    -0.178 A  
HETATM   17  C   UNL     1      -9.161   6.344  69.883  1.00  0.00    -0.142 A  
HETATM   18  C   UNL     1     -10.826   6.195  67.639  1.00  0.00    -0.421 A  
HETATM   19 CL   UNL     1      -8.992   4.916  66.137  1.00  0.00    -0.121 Cl 
HETATM   20  C   UNL     1      -9.538   5.677  67.579  1.00  0.00    -0.118 A  
HETATM   21  C   UNL     1      -8.701   5.763  68.687  1.00  0.00    -0.108 A  
ENDBRANCH  13  14
BRANCH  13  22
HETATM   22  C   UNL     1     -11.814   6.390  72.142  1.00  0.00    -0.314 C  
BRANCH  22  23
HETATM   23  N   UNL     1     -10.950   5.590  72.999  1.00  0.00    -0.269 NA 
HETATM   24  C   UNL     1     -10.247   6.057  74.077  1.00  0.00    -0.288 A  
HETATM   25  N   UNL     1      -9.820   3.863  73.793  1.00  0.00    -0.107 NA 
HETATM   26  C   UNL     1     -10.684   4.258  72.882  1.00  0.00    -0.167 A  
HETATM   27  C   UNL     1      -9.542   4.972  74.543  1.00  0.00    -0.144 A  
ENDBRANCH  22  23
ENDBRANCH  13  22
ENDBRANCH  11  13
ENDBRANCH  10  11
ENDBRANCH   9  10
ENDBRANCH   6   9
TORSDOF 7
ENDMDL
MODEL      197
REMARK 921   NORMALIZED FREE ENERGY PREDICTED BY IDOCK:   -4.59 KCAL/MOL
REMARK 922        TOTAL FREE ENERGY PREDICTED BY IDOCK:   -7.58 KCAL/MOL
REMARK 923 INTER-LIGAND FREE ENERGY PREDICTED BY IDOCK:   -6.91 KCAL/MOL
REMARK 924 INTRA-LIGAND FREE ENERGY PREDICTED BY IDOCK:   -0.67 KCAL/MOL
REMARK 927      BINDING AFFINITY PREDICTED BY RF-SCORE:    0.00 PKD
ROOT
HETATM    1 CL   UNL     1      -8.470   2.764  66.104  1.00  0.00    -0.101 Cl 
HETATM    2  C   UNL     1      -9.025   4.369  66.376  1.00  0.00    -0.117 A  
HETATM    3  C   UNL     1      -8.120   5.357  66.756  1.00  0.00    -0.105 A  
HETATM    4  C   UNL     1      -8.590   6.644  67.050  1.00  0.00    -0.113 A  
HETATM    5 CL   UNL     1      -7.405   7.819  67.514  1.00  0.00    -0.090 Cl 
HETATM    6  C   UNL     1      -9.962   6.964  66.984  1.00  0.00    -0.257 A  
HETATM    7  C   UNL     1     -10.841   5.962  66.541  1.00  0.00    -0.214 A  
HETATM    8  C   UNL     1     -10.375   4.674  66.242  1.00  0.00    -0.293 A  
ENDROOT
BRANCH   6   9
HETATM    9  C   UNL     1     -10.471   8.306  67.496  1.00  0.00    -0.255 C  
BRANCH   9  10
HETATM   10  O   UNL     1     -10.026   9.458  66.745  1.00  0.00    -0.203 OA 
BRANCH  10  11
HETATM   11  N   UNL     1      -9.653  10.493  67.636  1.00  0.00    -0.156 NA 
HETATM   12  H   UNL     1      -9.239  10.320  68.552  1.00  0.00     0.000 HD 
BRANCH  11  13
HETATM   13  C   UNL     1      -9.889  11.690  67.170  1.00  0.00    -0.188 C  
BRANCH  13  14
HETATM   14  C   UNL     1     -10.164  12.832  68.125  1.00  0.00    -0.241 A  
HETATM   15 CL   UNL     1      -7.887  14.183  67.321  1.00  0.00    -0.189 Cl 
HETATM   16  C   UNL     1     -11.333  12.793  68.910  1.00  0.00    -0.344 A  
HETATM   17  C   UNL     1      -9.339  13.969  68.234  1.00  0.00    -0.208 A  
HETATM   18  C   UNL     1     -11.699  13.866  69.734  1.00  0.00    -0.372 A  
HETATM   19 CL   UNL     1     -11.359  16.325  70.778  1.00  0.00    -0.395 Cl 
HETATM   20  C   UNL     1     -10.887  14.990  69.802  1.00  0.00    -0.261 A  
HETATM   21  C   UNL     1      -9.704  15.040  69.070  1.00  0.00    -0.229 A  
ENDBRANCH  13  14
BRANCH  13  22
HETATM   22  C   UNL     1      -9.849  12.037  65.684  1.00  0.00    -0.243 C  
BRANCH  22  23
HETATM   23  N   UNL     1     -10.927  12.913  65.245  1.00  0.00    -0.279 NA 
HETATM   24  C   UNL     1     -10.778  14.203  64.813  1.00  0.00    -0.419 A  
HETATM   25  N   UNL     1     -12.962  13.652  64.796  1.00  0.00    -0.681 NA 
HETATM   26  C   UNL     1     -12.257  12.614  65.192  1.00  0.00    -0.481 A  
HETATM   27  C   UNL     1     -12.054  14.645  64.556  1.00  0.00    -0.475 A  
ENDBRANCH  22  23
ENDBRANCH  13  22
ENDBRANCH  11  13
ENDBRANCH  10  11
ENDBRANCH   9  10
ENDBRANCH   6   9
TORSDOF 7
ENDMDL
MODEL      198
REMARK 921   NORMALIZED FREE ENERGY PREDICTED BY IDOCK:   -4.58 KCAL/MOL
REMARK 922        TOTAL FREE ENERGY PREDICTED BY IDOCK:   -7.58 KCAL/MOL
REMARK 923 INTER-LIGAND FREE ENERGY PREDICTED BY IDOCK:   -6.61 KCAL/MOL
REMARK 924 INTRA-LIGAND FREE ENERGY PREDICTED BY IDOCK:   -0.97 KCAL/MOL
REMARK 927      BINDING AFFINITY PREDICTED BY RF-SCORE:    0.00 PKD
ROOT
HETATM    1 CL   UNL     1      -7.352   7.612  73.983  1.00  0.00    -0.135 Cl 
HETATM    2  C   UNL     1      -8.299   7.850  72.569  1.00  0.00    -0.142 A  
HETATM    3  C   UNL     1      -9.535   8.486  72.665  1.00  0.00    -0.295 A  
HETATM    4  C   UNL     1     -10.336   8.609  71.522  1.00  0.00    -0.271 A  
HETATM    5 CL   UNL     1     -11.859   9.411  71.720  1.00  0.00    -0.454 Cl 
HETATM    6  C   UNL     1      -9.929   8.093  70.273  1.00  0.00    -0.189 A  
HETATM    7  C   UNL     1      -8.654   7.511  70.197  1.00  0.00    -0.141 A  
HETATM    8  C   UNL     1      -7.847   7.389  71.338  1.00  0.00    -0.095 A  
ENDROOT
BRANCH   6   9
HETATM    9  C   UNL     1     -10.894   8.061  69.095  1.00  0.00    -0.021 C  
BRANCH   9  10
HETATM   10  O   UNL     1     -10.495   8.854  67.954  1.00  0.00    -0.228 OA 
BRANCH  10  11
HETATM   11  N   UNL     1     -11.303  10.015  67.874  1.00  0.00    -0.559 NA 
HETATM   12  H   UNL     1     -12.254  10.061  68.240  1.00  0.00     0.000 HD 
BRANCH  11  13
HETATM   13  C   UNL     1     -10.712  11.020  67.286  1.00  0.00    -0.265 C  
BRANCH  13  14
HETATM   14  C   UNL     1      -9.638  10.766  66.250  1.00  0.00    -0.234 A  
HETATM   15 CL   UNL     1      -7.621  11.321  68.061  1.00  0.00    -0.101 Cl 
HETATM   16  C   UNL     1     -10.025  10.357  64.959  1.00  0.00    -0.399 A  
HETATM   17  C   UNL     1      -8.259  10.861  66.521  1.00  0.00    -0.157 A  
HETATM   18  C   UNL     1      -9.079  10.003  63.987  1.00  0.00    -0.296 A  
HETATM   19 CL   UNL     1      -6.565   9.598  63.110  1.00  0.00    -0.105 Cl 
HETATM   20  C   UNL     1      -7.725  10.074  64.287  1.00  0.00    -0.141 A  
HETATM   21  C   UNL     1      -7.311  10.515  65.540  1.00  0.00    -0.106 A  
ENDBRANCH  13  14
BRANCH  13  22
HETATM   22  C   UNL     1     -11.083  12.479  67.540  1.00  0.00    -0.267 C  
BRANCH  22  23
HETATM   23  N   UNL     1     -11.508  13.205  66.351  1.00  0.00    -0.320 NA 
HETATM   24  C   UNL     1     -10.881  14.300  65.821  1.00  0.00    -0.303 A  
HETATM   25  N   UNL     1     -12.714  13.818  64.602  1.00  0.00    -0.670 NA 
HETATM   26  C   UNL     1     -12.592  12.933  65.568  1.00  0.00    -0.296 A  
HETATM   27  C   UNL     1     -11.655  14.671  64.748  1.00  0.00    -0.418 A  
ENDBRANCH  22  23
ENDBRANCH  13  22
ENDBRANCH  11  13
ENDBRANCH  10  11
ENDBRANCH   9  10
ENDBRANCH   6   9
TORSDOF 7
ENDMDL
MODEL      199
REMARK 921   NORMALIZED FREE ENERGY PREDICTED BY IDOCK:   -4.58 KCAL/MOL
REMARK 922        TOTAL FREE ENERGY PREDICTED BY IDOCK:   -7.57 KCAL/MOL
REMARK 923 INTER-LIGAND FREE ENERGY PREDICTED BY IDOCK:   -7.20 KCAL/MOL
REMARK 924 INTRA-LIGAND FREE ENERGY PREDICTED BY IDOCK:   -0.37 KCAL/MOL
REMARK 927      BINDING AFFINITY PREDICTED BY RF-SCORE:    0.00 PKD
ROOT
HETATM    1 CL   UNL     1      -6.874  19.281  69.186  1.00  0.00    -0.361 Cl 
HETATM    2  C   UNL     1      -7.292  17.730  68.574  1.00  0.00    -0.266 A  
HETATM    3  C   UNL     1      -8.215  17.623  67.537  1.00  0.00    -0.221 A  
HETATM    4  C   UNL     1      -8.609  16.352  67.095  1.00  0.00    -0.181 A  
HETATM    5 CL   UNL     1      -9.761  16.300  65.802  1.00  0.00    -0.341 Cl 
HETATM    6  C   UNL     1      -8.103  15.174  67.683  1.00  0.00    -0.177 A  
HETATM    7  C   UNL     1      -7.130  15.316  68.685  1.00  0.00    -0.116 A  
HETATM    8  C   UNL     1      -6.730  16.585  69.128  1.00  0.00    -0.213 A  
ENDROOT
BRANCH   6   9
HETATM    9  C   UNL     1      -8.689  13.814  67.324  1.00  0.00    -0.219 C  
BRANCH   9  10
HETATM   10  O   UNL     1      -8.864  12.908  68.437  1.00  0.00    -0.182 OA 
BRANCH  10  11
HETATM   11  N   UNL     1      -9.563  11.755  68.007  1.00  0.00    -0.181 NA 
HETATM   12  H   UNL     1      -9.233  11.148  67.256  1.00  0.00     0.000 HD 
BRANCH  11  13
HETATM   13  C   UNL     1     -10.672  11.543  68.664  1.00  0.00    -0.207 C  
BRANCH  13  14
HETATM   14  C   UNL     1     -10.724  10.477  69.737  1.00  0.00    -0.314 A  
HETATM   15 CL   UNL     1      -8.004  10.007  69.540  1.00  0.00    -0.142 Cl 
HETATM   16  C   UNL     1     -11.955  10.207  70.366  1.00  0.00    -0.353 A  
HETATM   17  C   UNL     1      -9.591   9.772  70.187  1.00  0.00    -0.237 A  
HETATM   18  C   UNL     1     -12.050   9.310  71.438  1.00  0.00    -0.424 A  
HETATM   19 CL   UNL     1     -11.021   7.581  73.229  1.00  0.00    -0.424 Cl 
HETATM   20  C   UNL     1     -10.913   8.649  71.886  1.00  0.00    -0.342 A  
HETATM   21  C   UNL     1      -9.690   8.863  71.256  1.00  0.00    -0.359 A  
ENDBRANCH  13  14
BRANCH  13  22
HETATM   22  C   UNL     1     -11.943  12.364  68.455  1.00  0.00    -0.216 C  
BRANCH  22  23
HETATM   23  N   UNL     1     -11.935  13.658  69.122  1.00  0.00    -0.347 NA 
HETATM   24  C   UNL     1     -12.119  13.863  70.463  1.00  0.00    -0.356 A  
HETATM   25  N   UNL     1     -11.858  15.847  69.427  1.00  0.00    -0.351 NA 
HETATM   26  C   UNL     1     -11.754  14.879  68.541  1.00  0.00    -0.310 A  
HETATM   27  C   UNL     1     -12.082  15.228  70.625  1.00  0.00    -0.354 A  
ENDBRANCH  22  23
ENDBRANCH  13  22
ENDBRANCH  11  13
ENDBRANCH  10  11
ENDBRANCH   9  10
ENDBRANCH   6   9
TORSDOF 7
ENDMDL
MODEL      200
REMARK 921   NORMALIZED FREE ENERGY PREDICTED BY IDOCK:   -4.57 KCAL/MOL
REMARK 922        TOTAL FREE ENERGY PREDICTED BY IDOCK:   -7.56 KCAL/MOL
REMARK 923 INTER-LIGAND FREE ENERGY PREDICTED BY IDOCK:   -6.33 KCAL/MOL
REMARK 924 INTRA-LIGAND FREE ENERGY PREDICTED BY IDOCK:   -1.23 KCAL/MOL
REMARK 927      BINDING AFFINITY PREDICTED BY RF-SCORE:    0.00 PKD
ROOT
HETATM    1 CL   UNL     1     -12.200  13.231  63.101  1.00  0.00    -0.453 Cl 
HETATM    2  C   UNL     1     -11.602  12.344  64.447  1.00  0.00    -0.354 A  
HETATM    3  C   UNL     1     -11.914  12.758  65.739  1.00  0.00    -0.502 A  
HETATM    4  C   UNL     1     -11.361  12.076  66.832  1.00  0.00    -0.341 A  
HETATM    5 CL   UNL     1     -11.795  12.648  68.408  1.00  0.00    -0.364 Cl 
HETATM    6  C   UNL     1     -10.483  10.985  66.657  1.00  0.00    -0.307 A  
HETATM    7  C   UNL     1     -10.236  10.557  65.343  1.00  0.00    -0.340 A  
HETATM    8  C   UNL     1     -10.790  11.233  64.247  1.00  0.00    -0.398 A  
ENDROOT
BRANCH   6   9
HETATM    9  C   UNL     1      -9.741  10.388  67.847  1.00  0.00    -0.149 C  
BRANCH   9  10
HETATM   10  O   UNL     1     -10.505   9.448  68.636  1.00  0.00    -0.202 OA 
BRANCH  10  11
HETATM   11  N   UNL     1      -9.645   8.446  69.147  1.00  0.00    -0.162 NA 
HETATM   12  H   UNL     1      -8.964   8.616  69.887  1.00  0.00     0.000 HD 
BRANCH  11  13
HETATM   13  C   UNL     1      -9.807   7.282  68.577  1.00  0.00    -0.156 C  
BRANCH  13  14
HETATM   14  C   UNL     1      -8.787   6.779  67.579  1.00  0.00    -0.117 A  
HETATM   15 CL   UNL     1      -7.420   5.375  69.532  1.00  0.00    -0.068 Cl 
HETATM   16  C   UNL     1      -8.933   7.133  66.223  1.00  0.00    -0.181 A  
HETATM   17  C   UNL     1      -7.721   5.925  67.920  1.00  0.00    -0.100 A  
HETATM   18  C   UNL     1      -8.087   6.616  65.234  1.00  0.00    -0.130 A  
HETATM   19 CL   UNL     1      -6.049   5.080  64.372  1.00  0.00    -0.022 Cl 
HETATM   20  C   UNL     1      -7.061   5.750  65.590  1.00  0.00    -0.069 A  
HETATM   21  C   UNL     1      -6.865   5.415  66.926  1.00  0.00    -0.063 A  
ENDBRANCH  13  14
BRANCH  13  22
HETATM   22  C   UNL     1     -10.964   6.340  68.904  1.00  0.00    -0.368 C  
BRANCH  22  23
HETATM   23  N   UNL     1     -11.312   6.289  70.317  1.00  0.00    -0.384 NA 
HETATM   24  C   UNL     1     -10.604   5.634  71.287  1.00  0.00    -0.255 A  
HETATM   25  N   UNL     1     -12.432   6.581  72.201  1.00  0.00    -0.236 NA 
HETATM   26  C   UNL     1     -12.391   6.869  70.918  1.00  0.00    -0.313 A  
HETATM   27  C   UNL     1     -11.326   5.815  72.443  1.00  0.00    -0.294 A  
ENDBRANCH  22  23
ENDBRANCH  13  22
ENDBRANCH  11  13
ENDBRANCH  10  11
ENDBRANCH   9  10
ENDBRANCH   6   9
TORSDOF 7
ENDMDL
MODEL      201
REMARK 921   NORMALIZED FREE ENERGY PREDICTED BY IDOCK:   -4.57 KCAL/MOL
REMARK 922        TOTAL FREE ENERGY PREDICTED BY IDOCK:   -7.55 KCAL/MOL
REMARK 923 INTER-LIGAND FREE ENERGY PREDICTED BY IDOCK:   -6.68 KCAL/MOL
REMARK 924 INTRA-LIGAND FREE ENERGY PREDICTED BY IDOCK:   -0.87 KCAL/MOL
REMARK 927      BINDING AFFINITY PREDICTED BY RF-SCORE:    0.00 PKD
ROOT
HETATM    1 CL   UNL     1     -13.258  15.987  73.643  1.00  0.00    -0.603 Cl 
HETATM    2  C   UNL     1     -12.608  15.173  72.276  1.00  0.00    -0.344 A  
HETATM    3  C   UNL     1     -11.591  15.771  71.535  1.00  0.00    -0.531 A  
HETATM    4  C   UNL     1     -11.119  15.137  70.378  1.00  0.00    -0.260 A  
HETATM    5 CL   UNL     1      -9.854  15.941  69.510  1.00  0.00    -0.273 Cl 
HETATM    6  C   UNL     1     -11.657  13.910  69.933  1.00  0.00    -0.310 A  
HETATM    7  C   UNL     1     -12.639  13.306  70.734  1.00  0.00    -0.357 A  
HETATM    8  C   UNL     1     -13.111  13.934  71.895  1.00  0.00    -0.469 A  
ENDROOT
BRANCH   6   9
HETATM    9  C   UNL     1     -11.270  13.341  68.574  1.00  0.00    -0.271 C  
BRANCH   9  10
HETATM   10  O   UNL     1     -11.204  11.898  68.510  1.00  0.00    -0.215 OA 
BRANCH  10  11
HETATM   11  N   UNL     1     -10.096  11.506  67.721  1.00  0.00    -0.179 NA 
HETATM   12  H   UNL     1      -9.872  11.929  66.821  1.00  0.00     0.000 HD 
BRANCH  11  13
HETATM   13  C   UNL     1      -9.388  10.549  68.259  1.00  0.00    -0.156 C  
BRANCH  13  14
HETATM   14  C   UNL     1     -10.067   9.477  69.084  1.00  0.00    -0.200 A  
HETATM   15 CL   UNL     1     -10.474   7.883  66.859  1.00  0.00    -0.412 Cl 
HETATM   16  C   UNL     1     -10.174   9.659  70.477  1.00  0.00    -0.351 A  
HETATM   17  C   UNL     1     -10.554   8.272  68.542  1.00  0.00    -0.100 A  
HETATM   18  C   UNL     1     -10.695   8.661  71.309  1.00  0.00    -0.322 A  
HETATM   19 CL   UNL     1     -11.739   6.223  71.783  1.00  0.00    -0.364 Cl 
HETATM   20  C   UNL     1     -11.140   7.467  70.757  1.00  0.00    -0.265 A  
HETATM   21  C   UNL     1     -11.087   7.274  69.379  1.00  0.00    -0.092 A  
ENDBRANCH  13  14
BRANCH  13  22
HETATM   22  C   UNL     1      -7.881  10.403  68.057  1.00  0.00    -0.104 C  
BRANCH  22  23
HETATM   23  N   UNL     1      -7.131  11.638  68.243  1.00  0.00    -0.073 NA 
HETATM   24  C   UNL     1      -6.644  12.431  67.239  1.00  0.00    -0.136 A  
HETATM   25  N   UNL     1      -6.059  13.298  69.235  1.00  0.00    -0.093 NA 
HETATM   26  C   UNL     1      -6.779  12.213  69.429  1.00  0.00    -0.056 A  
HETATM   27  C   UNL     1      -5.970  13.444  67.879  1.00  0.00    -0.140 A  
ENDBRANCH  22  23
ENDBRANCH  13  22
ENDBRANCH  11  13
ENDBRANCH  10  11
ENDBRANCH   9  10
ENDBRANCH   6   9
TORSDOF 7
ENDMDL
MODEL      202
REMARK 921   NORMALIZED FREE ENERGY PREDICTED BY IDOCK:   -4.55 KCAL/MOL
REMARK 922        TOTAL FREE ENERGY PREDICTED BY IDOCK:   -7.54 KCAL/MOL
REMARK 923 INTER-LIGAND FREE ENERGY PREDICTED BY IDOCK:   -6.17 KCAL/MOL
REMARK 924 INTRA-LIGAND FREE ENERGY PREDICTED BY IDOCK:   -1.37 KCAL/MOL
REMARK 927      BINDING AFFINITY PREDICTED BY RF-SCORE:    0.00 PKD
ROOT
HETATM    1 CL   UNL     1     -11.498  14.814  67.554  1.00  0.00    -0.356 Cl 
HETATM    2  C   UNL     1     -11.876  13.598  68.709  1.00  0.00    -0.360 A  
HETATM    3  C   UNL     1     -12.241  13.964  70.002  1.00  0.00    -0.408 A  
HETATM    4  C   UNL     1     -12.473  12.967  70.959  1.00  0.00    -0.283 A  
HETATM    5 CL   UNL     1     -12.923  13.499  72.545  1.00  0.00    -0.413 Cl 
HETATM    6  C   UNL     1     -12.333  11.597  70.651  1.00  0.00    -0.437 A  
HETATM    7  C   UNL     1     -12.022  11.260  69.324  1.00  0.00    -0.411 A  
HETATM    8  C   UNL     1     -11.793  12.254  68.361  1.00  0.00    -0.358 A  
ENDROOT
BRANCH   6   9
HETATM    9  C   UNL     1     -12.396  10.544  71.750  1.00  0.00    -0.167 C  
BRANCH   9  10
HETATM   10  O   UNL     1     -12.052   9.202  71.335  1.00  0.00    -0.301 OA 
BRANCH  10  11
HETATM   11  N   UNL     1     -11.106   8.653  72.233  1.00  0.00    -0.357 NA 
HETATM   12  H   UNL     1     -11.153   8.782  73.244  1.00  0.00     0.000 HD 
BRANCH  11  13
HETATM   13  C   UNL     1     -10.167   7.964  71.642  1.00  0.00    -0.192 C  
BRANCH  13  14
HETATM   14  C   UNL     1      -9.715   8.341  70.248  1.00  0.00    -0.177 A  
HETATM   15 CL   UNL     1     -11.178   6.286  69.111  1.00  0.00    -0.462 Cl 
HETATM   16  C   UNL     1      -8.880   9.464  70.086  1.00  0.00    -0.249 A  
HETATM   17  C   UNL     1     -10.131   7.663  69.086  1.00  0.00    -0.194 A  
HETATM   18  C   UNL     1      -8.513   9.929  68.816  1.00  0.00    -0.122 A  
HETATM   19 CL   UNL     1      -8.548   9.858  66.124  1.00  0.00    -0.133 Cl 
HETATM   20  C   UNL     1      -8.961   9.262  67.683  1.00  0.00    -0.119 A  
HETATM   21  C   UNL     1      -9.753   8.125  67.812  1.00  0.00    -0.193 A  
ENDBRANCH  13  14
BRANCH  13  22
HETATM   22  C   UNL     1      -9.432   6.802  72.307  1.00  0.00    -0.141 C  
BRANCH  22  23
HETATM   23  N   UNL     1      -8.024   6.701  71.947  1.00  0.00    -0.102 NA 
HETATM   24  C   UNL     1      -7.051   7.604  72.280  1.00  0.00    -0.071 A  
HETATM   25  N   UNL     1      -6.152   5.954  71.036  1.00  0.00    -0.033 NA 
HETATM   26  C   UNL     1      -7.432   5.708  71.221  1.00  0.00    -0.094 A  
HETATM   27  C   UNL     1      -5.904   7.128  71.691  1.00  0.00    -0.037 A  
ENDBRANCH  22  23
ENDBRANCH  13  22
ENDBRANCH  11  13
ENDBRANCH  10  11
ENDBRANCH   9  10
ENDBRANCH   6   9
TORSDOF 7
ENDMDL
MODEL      203
REMARK 921   NORMALIZED FREE ENERGY PREDICTED BY IDOCK:   -4.54 KCAL/MOL
REMARK 922        TOTAL FREE ENERGY PREDICTED BY IDOCK:   -7.52 KCAL/MOL
REMARK 923 INTER-LIGAND FREE ENERGY PREDICTED BY IDOCK:   -6.60 KCAL/MOL
REMARK 924 INTRA-LIGAND FREE ENERGY PREDICTED BY IDOCK:   -0.92 KCAL/MOL
REMARK 927      BINDING AFFINITY PREDICTED BY RF-SCORE:    0.00 PKD
ROOT
HETATM    1 CL   UNL     1     -13.183  15.568  70.728  1.00  0.00    -0.486 Cl 
HETATM    2  C   UNL     1     -11.721  15.624  69.825  1.00  0.00    -0.357 A  
HETATM    3  C   UNL     1     -11.763  15.906  68.462  1.00  0.00    -0.297 A  
HETATM    4  C   UNL     1     -10.577  15.875  67.716  1.00  0.00    -0.302 A  
HETATM    5 CL   UNL     1     -10.708  16.236  66.027  1.00  0.00    -0.262 Cl 
HETATM    6  C   UNL     1      -9.337  15.551  68.309  1.00  0.00    -0.192 A  
HETATM    7  C   UNL     1      -9.321  15.330  69.695  1.00  0.00    -0.161 A  
HETATM    8  C   UNL     1     -10.504  15.365  70.446  1.00  0.00    -0.209 A  
ENDROOT
BRANCH   6   9
HETATM    9  C   UNL     1      -8.100  15.330  67.448  1.00  0.00    -0.182 C  
BRANCH   9  10
HETATM   10  O   UNL     1      -7.868  13.960  67.048  1.00  0.00    -0.078 OA 
BRANCH  10  11
HETATM   11  N   UNL     1      -8.149  13.093  68.132  1.00  0.00    -0.147 NA 
HETATM   12  H   UNL     1      -7.955  13.331  69.104  1.00  0.00     0.000 HD 
BRANCH  11  13
HETATM   13  C   UNL     1      -8.682  11.958  67.765  1.00  0.00    -0.158 C  
BRANCH  13  14
HETATM   14  C   UNL     1      -9.593  11.209  68.712  1.00  0.00    -0.180 A  
HETATM   15 CL   UNL     1     -11.840  12.478  67.714  1.00  0.00    -0.408 Cl 
HETATM   16  C   UNL     1      -9.029  10.255  69.582  1.00  0.00    -0.140 A  
HETATM   17  C   UNL     1     -10.991  11.371  68.737  1.00  0.00    -0.223 A  
HETATM   18  C   UNL     1      -9.827   9.452  70.408  1.00  0.00    -0.313 A  
HETATM   19 CL   UNL     1     -12.191   8.593  71.372  1.00  0.00    -0.336 Cl 
HETATM   20  C   UNL     1     -11.208   9.607  70.392  1.00  0.00    -0.283 A  
HETATM   21  C   UNL     1     -11.790  10.571  69.574  1.00  0.00    -0.287 A  
ENDBRANCH  13  14
BRANCH  13  22
HETATM   22  C   UNL     1      -8.485  11.347  66.379  1.00  0.00    -0.160 C  
BRANCH  22  23
HETATM   23  N   UNL     1      -9.542  11.667  65.429  1.00  0.00    -0.224 NA 
HETATM   24  C   UNL     1     -10.297  10.755  64.744  1.00  0.00    -0.310 A  
HETATM   25  N   UNL     1     -10.900  12.839  64.136  1.00  0.00    -0.379 NA 
HETATM   26  C   UNL     1      -9.958  12.910  65.052  1.00  0.00    -0.143 A  
HETATM   27  C   UNL     1     -11.120  11.505  63.937  1.00  0.00    -0.380 A  
ENDBRANCH  22  23
ENDBRANCH  13  22
ENDBRANCH  11  13
ENDBRANCH  10  11
ENDBRANCH   9  10
ENDBRANCH   6   9
TORSDOF 7
ENDMDL
MODEL      204
REMARK 921   NORMALIZED FREE ENERGY PREDICTED BY IDOCK:   -4.52 KCAL/MOL
REMARK 922        TOTAL FREE ENERGY PREDICTED BY IDOCK:   -7.49 KCAL/MOL
REMARK 923 INTER-LIGAND FREE ENERGY PREDICTED BY IDOCK:   -7.03 KCAL/MOL
REMARK 924 INTRA-LIGAND FREE ENERGY PREDICTED BY IDOCK:   -0.46 KCAL/MOL
REMARK 927      BINDING AFFINITY PREDICTED BY RF-SCORE:    0.00 PKD
ROOT
HETATM    1 CL   UNL     1      -6.619  19.833  69.757  1.00  0.00    -0.380 Cl 
HETATM    2  C   UNL     1      -6.821  18.286  69.035  1.00  0.00    -0.254 A  
HETATM    3  C   UNL     1      -7.670  18.140  67.941  1.00  0.00    -0.237 A  
HETATM    4  C   UNL     1      -7.890  16.864  67.405  1.00  0.00    -0.170 A  
HETATM    5 CL   UNL     1      -8.958  16.763  66.046  1.00  0.00    -0.277 Cl 
HETATM    6  C   UNL     1      -7.282  15.715  67.955  1.00  0.00    -0.152 A  
HETATM    7  C   UNL     1      -6.386  15.903  69.019  1.00  0.00    -0.133 A  
HETATM    8  C   UNL     1      -6.159  17.179  69.556  1.00  0.00    -0.238 A  
ENDROOT
BRANCH   6   9
HETATM    9  C   UNL     1      -7.686  14.324  67.486  1.00  0.00    -0.191 C  
BRANCH   9  10
HETATM   10  O   UNL     1      -8.944  13.841  68.009  1.00  0.00    -0.171 OA 
BRANCH  10  11
HETATM   11  N   UNL     1      -8.722  12.685  68.796  1.00  0.00    -0.379 NA 
HETATM   12  H   UNL     1      -8.185  12.693  69.663  1.00  0.00     0.000 HD 
BRANCH  11  13
HETATM   13  C   UNL     1      -9.270  11.607  68.302  1.00  0.00    -0.187 C  
BRANCH  13  14
HETATM   14  C   UNL     1     -10.191  11.707  67.106  1.00  0.00    -0.240 A  
HETATM   15 CL   UNL     1     -11.985  13.290  68.494  1.00  0.00    -0.375 Cl 
HETATM   16  C   UNL     1      -9.810  11.081  65.902  1.00  0.00    -0.278 A  
HETATM   17  C   UNL     1     -11.392  12.442  67.109  1.00  0.00    -0.329 A  
HETATM   18  C   UNL     1     -10.564  11.224  64.730  1.00  0.00    -0.376 A  
HETATM   19 CL   UNL     1     -12.631  12.192  63.300  1.00  0.00    -0.606 Cl 
HETATM   20  C   UNL     1     -11.728  11.980  64.749  1.00  0.00    -0.275 A  
HETATM   21  C   UNL     1     -12.153  12.575  65.933  1.00  0.00    -0.420 A  
ENDBRANCH  13  14
BRANCH  13  22
HETATM   22  C   UNL     1      -8.990  10.203  68.834  1.00  0.00    -0.155 C  
BRANCH  22  23
HETATM   23  N   UNL     1     -10.064   9.646  69.645  1.00  0.00    -0.209 NA 
HETATM   24  C   UNL     1     -10.375   8.317  69.747  1.00  0.00    -0.216 A  
HETATM   25  N   UNL     1     -11.819   9.526  70.985  1.00  0.00    -0.309 NA 
HETATM   26  C   UNL     1     -10.942  10.335  70.429  1.00  0.00    -0.296 A  
HETATM   27  C   UNL     1     -11.475   8.269  70.570  1.00  0.00    -0.175 A  
ENDBRANCH  22  23
ENDBRANCH  13  22
ENDBRANCH  11  13
ENDBRANCH  10  11
ENDBRANCH   9  10
ENDBRANCH   6   9
TORSDOF 7
ENDMDL
MODEL      205
REMARK 921   NORMALIZED FREE ENERGY PREDICTED BY IDOCK:   -4.52 KCAL/MOL
REMARK 922        TOTAL FREE ENERGY PREDICTED BY IDOCK:   -7.48 KCAL/MOL
REMARK 923 INTER-LIGAND FREE ENERGY PREDICTED BY IDOCK:   -6.33 KCAL/MOL
REMARK 924 INTRA-LIGAND FREE ENERGY PREDICTED BY IDOCK:   -1.15 KCAL/MOL
REMARK 927      BINDING AFFINITY PREDICTED BY RF-SCORE:    0.00 PKD
ROOT
HETATM    1 CL   UNL     1     -14.405   8.418  72.301  1.00  0.00    -0.487 Cl 
HETATM    2  C   UNL     1     -12.859   7.856  71.804  1.00  0.00    -0.328 A  
HETATM    3  C   UNL     1     -11.717   8.303  72.463  1.00  0.00    -0.451 A  
HETATM    4  C   UNL     1     -10.455   7.901  72.004  1.00  0.00    -0.231 A  
HETATM    5 CL   UNL     1      -9.082   8.497  72.876  1.00  0.00    -0.260 Cl 
HETATM    6  C   UNL     1     -10.309   7.062  70.879  1.00  0.00    -0.214 A  
HETATM    7  C   UNL     1     -11.481   6.581  70.273  1.00  0.00    -0.474 A  
HETATM    8  C   UNL     1     -12.746   6.978  70.731  1.00  0.00    -0.133 A  
ENDROOT
BRANCH   6   9
HETATM    9  C   UNL     1      -8.934   6.799  70.281  1.00  0.00    -0.152 C  
BRANCH   9  10
HETATM   10  O   UNL     1      -8.342   7.920  69.586  1.00  0.00    -0.127 OA 
BRANCH  10  11
HETATM   11  N   UNL     1      -9.248   8.411  68.614  1.00  0.00    -0.143 NA 
HETATM   12  H   UNL     1     -10.139   7.963  68.404  1.00  0.00     0.000 HD 
BRANCH  11  13
HETATM   13  C   UNL     1      -8.830   9.493  68.014  1.00  0.00    -0.123 C  
BRANCH  13  14
HETATM   14  C   UNL     1      -9.829  10.463  67.422  1.00  0.00    -0.210 A  
HETATM   15 CL   UNL     1     -11.111  10.780  69.854  1.00  0.00    -0.339 Cl 
HETATM   16  C   UNL     1      -9.709  10.817  66.064  1.00  0.00    -0.264 A  
HETATM   17  C   UNL     1     -10.848  11.082  68.172  1.00  0.00    -0.226 A  
HETATM   18  C   UNL     1     -10.534  11.788  65.482  1.00  0.00    -0.311 A  
HETATM   19 CL   UNL     1     -12.496  13.633  65.548  1.00  0.00    -0.516 Cl 
HETATM   20  C   UNL     1     -11.512  12.409  66.249  1.00  0.00    -0.371 A  
HETATM   21  C   UNL     1     -11.683  12.050  67.583  1.00  0.00    -0.365 A  
ENDBRANCH  13  14
BRANCH  13  22
HETATM   22  C   UNL     1      -7.357   9.884  67.915  1.00  0.00    -0.088 C  
BRANCH  22  23
HETATM   23  N   UNL     1      -6.945  10.908  68.865  1.00  0.00    -0.076 NA 
HETATM   24  C   UNL     1      -7.121  12.256  68.707  1.00  0.00    -0.107 A  
HETATM   25  N   UNL     1      -6.042  11.860  70.645  1.00  0.00    -0.280 NA 
HETATM   26  C   UNL     1      -6.316  10.713  70.060  1.00  0.00    -0.126 A  
HETATM   27  C   UNL     1      -6.539  12.826  69.815  1.00  0.00     0.071 A  
ENDBRANCH  22  23
ENDBRANCH  13  22
ENDBRANCH  11  13
ENDBRANCH  10  11
ENDBRANCH   9  10
ENDBRANCH   6   9
TORSDOF 7
ENDMDL
MODEL      206
REMARK 921   NORMALIZED FREE ENERGY PREDICTED BY IDOCK:   -4.49 KCAL/MOL
REMARK 922        TOTAL FREE ENERGY PREDICTED BY IDOCK:   -7.45 KCAL/MOL
REMARK 923 INTER-LIGAND FREE ENERGY PREDICTED BY IDOCK:   -6.61 KCAL/MOL
REMARK 924 INTRA-LIGAND FREE ENERGY PREDICTED BY IDOCK:   -0.83 KCAL/MOL
REMARK 927      BINDING AFFINITY PREDICTED BY RF-SCORE:    0.00 PKD
ROOT
HETATM    1 CL   UNL     1     -11.246   4.649  73.383  1.00  0.00    -0.412 Cl 
HETATM    2  C   UNL     1     -11.192   6.125  72.502  1.00  0.00    -0.287 A  
HETATM    3  C   UNL     1      -9.997   6.838  72.424  1.00  0.00    -0.184 A  
HETATM    4  C   UNL     1      -9.978   8.077  71.770  1.00  0.00    -0.187 A  
HETATM    5 CL   UNL     1      -8.458   8.905  71.713  1.00  0.00    -0.171 Cl 
HETATM    6  C   UNL     1     -11.143   8.631  71.198  1.00  0.00    -0.324 A  
HETATM    7  C   UNL     1     -12.316   7.861  71.242  1.00  0.00    -0.300 A  
HETATM    8  C   UNL     1     -12.339   6.618  71.892  1.00  0.00    -0.364 A  
ENDROOT
BRANCH   6   9
HETATM    9  C   UNL     1     -11.144  10.060  70.669  1.00  0.00    -0.335 C  
BRANCH   9  10
HETATM   10  O   UNL     1     -10.544  10.232  69.365  1.00  0.00    -0.206 OA 
BRANCH  10  11
HETATM   11  N   UNL     1     -10.411  11.613  69.080  1.00  0.00    -0.412 NA 
HETATM   12  H   UNL     1     -10.772  12.347  69.689  1.00  0.00     0.000 HD 
BRANCH  11  13
HETATM   13  C   UNL     1      -9.781  11.854  67.962  1.00  0.00    -0.191 C  
BRANCH  13  14
HETATM   14  C   UNL     1      -8.679  12.891  67.922  1.00  0.00    -0.186 A  
HETATM   15 CL   UNL     1      -6.830  11.108  68.951  1.00  0.00    -0.078 Cl 
HETATM   16  C   UNL     1      -8.969  14.170  67.407  1.00  0.00    -0.205 A  
HETATM   17  C   UNL     1      -7.355  12.632  68.324  1.00  0.00    -0.116 A  
HETATM   18  C   UNL     1      -7.971  15.139  67.245  1.00  0.00    -0.234 A  
HETATM   19 CL   UNL     1      -5.430  16.023  67.378  1.00  0.00    -0.126 Cl 
HETATM   20  C   UNL     1      -6.664  14.850  67.618  1.00  0.00    -0.177 A  
HETATM   21  C   UNL     1      -6.356  13.611  68.170  1.00  0.00    -0.123 A  
ENDBRANCH  13  14
BRANCH  13  22
HETATM   22  C   UNL     1     -10.053  11.097  66.664  1.00  0.00    -0.217 C  
BRANCH  22  23
HETATM   23  N   UNL     1     -11.021  11.742  65.787  1.00  0.00    -0.303 NA 
HETATM   24  C   UNL     1     -12.059  12.534  66.194  1.00  0.00    -0.286 A  
HETATM   25  N   UNL     1     -12.104  12.331  63.951  1.00  0.00    -0.468 NA 
HETATM   26  C   UNL     1     -11.070  11.669  64.425  1.00  0.00    -0.317 A  
HETATM   27  C   UNL     1     -12.726  12.874  65.041  1.00  0.00    -0.404 A  
ENDBRANCH  22  23
ENDBRANCH  13  22
ENDBRANCH  11  13
ENDBRANCH  10  11
ENDBRANCH   9  10
ENDBRANCH   6   9
TORSDOF 7
ENDMDL
MODEL      207
REMARK 921   NORMALIZED FREE ENERGY PREDICTED BY IDOCK:   -4.49 KCAL/MOL
REMARK 922        TOTAL FREE ENERGY PREDICTED BY IDOCK:   -7.45 KCAL/MOL
REMARK 923 INTER-LIGAND FREE ENERGY PREDICTED BY IDOCK:   -6.83 KCAL/MOL
REMARK 924 INTRA-LIGAND FREE ENERGY PREDICTED BY IDOCK:   -0.62 KCAL/MOL
REMARK 927      BINDING AFFINITY PREDICTED BY RF-SCORE:    0.00 PKD
ROOT
HETATM    1 CL   UNL     1     -11.905  15.528  64.366  1.00  0.00    -0.322 Cl 
HETATM    2  C   UNL     1     -11.526  14.440  65.642  1.00  0.00    -0.336 A  
HETATM    3  C   UNL     1     -10.467  14.724  66.501  1.00  0.00    -0.291 A  
HETATM    4  C   UNL     1     -10.116  13.796  67.490  1.00  0.00    -0.241 A  
HETATM    5 CL   UNL     1      -8.789  14.220  68.520  1.00  0.00    -0.182 Cl 
HETATM    6  C   UNL     1     -10.800  12.570  67.633  1.00  0.00    -0.255 A  
HETATM    7  C   UNL     1     -11.899  12.340  66.790  1.00  0.00    -0.349 A  
HETATM    8  C   UNL     1     -12.258  13.268  65.801  1.00  0.00    -0.510 A  
ENDROOT
BRANCH   6   9
HETATM    9  C   UNL     1     -10.279  11.496  68.579  1.00  0.00    -0.213 C  
BRANCH   9  10
HETATM   10  O   UNL     1     -11.217  11.059  69.588  1.00  0.00    -0.248 OA 
BRANCH  10  11
HETATM   11  N   UNL     1     -11.594   9.717  69.340  1.00  0.00    -0.449 NA 
HETATM   12  H   UNL     1     -12.299   9.452  68.652  1.00  0.00     0.000 HD 
BRANCH  11  13
HETATM   13  C   UNL     1     -10.951   8.852  70.077  1.00  0.00    -0.206 C  
BRANCH  13  14
HETATM   14  C   UNL     1     -10.663   7.467  69.541  1.00  0.00    -0.233 A  
HETATM   15 CL   UNL     1     -10.293   8.430  66.973  1.00  0.00    -0.375 Cl 
HETATM   16  C   UNL     1     -10.650   6.381  70.438  1.00  0.00    -0.294 A  
HETATM   17  C   UNL     1     -10.348   7.205  68.193  1.00  0.00    -0.196 A  
HETATM   18  C   UNL     1     -10.287   5.092  70.025  1.00  0.00    -0.347 A  
HETATM   19 CL   UNL     1      -9.461   3.292  68.199  1.00  0.00    -0.241 Cl 
HETATM   20  C   UNL     1      -9.950   4.864  68.698  1.00  0.00    -0.125 A  
HETATM   21  C   UNL     1      -9.994   5.908  67.779  1.00  0.00    -0.156 A  
ENDBRANCH  13  14
BRANCH  13  22
HETATM   22  C   UNL     1     -10.405   9.174  71.467  1.00  0.00    -0.344 C  
BRANCH  22  23
HETATM   23  N   UNL     1      -8.969   8.972  71.606  1.00  0.00    -0.351 NA 
HETATM   24  C   UNL     1      -8.359   8.264  72.606  1.00  0.00    -0.173 A  
HETATM   25  N   UNL     1      -6.795   9.125  71.231  1.00  0.00    -0.189 NA 
HETATM   26  C   UNL     1      -7.990   9.450  70.785  1.00  0.00    -0.116 A  
HETATM   27  C   UNL     1      -7.012   8.386  72.361  1.00  0.00    -0.088 A  
ENDBRANCH  22  23
ENDBRANCH  13  22
ENDBRANCH  11  13
ENDBRANCH  10  11
ENDBRANCH   9  10
ENDBRANCH   6   9
TORSDOF 7
ENDMDL
MODEL      208
REMARK 921   NORMALIZED FREE ENERGY PREDICTED BY IDOCK:   -4.49 KCAL/MOL
REMARK 922        TOTAL FREE ENERGY PREDICTED BY IDOCK:   -7.44 KCAL/MOL
REMARK 923 INTER-LIGAND FREE ENERGY PREDICTED BY IDOCK:   -6.59 KCAL/MOL
REMARK 924 INTRA-LIGAND FREE ENERGY PREDICTED BY IDOCK:   -0.85 KCAL/MOL
REMARK 927      BINDING AFFINITY PREDICTED BY RF-SCORE:    0.00 PKD
ROOT
HETATM    1 CL   UNL     1     -13.433  15.504  73.045  1.00  0.00    -0.619 Cl 
HETATM    2  C   UNL     1     -12.853  14.451  71.817  1.00  0.00    -0.347 A  
HETATM    3  C   UNL     1     -12.157  14.976  70.730  1.00  0.00    -0.377 A  
HETATM    4  C   UNL     1     -11.754  14.122  69.694  1.00  0.00    -0.316 A  
HETATM    5 CL   UNL     1     -10.894  14.847  68.377  1.00  0.00    -0.244 Cl 
HETATM    6  C   UNL     1     -12.045  12.741  69.717  1.00  0.00    -0.305 A  
HETATM    7  C   UNL     1     -12.695  12.235  70.854  1.00  0.00    -0.277 A  
HETATM    8  C   UNL     1     -13.097  13.084  71.894  1.00  0.00    -0.483 A  
ENDROOT
BRANCH   6   9
HETATM    9  C   UNL     1     -11.773  11.871  68.496  1.00  0.00    -0.330 C  
BRANCH   9  10
HETATM   10  O   UNL     1     -11.513  10.478  68.781  1.00  0.00    -0.260 OA 
BRANCH  10  11
HETATM   11  N   UNL     1     -11.067   9.826  67.606  1.00  0.00    -0.455 NA 
HETATM   12  H   UNL     1     -11.623   9.768  66.753  1.00  0.00     0.000 HD 
BRANCH  11  13
HETATM   13  C   UNL     1      -9.874   9.306  67.721  1.00  0.00    -0.171 C  
BRANCH  13  14
HETATM   14  C   UNL     1      -8.970   9.213  66.511  1.00  0.00    -0.178 A  
HETATM   15 CL   UNL     1      -8.111  11.824  66.829  1.00  0.00    -0.159 Cl 
HETATM   16  C   UNL     1      -8.891   7.991  65.815  1.00  0.00    -0.170 A  
HETATM   17  C   UNL     1      -8.153  10.271  66.069  1.00  0.00    -0.139 A  
HETATM   18  C   UNL     1      -7.996   7.807  64.753  1.00  0.00    -0.142 A  
HETATM   19 CL   UNL     1      -6.046   8.617  63.081  1.00  0.00    -0.085 Cl 
HETATM   20  C   UNL     1      -7.176   8.855  64.355  1.00  0.00    -0.094 A  
HETATM   21  C   UNL     1      -7.262  10.088  64.995  1.00  0.00    -0.139 A  
ENDBRANCH  13  14
BRANCH  13  22
HETATM   22  C   UNL     1      -9.293   8.821  69.047  1.00  0.00    -0.145 C  
BRANCH  22  23
HETATM   23  N   UNL     1      -9.893   7.594  69.550  1.00  0.00    -0.175 NA 
HETATM   24  C   UNL     1     -11.042   7.515  70.290  1.00  0.00    -0.248 A  
HETATM   25  N   UNL     1     -10.184   5.451  70.013  1.00  0.00    -0.255 NA 
HETATM   26  C   UNL     1      -9.425   6.323  69.384  1.00  0.00    -0.139 A  
HETATM   27  C   UNL     1     -11.193   6.180  70.578  1.00  0.00    -0.334 A  
ENDBRANCH  22  23
ENDBRANCH  13  22
ENDBRANCH  11  13
ENDBRANCH  10  11
ENDBRANCH   9  10
ENDBRANCH   6   9
TORSDOF 7
ENDMDL
MODEL      209
REMARK 921   NORMALIZED FREE ENERGY PREDICTED BY IDOCK:   -4.49 KCAL/MOL
REMARK 922        TOTAL FREE ENERGY PREDICTED BY IDOCK:   -7.44 KCAL/MOL
REMARK 923 INTER-LIGAND FREE ENERGY PREDICTED BY IDOCK:   -6.31 KCAL/MOL
REMARK 924 INTRA-LIGAND FREE ENERGY PREDICTED BY IDOCK:   -1.13 KCAL/MOL
REMARK 927      BINDING AFFINITY PREDICTED BY RF-SCORE:    0.00 PKD
ROOT
HETATM    1 CL   UNL     1     -11.988  12.377  69.049  1.00  0.00    -0.322 Cl 
HETATM    2  C   UNL     1     -11.799  10.973  70.022  1.00  0.00    -0.355 A  
HETATM    3  C   UNL     1     -12.888  10.475  70.734  1.00  0.00    -0.454 A  
HETATM    4  C   UNL     1     -12.709   9.376  71.585  1.00  0.00    -0.374 A  
HETATM    5 CL   UNL     1     -14.109   8.814  72.437  1.00  0.00    -0.499 Cl 
HETATM    6  C   UNL     1     -11.448   8.766  71.752  1.00  0.00    -0.413 A  
HETATM    7  C   UNL     1     -10.384   9.254  70.976  1.00  0.00    -0.388 A  
HETATM    8  C   UNL     1     -10.559  10.350  70.119  1.00  0.00    -0.245 A  
ENDROOT
BRANCH   6   9
HETATM    9  C   UNL     1     -11.234   7.706  72.825  1.00  0.00    -0.377 C  
BRANCH   9  10
HETATM   10  O   UNL     1     -10.324   6.642  72.465  1.00  0.00    -0.188 OA 
BRANCH  10  11
HETATM   11  N   UNL     1     -11.013   5.658  71.716  1.00  0.00    -0.249 NA 
HETATM   12  H   UNL     1     -11.961   5.351  71.935  1.00  0.00     0.000 HD 
BRANCH  11  13
HETATM   13  C   UNL     1     -10.317   5.181  70.719  1.00  0.00    -0.224 C  
BRANCH  13  14
HETATM   14  C   UNL     1      -9.994   6.062  69.532  1.00  0.00    -0.225 A  
HETATM   15 CL   UNL     1      -7.426   6.527  70.449  1.00  0.00    -0.092 Cl 
HETATM   16  C   UNL     1     -10.974   6.243  68.535  1.00  0.00    -0.421 A  
HETATM   17  C   UNL     1      -8.741   6.674  69.336  1.00  0.00    -0.135 A  
HETATM   18  C   UNL     1     -10.703   6.959  67.362  1.00  0.00    -0.396 A  
HETATM   19 CL   UNL     1      -9.101   8.367  65.716  1.00  0.00    -0.220 Cl 
HETATM   20  C   UNL     1      -9.449   7.526  67.175  1.00  0.00    -0.154 A  
HETATM   21  C   UNL     1      -8.475   7.401  68.161  1.00  0.00    -0.124 A  
ENDBRANCH  13  14
BRANCH  13  22
HETATM   22  C   UNL     1      -9.742   3.767  70.696  1.00  0.00    -0.165 C  
BRANCH  22  23
HETATM   23  N   UNL     1      -9.136   3.388  69.427  1.00  0.00    -0.119 NA 
HETATM   24  C   UNL     1      -7.801   3.177  69.214  1.00  0.00    -0.049 A  
HETATM   25  N   UNL     1      -8.923   2.902  67.280  1.00  0.00    -0.147 NA 
HETATM   26  C   UNL     1      -9.778   3.184  68.241  1.00  0.00     0.075 A  
HETATM   27  C   UNL     1      -7.692   2.893  67.874  1.00  0.00    -0.056 A  
ENDBRANCH  22  23
ENDBRANCH  13  22
ENDBRANCH  11  13
ENDBRANCH  10  11
ENDBRANCH   9  10
ENDBRANCH   6   9
TORSDOF 7
ENDMDL
MODEL      210
REMARK 921   NORMALIZED FREE ENERGY PREDICTED BY IDOCK:   -4.46 KCAL/MOL
REMARK 922        TOTAL FREE ENERGY PREDICTED BY IDOCK:   -7.41 KCAL/MOL
REMARK 923 INTER-LIGAND FREE ENERGY PREDICTED BY IDOCK:   -5.73 KCAL/MOL
REMARK 924 INTRA-LIGAND FREE ENERGY PREDICTED BY IDOCK:   -1.68 KCAL/MOL
REMARK 927      BINDING AFFINITY PREDICTED BY RF-SCORE:    0.00 PKD
ROOT
HETATM    1 CL   UNL     1      -6.230  11.553  68.368  1.00  0.00    -0.049 Cl 
HETATM    2  C   UNL     1      -7.805  12.204  68.594  1.00  0.00    -0.078 A  
HETATM    3  C   UNL     1      -8.889  11.344  68.757  1.00  0.00    -0.076 A  
HETATM    4  C   UNL     1     -10.180  11.879  68.864  1.00  0.00    -0.075 A  
HETATM    5 CL   UNL     1     -11.477  10.748  69.064  1.00  0.00    -0.342 Cl 
HETATM    6  C   UNL     1     -10.414  13.269  68.799  1.00  0.00    -0.187 A  
HETATM    7  C   UNL     1      -9.295  14.110  68.694  1.00  0.00    -0.152 A  
HETATM    8  C   UNL     1      -8.001  13.580  68.591  1.00  0.00    -0.073 A  
ENDROOT
BRANCH   6   9
HETATM    9  C   UNL     1     -11.835  13.813  68.719  1.00  0.00    -0.363 C  
BRANCH   9  10
HETATM   10  O   UNL     1     -12.095  14.685  67.596  1.00  0.00    -0.333 OA 
BRANCH  10  11
HETATM   11  N   UNL     1     -12.426  13.911  66.458  1.00  0.00    -0.459 NA 
HETATM   12  H   UNL     1     -13.245  13.304  66.413  1.00  0.00     0.000 HD 
BRANCH  11  13
HETATM   13  C   UNL     1     -11.581  14.049  65.471  1.00  0.00    -0.332 C  
BRANCH  13  14
HETATM   14  C   UNL     1     -10.822  12.847  64.952  1.00  0.00    -0.331 A  
HETATM   15 CL   UNL     1     -12.903  12.136  63.272  1.00  0.00    -0.489 Cl 
HETATM   16  C   UNL     1      -9.516  12.614  65.424  1.00  0.00     0.126 A  
HETATM   17  C   UNL     1     -11.331  11.971  63.973  1.00  0.00    -0.403 A  
HETATM   18  C   UNL     1      -8.722  11.583  64.906  1.00  0.00     0.394 A  
HETATM   19 CL   UNL     1      -8.243   9.513  63.250  1.00  0.00    -0.150 Cl 
HETATM   20  C   UNL     1      -9.232  10.751  63.918  1.00  0.00    -0.235 A  
HETATM   21  C   UNL     1     -10.535  10.930  63.462  1.00  0.00    -0.267 A  
ENDBRANCH  13  14
BRANCH  13  22
HETATM   22  C   UNL     1     -11.343  15.372  64.748  1.00  0.00    -0.376 C  
BRANCH  22  23
HETATM   23  N   UNL     1     -10.465  16.292  65.459  1.00  0.00    -0.482 NA 
HETATM   24  C   UNL     1      -9.180  16.025  65.846  1.00  0.00    -0.286 A  
HETATM   25  N   UNL     1      -9.756  18.095  66.526  1.00  0.00    -0.331 NA 
HETATM   26  C   UNL     1     -10.761  17.560  65.864  1.00  0.00    -0.119 A  
HETATM   27  C   UNL     1      -8.767  17.150  66.519  1.00  0.00    -0.261 A  
ENDBRANCH  22  23
ENDBRANCH  13  22
ENDBRANCH  11  13
ENDBRANCH  10  11
ENDBRANCH   9  10
ENDBRANCH   6   9
TORSDOF 7
ENDMDL
MODEL      211
REMARK 921   NORMALIZED FREE ENERGY PREDICTED BY IDOCK:   -4.45 KCAL/MOL
REMARK 922        TOTAL FREE ENERGY PREDICTED BY IDOCK:   -7.39 KCAL/MOL
REMARK 923 INTER-LIGAND FREE ENERGY PREDICTED BY IDOCK:   -5.84 KCAL/MOL
REMARK 924 INTRA-LIGAND FREE ENERGY PREDICTED BY IDOCK:   -1.55 KCAL/MOL
REMARK 927      BINDING AFFINITY PREDICTED BY RF-SCORE:    0.00 PKD
ROOT
HETATM    1 CL   UNL     1      -8.609  10.198  62.907  1.00  0.00    -0.170 Cl 
HETATM    2  C   UNL     1      -9.106  10.739  64.461  1.00  0.00    -0.198 A  
HETATM    3  C   UNL     1      -8.161  10.896  65.472  1.00  0.00    -0.052 A  
HETATM    4  C   UNL     1      -8.583  11.263  66.757  1.00  0.00    -0.159 A  
HETATM    5 CL   UNL     1      -7.350  11.439  67.961  1.00  0.00    -0.086 Cl 
HETATM    6  C   UNL     1      -9.946  11.468  67.059  1.00  0.00    -0.225 A  
HETATM    7  C   UNL     1     -10.867  11.360  66.004  1.00  0.00    -0.306 A  
HETATM    8  C   UNL     1     -10.449  10.997  64.716  1.00  0.00    -0.384 A  
ENDROOT
BRANCH   6   9
HETATM    9  C   UNL     1     -10.400  11.672  68.499  1.00  0.00    -0.212 C  
BRANCH   9  10
HETATM   10  O   UNL     1     -11.110  10.556  69.082  1.00  0.00    -0.219 OA 
BRANCH  10  11
HETATM   11  N   UNL     1     -10.476  10.164  70.286  1.00  0.00    -0.394 NA 
HETATM   12  H   UNL     1     -10.715  10.555  71.197  1.00  0.00     0.000 HD 
BRANCH  11  13
HETATM   13  C   UNL     1      -9.554   9.254  70.116  1.00  0.00    -0.220 C  
BRANCH  13  14
HETATM   14  C   UNL     1      -9.788   8.111  69.152  1.00  0.00    -0.182 A  
HETATM   15 CL   UNL     1     -11.773   7.036  70.752  1.00  0.00    -0.377 Cl 
HETATM   16  C   UNL     1      -9.042   8.069  67.957  1.00  0.00    -0.130 A  
HETATM   17  C   UNL     1     -10.757   7.110  69.354  1.00  0.00    -0.231 A  
HETATM   18  C   UNL     1      -9.285   7.100  66.975  1.00  0.00    -0.167 A  
HETATM   19 CL   UNL     1     -10.596   4.977  65.959  1.00  0.00    -0.321 Cl 
HETATM   20  C   UNL     1     -10.267   6.140  67.182  1.00  0.00    -0.199 A  
HETATM   21  C   UNL     1     -10.991   6.131  68.371  1.00  0.00    -0.391 A  
ENDBRANCH  13  14
BRANCH  13  22
HETATM   22  C   UNL     1      -8.192   9.298  70.806  1.00  0.00    -0.169 C  
BRANCH  22  23
HETATM   23  N   UNL     1      -8.152   8.620  72.095  1.00  0.00    -0.333 NA 
HETATM   24  C   UNL     1      -9.244   8.268  72.842  1.00  0.00    -0.259 A  
HETATM   25  N   UNL     1      -7.362   7.689  73.938  1.00  0.00    -0.108 NA 
HETATM   26  C   UNL     1      -7.041   8.228  72.781  1.00  0.00    -0.098 A  
HETATM   27  C   UNL     1      -8.728   7.708  73.987  1.00  0.00    -0.252 A  
ENDBRANCH  22  23
ENDBRANCH  13  22
ENDBRANCH  11  13
ENDBRANCH  10  11
ENDBRANCH   9  10
ENDBRANCH   6   9
TORSDOF 7
ENDMDL
MODEL      212
REMARK 921   NORMALIZED FREE ENERGY PREDICTED BY IDOCK:   -4.45 KCAL/MOL
REMARK 922        TOTAL FREE ENERGY PREDICTED BY IDOCK:   -7.39 KCAL/MOL
REMARK 923 INTER-LIGAND FREE ENERGY PREDICTED BY IDOCK:   -5.97 KCAL/MOL
REMARK 924 INTRA-LIGAND FREE ENERGY PREDICTED BY IDOCK:   -1.42 KCAL/MOL
REMARK 927      BINDING AFFINITY PREDICTED BY RF-SCORE:    0.00 PKD
ROOT
HETATM    1 CL   UNL     1     -14.005   8.357  72.299  1.00  0.00    -0.388 Cl 
HETATM    2  C   UNL     1     -12.472   7.809  71.744  1.00  0.00    -0.320 A  
HETATM    3  C   UNL     1     -11.310   8.277  72.354  1.00  0.00    -0.457 A  
HETATM    4  C   UNL     1     -10.063   7.887  71.848  1.00  0.00    -0.194 A  
HETATM    5 CL   UNL     1      -8.664   8.509  72.658  1.00  0.00    -0.262 Cl 
HETATM    6  C   UNL     1      -9.952   7.039  70.725  1.00  0.00    -0.197 A  
HETATM    7  C   UNL     1     -11.141   6.538  70.171  1.00  0.00    -0.410 A  
HETATM    8  C   UNL     1     -12.391   6.923  70.677  1.00  0.00    -0.248 A  
ENDROOT
BRANCH   6   9
HETATM    9  C   UNL     1      -8.598   6.788  70.074  1.00  0.00    -0.141 C  
BRANCH   9  10
HETATM   10  O   UNL     1      -8.455   7.310  68.733  1.00  0.00    -0.128 OA 
BRANCH  10  11
HETATM   11  N   UNL     1      -8.589   8.719  68.753  1.00  0.00    -0.135 NA 
HETATM   12  H   UNL     1      -8.150   9.313  69.457  1.00  0.00     0.000 HD 
BRANCH  11  13
HETATM   13  C   UNL     1      -9.330   9.185  67.784  1.00  0.00    -0.136 C  
BRANCH  13  14
HETATM   14  C   UNL     1      -9.922  10.575  67.884  1.00  0.00    -0.193 A  
HETATM   15 CL   UNL     1      -7.634  11.731  66.842  1.00  0.00    -0.144 Cl 
HETATM   16  C   UNL     1     -11.240  10.718  68.359  1.00  0.00    -0.345 A  
HETATM   17  C   UNL     1      -9.244  11.739  67.474  1.00  0.00    -0.175 A  
HETATM   18  C   UNL     1     -11.883  11.962  68.376  1.00  0.00    -0.352 A  
HETATM   19 CL   UNL     1     -12.008  14.614  67.916  1.00  0.00    -0.344 Cl 
HETATM   20  C   UNL     1     -11.206  13.093  67.937  1.00  0.00    -0.270 A  
HETATM   21  C   UNL     1      -9.888  12.989  67.502  1.00  0.00    -0.209 A  
ENDBRANCH  13  14
BRANCH  13  22
HETATM   22  C   UNL     1      -9.601   8.419  66.491  1.00  0.00    -0.236 C  
BRANCH  22  23
HETATM   23  N   UNL     1      -8.685   8.736  65.405  1.00  0.00    -0.180 NA 
HETATM   24  C   UNL     1      -8.995   9.467  64.290  1.00  0.00    -0.205 A  
HETATM   25  N   UNL     1      -6.854   8.775  64.164  1.00  0.00    -0.082 NA 
HETATM   26  C   UNL     1      -7.377   8.363  65.300  1.00  0.00    -0.084 A  
HETATM   27  C   UNL     1      -7.850   9.464  63.529  1.00  0.00    -0.130 A  
ENDBRANCH  22  23
ENDBRANCH  13  22
ENDBRANCH  11  13
ENDBRANCH  10  11
ENDBRANCH   9  10
ENDBRANCH   6   9
TORSDOF 7
ENDMDL
MODEL      213
REMARK 921   NORMALIZED FREE ENERGY PREDICTED BY IDOCK:   -4.45 KCAL/MOL
REMARK 922        TOTAL FREE ENERGY PREDICTED BY IDOCK:   -7.39 KCAL/MOL
REMARK 923 INTER-LIGAND FREE ENERGY PREDICTED BY IDOCK:   -6.23 KCAL/MOL
REMARK 924 INTRA-LIGAND FREE ENERGY PREDICTED BY IDOCK:   -1.16 KCAL/MOL
REMARK 927      BINDING AFFINITY PREDICTED BY RF-SCORE:    0.00 PKD
ROOT
HETATM    1 CL   UNL     1      -9.772  17.379  66.829  1.00  0.00    -0.277 Cl 
HETATM    2  C   UNL     1      -9.795  15.727  66.354  1.00  0.00    -0.276 A  
HETATM    3  C   UNL     1     -10.722  15.295  65.408  1.00  0.00    -0.407 A  
HETATM    4  C   UNL     1     -10.787  13.933  65.081  1.00  0.00    -0.358 A  
HETATM    5 CL   UNL     1     -11.963  13.472  63.896  1.00  0.00    -0.504 Cl 
HETATM    6  C   UNL     1      -9.945  12.983  65.696  1.00  0.00    -0.239 A  
HETATM    7  C   UNL     1      -8.983  13.459  66.602  1.00  0.00    -0.135 A  
HETATM    8  C   UNL     1      -8.911  14.821  66.928  1.00  0.00    -0.276 A  
ENDROOT
BRANCH   6   9
HETATM    9  C   UNL     1     -10.165  11.492  65.474  1.00  0.00    -0.258 C  
BRANCH   9  10
HETATM   10  O   UNL     1     -11.026  10.848  66.442  1.00  0.00    -0.202 OA 
BRANCH  10  11
HETATM   11  N   UNL     1     -10.484   9.590  66.798  1.00  0.00    -0.222 NA 
HETATM   12  H   UNL     1     -10.551   8.764  66.204  1.00  0.00     0.000 HD 
BRANCH  11  13
HETATM   13  C   UNL     1      -9.892   9.590  67.963  1.00  0.00    -0.155 C  
BRANCH  13  14
HETATM   14  C   UNL     1     -10.713   9.479  69.229  1.00  0.00    -0.240 A  
HETATM   15 CL   UNL     1     -11.113  12.215  69.327  1.00  0.00    -0.259 Cl 
HETATM   16  C   UNL     1     -10.960   8.201  69.768  1.00  0.00    -0.133 A  
HETATM   17  C   UNL     1     -11.296  10.585  69.876  1.00  0.00    -0.309 A  
HETATM   18  C   UNL     1     -11.798   8.021  70.875  1.00  0.00    -0.236 A  
HETATM   19 CL   UNL     1     -13.453   8.900  72.810  1.00  0.00    -0.382 Cl 
HETATM   20  C   UNL     1     -12.389   9.124  71.478  1.00  0.00    -0.347 A  
HETATM   21  C   UNL     1     -12.129  10.403  70.995  1.00  0.00    -0.488 A  
ENDBRANCH  13  14
BRANCH  13  22
HETATM   22  C   UNL     1      -8.375   9.639  68.133  1.00  0.00    -0.117 C  
BRANCH  22  23
HETATM   23  N   UNL     1      -7.700   8.380  67.851  1.00  0.00    -0.102 NA 
HETATM   24  C   UNL     1      -7.176   8.013  66.641  1.00  0.00    -0.081 A  
HETATM   25  N   UNL     1      -6.885   6.343  68.124  1.00  0.00    -0.068 NA 
HETATM   26  C   UNL     1      -7.478   7.355  68.722  1.00  0.00    -0.101 A  
HETATM   27  C   UNL     1      -6.691   6.741  66.831  1.00  0.00    -0.056 A  
ENDBRANCH  22  23
ENDBRANCH  13  22
ENDBRANCH  11  13
ENDBRANCH  10  11
ENDBRANCH   9  10
ENDBRANCH   6   9
TORSDOF 7
ENDMDL
MODEL      214
REMARK 921   NORMALIZED FREE ENERGY PREDICTED BY IDOCK:   -4.45 KCAL/MOL
REMARK 922        TOTAL FREE ENERGY PREDICTED BY IDOCK:   -7.39 KCAL/MOL
REMARK 923 INTER-LIGAND FREE ENERGY PREDICTED BY IDOCK:   -6.50 KCAL/MOL
REMARK 924 INTRA-LIGAND FREE ENERGY PREDICTED BY IDOCK:   -0.88 KCAL/MOL
REMARK 927      BINDING AFFINITY PREDICTED BY RF-SCORE:    0.00 PKD
ROOT
HETATM    1 CL   UNL     1      -8.482  17.170  66.566  1.00  0.00    -0.286 Cl 
HETATM    2  C   UNL     1      -9.189  15.608  66.439  1.00  0.00    -0.311 A  
HETATM    3  C   UNL     1     -10.319  15.425  65.646  1.00  0.00    -0.395 A  
HETATM    4  C   UNL     1     -10.935  14.166  65.607  1.00  0.00    -0.308 A  
HETATM    5 CL   UNL     1     -12.335  14.015  64.598  1.00  0.00    -0.436 Cl 
HETATM    6  C   UNL     1     -10.448  13.079  66.364  1.00  0.00    -0.285 A  
HETATM    7  C   UNL     1      -9.273  13.282  67.107  1.00  0.00    -0.235 A  
HETATM    8  C   UNL     1      -8.651  14.538  67.145  1.00  0.00    -0.242 A  
ENDROOT
BRANCH   6   9
HETATM    9  C   UNL     1     -11.243  11.784  66.461  1.00  0.00    -0.321 C  
BRANCH   9  10
HETATM   10  O   UNL     1     -11.624  11.397  67.801  1.00  0.00    -0.445 OA 
BRANCH  10  11
HETATM   11  N   UNL     1     -11.675   9.985  67.894  1.00  0.00    -0.404 NA 
HETATM   12  H   UNL     1     -12.342   9.414  67.374  1.00  0.00     0.000 HD 
BRANCH  11  13
HETATM   13  C   UNL     1     -10.786   9.486  68.710  1.00  0.00    -0.190 C  
BRANCH  13  14
HETATM   14  C   UNL     1     -10.401   8.025  68.607  1.00  0.00    -0.224 A  
HETATM   15 CL   UNL     1     -11.724   7.410  70.959  1.00  0.00    -0.315 Cl 
HETATM   16  C   UNL     1      -9.662   7.596  67.488  1.00  0.00    -0.197 A  
HETATM   17  C   UNL     1     -10.791   7.052  69.547  1.00  0.00    -0.238 A  
HETATM   18  C   UNL     1      -9.366   6.242  67.280  1.00  0.00    -0.123 A  
HETATM   19 CL   UNL     1      -9.464   3.629  67.927  1.00  0.00    -0.237 Cl 
HETATM   20  C   UNL     1      -9.788   5.295  68.204  1.00  0.00    -0.150 A  
HETATM   21  C   UNL     1     -10.484   5.694  69.341  1.00  0.00    -0.367 A  
ENDBRANCH  13  14
BRANCH  13  22
HETATM   22  C   UNL     1     -10.044  10.316  69.755  1.00  0.00    -0.203 C  
BRANCH  22  23
HETATM   23  N   UNL     1      -8.650   9.938  69.939  1.00  0.00    -0.204 NA 
HETATM   24  C   UNL     1      -7.613  10.304  69.124  1.00  0.00    -0.111 A  
HETATM   25  N   UNL     1      -6.842   8.975  70.773  1.00  0.00    -0.065 NA 
HETATM   26  C   UNL     1      -8.135   9.161  70.935  1.00  0.00    -0.162 A  
HETATM   27  C   UNL     1      -6.506   9.682  69.651  1.00  0.00    -0.046 A  
ENDBRANCH  22  23
ENDBRANCH  13  22
ENDBRANCH  11  13
ENDBRANCH  10  11
ENDBRANCH   9  10
ENDBRANCH   6   9
TORSDOF 7
ENDMDL
MODEL      215
REMARK 921   NORMALIZED FREE ENERGY PREDICTED BY IDOCK:   -4.44 KCAL/MOL
REMARK 922        TOTAL FREE ENERGY PREDICTED BY IDOCK:   -7.38 KCAL/MOL
REMARK 923 INTER-LIGAND FREE ENERGY PREDICTED BY IDOCK:   -6.00 KCAL/MOL
REMARK 924 INTRA-LIGAND FREE ENERGY PREDICTED BY IDOCK:   -1.38 KCAL/MOL
REMARK 927      BINDING AFFINITY PREDICTED BY RF-SCORE:    0.00 PKD
ROOT
HETATM    1 CL   UNL     1     -10.299   6.415  74.024  1.00  0.00    -0.333 Cl 
HETATM    2  C   UNL     1     -10.693   7.708  72.962  1.00  0.00    -0.391 A  
HETATM    3  C   UNL     1     -12.029   8.013  72.712  1.00  0.00    -0.246 A  
HETATM    4  C   UNL     1     -12.344   9.018  71.787  1.00  0.00    -0.367 A  
HETATM    5 CL   UNL     1     -14.026   9.341  71.530  1.00  0.00    -0.327 Cl 
HETATM    6  C   UNL     1     -11.341   9.723  71.089  1.00  0.00    -0.459 A  
HETATM    7  C   UNL     1     -10.004   9.432  71.407  1.00  0.00    -0.230 A  
HETATM    8  C   UNL     1      -9.684   8.431  72.335  1.00  0.00    -0.376 A  
ENDROOT
BRANCH   6   9
HETATM    9  C   UNL     1     -11.705  10.666  69.950  1.00  0.00    -0.317 C  
BRANCH   9  10
HETATM   10  O   UNL     1     -10.783  10.670  68.837  1.00  0.00    -0.191 OA 
BRANCH  10  11
HETATM   11  N   UNL     1     -11.174   9.692  67.890  1.00  0.00    -0.501 NA 
HETATM   12  H   UNL     1     -12.147   9.440  67.716  1.00  0.00     0.000 HD 
BRANCH  11  13
HETATM   13  C   UNL     1     -10.168   9.145  67.262  1.00  0.00    -0.254 C  
BRANCH  13  14
HETATM   14  C   UNL     1      -9.408   8.003  67.902  1.00  0.00    -0.148 A  
HETATM   15 CL   UNL     1     -11.043   6.116  66.712  1.00  0.00    -0.346 Cl 
HETATM   16  C   UNL     1      -8.290   8.300  68.707  1.00  0.00    -0.124 A  
HETATM   17  C   UNL     1      -9.722   6.647  67.693  1.00  0.00    -0.124 A  
HETATM   18  C   UNL     1      -7.481   7.288  69.240  1.00  0.00    -0.096 A  
HETATM   19 CL   UNL     1      -6.775   4.716  69.613  1.00  0.00    -0.043 Cl 
HETATM   20  C   UNL     1      -7.792   5.957  68.995  1.00  0.00    -0.095 A  
HETATM   21  C   UNL     1      -8.915   5.632  68.239  1.00  0.00    -0.114 A  
ENDBRANCH  13  14
BRANCH  13  22
HETATM   22  C   UNL     1      -9.730   9.555  65.858  1.00  0.00    -0.282 C  
BRANCH  22  23
HETATM   23  N   UNL     1      -8.354  10.025  65.774  1.00  0.00    -0.128 NA 
HETATM   24  C   UNL     1      -7.390   9.518  64.946  1.00  0.00    -0.111 A  
HETATM   25  N   UNL     1      -6.508  11.163  66.208  1.00  0.00    -0.117 NA 
HETATM   26  C   UNL     1      -7.786  11.033  66.497  1.00  0.00    -0.154 A  
HETATM   27  C   UNL     1      -6.251  10.228  65.244  1.00  0.00    -0.127 A  
ENDBRANCH  22  23
ENDBRANCH  13  22
ENDBRANCH  11  13
ENDBRANCH  10  11
ENDBRANCH   9  10
ENDBRANCH   6   9
TORSDOF 7
ENDMDL
MODEL      216
REMARK 921   NORMALIZED FREE ENERGY PREDICTED BY IDOCK:   -4.44 KCAL/MOL
REMARK 922        TOTAL FREE ENERGY PREDICTED BY IDOCK:   -7.38 KCAL/MOL
REMARK 923 INTER-LIGAND FREE ENERGY PREDICTED BY IDOCK:   -6.39 KCAL/MOL
REMARK 924 INTRA-LIGAND FREE ENERGY PREDICTED BY IDOCK:   -0.99 KCAL/MOL
REMARK 927      BINDING AFFINITY PREDICTED BY RF-SCORE:    0.00 PKD
ROOT
HETATM    1 CL   UNL     1     -11.093   3.742  73.387  1.00  0.00    -0.318 Cl 
HETATM    2  C   UNL     1     -10.870   5.313  72.726  1.00  0.00    -0.261 A  
HETATM    3  C   UNL     1      -9.841   6.122  73.203  1.00  0.00    -0.171 A  
HETATM    4  C   UNL     1      -9.712   7.430  72.715  1.00  0.00    -0.173 A  
HETATM    5 CL   UNL     1      -8.409   8.375  73.354  1.00  0.00    -0.239 Cl 
HETATM    6  C   UNL     1     -10.608   7.955  71.759  1.00  0.00    -0.276 A  
HETATM    7  C   UNL     1     -11.597   7.095  71.256  1.00  0.00    -0.327 A  
HETATM    8  C   UNL     1     -11.727   5.785  71.739  1.00  0.00    -0.054 A  
ENDROOT
BRANCH   6   9
HETATM    9  C   UNL     1     -10.570   9.433  71.391  1.00  0.00    -0.311 C  
BRANCH   9  10
HETATM   10  O   UNL     1     -10.951   9.736  70.030  1.00  0.00    -0.244 OA 
BRANCH  10  11
HETATM   11  N   UNL     1     -10.670  11.095  69.748  1.00  0.00    -0.462 NA 
HETATM   12  H   UNL     1     -10.889  11.857  70.389  1.00  0.00     0.000 HD 
BRANCH  11  13
HETATM   13  C   UNL     1     -10.101  11.277  68.586  1.00  0.00    -0.208 C  
BRANCH  13  14
HETATM   14  C   UNL     1     -10.696  12.256  67.597  1.00  0.00    -0.250 A  
HETATM   15 CL   UNL     1      -9.415  14.396  68.794  1.00  0.00    -0.193 Cl 
HETATM   16  C   UNL     1     -11.520  11.763  66.567  1.00  0.00    -0.325 A  
HETATM   17  C   UNL     1     -10.427  13.638  67.615  1.00  0.00    -0.238 A  
HETATM   18  C   UNL     1     -12.016  12.600  65.559  1.00  0.00    -0.509 A  
HETATM   19 CL   UNL     1     -12.282  14.976  64.318  1.00  0.00    -0.433 Cl 
HETATM   20  C   UNL     1     -11.711  13.955  65.578  1.00  0.00    -0.349 A  
HETATM   21  C   UNL     1     -10.935  14.479  66.608  1.00  0.00    -0.321 A  
ENDBRANCH  13  14
BRANCH  13  22
HETATM   22  C   UNL     1      -8.803  10.588  68.168  1.00  0.00    -0.134 C  
BRANCH  22  23
HETATM   23  N   UNL     1      -7.748  10.642  69.170  1.00  0.00    -0.128 NA 
HETATM   24  C   UNL     1      -7.354   9.602  69.967  1.00  0.00    -0.130 A  
HETATM   25  N   UNL     1      -6.155  11.439  70.481  1.00  0.00    -0.309 NA 
HETATM   26  C   UNL     1      -6.980  11.722  69.495  1.00  0.00     0.027 A  
HETATM   27  C   UNL     1      -6.377  10.124  70.781  1.00  0.00    -0.052 A  
ENDBRANCH  22  23
ENDBRANCH  13  22
ENDBRANCH  11  13
ENDBRANCH  10  11
ENDBRANCH   9  10
ENDBRANCH   6   9
TORSDOF 7
ENDMDL
MODEL      217
REMARK 921   NORMALIZED FREE ENERGY PREDICTED BY IDOCK:   -4.44 KCAL/MOL
REMARK 922        TOTAL FREE ENERGY PREDICTED BY IDOCK:   -7.38 KCAL/MOL
REMARK 923 INTER-LIGAND FREE ENERGY PREDICTED BY IDOCK:   -6.04 KCAL/MOL
REMARK 924 INTRA-LIGAND FREE ENERGY PREDICTED BY IDOCK:   -1.34 KCAL/MOL
REMARK 927      BINDING AFFINITY PREDICTED BY RF-SCORE:    0.00 PKD
ROOT
HETATM    1 CL   UNL     1     -13.439  13.499  72.460  1.00  0.00    -0.671 Cl 
HETATM    2  C   UNL     1     -12.623  13.336  70.956  1.00  0.00    -0.324 A  
HETATM    3  C   UNL     1     -12.329  14.471  70.203  1.00  0.00    -0.398 A  
HETATM    4  C   UNL     1     -11.733  14.325  68.943  1.00  0.00    -0.328 A  
HETATM    5 CL   UNL     1     -11.399  15.781  68.066  1.00  0.00    -0.338 Cl 
HETATM    6  C   UNL     1     -11.432  13.054  68.408  1.00  0.00    -0.345 A  
HETATM    7  C   UNL     1     -11.686  11.935  69.217  1.00  0.00    -0.389 A  
HETATM    8  C   UNL     1     -12.278  12.076  70.480  1.00  0.00    -0.414 A  
ENDROOT
BRANCH   6   9
HETATM    9  C   UNL     1     -10.970  12.910  66.964  1.00  0.00    -0.262 C  
BRANCH   9  10
HETATM   10  O   UNL     1      -9.545  13.044  66.759  1.00  0.00    -0.234 OA 
BRANCH  10  11
HETATM   11  N   UNL     1      -9.129  12.179  65.719  1.00  0.00    -0.436 NA 
HETATM   12  H   UNL     1      -8.997  12.486  64.755  1.00  0.00     0.000 HD 
BRANCH  11  13
HETATM   13  C   UNL     1      -8.931  10.950  66.113  1.00  0.00    -0.183 C  
BRANCH  13  14
HETATM   14  C   UNL     1      -7.966  10.664  67.243  1.00  0.00    -0.116 A  
HETATM   15 CL   UNL     1      -5.781  10.833  65.555  1.00  0.00    -0.139 Cl 
HETATM   16  C   UNL     1      -8.479  10.492  68.544  1.00  0.00    -0.131 A  
HETATM   17  C   UNL     1      -6.569  10.614  67.079  1.00  0.00    -0.081 A  
HETATM   18  C   UNL     1      -7.634  10.331  69.650  1.00  0.00    -0.167 A  
HETATM   19 CL   UNL     1      -5.218  10.163  70.830  1.00  0.00    -0.059 Cl 
HETATM   20  C   UNL     1      -6.257  10.317  69.468  1.00  0.00    -0.051 A  
HETATM   21  C   UNL     1      -5.723  10.441  68.189  1.00  0.00    -0.040 A  
ENDBRANCH  13  14
BRANCH  13  22
HETATM   22  C   UNL     1      -9.673   9.750  65.528  1.00  0.00    -0.312 C  
BRANCH  22  23
HETATM   23  N   UNL     1      -8.856   8.903  64.669  1.00  0.00    -0.115 NA 
HETATM   24  C   UNL     1      -8.455   9.211  63.398  1.00  0.00    -0.192 A  
HETATM   25  N   UNL     1      -7.705   7.158  63.947  1.00  0.00    -0.113 NA 
HETATM   26  C   UNL     1      -8.358   7.668  64.969  1.00  0.00    -0.071 A  
HETATM   27  C   UNL     1      -7.756   8.108  62.965  1.00  0.00    -0.135 A  
ENDBRANCH  22  23
ENDBRANCH  13  22
ENDBRANCH  11  13
ENDBRANCH  10  11
ENDBRANCH   9  10
ENDBRANCH   6   9
TORSDOF 7
ENDMDL
MODEL      218
REMARK 921   NORMALIZED FREE ENERGY PREDICTED BY IDOCK:   -4.43 KCAL/MOL
REMARK 922        TOTAL FREE ENERGY PREDICTED BY IDOCK:   -7.36 KCAL/MOL
REMARK 923 INTER-LIGAND FREE ENERGY PREDICTED BY IDOCK:   -6.54 KCAL/MOL
REMARK 924 INTRA-LIGAND FREE ENERGY PREDICTED BY IDOCK:   -0.83 KCAL/MOL
REMARK 927      BINDING AFFINITY PREDICTED BY RF-SCORE:    0.00 PKD
ROOT
HETATM    1 CL   UNL     1      -9.875   6.425  69.940  1.00  0.00    -0.183 Cl 
HETATM    2  C   UNL     1      -9.330   7.863  69.171  1.00  0.00    -0.154 A  
HETATM    3  C   UNL     1      -8.418   8.690  69.822  1.00  0.00    -0.129 A  
HETATM    4  C   UNL     1      -8.036   9.899  69.223  1.00  0.00    -0.121 A  
HETATM    5 CL   UNL     1      -6.898  10.874  70.092  1.00  0.00    -0.106 Cl 
HETATM    6  C   UNL     1      -8.563  10.308  67.980  1.00  0.00    -0.118 A  
HETATM    7  C   UNL     1      -9.434   9.424  67.323  1.00  0.00    -0.169 A  
HETATM    8  C   UNL     1      -9.815   8.212  67.916  1.00  0.00    -0.206 A  
ENDROOT
BRANCH   6   9
HETATM    9  C   UNL     1      -8.288  11.707  67.444  1.00  0.00    -0.152 C  
BRANCH   9  10
HETATM   10  O   UNL     1      -9.004  12.771  68.111  1.00  0.00    -0.192 OA 
BRANCH  10  11
HETATM   11  N   UNL     1     -10.344  12.804  67.656  1.00  0.00    -0.218 NA 
HETATM   12  H   UNL     1     -10.626  12.499  66.724  1.00  0.00     0.000 HD 
BRANCH  11  13
HETATM   13  C   UNL     1     -11.184  13.261  68.545  1.00  0.00    -0.271 C  
BRANCH  13  14
HETATM   14  C   UNL     1     -11.706  12.348  69.633  1.00  0.00    -0.377 A  
HETATM   15 CL   UNL     1     -12.560  14.492  71.160  1.00  0.00    -0.383 Cl 
HETATM   16  C   UNL     1     -11.611  10.954  69.452  1.00  0.00    -0.387 A  
HETATM   17  C   UNL     1     -12.339  12.814  70.802  1.00  0.00    -0.287 A  
HETATM   18  C   UNL     1     -12.170  10.055  70.370  1.00  0.00    -0.249 A  
HETATM   19 CL   UNL     1     -13.541   9.437  72.605  1.00  0.00    -0.425 Cl 
HETATM   20  C   UNL     1     -12.817  10.539  71.500  1.00  0.00    -0.463 A  
HETATM   21  C   UNL     1     -12.889  11.910  71.728  1.00  0.00    -0.389 A  
ENDBRANCH  13  14
BRANCH  13  22
HETATM   22  C   UNL     1     -11.645  14.716  68.595  1.00  0.00    -0.314 C  
BRANCH  22  23
HETATM   23  N   UNL     1     -10.565  15.689  68.505  1.00  0.00    -0.248 NA 
HETATM   24  C   UNL     1     -10.335  16.527  67.447  1.00  0.00    -0.290 A  
HETATM   25  N   UNL     1      -8.748  16.842  69.015  1.00  0.00    -0.205 NA 
HETATM   26  C   UNL     1      -9.600  15.933  69.438  1.00  0.00    -0.265 A  
HETATM   27  C   UNL     1      -9.196  17.220  67.779  1.00  0.00    -0.239 A  
ENDBRANCH  22  23
ENDBRANCH  13  22
ENDBRANCH  11  13
ENDBRANCH  10  11
ENDBRANCH   9  10
ENDBRANCH   6   9
TORSDOF 7
ENDMDL
MODEL      219
REMARK 921   NORMALIZED FREE ENERGY PREDICTED BY IDOCK:   -4.42 KCAL/MOL
REMARK 922        TOTAL FREE ENERGY PREDICTED BY IDOCK:   -7.35 KCAL/MOL
REMARK 923 INTER-LIGAND FREE ENERGY PREDICTED BY IDOCK:   -6.45 KCAL/MOL
REMARK 924 INTRA-LIGAND FREE ENERGY PREDICTED BY IDOCK:   -0.90 KCAL/MOL
REMARK 927      BINDING AFFINITY PREDICTED BY RF-SCORE:    0.00 PKD
ROOT
HETATM    1 CL   UNL     1     -11.520   4.987  73.273  1.00  0.00    -0.393 Cl 
HETATM    2  C   UNL     1     -11.072   5.958  71.927  1.00  0.00    -0.268 A  
HETATM    3  C   UNL     1     -10.374   5.386  70.866  1.00  0.00    -0.312 A  
HETATM    4  C   UNL     1      -9.945   6.199  69.808  1.00  0.00    -0.170 A  
HETATM    5 CL   UNL     1      -9.083   5.416  68.525  1.00  0.00    -0.113 Cl 
HETATM    6  C   UNL     1     -10.190   7.588  69.794  1.00  0.00    -0.211 A  
HETATM    7  C   UNL     1     -10.947   8.123  70.849  1.00  0.00    -0.266 A  
HETATM    8  C   UNL     1     -11.383   7.313  71.908  1.00  0.00    -0.288 A  
ENDROOT
BRANCH   6   9
HETATM    9  C   UNL     1      -9.548   8.479  68.739  1.00  0.00    -0.149 C  
BRANCH   9  10
HETATM   10  O   UNL     1     -10.109   8.362  67.412  1.00  0.00    -0.195 OA 
BRANCH  10  11
HETATM   11  N   UNL     1     -11.105   9.351  67.226  1.00  0.00    -0.293 NA 
HETATM   12  H   UNL     1     -12.068   9.241  67.544  1.00  0.00     0.000 HD 
BRANCH  11  13
HETATM   13  C   UNL     1     -10.671  10.417  66.608  1.00  0.00    -0.128 C  
BRANCH  13  14
HETATM   14  C   UNL     1     -10.991  11.791  67.155  1.00  0.00    -0.326 A  
HETATM   15 CL   UNL     1     -12.422  12.470  64.887  1.00  0.00    -0.555 Cl 
HETATM   16  C   UNL     1     -10.538  12.129  68.446  1.00  0.00    -0.243 A  
HETATM   17  C   UNL     1     -11.768  12.740  66.465  1.00  0.00    -0.400 A  
HETATM   18  C   UNL     1     -10.889  13.342  69.052  1.00  0.00    -0.220 A  
HETATM   19 CL   UNL     1     -12.151  15.721  69.124  1.00  0.00    -0.310 Cl 
HETATM   20  C   UNL     1     -11.684  14.251  68.365  1.00  0.00    -0.338 A  
HETATM   21  C   UNL     1     -12.111  13.963  67.072  1.00  0.00    -0.451 A  
ENDBRANCH  13  14
BRANCH  13  22
HETATM   22  C   UNL     1      -9.789  10.365  65.363  1.00  0.00    -0.283 C  
BRANCH  22  23
HETATM   23  N   UNL     1      -8.370  10.188  65.643  1.00  0.00    -0.145 NA 
HETATM   24  C   UNL     1      -7.610  10.999  66.441  1.00  0.00    -0.135 A  
HETATM   25  N   UNL     1      -6.317   9.370  65.573  1.00  0.00    -0.064 NA 
HETATM   26  C   UNL     1      -7.557   9.204  65.163  1.00  0.00    -0.098 A  
HETATM   27  C   UNL     1      -6.338  10.481  66.370  1.00  0.00    -0.100 A  
ENDBRANCH  22  23
ENDBRANCH  13  22
ENDBRANCH  11  13
ENDBRANCH  10  11
ENDBRANCH   9  10
ENDBRANCH   6   9
TORSDOF 7
ENDMDL
MODEL      220
REMARK 921   NORMALIZED FREE ENERGY PREDICTED BY IDOCK:   -4.42 KCAL/MOL
REMARK 922        TOTAL FREE ENERGY PREDICTED BY IDOCK:   -7.35 KCAL/MOL
REMARK 923 INTER-LIGAND FREE ENERGY PREDICTED BY IDOCK:   -6.46 KCAL/MOL
REMARK 924 INTRA-LIGAND FREE ENERGY PREDICTED BY IDOCK:   -0.89 KCAL/MOL
REMARK 927      BINDING AFFINITY PREDICTED BY RF-SCORE:    0.00 PKD
ROOT
HETATM    1 CL   UNL     1      -8.803   5.705  66.055  1.00  0.00    -0.143 Cl 
HETATM    2  C   UNL     1      -8.678   7.329  66.607  1.00  0.00    -0.132 A  
HETATM    3  C   UNL     1      -8.885   8.378  65.715  1.00  0.00    -0.204 A  
HETATM    4  C   UNL     1      -8.707   9.698  66.152  1.00  0.00    -0.136 A  
HETATM    5 CL   UNL     1      -8.982  10.949  64.986  1.00  0.00    -0.204 Cl 
HETATM    6  C   UNL     1      -8.310   9.993  67.474  1.00  0.00    -0.118 A  
HETATM    7  C   UNL     1      -8.168   8.916  68.363  1.00  0.00    -0.117 A  
HETATM    8  C   UNL     1      -8.349   7.594  67.931  1.00  0.00    -0.123 A  
ENDROOT
BRANCH   6   9
HETATM    9  C   UNL     1      -7.933  11.414  67.872  1.00  0.00    -0.120 C  
BRANCH   9  10
HETATM   10  O   UNL     1      -8.928  12.119  68.648  1.00  0.00    -0.122 OA 
BRANCH  10  11
HETATM   11  N   UNL     1      -8.704  13.514  68.556  1.00  0.00    -0.313 NA 
HETATM   12  H   UNL     1      -7.799  13.949  68.737  1.00  0.00     0.000 HD 
BRANCH  11  13
HETATM   13  C   UNL     1      -9.769  14.190  68.216  1.00  0.00    -0.227 C  
BRANCH  13  14
HETATM   14  C   UNL     1     -10.571  13.778  67.000  1.00  0.00    -0.278 A  
HETATM   15 CL   UNL     1      -9.588  15.894  65.513  1.00  0.00    -0.256 Cl 
HETATM   16  C   UNL     1     -11.361  12.614  67.072  1.00  0.00    -0.377 A  
HETATM   17  C   UNL     1     -10.529  14.466  65.773  1.00  0.00    -0.318 A  
HETATM   18  C   UNL     1     -12.042  12.120  65.952  1.00  0.00    -0.128 A  
HETATM   19 CL   UNL     1     -12.761  12.168  63.356  1.00  0.00    -0.612 Cl 
HETATM   20  C   UNL     1     -11.961  12.797  64.743  1.00  0.00    -0.402 A  
HETATM   21  C   UNL     1     -11.223  13.974  64.652  1.00  0.00    -0.377 A  
ENDBRANCH  13  14
BRANCH  13  22
HETATM   22  C   UNL     1     -10.307  15.371  69.021  1.00  0.00    -0.243 C  
BRANCH  22  23
HETATM   23  N   UNL     1      -9.612  16.627  68.777  1.00  0.00    -0.246 NA 
HETATM   24  C   UNL     1     -10.211  17.843  68.590  1.00  0.00    -0.385 A  
HETATM   25  N   UNL     1      -7.976  18.069  68.408  1.00  0.00    -0.292 NA 
HETATM   26  C   UNL     1      -8.264  16.815  68.687  1.00  0.00    -0.252 A  
HETATM   27  C   UNL     1      -9.178  18.718  68.347  1.00  0.00    -0.339 A  
ENDBRANCH  22  23
ENDBRANCH  13  22
ENDBRANCH  11  13
ENDBRANCH  10  11
ENDBRANCH   9  10
ENDBRANCH   6   9
TORSDOF 7
ENDMDL
MODEL      221
REMARK 921   NORMALIZED FREE ENERGY PREDICTED BY IDOCK:   -4.42 KCAL/MOL
REMARK 922        TOTAL FREE ENERGY PREDICTED BY IDOCK:   -7.34 KCAL/MOL
REMARK 923 INTER-LIGAND FREE ENERGY PREDICTED BY IDOCK:   -6.26 KCAL/MOL
REMARK 924 INTRA-LIGAND FREE ENERGY PREDICTED BY IDOCK:   -1.08 KCAL/MOL
REMARK 927      BINDING AFFINITY PREDICTED BY RF-SCORE:    0.00 PKD
ROOT
HETATM    1 CL   UNL     1     -10.253   3.075  64.235  1.00  0.00    -0.105 Cl 
HETATM    2  C   UNL     1      -9.685   4.455  65.088  1.00  0.00    -0.178 A  
HETATM    3  C   UNL     1     -10.361   4.889  66.226  1.00  0.00    -0.336 A  
HETATM    4  C   UNL     1      -9.939   6.058  66.873  1.00  0.00    -0.169 A  
HETATM    5 CL   UNL     1     -10.828   6.534  68.281  1.00  0.00    -0.334 Cl 
HETATM    6  C   UNL     1      -8.851   6.818  66.394  1.00  0.00    -0.153 A  
HETATM    7  C   UNL     1      -8.155   6.322  65.280  1.00  0.00    -0.132 A  
HETATM    8  C   UNL     1      -8.571   5.150  64.632  1.00  0.00    -0.142 A  
ENDROOT
BRANCH   6   9
HETATM    9  C   UNL     1      -8.535   8.183  66.992  1.00  0.00    -0.120 C  
BRANCH   9  10
HETATM   10  O   UNL     1      -9.550   9.193  66.788  1.00  0.00    -0.166 OA 
BRANCH  10  11
HETATM   11  N   UNL     1      -9.023  10.468  67.104  1.00  0.00    -0.140 NA 
HETATM   12  H   UNL     1      -8.300  10.928  66.551  1.00  0.00     0.000 HD 
BRANCH  11  13
HETATM   13  C   UNL     1      -9.555  11.000  68.172  1.00  0.00    -0.171 C  
BRANCH  13  14
HETATM   14  C   UNL     1      -9.915  10.124  69.353  1.00  0.00    -0.247 A  
HETATM   15 CL   UNL     1      -7.261   9.846  70.083  1.00  0.00    -0.141 Cl 
HETATM   16  C   UNL     1     -11.275   9.864  69.614  1.00  0.00    -0.251 A  
HETATM   17  C   UNL     1      -8.965   9.595  70.247  1.00  0.00    -0.219 A  
HETATM   18  C   UNL     1     -11.681   9.151  70.750  1.00  0.00    -0.308 A  
HETATM   19 CL   UNL     1     -11.226   7.829  73.052  1.00  0.00    -0.448 Cl 
HETATM   20  C   UNL     1     -10.727   8.666  71.635  1.00  0.00    -0.303 A  
HETATM   21  C   UNL     1      -9.374   8.870  71.381  1.00  0.00    -0.338 A  
ENDBRANCH  13  14
BRANCH  13  22
HETATM   22  C   UNL     1      -9.792  12.499  68.336  1.00  0.00    -0.202 C  
BRANCH  22  23
HETATM   23  N   UNL     1     -10.607  13.094  67.286  1.00  0.00    -0.246 NA 
HETATM   24  C   UNL     1     -11.881  12.716  66.959  1.00  0.00    -0.345 A  
HETATM   25  N   UNL     1     -11.211  14.370  65.584  1.00  0.00    -0.316 NA 
HETATM   26  C   UNL     1     -10.254  14.113  66.451  1.00  0.00    -0.290 A  
HETATM   27  C   UNL     1     -12.228  13.510  65.892  1.00  0.00    -0.460 A  
ENDBRANCH  22  23
ENDBRANCH  13  22
ENDBRANCH  11  13
ENDBRANCH  10  11
ENDBRANCH   9  10
ENDBRANCH   6   9
TORSDOF 7
ENDMDL
MODEL      222
REMARK 921   NORMALIZED FREE ENERGY PREDICTED BY IDOCK:   -4.41 KCAL/MOL
REMARK 922        TOTAL FREE ENERGY PREDICTED BY IDOCK:   -7.34 KCAL/MOL
REMARK 923 INTER-LIGAND FREE ENERGY PREDICTED BY IDOCK:   -6.58 KCAL/MOL
REMARK 924 INTRA-LIGAND FREE ENERGY PREDICTED BY IDOCK:   -0.76 KCAL/MOL
REMARK 927      BINDING AFFINITY PREDICTED BY RF-SCORE:    0.00 PKD
ROOT
HETATM    1 CL   UNL     1     -14.365   7.838  71.872  1.00  0.00    -0.525 Cl 
HETATM    2  C   UNL     1     -12.694   7.542  71.599  1.00  0.00    -0.355 A  
HETATM    3  C   UNL     1     -11.749   8.043  72.492  1.00  0.00    -0.446 A  
HETATM    4  C   UNL     1     -10.385   7.864  72.223  1.00  0.00    -0.253 A  
HETATM    5 CL   UNL     1      -9.272   8.514  73.379  1.00  0.00    -0.109 Cl 
HETATM    6  C   UNL     1      -9.941   7.198  71.061  1.00  0.00    -0.192 A  
HETATM    7  C   UNL     1     -10.918   6.654  70.212  1.00  0.00    -0.355 A  
HETATM    8  C   UNL     1     -12.283   6.827  70.479  1.00  0.00    -0.253 A  
ENDROOT
BRANCH   6   9
HETATM    9  C   UNL     1      -8.463   7.189  70.690  1.00  0.00    -0.138 C  
BRANCH   9  10
HETATM   10  O   UNL     1      -8.184   7.315  69.277  1.00  0.00    -0.127 OA 
BRANCH  10  11
HETATM   11  N   UNL     1      -8.481   8.632  68.849  1.00  0.00    -0.128 NA 
HETATM   12  H   UNL     1      -8.406   9.448  69.455  1.00  0.00     0.000 HD 
BRANCH  11  13
HETATM   13  C   UNL     1      -8.862   8.699  67.601  1.00  0.00    -0.136 C  
BRANCH  13  14
HETATM   14  C   UNL     1      -9.802   9.798  67.155  1.00  0.00    -0.238 A  
HETATM   15 CL   UNL     1     -10.544  10.357  69.761  1.00  0.00    -0.296 Cl 
HETATM   16  C   UNL     1      -9.888  10.100  65.781  1.00  0.00    -0.331 A  
HETATM   17  C   UNL     1     -10.560  10.581  68.046  1.00  0.00    -0.214 A  
HETATM   18  C   UNL     1     -10.657  11.174  65.313  1.00  0.00    -0.303 A  
HETATM   19 CL   UNL     1     -12.280  13.297  65.646  1.00  0.00    -0.483 Cl 
HETATM   20  C   UNL     1     -11.372  11.953  66.214  1.00  0.00    -0.334 A  
HETATM   21  C   UNL     1     -11.340  11.652  67.573  1.00  0.00    -0.364 A  
ENDBRANCH  13  14
BRANCH  13  22
HETATM   22  C   UNL     1      -8.362   7.746  66.518  1.00  0.00    -0.128 C  
BRANCH  22  23
HETATM   23  N   UNL     1      -9.091   6.487  66.445  1.00  0.00    -0.153 NA 
HETATM   24  C   UNL     1     -10.416   6.318  66.740  1.00  0.00    -0.244 A  
HETATM   25  N   UNL     1      -9.512   4.333  66.176  1.00  0.00    -0.163 NA 
HETATM   26  C   UNL     1      -8.592   5.270  66.084  1.00  0.00    -0.120 A  
HETATM   27  C   UNL     1     -10.650   4.972  66.581  1.00  0.00    -0.195 A  
ENDBRANCH  22  23
ENDBRANCH  13  22
ENDBRANCH  11  13
ENDBRANCH  10  11
ENDBRANCH   9  10
ENDBRANCH   6   9
TORSDOF 7
ENDMDL
MODEL      223
REMARK 921   NORMALIZED FREE ENERGY PREDICTED BY IDOCK:   -4.40 KCAL/MOL
REMARK 922        TOTAL FREE ENERGY PREDICTED BY IDOCK:   -7.32 KCAL/MOL
REMARK 923 INTER-LIGAND FREE ENERGY PREDICTED BY IDOCK:   -6.62 KCAL/MOL
REMARK 924 INTRA-LIGAND FREE ENERGY PREDICTED BY IDOCK:   -0.70 KCAL/MOL
REMARK 927      BINDING AFFINITY PREDICTED BY RF-SCORE:    0.00 PKD
ROOT
HETATM    1 CL   UNL     1      -7.145   8.003  70.243  1.00  0.00    -0.048 Cl 
HETATM    2  C   UNL     1      -7.887   9.143  69.191  1.00  0.00    -0.092 A  
HETATM    3  C   UNL     1      -7.431   9.271  67.881  1.00  0.00    -0.084 A  
HETATM    4  C   UNL     1      -7.989  10.255  67.052  1.00  0.00    -0.111 A  
HETATM    5 CL   UNL     1      -7.370  10.354  65.437  1.00  0.00    -0.142 Cl 
HETATM    6  C   UNL     1      -8.995  11.130  67.514  1.00  0.00    -0.139 A  
HETATM    7  C   UNL     1      -9.473  10.935  68.820  1.00  0.00    -0.196 A  
HETATM    8  C   UNL     1      -8.922   9.950  69.651  1.00  0.00    -0.232 A  
ENDROOT
BRANCH   6   9
HETATM    9  C   UNL     1      -9.444  12.312  66.665  1.00  0.00    -0.226 C  
BRANCH   9  10
HETATM   10  O   UNL     1      -8.707  13.537  66.880  1.00  0.00    -0.213 OA 
BRANCH  10  11
HETATM   11  N   UNL     1      -8.980  14.037  68.177  1.00  0.00    -0.178 NA 
HETATM   12  H   UNL     1      -8.476  13.734  69.010  1.00  0.00     0.000 HD 
BRANCH  11  13
HETATM   13  C   UNL     1      -9.940  14.922  68.201  1.00  0.00    -0.222 C  
BRANCH  13  14
HETATM   14  C   UNL     1     -10.921  14.943  69.353  1.00  0.00    -0.284 A  
HETATM   15 CL   UNL     1     -12.213  12.680  68.423  1.00  0.00    -0.106 Cl 
HETATM   16  C   UNL     1     -10.788  15.939  70.340  1.00  0.00    -0.325 A  
HETATM   17  C   UNL     1     -11.935  13.982  69.527  1.00  0.00    -0.339 A  
HETATM   18  C   UNL     1     -11.595  15.951  71.484  1.00  0.00    -0.537 A  
HETATM   19 CL   UNL     1     -13.529  14.962  73.076  1.00  0.00    -0.535 Cl 
HETATM   20  C   UNL     1     -12.568  14.974  71.651  1.00  0.00    -0.339 A  
HETATM   21  C   UNL     1     -12.752  14.002  70.672  1.00  0.00    -0.373 A  
ENDBRANCH  13  14
BRANCH  13  22
HETATM   22  C   UNL     1     -10.109  16.007  67.139  1.00  0.00    -0.270 C  
BRANCH  22  23
HETATM   23  N   UNL     1      -9.691  17.334  67.569  1.00  0.00    -0.259 NA 
HETATM   24  C   UNL     1     -10.436  18.477  67.461  1.00  0.00    -0.418 A  
HETATM   25  N   UNL     1      -8.429  18.970  68.357  1.00  0.00    -0.336 NA 
HETATM   26  C   UNL     1      -8.499  17.674  68.140  1.00  0.00    -0.260 A  
HETATM   27  C   UNL     1      -9.627  19.479  67.941  1.00  0.00    -0.350 A  
ENDBRANCH  22  23
ENDBRANCH  13  22
ENDBRANCH  11  13
ENDBRANCH  10  11
ENDBRANCH   9  10
ENDBRANCH   6   9
TORSDOF 7
ENDMDL
MODEL      224
REMARK 921   NORMALIZED FREE ENERGY PREDICTED BY IDOCK:   -4.39 KCAL/MOL
REMARK 922        TOTAL FREE ENERGY PREDICTED BY IDOCK:   -7.31 KCAL/MOL
REMARK 923 INTER-LIGAND FREE ENERGY PREDICTED BY IDOCK:   -6.31 KCAL/MOL
REMARK 924 INTRA-LIGAND FREE ENERGY PREDICTED BY IDOCK:   -1.00 KCAL/MOL
REMARK 927      BINDING AFFINITY PREDICTED BY RF-SCORE:    0.00 PKD
ROOT
HETATM    1 CL   UNL     1     -13.801   8.948  72.305  1.00  0.00    -0.501 Cl 
HETATM    2  C   UNL     1     -12.407   8.173  71.663  1.00  0.00    -0.314 A  
HETATM    3  C   UNL     1     -11.164   8.793  71.764  1.00  0.00    -0.410 A  
HETATM    4  C   UNL     1     -10.045   8.192  71.171  1.00  0.00    -0.184 A  
HETATM    5 CL   UNL     1      -8.534   9.022  71.338  1.00  0.00    -0.206 Cl 
HETATM    6  C   UNL     1     -10.147   6.977  70.461  1.00  0.00    -0.202 A  
HETATM    7  C   UNL     1     -11.402   6.348  70.428  1.00  0.00    -0.453 A  
HETATM    8  C   UNL     1     -12.523   6.943  71.023  1.00  0.00    -0.364 A  
ENDROOT
BRANCH   6   9
HETATM    9  C   UNL     1      -8.965   6.445  69.660  1.00  0.00    -0.137 C  
BRANCH   9  10
HETATM   10  O   UNL     1      -8.310   7.417  68.813  1.00  0.00    -0.127 OA 
BRANCH  10  11
HETATM   11  N   UNL     1      -9.259   8.008  67.945  1.00  0.00    -0.131 NA 
HETATM   12  H   UNL     1     -10.219   7.675  67.855  1.00  0.00     0.000 HD 
BRANCH  11  13
HETATM   13  C   UNL     1      -8.786   9.021  67.270  1.00  0.00    -0.117 C  
BRANCH  13  14
HETATM   14  C   UNL     1      -9.688  10.185  66.921  1.00  0.00    -0.233 A  
HETATM   15 CL   UNL     1      -9.287   9.811  64.209  1.00  0.00    -0.299 Cl 
HETATM   16  C   UNL     1     -10.330  10.882  67.963  1.00  0.00    -0.212 A  
HETATM   17  C   UNL     1      -9.970  10.580  65.599  1.00  0.00    -0.270 A  
HETATM   18  C   UNL     1     -11.258  11.899  67.703  1.00  0.00    -0.340 A  
HETATM   19 CL   UNL     1     -12.716  13.467  66.070  1.00  0.00    -0.391 Cl 
HETATM   20  C   UNL     1     -11.545  12.250  66.391  1.00  0.00    -0.383 A  
HETATM   21  C   UNL     1     -10.894  11.609  65.340  1.00  0.00    -0.336 A  
ENDBRANCH  13  14
BRANCH  13  22
HETATM   22  C   UNL     1      -7.324   9.139  66.846  1.00  0.00    -0.090 C  
BRANCH  22  23
HETATM   23  N   UNL     1      -6.675  10.371  67.272  1.00  0.00    -0.075 NA 
HETATM   24  C   UNL     1      -6.496  10.767  68.570  1.00  0.00    -0.054 A  
HETATM   25  N   UNL     1      -5.679  12.343  67.183  1.00  0.00    -0.291 NA 
HETATM   26  C   UNL     1      -6.142  11.338  66.471  1.00  0.00    -0.139 A  
HETATM   27  C   UNL     1      -5.891  11.999  68.489  1.00  0.00    -0.052 A  
ENDBRANCH  22  23
ENDBRANCH  13  22
ENDBRANCH  11  13
ENDBRANCH  10  11
ENDBRANCH   9  10
ENDBRANCH   6   9
TORSDOF 7
ENDMDL
MODEL      225
REMARK 921   NORMALIZED FREE ENERGY PREDICTED BY IDOCK:   -4.39 KCAL/MOL
REMARK 922        TOTAL FREE ENERGY PREDICTED BY IDOCK:   -7.31 KCAL/MOL
REMARK 923 INTER-LIGAND FREE ENERGY PREDICTED BY IDOCK:   -6.60 KCAL/MOL
REMARK 924 INTRA-LIGAND FREE ENERGY PREDICTED BY IDOCK:   -0.71 KCAL/MOL
REMARK 927      BINDING AFFINITY PREDICTED BY RF-SCORE:    0.00 PKD
ROOT
HETATM    1 CL   UNL     1      -5.708   9.847  68.120  1.00  0.00    -0.039 Cl 
HETATM    2  C   UNL     1      -7.261  10.584  68.064  1.00  0.00    -0.087 A  
HETATM    3  C   UNL     1      -8.233  10.215  68.990  1.00  0.00    -0.132 A  
HETATM    4  C   UNL     1      -9.520  10.763  68.892  1.00  0.00    -0.181 A  
HETATM    5 CL   UNL     1     -10.675  10.257  70.079  1.00  0.00    -0.337 Cl 
HETATM    6  C   UNL     1      -9.862  11.672  67.868  1.00  0.00    -0.189 A  
HETATM    7  C   UNL     1      -8.843  12.068  66.986  1.00  0.00    -0.197 A  
HETATM    8  C   UNL     1      -7.553  11.526  67.083  1.00  0.00    -0.149 A  
ENDROOT
BRANCH   6   9
HETATM    9  C   UNL     1     -11.309  12.100  67.662  1.00  0.00    -0.314 C  
BRANCH   9  10
HETATM   10  O   UNL     1     -11.657  13.382  68.231  1.00  0.00    -0.299 OA 
BRANCH  10  11
HETATM   11  N   UNL     1     -12.215  14.213  67.230  1.00  0.00    -0.573 NA 
HETATM   12  H   UNL     1     -13.219  14.300  67.071  1.00  0.00     0.000 HD 
BRANCH  11  13
HETATM   13  C   UNL     1     -11.320  14.857  66.530  1.00  0.00    -0.319 C  
BRANCH  13  14
HETATM   14  C   UNL     1     -10.149  15.518  67.224  1.00  0.00    -0.250 A  
HETATM   15 CL   UNL     1     -11.661  16.058  69.477  1.00  0.00    -0.308 Cl 
HETATM   16  C   UNL     1      -8.904  15.556  66.566  1.00  0.00    -0.348 A  
HETATM   17  C   UNL     1     -10.217  16.052  68.525  1.00  0.00    -0.236 A  
HETATM   18  C   UNL     1      -7.756  16.057  67.194  1.00  0.00    -0.242 A  
HETATM   19 CL   UNL     1      -6.425  17.124  69.278  1.00  0.00    -0.226 Cl 
HETATM   20  C   UNL     1      -7.841  16.550  68.490  1.00  0.00    -0.210 A  
HETATM   21  C   UNL     1      -9.066  16.565  69.150  1.00  0.00    -0.184 A  
ENDBRANCH  13  14
BRANCH  13  22
HETATM   22  C   UNL     1     -11.347  14.943  65.005  1.00  0.00    -0.398 C  
BRANCH  22  23
HETATM   23  N   UNL     1     -11.736  13.705  64.344  1.00  0.00    -0.396 NA 
HETATM   24  C   UNL     1     -10.876  12.738  63.897  1.00  0.00    -0.411 A  
HETATM   25  N   UNL     1     -12.994  12.149  63.403  1.00  0.00    -0.747 NA 
HETATM   26  C   UNL     1     -13.004  13.295  64.050  1.00  0.00     0.412 A  
HETATM   27  C   UNL     1     -11.678  11.792  63.303  1.00  0.00    -0.240 A  
ENDBRANCH  22  23
ENDBRANCH  13  22
ENDBRANCH  11  13
ENDBRANCH  10  11
ENDBRANCH   9  10
ENDBRANCH   6   9
TORSDOF 7
ENDMDL
MODEL      226
REMARK 921   NORMALIZED FREE ENERGY PREDICTED BY IDOCK:   -4.39 KCAL/MOL
REMARK 922        TOTAL FREE ENERGY PREDICTED BY IDOCK:   -7.30 KCAL/MOL
REMARK 923 INTER-LIGAND FREE ENERGY PREDICTED BY IDOCK:   -6.31 KCAL/MOL
REMARK 924 INTRA-LIGAND FREE ENERGY PREDICTED BY IDOCK:   -0.99 KCAL/MOL
REMARK 927      BINDING AFFINITY PREDICTED BY RF-SCORE:    0.00 PKD
ROOT
HETATM    1 CL   UNL     1     -11.574  16.007  64.210  1.00  0.00    -0.323 Cl 
HETATM    2  C   UNL     1     -11.257  14.857  65.448  1.00  0.00    -0.359 A  
HETATM    3  C   UNL     1      -9.950  14.655  65.884  1.00  0.00    -0.352 A  
HETATM    4  C   UNL     1      -9.689  13.662  66.839  1.00  0.00    -0.262 A  
HETATM    5 CL   UNL     1      -8.039  13.471  67.332  1.00  0.00    -0.186 Cl 
HETATM    6  C   UNL     1     -10.716  12.850  67.362  1.00  0.00    -0.252 A  
HETATM    7  C   UNL     1     -12.030  13.118  66.946  1.00  0.00    -0.421 A  
HETATM    8  C   UNL     1     -12.297  14.113  65.994  1.00  0.00    -0.470 A  
ENDROOT
BRANCH   6   9
HETATM    9  C   UNL     1     -10.385  11.653  68.244  1.00  0.00    -0.200 C  
BRANCH   9  10
HETATM   10  O   UNL     1     -10.947  10.395  67.807  1.00  0.00    -0.273 OA 
BRANCH  10  11
HETATM   11  N   UNL     1      -9.984   9.678  67.057  1.00  0.00    -0.193 NA 
HETATM   12  H   UNL     1      -9.822   9.832  66.062  1.00  0.00     0.000 HD 
BRANCH  11  13
HETATM   13  C   UNL     1      -9.324   8.799  67.762  1.00  0.00    -0.141 C  
BRANCH  13  14
HETATM   14  C   UNL     1     -10.013   8.062  68.890  1.00  0.00    -0.199 A  
HETATM   15 CL   UNL     1     -11.033   6.162  67.156  1.00  0.00    -0.428 Cl 
HETATM   16  C   UNL     1      -9.854   8.535  70.207  1.00  0.00    -0.194 A  
HETATM   17  C   UNL     1     -10.767   6.887  68.704  1.00  0.00    -0.216 A  
HETATM   18  C   UNL     1     -10.376   7.839  71.305  1.00  0.00    -0.222 A  
HETATM   19 CL   UNL     1     -11.693   5.787  72.450  1.00  0.00    -0.334 Cl 
HETATM   20  C   UNL     1     -11.089   6.665  71.100  1.00  0.00    -0.279 A  
HETATM   21  C   UNL     1     -11.300   6.196  69.807  1.00  0.00    -0.452 A  
ENDBRANCH  13  14
BRANCH  13  22
HETATM   22  C   UNL     1      -7.874   8.413  67.480  1.00  0.00    -0.099 C  
BRANCH  22  23
HETATM   23  N   UNL     1      -7.721   7.233  66.640  1.00  0.00    -0.099 NA 
HETATM   24  C   UNL     1      -7.340   5.992  67.074  1.00  0.00    -0.076 A  
HETATM   25  N   UNL     1      -7.644   5.948  64.842  1.00  0.00    -0.084 NA 
HETATM   26  C   UNL     1      -7.920   7.154  65.293  1.00  0.00    -0.127 A  
HETATM   27  C   UNL     1      -7.284   5.217  65.940  1.00  0.00    -0.073 A  
ENDBRANCH  22  23
ENDBRANCH  13  22
ENDBRANCH  11  13
ENDBRANCH  10  11
ENDBRANCH   9  10
ENDBRANCH   6   9
TORSDOF 7
ENDMDL
MODEL      227
REMARK 921   NORMALIZED FREE ENERGY PREDICTED BY IDOCK:   -4.38 KCAL/MOL
REMARK 922        TOTAL FREE ENERGY PREDICTED BY IDOCK:   -7.29 KCAL/MOL
REMARK 923 INTER-LIGAND FREE ENERGY PREDICTED BY IDOCK:   -6.39 KCAL/MOL
REMARK 924 INTRA-LIGAND FREE ENERGY PREDICTED BY IDOCK:   -0.90 KCAL/MOL
REMARK 927      BINDING AFFINITY PREDICTED BY RF-SCORE:    0.00 PKD
ROOT
HETATM    1 CL   UNL     1      -5.185   6.340  65.389  1.00  0.00    -0.013 Cl 
HETATM    2  C   UNL     1      -6.283   7.322  66.275  1.00  0.00    -0.040 A  
HETATM    3  C   UNL     1      -7.183   6.728  67.156  1.00  0.00    -0.085 A  
HETATM    4  C   UNL     1      -8.126   7.526  67.818  1.00  0.00    -0.119 A  
HETATM    5 CL   UNL     1      -9.212   6.716  68.898  1.00  0.00    -0.131 Cl 
HETATM    6  C   UNL     1      -8.198   8.919  67.605  1.00  0.00    -0.110 A  
HETATM    7  C   UNL     1      -7.238   9.495  66.756  1.00  0.00    -0.086 A  
HETATM    8  C   UNL     1      -6.290   8.701  66.095  1.00  0.00    -0.056 A  
ENDROOT
BRANCH   6   9
HETATM    9  C   UNL     1      -9.350   9.733  68.178  1.00  0.00    -0.128 C  
BRANCH   9  10
HETATM   10  O   UNL     1     -10.412  10.037  67.244  1.00  0.00    -0.225 OA 
BRANCH  10  11
HETATM   11  N   UNL     1     -11.588  10.378  67.954  1.00  0.00    -0.693 NA 
HETATM   12  H   UNL     1     -12.381   9.745  68.061  1.00  0.00     0.000 HD 
BRANCH  11  13
HETATM   13  C   UNL     1     -11.560  11.583  68.459  1.00  0.00    -0.313 C  
BRANCH  13  14
HETATM   14  C   UNL     1     -11.427  12.782  67.546  1.00  0.00    -0.390 A  
HETATM   15 CL   UNL     1      -8.812  13.220  68.338  1.00  0.00    -0.160 Cl 
HETATM   16  C   UNL     1     -12.517  13.135  66.726  1.00  0.00     0.008 A  
HETATM   17  C   UNL     1     -10.246  13.540  67.426  1.00  0.00    -0.237 A  
HETATM   18  C   UNL     1     -12.423  14.167  65.784  1.00  0.00    -0.490 A  
HETATM   19 CL   UNL     1     -11.107  16.118  64.474  1.00  0.00    -0.386 Cl 
HETATM   20  C   UNL     1     -11.238  14.881  65.661  1.00  0.00    -0.347 A  
HETATM   21  C   UNL     1     -10.157  14.583  66.486  1.00  0.00    -0.280 A  
ENDBRANCH  13  14
BRANCH  13  22
HETATM   22  C   UNL     1     -11.713  11.873  69.950  1.00  0.00    -0.308 C  
BRANCH  22  23
HETATM   23  N   UNL     1     -12.005  10.698  70.761  1.00  0.00    -0.349 NA 
HETATM   24  C   UNL     1     -13.243  10.331  71.212  1.00  0.00    -0.356 A  
HETATM   25  N   UNL     1     -11.704   8.867  71.964  1.00  0.00    -0.367 NA 
HETATM   26  C   UNL     1     -11.111   9.773  71.215  1.00  0.00    -0.304 A  
HETATM   27  C   UNL     1     -13.030   9.203  71.967  1.00  0.00    -0.424 A  
ENDBRANCH  22  23
ENDBRANCH  13  22
ENDBRANCH  11  13
ENDBRANCH  10  11
ENDBRANCH   9  10
ENDBRANCH   6   9
TORSDOF 7
ENDMDL
MODEL      228
REMARK 921   NORMALIZED FREE ENERGY PREDICTED BY IDOCK:   -4.38 KCAL/MOL
REMARK 922        TOTAL FREE ENERGY PREDICTED BY IDOCK:   -7.29 KCAL/MOL
REMARK 923 INTER-LIGAND FREE ENERGY PREDICTED BY IDOCK:   -6.77 KCAL/MOL
REMARK 924 INTRA-LIGAND FREE ENERGY PREDICTED BY IDOCK:   -0.52 KCAL/MOL
REMARK 927      BINDING AFFINITY PREDICTED BY RF-SCORE:    0.00 PKD
ROOT
HETATM    1 CL   UNL     1      -8.444   6.599  71.744  1.00  0.00    -0.119 Cl 
HETATM    2  C   UNL     1      -9.554   7.720  71.062  1.00  0.00    -0.159 A  
HETATM    3  C   UNL     1      -9.662   7.830  69.677  1.00  0.00    -0.172 A  
HETATM    4  C   UNL     1     -10.512   8.799  69.128  1.00  0.00    -0.217 A  
HETATM    5 CL   UNL     1     -10.594   8.875  67.400  1.00  0.00    -0.343 Cl 
HETATM    6  C   UNL     1     -11.256   9.679  69.943  1.00  0.00    -0.244 A  
HETATM    7  C   UNL     1     -11.171   9.503  71.333  1.00  0.00    -0.452 A  
HETATM    8  C   UNL     1     -10.324   8.532  71.887  1.00  0.00    -0.378 A  
ENDROOT
BRANCH   6   9
HETATM    9  C   UNL     1     -12.017  10.848  69.329  1.00  0.00    -0.310 C  
BRANCH   9  10
HETATM   10  O   UNL     1     -11.190  11.882  68.749  1.00  0.00    -0.220 OA 
BRANCH  10  11
HETATM   11  N   UNL     1     -11.867  12.477  67.657  1.00  0.00    -0.419 NA 
HETATM   12  H   UNL     1     -12.867  12.366  67.491  1.00  0.00     0.000 HD 
BRANCH  11  13
HETATM   13  C   UNL     1     -11.085  13.181  66.883  1.00  0.00    -0.282 C  
BRANCH  13  14
HETATM   14  C   UNL     1     -10.746  14.610  67.249  1.00  0.00    -0.290 A  
HETATM   15 CL   UNL     1     -11.276  15.499  64.683  1.00  0.00    -0.420 Cl 
HETATM   16  C   UNL     1     -10.386  14.902  68.580  1.00  0.00    -0.237 A  
HETATM   17  C   UNL     1     -10.823  15.684  66.342  1.00  0.00    -0.252 A  
HETATM   18  C   UNL     1     -10.163  16.217  69.008  1.00  0.00    -0.250 A  
HETATM   19 CL   UNL     1     -10.047  18.882  68.637  1.00  0.00    -0.453 Cl 
HETATM   20  C   UNL     1     -10.277  17.264  68.103  1.00  0.00    -0.343 A  
HETATM   21  C   UNL     1     -10.589  17.003  66.772  1.00  0.00    -0.191 A  
ENDBRANCH  13  14
BRANCH  13  22
HETATM   22  C   UNL     1     -10.426  12.624  65.623  1.00  0.00    -0.275 C  
BRANCH  22  23
HETATM   23  N   UNL     1      -9.212  11.859  65.872  1.00  0.00    -0.188 NA 
HETATM   24  C   UNL     1      -8.665  10.936  65.023  1.00  0.00    -0.101 A  
HETATM   25  N   UNL     1      -7.426  11.056  66.901  1.00  0.00    -0.126 NA 
HETATM   26  C   UNL     1      -8.417  11.919  66.980  1.00  0.00    -0.177 A  
HETATM   27  C   UNL     1      -7.569  10.440  65.689  1.00  0.00    -0.150 A  
ENDBRANCH  22  23
ENDBRANCH  13  22
ENDBRANCH  11  13
ENDBRANCH  10  11
ENDBRANCH   9  10
ENDBRANCH   6   9
TORSDOF 7
ENDMDL
MODEL      229
REMARK 921   NORMALIZED FREE ENERGY PREDICTED BY IDOCK:   -4.37 KCAL/MOL
REMARK 922        TOTAL FREE ENERGY PREDICTED BY IDOCK:   -7.28 KCAL/MOL
REMARK 923 INTER-LIGAND FREE ENERGY PREDICTED BY IDOCK:   -7.22 KCAL/MOL
REMARK 924 INTRA-LIGAND FREE ENERGY PREDICTED BY IDOCK:   -0.05 KCAL/MOL
REMARK 927      BINDING AFFINITY PREDICTED BY RF-SCORE:    0.00 PKD
ROOT
HETATM    1 CL   UNL     1      -6.784   2.984  65.808  1.00  0.00    -0.043 Cl 
HETATM    2  C   UNL     1      -7.861   4.240  66.277  1.00  0.00    -0.095 A  
HETATM    3  C   UNL     1      -7.490   5.125  67.286  1.00  0.00    -0.083 A  
HETATM    4  C   UNL     1      -8.402   6.099  67.716  1.00  0.00    -0.116 A  
HETATM    5 CL   UNL     1      -7.870   7.163  68.975  1.00  0.00    -0.112 Cl 
HETATM    6  C   UNL     1      -9.695   6.199  67.161  1.00  0.00    -0.156 A  
HETATM    7  C   UNL     1     -10.016   5.330  66.105  1.00  0.00    -0.191 A  
HETATM    8  C   UNL     1      -9.105   4.358  65.668  1.00  0.00    -0.137 A  
ENDROOT
BRANCH   6   9
HETATM    9  C   UNL     1     -10.734   7.129  67.775  1.00  0.00    -0.212 C  
BRANCH   9  10
HETATM   10  O   UNL     1     -10.426   8.539  67.682  1.00  0.00    -0.244 OA 
BRANCH  10  11
HETATM   11  N   UNL     1     -11.155   9.251  68.664  1.00  0.00    -0.458 NA 
HETATM   12  H   UNL     1     -11.771   8.800  69.341  1.00  0.00     0.000 HD 
BRANCH  11  13
HETATM   13  C   UNL     1     -10.961  10.542  68.621  1.00  0.00    -0.248 C  
BRANCH  13  14
HETATM   14  C   UNL     1     -11.672  11.448  69.604  1.00  0.00    -0.415 A  
HETATM   15 CL   UNL     1     -12.395   9.309  71.202  1.00  0.00    -0.367 Cl 
HETATM   16  C   UNL     1     -11.653  12.839  69.380  1.00  0.00    -0.361 A  
HETATM   17  C   UNL     1     -12.309  10.981  70.769  1.00  0.00    -0.398 A  
HETATM   18  C   UNL     1     -12.199  13.737  70.306  1.00  0.00    -0.429 A  
HETATM   19 CL   UNL     1     -13.425  14.360  72.622  1.00  0.00    -0.574 Cl 
HETATM   20  C   UNL     1     -12.794  13.256  71.464  1.00  0.00    -0.327 A  
HETATM   21  C   UNL     1     -12.866  11.885  71.692  1.00  0.00    -0.417 A  
ENDBRANCH  13  14
BRANCH  13  22
HETATM   22  C   UNL     1      -9.993  11.214  67.650  1.00  0.00    -0.174 C  
BRANCH  22  23
HETATM   23  N   UNL     1     -10.537  11.430  66.316  1.00  0.00    -0.256 NA 
HETATM   24  C   UNL     1     -10.099  10.822  65.171  1.00  0.00    -0.299 A  
HETATM   25  N   UNL     1     -11.761  12.259  64.671  1.00  0.00    -0.354 NA 
HETATM   26  C   UNL     1     -11.557  12.267  65.972  1.00  0.00    -0.393 A  
HETATM   27  C   UNL     1     -10.862  11.363  64.163  1.00  0.00    -0.365 A  
ENDBRANCH  22  23
ENDBRANCH  13  22
ENDBRANCH  11  13
ENDBRANCH  10  11
ENDBRANCH   9  10
ENDBRANCH   6   9
TORSDOF 7
ENDMDL
MODEL      230
REMARK 921   NORMALIZED FREE ENERGY PREDICTED BY IDOCK:   -4.36 KCAL/MOL
REMARK 922        TOTAL FREE ENERGY PREDICTED BY IDOCK:   -7.26 KCAL/MOL
REMARK 923 INTER-LIGAND FREE ENERGY PREDICTED BY IDOCK:   -6.63 KCAL/MOL
REMARK 924 INTRA-LIGAND FREE ENERGY PREDICTED BY IDOCK:   -0.63 KCAL/MOL
REMARK 927      BINDING AFFINITY PREDICTED BY RF-SCORE:    0.00 PKD
ROOT
HETATM    1 CL   UNL     1     -10.180  19.492  67.465  1.00  0.00    -0.506 Cl 
HETATM    2  C   UNL     1      -9.953  17.792  67.341  1.00  0.00    -0.323 A  
HETATM    3  C   UNL     1     -10.557  17.089  66.301  1.00  0.00    -0.185 A  
HETATM    4  C   UNL     1     -10.431  15.694  66.250  1.00  0.00    -0.306 A  
HETATM    5 CL   UNL     1     -11.209  14.890  64.928  1.00  0.00    -0.401 Cl 
HETATM    6  C   UNL     1      -9.716  14.978  67.233  1.00  0.00    -0.220 A  
HETATM    7  C   UNL     1      -9.070  15.721  68.234  1.00  0.00    -0.187 A  
HETATM    8  C   UNL     1      -9.190  17.117  68.288  1.00  0.00    -0.262 A  
ENDROOT
BRANCH   6   9
HETATM    9  C   UNL     1      -9.757  13.456  67.268  1.00  0.00    -0.232 C  
BRANCH   9  10
HETATM   10  O   UNL     1      -9.040  12.847  68.366  1.00  0.00    -0.190 OA 
BRANCH  10  11
HETATM   11  N   UNL     1      -9.882  11.926  69.033  1.00  0.00    -0.415 NA 
HETATM   12  H   UNL     1     -10.727  12.201  69.535  1.00  0.00     0.000 HD 
BRANCH  11  13
HETATM   13  C   UNL     1      -9.473  10.688  68.944  1.00  0.00    -0.192 C  
BRANCH  13  14
HETATM   14  C   UNL     1      -9.471   9.802  70.170  1.00  0.00    -0.277 A  
HETATM   15 CL   UNL     1      -6.710   9.633  70.166  1.00  0.00    -0.075 Cl 
HETATM   16  C   UNL     1     -10.701   9.487  70.782  1.00  0.00    -0.391 A  
HETATM   17  C   UNL     1      -8.297   9.314  70.775  1.00  0.00    -0.186 A  
HETATM   18  C   UNL     1     -10.761   8.761  71.978  1.00  0.00    -0.417 A  
HETATM   19 CL   UNL     1      -9.657   7.464  74.065  1.00  0.00    -0.298 Cl 
HETATM   20  C   UNL     1      -9.587   8.317  72.574  1.00  0.00    -0.295 A  
HETATM   21  C   UNL     1      -8.360   8.576  71.971  1.00  0.00    -0.209 A  
ENDBRANCH  13  14
BRANCH  13  22
HETATM   22  C   UNL     1      -9.036  10.040  67.632  1.00  0.00    -0.131 C  
BRANCH  22  23
HETATM   23  N   UNL     1      -9.512   8.676  67.451  1.00  0.00    -0.146 NA 
HETATM   24  C   UNL     1      -8.751   7.545  67.570  1.00  0.00    -0.125 A  
HETATM   25  N   UNL     1     -10.854   6.979  66.993  1.00  0.00    -0.370 NA 
HETATM   26  C   UNL     1     -10.779   8.286  67.129  1.00  0.00    -0.170 A  
HETATM   27  C   UNL     1      -9.600   6.508  67.266  1.00  0.00    -0.126 A  
ENDBRANCH  22  23
ENDBRANCH  13  22
ENDBRANCH  11  13
ENDBRANCH  10  11
ENDBRANCH   9  10
ENDBRANCH   6   9
TORSDOF 7
ENDMDL
MODEL      231
REMARK 921   NORMALIZED FREE ENERGY PREDICTED BY IDOCK:   -4.34 KCAL/MOL
REMARK 922        TOTAL FREE ENERGY PREDICTED BY IDOCK:   -7.24 KCAL/MOL
REMARK 923 INTER-LIGAND FREE ENERGY PREDICTED BY IDOCK:   -5.56 KCAL/MOL
REMARK 924 INTRA-LIGAND FREE ENERGY PREDICTED BY IDOCK:   -1.68 KCAL/MOL
REMARK 927      BINDING AFFINITY PREDICTED BY RF-SCORE:    0.00 PKD
ROOT
HETATM    1 CL   UNL     1      -5.479   9.816  71.905  1.00  0.00    -0.055 Cl 
HETATM    2  C   UNL     1      -5.996   9.969  70.272  1.00  0.00    -0.070 A  
HETATM    3  C   UNL     1      -6.163  11.236  69.718  1.00  0.00    -0.124 A  
HETATM    4  C   UNL     1      -6.658  11.355  68.412  1.00  0.00    -0.063 A  
HETATM    5 CL   UNL     1      -6.839  12.962  67.790  1.00  0.00    -0.121 Cl 
HETATM    6  C   UNL     1      -7.004  10.222  67.645  1.00  0.00    -0.084 A  
HETATM    7  C   UNL     1      -6.768   8.959  68.211  1.00  0.00    -0.065 A  
HETATM    8  C   UNL     1      -6.269   8.835  69.516  1.00  0.00    -0.040 A  
ENDROOT
BRANCH   6   9
HETATM    9  C   UNL     1      -7.722  10.379  66.310  1.00  0.00    -0.129 C  
BRANCH   9  10
HETATM   10  O   UNL     1      -8.890  11.230  66.338  1.00  0.00    -0.172 OA 
BRANCH  10  11
HETATM   11  N   UNL     1     -10.060  10.435  66.285  1.00  0.00    -0.224 NA 
HETATM   12  H   UNL     1     -10.329   9.888  65.467  1.00  0.00     0.000 HD 
BRANCH  11  13
HETATM   13  C   UNL     1     -10.763  10.470  67.386  1.00  0.00    -0.281 C  
BRANCH  13  14
HETATM   14  C   UNL     1     -10.437   9.524  68.521  1.00  0.00    -0.247 A  
HETATM   15 CL   UNL     1     -10.989   7.305  66.963  1.00  0.00    -0.374 Cl 
HETATM   16  C   UNL     1      -9.996  10.061  69.746  1.00  0.00    -0.276 A  
HETATM   17  C   UNL     1     -10.496   8.121  68.405  1.00  0.00    -0.161 A  
HETATM   18  C   UNL     1      -9.577   9.239  70.800  1.00  0.00    -0.341 A  
HETATM   19 CL   UNL     1      -9.059   6.848  71.929  1.00  0.00    -0.141 Cl 
HETATM   20  C   UNL     1      -9.614   7.858  70.652  1.00  0.00    -0.166 A  
HETATM   21  C   UNL     1     -10.085   7.297  69.469  1.00  0.00    -0.182 A  
ENDBRANCH  13  14
BRANCH  13  22
HETATM   22  C   UNL     1     -11.889  11.470  67.632  1.00  0.00    -0.118 C  
BRANCH  22  23
HETATM   23  N   UNL     1     -11.942  12.561  66.668  1.00  0.00    -0.574 NA 
HETATM   24  C   UNL     1     -11.683  13.877  66.942  1.00  0.00    -0.399 A  
HETATM   25  N   UNL     1     -12.261  13.658  64.775  1.00  0.00    -0.415 NA 
HETATM   26  C   UNL     1     -12.259  12.471  65.345  1.00  0.00    -0.412 A  
HETATM   27  C   UNL     1     -11.903  14.539  65.757  1.00  0.00    -0.327 A  
ENDBRANCH  22  23
ENDBRANCH  13  22
ENDBRANCH  11  13
ENDBRANCH  10  11
ENDBRANCH   9  10
ENDBRANCH   6   9
TORSDOF 7
ENDMDL
MODEL      232
REMARK 921   NORMALIZED FREE ENERGY PREDICTED BY IDOCK:   -4.33 KCAL/MOL
REMARK 922        TOTAL FREE ENERGY PREDICTED BY IDOCK:   -7.22 KCAL/MOL
REMARK 923 INTER-LIGAND FREE ENERGY PREDICTED BY IDOCK:   -7.20 KCAL/MOL
REMARK 924 INTRA-LIGAND FREE ENERGY PREDICTED BY IDOCK:   -0.02 KCAL/MOL
REMARK 927      BINDING AFFINITY PREDICTED BY RF-SCORE:    0.00 PKD
ROOT
HETATM    1 CL   UNL     1      -8.435   7.403  64.921  1.00  0.00    -0.020 Cl 
HETATM    2  C   UNL     1      -8.608   8.941  65.671  1.00  0.00    -0.166 A  
HETATM    3  C   UNL     1      -7.481   9.726  65.903  1.00  0.00    -0.103 A  
HETATM    4  C   UNL     1      -7.619  10.943  66.584  1.00  0.00    -0.139 A  
HETATM    5 CL   UNL     1      -6.173  11.864  66.835  1.00  0.00    -0.147 Cl 
HETATM    6  C   UNL     1      -8.872  11.391  67.053  1.00  0.00    -0.168 A  
HETATM    7  C   UNL     1      -9.996  10.606  66.751  1.00  0.00    -0.254 A  
HETATM    8  C   UNL     1      -9.863   9.389  66.067  1.00  0.00    -0.366 A  
ENDROOT
BRANCH   6   9
HETATM    9  C   UNL     1      -8.969  12.613  67.958  1.00  0.00    -0.200 C  
BRANCH   9  10
HETATM   10  O   UNL     1     -10.281  13.218  68.033  1.00  0.00    -0.227 OA 
BRANCH  10  11
HETATM   11  N   UNL     1     -10.465  13.798  69.311  1.00  0.00    -0.436 NA 
HETATM   12  H   UNL     1     -10.544  13.250  70.168  1.00  0.00     0.000 HD 
BRANCH  11  13
HETATM   13  C   UNL     1     -10.525  15.103  69.286  1.00  0.00    -0.260 C  
BRANCH  13  14
HETATM   14  C   UNL     1      -9.275  15.912  69.017  1.00  0.00    -0.242 A  
HETATM   15 CL   UNL     1     -10.710  17.876  67.699  1.00  0.00    -0.392 Cl 
HETATM   16  C   UNL     1      -8.043  15.441  69.512  1.00  0.00    -0.207 A  
HETATM   17  C   UNL     1      -9.280  17.148  68.342  1.00  0.00    -0.266 A  
HETATM   18  C   UNL     1      -6.867  16.194  69.390  1.00  0.00    -0.214 A  
HETATM   19 CL   UNL     1      -5.469  18.370  68.637  1.00  0.00    -0.179 Cl 
HETATM   20  C   UNL     1      -6.902  17.425  68.749  1.00  0.00    -0.228 A  
HETATM   21  C   UNL     1      -8.096  17.897  68.211  1.00  0.00    -0.294 A  
ENDBRANCH  13  14
BRANCH  13  22
HETATM   22  C   UNL     1     -11.823  15.888  69.460  1.00  0.00    -0.301 C  
BRANCH  22  23
HETATM   23  N   UNL     1     -12.416  15.777  70.785  1.00  0.00    -0.418 NA 
HETATM   24  C   UNL     1     -13.659  15.273  71.061  1.00  0.00    -0.419 A  
HETATM   25  N   UNL     1     -12.685  15.961  72.972  1.00  0.00    -0.461 NA 
HETATM   26  C   UNL     1     -11.854  16.154  71.970  1.00  0.00    -0.530 A  
HETATM   27  C   UNL     1     -13.809  15.413  72.420  1.00  0.00    -0.562 A  
ENDBRANCH  22  23
ENDBRANCH  13  22
ENDBRANCH  11  13
ENDBRANCH  10  11
ENDBRANCH   9  10
ENDBRANCH   6   9
TORSDOF 7
ENDMDL
MODEL      233
REMARK 921   NORMALIZED FREE ENERGY PREDICTED BY IDOCK:   -4.33 KCAL/MOL
REMARK 922        TOTAL FREE ENERGY PREDICTED BY IDOCK:   -7.22 KCAL/MOL
REMARK 923 INTER-LIGAND FREE ENERGY PREDICTED BY IDOCK:   -6.20 KCAL/MOL
REMARK 924 INTRA-LIGAND FREE ENERGY PREDICTED BY IDOCK:   -1.02 KCAL/MOL
REMARK 927      BINDING AFFINITY PREDICTED BY RF-SCORE:    0.00 PKD
ROOT
HETATM    1 CL   UNL     1     -11.673   4.447  73.344  1.00  0.00    -0.254 Cl 
HETATM    2  C   UNL     1     -10.945   5.774  72.529  1.00  0.00    -0.263 A  
HETATM    3  C   UNL     1      -9.831   6.398  73.086  1.00  0.00    -0.178 A  
HETATM    4  C   UNL     1      -9.288   7.526  72.456  1.00  0.00    -0.153 A  
HETATM    5 CL   UNL     1      -7.904   8.247  73.206  1.00  0.00    -0.213 Cl 
HETATM    6  C   UNL     1      -9.850   8.057  71.275  1.00  0.00    -0.200 A  
HETATM    7  C   UNL     1     -10.935   7.370  70.708  1.00  0.00    -0.272 A  
HETATM    8  C   UNL     1     -11.479   6.238  71.332  1.00  0.00    -0.352 A  
ENDROOT
BRANCH   6   9
HETATM    9  C   UNL     1      -9.369   9.392  70.719  1.00  0.00    -0.226 C  
BRANCH   9  10
HETATM   10  O   UNL     1     -10.341  10.112  69.927  1.00  0.00    -0.250 OA 
BRANCH  10  11
HETATM   11  N   UNL     1      -9.687  11.107  69.160  1.00  0.00    -0.407 NA 
HETATM   12  H   UNL     1      -9.044  11.790  69.561  1.00  0.00     0.000 HD 
BRANCH  11  13
HETATM   13  C   UNL     1      -9.988  11.065  67.890  1.00  0.00    -0.174 C  
BRANCH  13  14
HETATM   14  C   UNL     1      -9.109  10.295  66.929  1.00  0.00    -0.159 A  
HETATM   15 CL   UNL     1     -10.773   8.086  67.022  1.00  0.00    -0.356 Cl 
HETATM   16  C   UNL     1      -7.968  10.927  66.398  1.00  0.00    -0.157 A  
HETATM   17  C   UNL     1      -9.398   8.989  66.488  1.00  0.00    -0.191 A  
HETATM   18  C   UNL     1      -7.173  10.309  65.424  1.00  0.00    -0.143 A  
HETATM   19 CL   UNL     1      -6.545   8.291  63.754  1.00  0.00    -0.075 Cl 
HETATM   20  C   UNL     1      -7.495   9.033  64.981  1.00  0.00    -0.097 A  
HETATM   21  C   UNL     1      -8.592   8.366  65.518  1.00  0.00    -0.201 A  
ENDBRANCH  13  14
BRANCH  13  22
HETATM   22  C   UNL     1     -11.238  11.715  67.301  1.00  0.00    -0.304 C  
BRANCH  22  23
HETATM   23  N   UNL     1     -11.281  13.164  67.441  1.00  0.00    -0.275 NA 
HETATM   24  C   UNL     1     -11.802  13.845  68.508  1.00  0.00    -0.366 A  
HETATM   25  N   UNL     1     -11.066  15.313  66.966  1.00  0.00    -0.325 NA 
HETATM   26  C   UNL     1     -10.823  14.089  66.548  1.00  0.00    -0.300 A  
HETATM   27  C   UNL     1     -11.672  15.175  68.183  1.00  0.00    -0.302 A  
ENDBRANCH  22  23
ENDBRANCH  13  22
ENDBRANCH  11  13
ENDBRANCH  10  11
ENDBRANCH   9  10
ENDBRANCH   6   9
TORSDOF 7
ENDMDL
MODEL      234
REMARK 921   NORMALIZED FREE ENERGY PREDICTED BY IDOCK:   -4.33 KCAL/MOL
REMARK 922        TOTAL FREE ENERGY PREDICTED BY IDOCK:   -7.21 KCAL/MOL
REMARK 923 INTER-LIGAND FREE ENERGY PREDICTED BY IDOCK:   -5.93 KCAL/MOL
REMARK 924 INTRA-LIGAND FREE ENERGY PREDICTED BY IDOCK:   -1.29 KCAL/MOL
REMARK 927      BINDING AFFINITY PREDICTED BY RF-SCORE:    0.00 PKD
ROOT
HETATM    1 CL   UNL     1      -7.092   3.656  64.524  1.00  0.00    -0.056 Cl 
HETATM    2  C   UNL     1      -8.284   4.599  65.328  1.00  0.00    -0.117 A  
HETATM    3  C   UNL     1      -8.196   5.989  65.305  1.00  0.00    -0.138 A  
HETATM    4  C   UNL     1      -9.126   6.750  66.026  1.00  0.00    -0.072 A  
HETATM    5 CL   UNL     1      -8.952   8.471  65.949  1.00  0.00    -0.222 Cl 
HETATM    6  C   UNL     1     -10.147   6.143  66.788  1.00  0.00    -0.234 A  
HETATM    7  C   UNL     1     -10.245   4.743  66.742  1.00  0.00    -0.253 A  
HETATM    8  C   UNL     1      -9.319   3.978  66.019  1.00  0.00    -0.168 A  
ENDROOT
BRANCH   6   9
HETATM    9  C   UNL     1     -11.021   6.976  67.717  1.00  0.00    -0.164 C  
BRANCH   9  10
HETATM   10  O   UNL     1     -10.656   6.922  69.115  1.00  0.00    -0.204 OA 
BRANCH  10  11
HETATM   11  N   UNL     1      -9.572   7.799  69.360  1.00  0.00    -0.156 NA 
HETATM   12  H   UNL     1      -8.601   7.558  69.159  1.00  0.00     0.000 HD 
BRANCH  11  13
HETATM   13  C   UNL     1      -9.936   8.946  69.867  1.00  0.00    -0.188 C  
BRANCH  13  14
HETATM   14  C   UNL     1     -10.018  10.172  68.982  1.00  0.00    -0.216 A  
HETATM   15 CL   UNL     1      -7.338  10.746  69.359  1.00  0.00    -0.127 Cl 
HETATM   16  C   UNL     1     -11.245  10.477  68.360  1.00  0.00    -0.339 A  
HETATM   17  C   UNL     1      -8.916  11.001  68.699  1.00  0.00    -0.167 A  
HETATM   18  C   UNL     1     -11.361  11.534  67.447  1.00  0.00    -0.367 A  
HETATM   19 CL   UNL     1     -10.383  13.588  66.006  1.00  0.00    -0.296 Cl 
HETATM   20  C   UNL     1     -10.253  12.319  67.158  1.00  0.00    -0.211 A  
HETATM   21  C   UNL     1      -9.038  12.068  67.790  1.00  0.00    -0.187 A  
ENDBRANCH  13  14
BRANCH  13  22
HETATM   22  C   UNL     1     -10.350   9.127  71.325  1.00  0.00    -0.334 C  
BRANCH  22  23
HETATM   23  N   UNL     1     -11.786   9.048  71.553  1.00  0.00    -0.320 NA 
HETATM   24  C   UNL     1     -12.527   7.897  71.561  1.00  0.00    -0.318 A  
HETATM   25  N   UNL     1     -13.880   9.667  71.900  1.00  0.00    -0.267 NA 
HETATM   26  C   UNL     1     -12.638  10.087  71.789  1.00  0.00    -0.409 A  
HETATM   27  C   UNL     1     -13.824   8.307  71.763  1.00  0.00    -0.396 A  
ENDBRANCH  22  23
ENDBRANCH  13  22
ENDBRANCH  11  13
ENDBRANCH  10  11
ENDBRANCH   9  10
ENDBRANCH   6   9
TORSDOF 7
ENDMDL
MODEL      235
REMARK 921   NORMALIZED FREE ENERGY PREDICTED BY IDOCK:   -4.31 KCAL/MOL
REMARK 922        TOTAL FREE ENERGY PREDICTED BY IDOCK:   -7.20 KCAL/MOL
REMARK 923 INTER-LIGAND FREE ENERGY PREDICTED BY IDOCK:   -6.58 KCAL/MOL
REMARK 924 INTRA-LIGAND FREE ENERGY PREDICTED BY IDOCK:   -0.62 KCAL/MOL
REMARK 927      BINDING AFFINITY PREDICTED BY RF-SCORE:    0.00 PKD
ROOT
HETATM    1 CL   UNL     1     -12.352  13.406  65.798  1.00  0.00    -0.503 Cl 
HETATM    2  C   UNL     1     -11.449  12.157  66.561  1.00  0.00    -0.369 A  
HETATM    3  C   UNL     1     -10.649  11.316  65.791  1.00  0.00    -0.306 A  
HETATM    4  C   UNL     1      -9.976  10.253  66.408  1.00  0.00    -0.229 A  
HETATM    5 CL   UNL     1      -9.001   9.250  65.387  1.00  0.00    -0.234 Cl 
HETATM    6  C   UNL     1     -10.098  10.002  67.792  1.00  0.00    -0.222 A  
HETATM    7  C   UNL     1     -10.865  10.903  68.548  1.00  0.00    -0.262 A  
HETATM    8  C   UNL     1     -11.536  11.971  67.936  1.00  0.00    -0.405 A  
ENDROOT
BRANCH   6   9
HETATM    9  C   UNL     1      -9.521   8.732  68.404  1.00  0.00    -0.141 C  
BRANCH   9  10
HETATM   10  O   UNL     1     -10.276   7.527  68.142  1.00  0.00    -0.177 OA 
BRANCH  10  11
HETATM   11  N   UNL     1     -11.398   7.471  69.003  1.00  0.00    -0.301 NA 
HETATM   12  H   UNL     1     -12.229   8.050  68.878  1.00  0.00     0.000 HD 
BRANCH  11  13
HETATM   13  C   UNL     1     -11.267   6.606  69.973  1.00  0.00    -0.369 C  
BRANCH  13  14
HETATM   14  C   UNL     1     -10.032   5.734  70.047  1.00  0.00    -0.251 A  
HETATM   15 CL   UNL     1      -8.942   7.276  72.069  1.00  0.00    -0.139 Cl 
HETATM   16  C   UNL     1      -9.947   4.606  69.207  1.00  0.00    -0.231 A  
HETATM   17  C   UNL     1      -8.977   5.955  70.953  1.00  0.00    -0.146 A  
HETATM   18  C   UNL     1      -8.883   3.700  69.300  1.00  0.00    -0.157 A  
HETATM   19 CL   UNL     1      -6.585   2.787  70.369  1.00  0.00    -0.032 Cl 
HETATM   20  C   UNL     1      -7.870   3.921  70.224  1.00  0.00    -0.047 A  
HETATM   21  C   UNL     1      -7.904   5.050  71.038  1.00  0.00    -0.092 A  
ENDBRANCH  13  14
BRANCH  13  22
HETATM   22  C   UNL     1     -12.281   6.451  71.104  1.00  0.00    -0.066 C  
BRANCH  22  23
HETATM   23  N   UNL     1     -12.873   7.704  71.552  1.00  0.00    -0.343 NA 
HETATM   24  C   UNL     1     -12.190   8.863  71.798  1.00  0.00    -0.359 A  
HETATM   25  N   UNL     1     -14.377   9.169  72.246  1.00  0.00    -0.391 NA 
HETATM   26  C   UNL     1     -14.192   7.942  71.808  1.00  0.00    -0.451 A  
HETATM   27  C   UNL     1     -13.140   9.752  72.242  1.00  0.00    -0.356 A  
ENDBRANCH  22  23
ENDBRANCH  13  22
ENDBRANCH  11  13
ENDBRANCH  10  11
ENDBRANCH   9  10
ENDBRANCH   6   9
TORSDOF 7
ENDMDL
MODEL      236
REMARK 921   NORMALIZED FREE ENERGY PREDICTED BY IDOCK:   -4.31 KCAL/MOL
REMARK 922        TOTAL FREE ENERGY PREDICTED BY IDOCK:   -7.20 KCAL/MOL
REMARK 923 INTER-LIGAND FREE ENERGY PREDICTED BY IDOCK:   -6.12 KCAL/MOL
REMARK 924 INTRA-LIGAND FREE ENERGY PREDICTED BY IDOCK:   -1.08 KCAL/MOL
REMARK 927      BINDING AFFINITY PREDICTED BY RF-SCORE:    0.00 PKD
ROOT
HETATM    1 CL   UNL     1      -8.201   8.057  74.386  1.00  0.00    -0.298 Cl 
HETATM    2  C   UNL     1      -8.895   7.992  72.814  1.00  0.00    -0.214 A  
HETATM    3  C   UNL     1     -10.111   8.627  72.570  1.00  0.00    -0.242 A  
HETATM    4  C   UNL     1     -10.709   8.506  71.308  1.00  0.00    -0.240 A  
HETATM    5 CL   UNL     1     -12.218   9.324  71.080  1.00  0.00    -0.338 Cl 
HETATM    6  C   UNL     1     -10.117   7.743  70.278  1.00  0.00    -0.195 A  
HETATM    7  C   UNL     1      -8.864   7.165  70.538  1.00  0.00    -0.154 A  
HETATM    8  C   UNL     1      -8.260   7.287  71.798  1.00  0.00    -0.105 A  
ENDROOT
BRANCH   6   9
HETATM    9  C   UNL     1     -10.876   7.463  68.987  1.00  0.00    -0.086 C  
BRANCH   9  10
HETATM   10  O   UNL     1     -10.238   7.947  67.784  1.00  0.00    -0.190 OA 
BRANCH  10  11
HETATM   11  N   UNL     1     -10.823   9.177  67.396  1.00  0.00    -0.424 NA 
HETATM   12  H   UNL     1     -11.796   9.418  67.584  1.00  0.00     0.000 HD 
BRANCH  11  13
HETATM   13  C   UNL     1      -9.995   9.974  66.774  1.00  0.00    -0.210 C  
BRANCH  13  14
HETATM   14  C   UNL     1     -10.497  11.270  66.177  1.00  0.00    -0.305 A  
HETATM   15 CL   UNL     1      -9.883  10.440  63.610  1.00  0.00    -0.346 Cl 
HETATM   16  C   UNL     1     -11.048  12.243  67.033  1.00  0.00    -0.339 A  
HETATM   17  C   UNL     1     -10.497  11.540  64.795  1.00  0.00    -0.299 A  
HETATM   18  C   UNL     1     -11.627  13.417  66.534  1.00  0.00    -0.394 A  
HETATM   19 CL   UNL     1     -12.393  15.068  64.548  1.00  0.00    -0.365 Cl 
HETATM   20  C   UNL     1     -11.644  13.648  65.165  1.00  0.00    -0.319 A  
HETATM   21  C   UNL     1     -11.069  12.725  64.296  1.00  0.00    -0.410 A  
ENDBRANCH  13  14
BRANCH  13  22
HETATM   22  C   UNL     1      -8.497   9.702  66.656  1.00  0.00    -0.123 C  
BRANCH  22  23
HETATM   23  N   UNL     1      -7.666  10.555  67.495  1.00  0.00    -0.097 NA 
HETATM   24  C   UNL     1      -7.629  10.530  68.863  1.00  0.00    -0.108 A  
HETATM   25  N   UNL     1      -6.245  12.136  68.100  1.00  0.00    -0.052 NA 
HETATM   26  C   UNL     1      -6.796  11.519  67.077  1.00  0.00    -0.147 A  
HETATM   27  C   UNL     1      -6.753  11.530  69.215  1.00  0.00    -0.118 A  
ENDBRANCH  22  23
ENDBRANCH  13  22
ENDBRANCH  11  13
ENDBRANCH  10  11
ENDBRANCH   9  10
ENDBRANCH   6   9
TORSDOF 7
ENDMDL
MODEL      237
REMARK 921   NORMALIZED FREE ENERGY PREDICTED BY IDOCK:   -4.31 KCAL/MOL
REMARK 922        TOTAL FREE ENERGY PREDICTED BY IDOCK:   -7.20 KCAL/MOL
REMARK 923 INTER-LIGAND FREE ENERGY PREDICTED BY IDOCK:   -6.28 KCAL/MOL
REMARK 924 INTRA-LIGAND FREE ENERGY PREDICTED BY IDOCK:   -0.91 KCAL/MOL
REMARK 927      BINDING AFFINITY PREDICTED BY RF-SCORE:    0.00 PKD
ROOT
HETATM    1 CL   UNL     1     -10.826  15.708  67.783  1.00  0.00    -0.301 Cl 
HETATM    2  C   UNL     1     -11.343  14.352  68.705  1.00  0.00    -0.273 A  
HETATM    3  C   UNL     1     -12.073  14.551  69.874  1.00  0.00    -0.389 A  
HETATM    4  C   UNL     1     -12.426  13.447  70.662  1.00  0.00    -0.311 A  
HETATM    5 CL   UNL     1     -13.333  13.773  72.101  1.00  0.00    -0.519 Cl 
HETATM    6  C   UNL     1     -12.049  12.134  70.307  1.00  0.00    -0.385 A  
HETATM    7  C   UNL     1     -11.365  11.962  69.093  1.00  0.00    -0.338 A  
HETATM    8  C   UNL     1     -11.014  13.063  68.300  1.00  0.00    -0.285 A  
ENDROOT
BRANCH   6   9
HETATM    9  C   UNL     1     -12.269  10.976  71.272  1.00  0.00    -0.259 C  
BRANCH   9  10
HETATM   10  O   UNL     1     -11.956   9.668  70.743  1.00  0.00    -0.282 OA 
BRANCH  10  11
HETATM   11  N   UNL     1     -11.474   8.836  71.783  1.00  0.00    -0.318 NA 
HETATM   12  H   UNL     1     -11.902   8.791  72.707  1.00  0.00     0.000 HD 
BRANCH  11  13
HETATM   13  C   UNL     1     -10.428   8.131  71.442  1.00  0.00    -0.212 C  
BRANCH  13  14
HETATM   14  C   UNL     1     -10.114   6.842  72.171  1.00  0.00    -0.198 A  
HETATM   15 CL   UNL     1      -7.990   8.002  73.512  1.00  0.00    -0.223 Cl 
HETATM   16  C   UNL     1     -10.938   5.721  71.950  1.00  0.00    -0.318 A  
HETATM   17  C   UNL     1      -9.071   6.714  73.107  1.00  0.00    -0.127 A  
HETATM   18  C   UNL     1     -10.767   4.532  72.671  1.00  0.00    -0.229 A  
HETATM   19 CL   UNL     1      -9.568   2.995  74.530  1.00  0.00    -0.122 Cl 
HETATM   20  C   UNL     1      -9.751   4.438  73.613  1.00  0.00    -0.124 A  
HETATM   21  C   UNL     1      -8.894   5.515  73.823  1.00  0.00    -0.124 A  
ENDBRANCH  13  14
BRANCH  13  22
HETATM   22  C   UNL     1      -9.505   8.504  70.284  1.00  0.00    -0.166 C  
BRANCH  22  23
HETATM   23  N   UNL     1      -9.656   7.664  69.104  1.00  0.00    -0.154 NA 
HETATM   24  C   UNL     1      -8.864   6.596  68.781  1.00  0.00    -0.126 A  
HETATM   25  N   UNL     1     -10.414   6.896  67.174  1.00  0.00    -0.266 NA 
HETATM   26  C   UNL     1     -10.594   7.791  68.122  1.00  0.00    -0.124 A  
HETATM   27  C   UNL     1      -9.342   6.147  67.573  1.00  0.00    -0.113 A  
ENDBRANCH  22  23
ENDBRANCH  13  22
ENDBRANCH  11  13
ENDBRANCH  10  11
ENDBRANCH   9  10
ENDBRANCH   6   9
TORSDOF 7
ENDMDL
MODEL      238
REMARK 921   NORMALIZED FREE ENERGY PREDICTED BY IDOCK:   -4.31 KCAL/MOL
REMARK 922        TOTAL FREE ENERGY PREDICTED BY IDOCK:   -7.19 KCAL/MOL
REMARK 923 INTER-LIGAND FREE ENERGY PREDICTED BY IDOCK:   -5.89 KCAL/MOL
REMARK 924 INTRA-LIGAND FREE ENERGY PREDICTED BY IDOCK:   -1.29 KCAL/MOL
REMARK 927      BINDING AFFINITY PREDICTED BY RF-SCORE:    0.00 PKD
ROOT
HETATM    1 CL   UNL     1     -11.777   9.759  69.511  1.00  0.00     0.017 Cl 
HETATM    2  C   UNL     1     -11.881  11.469  69.362  1.00  0.00    -0.350 A  
HETATM    3  C   UNL     1     -11.842  12.055  68.099  1.00  0.00    -0.352 A  
HETATM    4  C   UNL     1     -11.850  13.452  67.989  1.00  0.00    -0.357 A  
HETATM    5 CL   UNL     1     -11.800  14.107  66.386  1.00  0.00    -0.419 Cl 
HETATM    6  C   UNL     1     -11.882  14.285  69.127  1.00  0.00    -0.368 A  
HETATM    7  C   UNL     1     -11.980  13.663  70.382  1.00  0.00    -0.372 A  
HETATM    8  C   UNL     1     -11.977  12.265  70.497  1.00  0.00    -0.296 A  
ENDROOT
BRANCH   6   9
HETATM    9  C   UNL     1     -11.690  15.790  68.993  1.00  0.00    -0.396 C  
BRANCH   9  10
HETATM   10  O   UNL     1     -10.520  16.195  68.247  1.00  0.00    -0.255 OA 
BRANCH  10  11
HETATM   11  N   UNL     1      -9.421  16.343  69.128  1.00  0.00    -0.257 NA 
HETATM   12  H   UNL     1      -9.514  16.670  70.089  1.00  0.00     0.000 HD 
BRANCH  11  13
HETATM   13  C   UNL     1      -8.276  16.020  68.589  1.00  0.00    -0.193 C  
BRANCH  13  14
HETATM   14  C   UNL     1      -7.850  14.569  68.531  1.00  0.00    -0.136 A  
HETATM   15 CL   UNL     1      -6.269  14.840  70.785  1.00  0.00    -0.087 Cl 
HETATM   16  C   UNL     1      -8.384  13.745  67.520  1.00  0.00    -0.197 A  
HETATM   17  C   UNL     1      -6.985  13.975  69.470  1.00  0.00    -0.007 A  
HETATM   18  C   UNL     1      -8.114  12.371  67.475  1.00  0.00    -0.173 A  
HETATM   19 CL   UNL     1      -6.987  10.107  68.402  1.00  0.00    -0.066 Cl 
HETATM   20  C   UNL     1      -7.284  11.801  68.431  1.00  0.00    -0.089 A  
HETATM   21  C   UNL     1      -6.707  12.597  69.416  1.00  0.00    -0.022 A  
ENDBRANCH  13  14
BRANCH  13  22
HETATM   22  C   UNL     1      -7.335  17.034  67.943  1.00  0.00    -0.169 C  
BRANCH  22  23
HETATM   23  N   UNL     1      -6.819  18.040  68.861  1.00  0.00    -0.248 NA 
HETATM   24  C   UNL     1      -5.708  17.902  69.649  1.00  0.00    -0.233 A  
HETATM   25  N   UNL     1      -6.655  19.910  70.029  1.00  0.00    -0.327 NA 
HETATM   26  C   UNL     1      -7.342  19.277  69.102  1.00  0.00    -0.306 A  
HETATM   27  C   UNL     1      -5.637  19.067  70.376  1.00  0.00    -0.235 A  
ENDBRANCH  22  23
ENDBRANCH  13  22
ENDBRANCH  11  13
ENDBRANCH  10  11
ENDBRANCH   9  10
ENDBRANCH   6   9
TORSDOF 7
ENDMDL
MODEL      239
REMARK 921   NORMALIZED FREE ENERGY PREDICTED BY IDOCK:   -4.30 KCAL/MOL
REMARK 922        TOTAL FREE ENERGY PREDICTED BY IDOCK:   -7.18 KCAL/MOL
REMARK 923 INTER-LIGAND FREE ENERGY PREDICTED BY IDOCK:   -5.77 KCAL/MOL
REMARK 924 INTRA-LIGAND FREE ENERGY PREDICTED BY IDOCK:   -1.40 KCAL/MOL
REMARK 927      BINDING AFFINITY PREDICTED BY RF-SCORE:    0.00 PKD
ROOT
HETATM    1 CL   UNL     1     -12.034  12.600  68.559  1.00  0.00    -0.318 Cl 
HETATM    2  C   UNL     1     -11.663  11.288  69.606  1.00  0.00    -0.350 A  
HETATM    3  C   UNL     1     -12.625  10.827  70.501  1.00  0.00    -0.421 A  
HETATM    4  C   UNL     1     -12.292   9.808  71.405  1.00  0.00    -0.388 A  
HETATM    5 CL   UNL     1     -13.541   9.287  72.486  1.00  0.00    -0.512 Cl 
HETATM    6  C   UNL     1     -11.000   9.243  71.441  1.00  0.00    -0.429 A  
HETATM    7  C   UNL     1     -10.071   9.689  70.486  1.00  0.00    -0.338 A  
HETATM    8  C   UNL     1     -10.401  10.705  69.577  1.00  0.00    -0.214 A  
ENDROOT
BRANCH   6   9
HETATM    9  C   UNL     1     -10.604   8.283  72.555  1.00  0.00    -0.337 C  
BRANCH   9  10
HETATM   10  O   UNL     1      -9.326   7.630  72.376  1.00  0.00    -0.144 OA 
BRANCH  10  11
HETATM   11  N   UNL     1      -9.528   6.307  71.913  1.00  0.00    -0.153 NA 
HETATM   12  H   UNL     1     -10.234   5.680  72.300  1.00  0.00     0.000 HD 
BRANCH  11  13
HETATM   13  C   UNL     1      -8.723   5.968  70.942  1.00  0.00    -0.135 C  
BRANCH  13  14
HETATM   14  C   UNL     1      -8.884   6.592  69.573  1.00  0.00    -0.138 A  
HETATM   15 CL   UNL     1     -11.628   6.246  69.629  1.00  0.00    -0.441 Cl 
HETATM   16  C   UNL     1      -7.740   7.081  68.912  1.00  0.00    -0.110 A  
HETATM   17  C   UNL     1     -10.129   6.764  68.939  1.00  0.00    -0.164 A  
HETATM   18  C   UNL     1      -7.833   7.763  67.692  1.00  0.00    -0.123 A  
HETATM   19 CL   UNL     1      -9.196   8.827  65.626  1.00  0.00    -0.266 Cl 
HETATM   20  C   UNL     1      -9.075   7.950  67.101  1.00  0.00    -0.137 A  
HETATM   21  C   UNL     1     -10.219   7.441  67.709  1.00  0.00    -0.250 A  
ENDBRANCH  13  14
BRANCH  13  22
HETATM   22  C   UNL     1      -7.559   4.995  71.117  1.00  0.00    -0.086 C  
BRANCH  22  23
HETATM   23  N   UNL     1      -7.082   4.874  72.488  1.00  0.00    -0.075 NA 
HETATM   24  C   UNL     1      -7.437   3.889  73.369  1.00  0.00    -0.070 A  
HETATM   25  N   UNL     1      -6.038   5.335  74.382  1.00  0.00    -0.056 NA 
HETATM   26  C   UNL     1      -6.216   5.708  73.132  1.00  0.00    -0.060 A  
HETATM   27  C   UNL     1      -6.790   4.205  74.540  1.00  0.00    -0.060 A  
ENDBRANCH  22  23
ENDBRANCH  13  22
ENDBRANCH  11  13
ENDBRANCH  10  11
ENDBRANCH   9  10
ENDBRANCH   6   9
TORSDOF 7
ENDMDL
MODEL      240
REMARK 921   NORMALIZED FREE ENERGY PREDICTED BY IDOCK:   -4.29 KCAL/MOL
REMARK 922        TOTAL FREE ENERGY PREDICTED BY IDOCK:   -7.17 KCAL/MOL
REMARK 923 INTER-LIGAND FREE ENERGY PREDICTED BY IDOCK:   -5.47 KCAL/MOL
REMARK 924 INTRA-LIGAND FREE ENERGY PREDICTED BY IDOCK:   -1.70 KCAL/MOL
REMARK 927      BINDING AFFINITY PREDICTED BY RF-SCORE:    0.00 PKD
ROOT
HETATM    1 CL   UNL     1      -7.512   8.035  74.055  1.00  0.00    -0.196 Cl 
HETATM    2  C   UNL     1      -8.629   7.715  72.788  1.00  0.00    -0.131 A  
HETATM    3  C   UNL     1      -9.874   8.339  72.791  1.00  0.00    -0.333 A  
HETATM    4  C   UNL     1     -10.808   8.015  71.798  1.00  0.00    -0.242 A  
HETATM    5 CL   UNL     1     -12.334   8.832  71.867  1.00  0.00    -0.397 Cl 
HETATM    6  C   UNL     1     -10.525   7.060  70.798  1.00  0.00    -0.231 A  
HETATM    7  C   UNL     1      -9.241   6.494  70.788  1.00  0.00    -0.156 A  
HETATM    8  C   UNL     1      -8.301   6.818  71.777  1.00  0.00    -0.110 A  
ENDROOT
BRANCH   6   9
HETATM    9  C   UNL     1     -11.619   6.581  69.852  1.00  0.00    -0.368 C  
BRANCH   9  10
HETATM   10  O   UNL     1     -11.159   5.786  68.735  1.00  0.00    -0.243 OA 
BRANCH  10  11
HETATM   11  N   UNL     1     -11.389   6.485  67.525  1.00  0.00    -0.732 NA 
HETATM   12  H   UNL     1     -12.319   6.633  67.133  1.00  0.00     0.000 HD 
BRANCH  11  13
HETATM   13  C   UNL     1     -10.295   6.923  66.961  1.00  0.00    -0.278 C  
BRANCH  13  14
HETATM   14  C   UNL     1      -9.214   5.947  66.549  1.00  0.00    -0.154 A  
HETATM   15 CL   UNL     1     -10.996   4.453  65.050  1.00  0.00    -0.191 Cl 
HETATM   16  C   UNL     1      -7.895   6.171  66.989  1.00  0.00    -0.101 A  
HETATM   17  C   UNL     1      -9.442   4.849  65.698  1.00  0.00    -0.159 A  
HETATM   18  C   UNL     1      -6.831   5.368  66.558  1.00  0.00    -0.063 A  
HETATM   19 CL   UNL     1      -5.764   3.350  65.128  1.00  0.00    -0.017 Cl 
HETATM   20  C   UNL     1      -7.075   4.309  65.693  1.00  0.00    -0.063 A  
HETATM   21  C   UNL     1      -8.374   4.037  65.275  1.00  0.00    -0.105 A  
ENDBRANCH  13  14
BRANCH  13  22
HETATM   22  C   UNL     1     -10.052   8.393  66.628  1.00  0.00    -0.288 C  
BRANCH  22  23
HETATM   23  N   UNL     1      -9.900   9.253  67.793  1.00  0.00    -0.164 NA 
HETATM   24  C   UNL     1      -8.726   9.496  68.454  1.00  0.00    -0.124 A  
HETATM   25  N   UNL     1     -10.408  10.589  69.480  1.00  0.00    -0.234 NA 
HETATM   26  C   UNL     1     -10.882   9.954  68.429  1.00  0.00    -0.221 A  
HETATM   27  C   UNL     1      -9.069  10.313  69.505  1.00  0.00    -0.167 A  
ENDBRANCH  22  23
ENDBRANCH  13  22
ENDBRANCH  11  13
ENDBRANCH  10  11
ENDBRANCH   9  10
ENDBRANCH   6   9
TORSDOF 7
ENDMDL
MODEL      241
REMARK 921   NORMALIZED FREE ENERGY PREDICTED BY IDOCK:   -4.29 KCAL/MOL
REMARK 922        TOTAL FREE ENERGY PREDICTED BY IDOCK:   -7.16 KCAL/MOL
REMARK 923 INTER-LIGAND FREE ENERGY PREDICTED BY IDOCK:   -6.15 KCAL/MOL
REMARK 924 INTRA-LIGAND FREE ENERGY PREDICTED BY IDOCK:   -1.01 KCAL/MOL
REMARK 927      BINDING AFFINITY PREDICTED BY RF-SCORE:    0.00 PKD
ROOT
HETATM    1 CL   UNL     1      -7.340   4.892  72.728  1.00  0.00    -0.087 Cl 
HETATM    2  C   UNL     1      -8.442   6.166  72.385  1.00  0.00    -0.115 A  
HETATM    3  C   UNL     1      -9.577   5.909  71.619  1.00  0.00    -0.173 A  
HETATM    4  C   UNL     1     -10.431   6.967  71.278  1.00  0.00    -0.208 A  
HETATM    5 CL   UNL     1     -11.821   6.569  70.324  1.00  0.00    -0.446 Cl 
HETATM    6  C   UNL     1     -10.166   8.292  71.682  1.00  0.00    -0.286 A  
HETATM    7  C   UNL     1      -9.047   8.508  72.502  1.00  0.00    -0.284 A  
HETATM    8  C   UNL     1      -8.191   7.452  72.849  1.00  0.00    -0.136 A  
ENDROOT
BRANCH   6   9
HETATM    9  C   UNL     1     -10.994   9.449  71.138  1.00  0.00    -0.360 C  
BRANCH   9  10
HETATM   10  O   UNL     1     -10.786   9.749  69.739  1.00  0.00    -0.231 OA 
BRANCH  10  11
HETATM   11  N   UNL     1     -10.138  11.001  69.611  1.00  0.00    -0.429 NA 
HETATM   12  H   UNL     1     -10.054  11.669  70.377  1.00  0.00     0.000 HD 
BRANCH  11  13
HETATM   13  C   UNL     1      -9.658  11.218  68.415  1.00  0.00    -0.195 C  
BRANCH  13  14
HETATM   14  C   UNL     1     -10.365  12.174  67.479  1.00  0.00    -0.219 A  
HETATM   15 CL   UNL     1      -9.029  14.354  68.535  1.00  0.00    -0.187 Cl 
HETATM   16  C   UNL     1     -11.269  11.651  66.533  1.00  0.00    -0.356 A  
HETATM   17  C   UNL     1     -10.128  13.561  67.461  1.00  0.00    -0.234 A  
HETATM   18  C   UNL     1     -11.875  12.468  65.569  1.00  0.00    -0.491 A  
HETATM   19 CL   UNL     1     -12.310  14.824  64.339  1.00  0.00    -0.478 Cl 
HETATM   20  C   UNL     1     -11.601  13.829  65.549  1.00  0.00    -0.326 A  
HETATM   21  C   UNL     1     -10.746  14.381  66.498  1.00  0.00    -0.306 A  
ENDBRANCH  13  14
BRANCH  13  22
HETATM   22  C   UNL     1      -8.361  10.596  67.905  1.00  0.00    -0.120 C  
BRANCH  22  23
HETATM   23  N   UNL     1      -7.192  11.454  68.039  1.00  0.00    -0.080 NA 
HETATM   24  C   UNL     1      -6.468  11.979  67.003  1.00  0.00    -0.114 A  
HETATM   25  N   UNL     1      -5.541  12.602  68.960  1.00  0.00    -0.067 NA 
HETATM   26  C   UNL     1      -6.614  11.878  69.200  1.00  0.00    -0.103 A  
HETATM   27  C   UNL     1      -5.442  12.673  67.598  1.00  0.00    -0.124 A  
ENDBRANCH  22  23
ENDBRANCH  13  22
ENDBRANCH  11  13
ENDBRANCH  10  11
ENDBRANCH   9  10
ENDBRANCH   6   9
TORSDOF 7
ENDMDL
MODEL      242
REMARK 921   NORMALIZED FREE ENERGY PREDICTED BY IDOCK:   -4.28 KCAL/MOL
REMARK 922        TOTAL FREE ENERGY PREDICTED BY IDOCK:   -7.16 KCAL/MOL
REMARK 923 INTER-LIGAND FREE ENERGY PREDICTED BY IDOCK:   -5.51 KCAL/MOL
REMARK 924 INTRA-LIGAND FREE ENERGY PREDICTED BY IDOCK:   -1.65 KCAL/MOL
REMARK 927      BINDING AFFINITY PREDICTED BY RF-SCORE:    0.00 PKD
ROOT
HETATM    1 CL   UNL     1     -11.052  11.704  63.829  1.00  0.00    -0.471 Cl 
HETATM    2  C   UNL     1      -9.848  11.649  65.055  1.00  0.00    -0.248 A  
HETATM    3  C   UNL     1      -8.884  10.644  65.030  1.00  0.00    -0.212 A  
HETATM    4  C   UNL     1      -7.952  10.559  66.073  1.00  0.00    -0.149 A  
HETATM    5 CL   UNL     1      -6.784   9.284  65.973  1.00  0.00    -0.076 Cl 
HETATM    6  C   UNL     1      -7.973  11.459  67.160  1.00  0.00    -0.156 A  
HETATM    7  C   UNL     1      -8.920  12.495  67.125  1.00  0.00    -0.200 A  
HETATM    8  C   UNL     1      -9.851  12.587  66.081  1.00  0.00    -0.266 A  
ENDROOT
BRANCH   6   9
HETATM    9  C   UNL     1      -7.083  11.229  68.374  1.00  0.00    -0.081 C  
BRANCH   9  10
HETATM   10  O   UNL     1      -7.265   9.957  69.037  1.00  0.00    -0.071 OA 
BRANCH  10  11
HETATM   11  N   UNL     1      -8.073  10.131  70.187  1.00  0.00    -0.343 NA 
HETATM   12  H   UNL     1      -7.835  10.767  70.947  1.00  0.00     0.000 HD 
BRANCH  11  13
HETATM   13  C   UNL     1      -9.153   9.396  70.178  1.00  0.00    -0.231 C  
BRANCH  13  14
HETATM   14  C   UNL     1      -9.295   8.270  69.177  1.00  0.00    -0.151 A  
HETATM   15 CL   UNL     1     -11.152   9.688  67.696  1.00  0.00    -0.188 Cl 
HETATM   16  C   UNL     1      -8.503   7.116  69.338  1.00  0.00    -0.134 A  
HETATM   17  C   UNL     1     -10.139   8.333  68.052  1.00  0.00    -0.198 A  
HETATM   18  C   UNL     1      -8.508   6.085  68.389  1.00  0.00    -0.112 A  
HETATM   19 CL   UNL     1      -9.299   4.938  66.084  1.00  0.00    -0.144 Cl 
HETATM   20  C   UNL     1      -9.325   6.183  67.271  1.00  0.00    -0.114 A  
HETATM   21  C   UNL     1     -10.151   7.291  67.106  1.00  0.00    -0.306 A  
ENDBRANCH  13  14
BRANCH  13  22
HETATM   22  C   UNL     1     -10.294   9.567  71.179  1.00  0.00    -0.260 C  
BRANCH  22  23
HETATM   23  N   UNL     1     -10.794   8.318  71.736  1.00  0.00    -0.249 NA 
HETATM   24  C   UNL     1     -10.187   7.588  72.722  1.00  0.00    -0.255 A  
HETATM   25  N   UNL     1     -12.058   6.531  72.046  1.00  0.00    -0.331 NA 
HETATM   26  C   UNL     1     -11.932   7.658  71.377  1.00  0.00    -0.310 A  
HETATM   27  C   UNL     1     -10.981   6.477  72.885  1.00  0.00    -0.250 A  
ENDBRANCH  22  23
ENDBRANCH  13  22
ENDBRANCH  11  13
ENDBRANCH  10  11
ENDBRANCH   9  10
ENDBRANCH   6   9
TORSDOF 7
ENDMDL
MODEL      243
REMARK 921   NORMALIZED FREE ENERGY PREDICTED BY IDOCK:   -4.28 KCAL/MOL
REMARK 922        TOTAL FREE ENERGY PREDICTED BY IDOCK:   -7.15 KCAL/MOL
REMARK 923 INTER-LIGAND FREE ENERGY PREDICTED BY IDOCK:   -6.43 KCAL/MOL
REMARK 924 INTRA-LIGAND FREE ENERGY PREDICTED BY IDOCK:   -0.72 KCAL/MOL
REMARK 927      BINDING AFFINITY PREDICTED BY RF-SCORE:    0.00 PKD
ROOT
HETATM    1 CL   UNL     1      -9.949  11.937  63.273  1.00  0.00    -0.446 Cl 
HETATM    2  C   UNL     1     -10.330  11.664  64.928  1.00  0.00    -0.283 A  
HETATM    3  C   UNL     1     -10.268  10.373  65.447  1.00  0.00    -0.329 A  
HETATM    4  C   UNL     1     -10.653  10.147  66.775  1.00  0.00    -0.169 A  
HETATM    5 CL   UNL     1     -10.549   8.516  67.349  1.00  0.00    -0.342 Cl 
HETATM    6  C   UNL     1     -11.116  11.193  67.601  1.00  0.00    -0.348 A  
HETATM    7  C   UNL     1     -11.110  12.491  67.066  1.00  0.00    -0.326 A  
HETATM    8  C   UNL     1     -10.721  12.724  65.739  1.00  0.00    -0.296 A  
ENDROOT
BRANCH   6   9
HETATM    9  C   UNL     1     -11.714  10.894  68.970  1.00  0.00    -0.320 C  
BRANCH   9  10
HETATM   10  O   UNL     1     -10.751  10.704  70.031  1.00  0.00    -0.251 OA 
BRANCH  10  11
HETATM   11  N   UNL     1     -11.331   9.935  71.069  1.00  0.00    -0.369 NA 
HETATM   12  H   UNL     1     -12.048  10.296  71.699  1.00  0.00     0.000 HD 
BRANCH  11  13
HETATM   13  C   UNL     1     -10.858   8.720  71.142  1.00  0.00    -0.268 C  
BRANCH  13  14
HETATM   14  C   UNL     1      -9.563   8.454  71.878  1.00  0.00    -0.324 A  
HETATM   15 CL   UNL     1      -8.055   8.987  69.619  1.00  0.00    -0.098 Cl 
HETATM   16  C   UNL     1      -9.615   8.129  73.247  1.00  0.00    -0.261 A  
HETATM   17  C   UNL     1      -8.293   8.569  71.281  1.00  0.00    -0.156 A  
HETATM   18  C   UNL     1      -8.451   7.976  74.010  1.00  0.00    -0.312 A  
HETATM   19 CL   UNL     1      -5.779   7.981  74.352  1.00  0.00    -0.080 Cl 
HETATM   20  C   UNL     1      -7.208   8.125  73.407  1.00  0.00    -0.133 A  
HETATM   21  C   UNL     1      -7.124   8.404  72.047  1.00  0.00    -0.107 A  
ENDBRANCH  13  14
BRANCH  13  22
HETATM   22  C   UNL     1     -11.577   7.503  70.563  1.00  0.00    -0.200 C  
BRANCH  22  23
HETATM   23  N   UNL     1     -10.807   6.268  70.624  1.00  0.00    -0.261 NA 
HETATM   24  C   UNL     1      -9.972   5.804  69.644  1.00  0.00    -0.189 A  
HETATM   25  N   UNL     1     -10.018   4.335  71.352  1.00  0.00    -0.186 NA 
HETATM   26  C   UNL     1     -10.783   5.365  71.646  1.00  0.00    -0.198 A  
HETATM   27  C   UNL     1      -9.508   4.597  70.111  1.00  0.00    -0.176 A  
ENDBRANCH  22  23
ENDBRANCH  13  22
ENDBRANCH  11  13
ENDBRANCH  10  11
ENDBRANCH   9  10
ENDBRANCH   6   9
TORSDOF 7
ENDMDL
MODEL      244
REMARK 921   NORMALIZED FREE ENERGY PREDICTED BY IDOCK:   -4.27 KCAL/MOL
REMARK 922        TOTAL FREE ENERGY PREDICTED BY IDOCK:   -7.14 KCAL/MOL
REMARK 923 INTER-LIGAND FREE ENERGY PREDICTED BY IDOCK:   -6.24 KCAL/MOL
REMARK 924 INTRA-LIGAND FREE ENERGY PREDICTED BY IDOCK:   -0.90 KCAL/MOL
REMARK 927      BINDING AFFINITY PREDICTED BY RF-SCORE:    0.00 PKD
ROOT
HETATM    1 CL   UNL     1      -6.100  18.727  65.744  1.00  0.00    -0.225 Cl 
HETATM    2  C   UNL     1      -7.185  17.656  66.538  1.00  0.00    -0.252 A  
HETATM    3  C   UNL     1      -6.751  16.928  67.643  1.00  0.00    -0.162 A  
HETATM    4  C   UNL     1      -7.616  16.000  68.239  1.00  0.00    -0.137 A  
HETATM    5 CL   UNL     1      -7.005  15.134  69.609  1.00  0.00    -0.184 Cl 
HETATM    6  C   UNL     1      -8.916  15.772  67.739  1.00  0.00    -0.176 A  
HETATM    7  C   UNL     1      -9.343  16.564  66.661  1.00  0.00    -0.279 A  
HETATM    8  C   UNL     1      -8.483  17.496  66.065  1.00  0.00    -0.099 A  
ENDROOT
BRANCH   6   9
HETATM    9  C   UNL     1      -9.763  14.625  68.275  1.00  0.00    -0.215 C  
BRANCH   9  10
HETATM   10  O   UNL     1      -9.142  13.321  68.208  1.00  0.00    -0.196 OA 
BRANCH  10  11
HETATM   11  N   UNL     1      -9.920  12.385  68.933  1.00  0.00    -0.429 NA 
HETATM   12  H   UNL     1      -9.828  12.241  69.938  1.00  0.00     0.000 HD 
BRANCH  11  13
HETATM   13  C   UNL     1     -10.766  11.725  68.188  1.00  0.00    -0.214 C  
BRANCH  13  14
HETATM   14  C   UNL     1     -10.382  11.323  66.780  1.00  0.00    -0.278 A  
HETATM   15 CL   UNL     1      -8.683   9.344  67.703  1.00  0.00    -0.116 Cl 
HETATM   16  C   UNL     1     -10.988  11.988  65.696  1.00  0.00    -0.343 A  
HETATM   17  C   UNL     1      -9.487  10.276  66.489  1.00  0.00    -0.171 A  
HETATM   18  C   UNL     1     -10.757  11.593  64.372  1.00  0.00    -0.387 A  
HETATM   19 CL   UNL     1      -9.644  10.023  62.487  1.00  0.00    -0.237 Cl 
HETATM   20  C   UNL     1      -9.895  10.537  64.109  1.00  0.00    -0.337 A  
HETATM   21  C   UNL     1      -9.248   9.888  65.157  1.00  0.00    -0.288 A  
ENDBRANCH  13  14
BRANCH  13  22
HETATM   22  C   UNL     1     -12.139  11.269  68.678  1.00  0.00    -0.141 C  
BRANCH  22  23
HETATM   23  N   UNL     1     -12.103  10.465  69.892  1.00  0.00    -0.222 NA 
HETATM   24  C   UNL     1     -11.447   9.273  70.037  1.00  0.00    -0.049 A  
HETATM   25  N   UNL     1     -12.518   9.780  71.953  1.00  0.00    -0.382 NA 
HETATM   26  C   UNL     1     -12.712  10.746  71.080  1.00  0.00    -0.415 A  
HETATM   27  C   UNL     1     -11.731   8.860  71.317  1.00  0.00    -0.306 A  
ENDBRANCH  22  23
ENDBRANCH  13  22
ENDBRANCH  11  13
ENDBRANCH  10  11
ENDBRANCH   9  10
ENDBRANCH   6   9
TORSDOF 7
ENDMDL
MODEL      245
REMARK 921   NORMALIZED FREE ENERGY PREDICTED BY IDOCK:   -4.27 KCAL/MOL
REMARK 922        TOTAL FREE ENERGY PREDICTED BY IDOCK:   -7.13 KCAL/MOL
REMARK 923 INTER-LIGAND FREE ENERGY PREDICTED BY IDOCK:   -4.82 KCAL/MOL
REMARK 924 INTRA-LIGAND FREE ENERGY PREDICTED BY IDOCK:   -2.31 KCAL/MOL
REMARK 927      BINDING AFFINITY PREDICTED BY RF-SCORE:    0.00 PKD
ROOT
HETATM    1 CL   UNL     1      -7.301   5.110  63.169  1.00  0.00    -0.047 Cl 
HETATM    2  C   UNL     1      -7.894   4.660  64.719  1.00  0.00    -0.087 A  
HETATM    3  C   UNL     1      -6.999   4.273  65.714  1.00  0.00    -0.062 A  
HETATM    4  C   UNL     1      -7.492   3.834  66.950  1.00  0.00    -0.079 A  
HETATM    5 CL   UNL     1      -6.319   3.370  68.137  1.00  0.00    -0.035 Cl 
HETATM    6  C   UNL     1      -8.877   3.761  67.211  1.00  0.00    -0.137 A  
HETATM    7  C   UNL     1      -9.750   4.214  66.209  1.00  0.00    -0.219 A  
HETATM    8  C   UNL     1      -9.261   4.658  64.972  1.00  0.00    -0.152 A  
ENDROOT
BRANCH   6   9
HETATM    9  C   UNL     1      -9.393   3.098  68.482  1.00  0.00    -0.177 C  
BRANCH   9  10
HETATM   10  O   UNL     1      -9.242   3.881  69.687  1.00  0.00    -0.118 OA 
BRANCH  10  11
HETATM   11  N   UNL     1     -10.371   4.719  69.856  1.00  0.00    -0.172 NA 
HETATM   12  H   UNL     1     -11.331   4.375  69.833  1.00  0.00     0.000 HD 
BRANCH  11  13
HETATM   13  C   UNL     1     -10.063   5.975  70.043  1.00  0.00    -0.186 C  
BRANCH  13  14
HETATM   14  C   UNL     1      -9.647   6.834  68.869  1.00  0.00    -0.137 A  
HETATM   15 CL   UNL     1      -6.964   6.542  69.480  1.00  0.00    -0.065 Cl 
HETATM   16  C   UNL     1     -10.643   7.341  68.012  1.00  0.00    -0.247 A  
HETATM   17  C   UNL     1      -8.304   7.113  68.548  1.00  0.00    -0.125 A  
HETATM   18  C   UNL     1     -10.319   8.053  66.850  1.00  0.00    -0.408 A  
HETATM   19 CL   UNL     1      -8.586   9.125  65.088  1.00  0.00    -0.183 Cl 
HETATM   20  C   UNL     1      -8.987   8.289  66.536  1.00  0.00    -0.156 A  
HETATM   21  C   UNL     1      -7.981   7.838  67.386  1.00  0.00    -0.119 A  
ENDBRANCH  13  14
BRANCH  13  22
HETATM   22  C   UNL     1     -10.153   6.669  71.400  1.00  0.00    -0.190 C  
BRANCH  22  23
HETATM   23  N   UNL     1     -11.317   7.530  71.555  1.00  0.00    -0.250 NA 
HETATM   24  C   UNL     1     -12.622   7.130  71.451  1.00  0.00    -0.394 A  
HETATM   25  N   UNL     1     -12.544   9.347  71.846  1.00  0.00    -0.383 NA 
HETATM   26  C   UNL     1     -11.318   8.868  71.821  1.00  0.00    -0.361 A  
HETATM   27  C   UNL     1     -13.363   8.276  71.619  1.00  0.00    -0.330 A  
ENDBRANCH  22  23
ENDBRANCH  13  22
ENDBRANCH  11  13
ENDBRANCH  10  11
ENDBRANCH   9  10
ENDBRANCH   6   9
TORSDOF 7
ENDMDL
MODEL      246
REMARK 921   NORMALIZED FREE ENERGY PREDICTED BY IDOCK:   -4.25 KCAL/MOL
REMARK 922        TOTAL FREE ENERGY PREDICTED BY IDOCK:   -7.10 KCAL/MOL
REMARK 923 INTER-LIGAND FREE ENERGY PREDICTED BY IDOCK:   -6.42 KCAL/MOL
REMARK 924 INTRA-LIGAND FREE ENERGY PREDICTED BY IDOCK:   -0.69 KCAL/MOL
REMARK 927      BINDING AFFINITY PREDICTED BY RF-SCORE:    0.00 PKD
ROOT
HETATM    1 CL   UNL     1     -12.261  13.812  63.733  1.00  0.00    -0.447 Cl 
HETATM    2  C   UNL     1     -11.971  13.163  65.298  1.00  0.00    -0.398 A  
HETATM    3  C   UNL     1     -12.181  13.956  66.424  1.00  0.00    -0.487 A  
HETATM    4  C   UNL     1     -11.871  13.447  67.692  1.00  0.00    -0.354 A  
HETATM    5 CL   UNL     1     -12.158  14.491  69.043  1.00  0.00    -0.322 Cl 
HETATM    6  C   UNL     1     -11.337  12.151  67.859  1.00  0.00    -0.361 A  
HETATM    7  C   UNL     1     -11.193  11.356  66.711  1.00  0.00    -0.319 A  
HETATM    8  C   UNL     1     -11.506  11.860  65.440  1.00  0.00    -0.310 A  
ENDROOT
BRANCH   6   9
HETATM    9  C   UNL     1     -10.824  11.693  69.219  1.00  0.00    -0.152 C  
BRANCH   9  10
HETATM   10  O   UNL     1     -10.730  10.260  69.388  1.00  0.00    -0.209 OA 
BRANCH  10  11
HETATM   11  N   UNL     1     -10.107   9.967  70.625  1.00  0.00    -0.365 NA 
HETATM   12  H   UNL     1     -10.053  10.631  71.396  1.00  0.00     0.000 HD 
BRANCH  11  13
HETATM   13  C   UNL     1      -9.606   8.761  70.682  1.00  0.00    -0.199 C  
BRANCH  13  14
HETATM   14  C   UNL     1      -9.903   7.766  69.580  1.00  0.00    -0.182 A  
HETATM   15 CL   UNL     1     -12.060   6.726  70.967  1.00  0.00    -0.429 Cl 
HETATM   16  C   UNL     1      -9.107   7.783  68.419  1.00  0.00    -0.131 A  
HETATM   17  C   UNL     1     -10.974   6.853  69.627  1.00  0.00    -0.259 A  
HETATM   18  C   UNL     1      -9.394   6.962  67.320  1.00  0.00    -0.152 A  
HETATM   19 CL   UNL     1     -10.855   5.116  66.012  1.00  0.00    -0.239 Cl 
HETATM   20  C   UNL     1     -10.475   6.092  67.376  1.00  0.00    -0.246 A  
HETATM   21  C   UNL     1     -11.255   6.022  68.527  1.00  0.00    -0.147 A  
ENDBRANCH  13  14
BRANCH  13  22
HETATM   22  C   UNL     1      -8.667   8.293  71.791  1.00  0.00    -0.164 C  
BRANCH  22  23
HETATM   23  N   UNL     1      -7.326   8.856  71.717  1.00  0.00    -0.299 NA 
HETATM   24  C   UNL     1      -6.401   8.841  72.725  1.00  0.00    -0.008 A  
HETATM   25  N   UNL     1      -5.553   9.925  70.941  1.00  0.00    -0.071 NA 
HETATM   26  C   UNL     1      -6.763   9.495  70.651  1.00  0.00    -0.110 A  
HETATM   27  C   UNL     1      -5.316   9.523  72.226  1.00  0.00    -0.054 A  
ENDBRANCH  22  23
ENDBRANCH  13  22
ENDBRANCH  11  13
ENDBRANCH  10  11
ENDBRANCH   9  10
ENDBRANCH   6   9
TORSDOF 7
ENDMDL
MODEL      247
REMARK 921   NORMALIZED FREE ENERGY PREDICTED BY IDOCK:   -4.24 KCAL/MOL
REMARK 922        TOTAL FREE ENERGY PREDICTED BY IDOCK:   -7.10 KCAL/MOL
REMARK 923 INTER-LIGAND FREE ENERGY PREDICTED BY IDOCK:   -6.79 KCAL/MOL
REMARK 924 INTRA-LIGAND FREE ENERGY PREDICTED BY IDOCK:   -0.31 KCAL/MOL
REMARK 927      BINDING AFFINITY PREDICTED BY RF-SCORE:    0.00 PKD
ROOT
HETATM    1 CL   UNL     1      -9.097   6.075  70.437  1.00  0.00    -0.152 Cl 
HETATM    2  C   UNL     1      -9.493   7.590  69.728  1.00  0.00    -0.156 A  
HETATM    3  C   UNL     1      -9.685   7.678  68.351  1.00  0.00    -0.164 A  
HETATM    4  C   UNL     1      -9.931   8.930  67.770  1.00  0.00    -0.192 A  
HETATM    5 CL   UNL     1     -10.160   8.959  66.053  1.00  0.00    -0.242 Cl 
HETATM    6  C   UNL     1      -9.978  10.109  68.543  1.00  0.00    -0.177 A  
HETATM    7  C   UNL     1      -9.839   9.978  69.934  1.00  0.00    -0.266 A  
HETATM    8  C   UNL     1      -9.597   8.728  70.521  1.00  0.00    -0.226 A  
ENDROOT
BRANCH   6   9
HETATM    9  C   UNL     1     -10.049  11.474  67.871  1.00  0.00    -0.189 C  
BRANCH   9  10
HETATM   10  O   UNL     1      -9.248  12.506  68.490  1.00  0.00    -0.168 OA 
BRANCH  10  11
HETATM   11  N   UNL     1      -9.064  13.577  67.583  1.00  0.00    -0.195 NA 
HETATM   12  H   UNL     1      -8.230  13.683  67.005  1.00  0.00     0.000 HD 
BRANCH  11  13
HETATM   13  C   UNL     1     -10.066  14.415  67.557  1.00  0.00    -0.232 C  
BRANCH  13  14
HETATM   14  C   UNL     1     -10.857  14.686  68.819  1.00  0.00    -0.261 A  
HETATM   15 CL   UNL     1      -9.325  16.910  69.420  1.00  0.00    -0.001 Cl 
HETATM   16  C   UNL     1     -11.944  13.846  69.131  1.00  0.00    -0.404 A  
HETATM   17  C   UNL     1     -10.602  15.772  69.677  1.00  0.00    -0.295 A  
HETATM   18  C   UNL     1     -12.781  14.105  70.224  1.00  0.00    -0.287 A  
HETATM   19 CL   UNL     1     -13.581  15.545  72.355  1.00  0.00    -0.583 Cl 
HETATM   20  C   UNL     1     -12.529  15.201  71.039  1.00  0.00    -0.357 A  
HETATM   21  C   UNL     1     -11.437  16.025  70.781  1.00  0.00    -0.444 A  
ENDBRANCH  13  14
BRANCH  13  22
HETATM   22  C   UNL     1     -10.468  15.206  66.315  1.00  0.00    -0.307 C  
BRANCH  22  23
HETATM   23  N   UNL     1      -9.862  16.527  66.225  1.00  0.00    -0.297 NA 
HETATM   24  C   UNL     1      -8.519  16.789  66.244  1.00  0.00    -0.307 A  
HETATM   25  N   UNL     1      -9.661  18.726  66.108  1.00  0.00    -0.477 NA 
HETATM   26  C   UNL     1     -10.512  17.722  66.114  1.00  0.00    -0.301 A  
HETATM   27  C   UNL     1      -8.420  18.159  66.186  1.00  0.00    -0.111 A  
ENDBRANCH  22  23
ENDBRANCH  13  22
ENDBRANCH  11  13
ENDBRANCH  10  11
ENDBRANCH   9  10
ENDBRANCH   6   9
TORSDOF 7
ENDMDL
MODEL      248
REMARK 921   NORMALIZED FREE ENERGY PREDICTED BY IDOCK:   -4.24 KCAL/MOL
REMARK 922        TOTAL FREE ENERGY PREDICTED BY IDOCK:   -7.10 KCAL/MOL
REMARK 923 INTER-LIGAND FREE ENERGY PREDICTED BY IDOCK:   -6.28 KCAL/MOL
REMARK 924 INTRA-LIGAND FREE ENERGY PREDICTED BY IDOCK:   -0.81 KCAL/MOL
REMARK 927      BINDING AFFINITY PREDICTED BY RF-SCORE:    0.00 PKD
ROOT
HETATM    1 CL   UNL     1      -8.761   3.345  63.668  1.00  0.00    -0.093 Cl 
HETATM    2  C   UNL     1      -8.393   5.013  63.857  1.00  0.00    -0.132 A  
HETATM    3  C   UNL     1      -8.486   5.603  65.116  1.00  0.00    -0.144 A  
HETATM    4  C   UNL     1      -8.259   6.979  65.249  1.00  0.00    -0.128 A  
HETATM    5 CL   UNL     1      -8.393   7.640  66.845  1.00  0.00    -0.122 Cl 
HETATM    6  C   UNL     1      -7.950   7.790  64.137  1.00  0.00    -0.113 A  
HETATM    7  C   UNL     1      -7.806   7.156  62.892  1.00  0.00    -0.119 A  
HETATM    8  C   UNL     1      -8.028   5.778  62.755  1.00  0.00    -0.103 A  
ENDROOT
BRANCH   6   9
HETATM    9  C   UNL     1      -7.903   9.307  64.271  1.00  0.00    -0.125 C  
BRANCH   9  10
HETATM   10  O   UNL     1      -9.140   9.924  64.694  1.00  0.00    -0.207 OA 
BRANCH  10  11
HETATM   11  N   UNL     1      -8.859  11.093  65.441  1.00  0.00    -0.331 NA 
HETATM   12  H   UNL     1      -7.912  11.422  65.630  1.00  0.00     0.000 HD 
BRANCH  11  13
HETATM   13  C   UNL     1      -9.930  11.710  65.865  1.00  0.00    -0.231 C  
BRANCH  13  14
HETATM   14  C   UNL     1     -10.042  13.213  65.724  1.00  0.00    -0.290 A  
HETATM   15 CL   UNL     1     -11.844  12.982  63.637  1.00  0.00    -0.560 Cl 
HETATM   16  C   UNL     1      -9.323  14.033  66.616  1.00  0.00    -0.292 A  
HETATM   17  C   UNL     1     -10.876  13.845  64.781  1.00  0.00    -0.419 A  
HETATM   18  C   UNL     1      -9.466  15.427  66.608  1.00  0.00    -0.281 A  
HETATM   19 CL   UNL     1     -10.528  17.733  65.709  1.00  0.00    -0.291 Cl 
HETATM   20  C   UNL     1     -10.318  16.026  65.690  1.00  0.00    -0.392 A  
HETATM   21  C   UNL     1     -11.009  15.245  64.769  1.00  0.00    -0.403 A  
ENDBRANCH  13  14
BRANCH  13  22
HETATM   22  C   UNL     1     -11.136  10.987  66.459  1.00  0.00    -0.106 C  
BRANCH  22  23
HETATM   23  N   UNL     1     -11.117  10.886  67.912  1.00  0.00    -0.280 NA 
HETATM   24  C   UNL     1     -10.290  10.076  68.641  1.00  0.00    -0.190 A  
HETATM   25  N   UNL     1     -11.665  11.195  70.032  1.00  0.00    -0.327 NA 
HETATM   26  C   UNL     1     -11.910  11.563  68.792  1.00  0.00    -0.330 A  
HETATM   27  C   UNL     1     -10.659  10.273  69.951  1.00  0.00    -0.276 A  
ENDBRANCH  22  23
ENDBRANCH  13  22
ENDBRANCH  11  13
ENDBRANCH  10  11
ENDBRANCH   9  10
ENDBRANCH   6   9
TORSDOF 7
ENDMDL
MODEL      249
REMARK 921   NORMALIZED FREE ENERGY PREDICTED BY IDOCK:   -4.24 KCAL/MOL
REMARK 922        TOTAL FREE ENERGY PREDICTED BY IDOCK:   -7.09 KCAL/MOL
REMARK 923 INTER-LIGAND FREE ENERGY PREDICTED BY IDOCK:   -6.55 KCAL/MOL
REMARK 924 INTRA-LIGAND FREE ENERGY PREDICTED BY IDOCK:   -0.55 KCAL/MOL
REMARK 927      BINDING AFFINITY PREDICTED BY RF-SCORE:    0.00 PKD
ROOT
HETATM    1 CL   UNL     1     -10.104  18.358  65.933  1.00  0.00    -0.257 Cl 
HETATM    2  C   UNL     1     -10.396  16.677  66.145  1.00  0.00    -0.330 A  
HETATM    3  C   UNL     1     -10.858  15.916  65.073  1.00  0.00    -0.444 A  
HETATM    4  C   UNL     1     -11.167  14.563  65.271  1.00  0.00    -0.352 A  
HETATM    5 CL   UNL     1     -11.734  13.683  63.892  1.00  0.00    -0.399 Cl 
HETATM    6  C   UNL     1     -11.035  13.952  66.536  1.00  0.00    -0.300 A  
HETATM    7  C   UNL     1     -10.511  14.730  67.581  1.00  0.00    -0.254 A  
HETATM    8  C   UNL     1     -10.197  16.083  67.386  1.00  0.00    -0.273 A  
ENDROOT
BRANCH   6   9
HETATM    9  C   UNL     1     -11.560  12.542  66.775  1.00  0.00    -0.382 C  
BRANCH   9  10
HETATM   10  O   UNL     1     -10.884  11.501  66.033  1.00  0.00    -0.280 OA 
BRANCH  10  11
HETATM   11  N   UNL     1     -10.702  10.367  66.861  1.00  0.00    -0.236 NA 
HETATM   12  H   UNL     1     -11.230   9.502  66.750  1.00  0.00     0.000 HD 
BRANCH  11  13
HETATM   13  C   UNL     1      -9.791  10.538  67.783  1.00  0.00    -0.165 C  
BRANCH  13  14
HETATM   14  C   UNL     1     -10.004   9.972  69.170  1.00  0.00    -0.213 A  
HETATM   15 CL   UNL     1     -12.288  11.488  69.546  1.00  0.00    -0.248 Cl 
HETATM   16  C   UNL     1      -9.109   8.994  69.648  1.00  0.00    -0.155 A  
HETATM   17  C   UNL     1     -11.087  10.328  69.997  1.00  0.00    -0.311 A  
HETATM   18  C   UNL     1      -9.310   8.355  70.878  1.00  0.00    -0.201 A  
HETATM   19 CL   UNL     1     -10.676   7.883  73.152  1.00  0.00    -0.406 Cl 
HETATM   20  C   UNL     1     -10.404   8.699  71.663  1.00  0.00    -0.296 A  
HETATM   21  C   UNL     1     -11.281   9.691  71.236  1.00  0.00    -0.446 A  
ENDBRANCH  13  14
BRANCH  13  22
HETATM   22  C   UNL     1      -8.461  11.242  67.529  1.00  0.00    -0.131 C  
BRANCH  22  23
HETATM   23  N   UNL     1      -7.568  10.528  66.627  1.00  0.00    -0.114 NA 
HETATM   24  C   UNL     1      -6.441   9.847  66.998  1.00  0.00    -0.069 A  
HETATM   25  N   UNL     1      -6.679   9.744  64.760  1.00  0.00    -0.108 NA 
HETATM   26  C   UNL     1      -7.688  10.416  65.272  1.00  0.00    -0.124 A  
HETATM   27  C   UNL     1      -5.898   9.383  65.823  1.00  0.00    -0.054 A  
ENDBRANCH  22  23
ENDBRANCH  13  22
ENDBRANCH  11  13
ENDBRANCH  10  11
ENDBRANCH   9  10
ENDBRANCH   6   9
TORSDOF 7
ENDMDL
MODEL      250
REMARK 921   NORMALIZED FREE ENERGY PREDICTED BY IDOCK:   -4.24 KCAL/MOL
REMARK 922        TOTAL FREE ENERGY PREDICTED BY IDOCK:   -7.09 KCAL/MOL
REMARK 923 INTER-LIGAND FREE ENERGY PREDICTED BY IDOCK:   -5.53 KCAL/MOL
REMARK 924 INTRA-LIGAND FREE ENERGY PREDICTED BY IDOCK:   -1.56 KCAL/MOL
REMARK 927      BINDING AFFINITY PREDICTED BY RF-SCORE:    0.00 PKD
ROOT
HETATM    1 CL   UNL     1     -10.800   5.600  68.255  1.00  0.00    -0.237 Cl 
HETATM    2  C   UNL     1      -9.860   6.896  67.627  1.00  0.00    -0.134 A  
HETATM    3  C   UNL     1     -10.478   7.900  66.885  1.00  0.00    -0.388 A  
HETATM    4  C   UNL     1      -9.696   8.912  66.312  1.00  0.00    -0.275 A  
HETATM    5 CL   UNL     1     -10.535  10.125  65.404  1.00  0.00    -0.179 Cl 
HETATM    6  C   UNL     1      -8.292   8.934  66.456  1.00  0.00    -0.115 A  
HETATM    7  C   UNL     1      -7.707   7.941  67.258  1.00  0.00    -0.105 A  
HETATM    8  C   UNL     1      -8.486   6.929  67.837  1.00  0.00    -0.120 A  
ENDROOT
BRANCH   6   9
HETATM    9  C   UNL     1      -7.447   9.924  65.665  1.00  0.00    -0.116 C  
BRANCH   9  10
HETATM   10  O   UNL     1      -7.653  11.314  66.003  1.00  0.00    -0.045 OA 
BRANCH  10  11
HETATM   11  N   UNL     1      -7.319  11.529  67.362  1.00  0.00    -0.115 NA 
HETATM   12  H   UNL     1      -6.403  11.312  67.754  1.00  0.00     0.000 HD 
BRANCH  11  13
HETATM   13  C   UNL     1      -8.299  12.033  68.064  1.00  0.00    -0.162 C  
BRANCH  13  14
HETATM   14  C   UNL     1      -9.205  11.120  68.862  1.00  0.00    -0.106 A  
HETATM   15 CL   UNL     1      -7.058   9.976  70.179  1.00  0.00    -0.142 Cl 
HETATM   16  C   UNL     1     -10.599  11.224  68.683  1.00  0.00    -0.231 A  
HETATM   17  C   UNL     1      -8.734  10.203  69.821  1.00  0.00    -0.126 A  
HETATM   18  C   UNL     1     -11.495  10.484  69.465  1.00  0.00    -0.339 A  
HETATM   19 CL   UNL     1     -12.109   8.734  71.419  1.00  0.00    -0.344 Cl 
HETATM   20  C   UNL     1     -11.009   9.609  70.428  1.00  0.00    -0.299 A  
HETATM   21  C   UNL     1      -9.637   9.454  70.598  1.00  0.00    -0.331 A  
ENDBRANCH  13  14
BRANCH  13  22
HETATM   22  C   UNL     1      -8.563  13.532  68.183  1.00  0.00    -0.173 C  
BRANCH  22  23
HETATM   23  N   UNL     1      -9.757  13.986  67.484  1.00  0.00    -0.227 NA 
HETATM   24  C   UNL     1     -10.006  13.825  66.147  1.00  0.00    -0.308 A  
HETATM   25  N   UNL     1     -11.708  14.954  67.098  1.00  0.00    -0.327 NA 
HETATM   26  C   UNL     1     -10.822  14.647  68.022  1.00  0.00    -0.257 A  
HETATM   27  C   UNL     1     -11.212  14.447  65.929  1.00  0.00    -0.324 A  
ENDBRANCH  22  23
ENDBRANCH  13  22
ENDBRANCH  11  13
ENDBRANCH  10  11
ENDBRANCH   9  10
ENDBRANCH   6   9
TORSDOF 7
ENDMDL
MODEL      251
REMARK 921   NORMALIZED FREE ENERGY PREDICTED BY IDOCK:   -4.23 KCAL/MOL
REMARK 922        TOTAL FREE ENERGY PREDICTED BY IDOCK:   -7.07 KCAL/MOL
REMARK 923 INTER-LIGAND FREE ENERGY PREDICTED BY IDOCK:   -6.19 KCAL/MOL
REMARK 924 INTRA-LIGAND FREE ENERGY PREDICTED BY IDOCK:   -0.89 KCAL/MOL
REMARK 927      BINDING AFFINITY PREDICTED BY RF-SCORE:    0.00 PKD
ROOT
HETATM    1 CL   UNL     1      -7.368  16.169  68.946  1.00  0.00    -0.173 Cl 
HETATM    2  C   UNL     1      -8.691  15.093  68.728  1.00  0.00    -0.194 A  
HETATM    3  C   UNL     1      -9.919  15.382  69.319  1.00  0.00    -0.256 A  
HETATM    4  C   UNL     1     -10.971  14.463  69.202  1.00  0.00    -0.265 A  
HETATM    5 CL   UNL     1     -12.468  14.892  69.961  1.00  0.00    -0.345 Cl 
HETATM    6  C   UNL     1     -10.816  13.243  68.510  1.00  0.00    -0.286 A  
HETATM    7  C   UNL     1      -9.584  13.009  67.877  1.00  0.00    -0.215 A  
HETATM    8  C   UNL     1      -8.530  13.927  67.988  1.00  0.00    -0.173 A  
ENDROOT
BRANCH   6   9
HETATM    9  C   UNL     1     -11.903  12.177  68.563  1.00  0.00    -0.310 C  
BRANCH   9  10
HETATM   10  O   UNL     1     -11.626  10.979  67.803  1.00  0.00    -0.510 OA 
BRANCH  10  11
HETATM   11  N   UNL     1     -11.377   9.901  68.686  1.00  0.00    -0.498 NA 
HETATM   12  H   UNL     1     -11.697   9.885  69.654  1.00  0.00     0.000 HD 
BRANCH  11  13
HETATM   13  C   UNL     1     -10.698   8.928  68.140  1.00  0.00    -0.092 C  
BRANCH  13  14
HETATM   14  C   UNL     1     -10.375   7.687  68.944  1.00  0.00    -0.222 A  
HETATM   15 CL   UNL     1      -9.454   9.189  71.077  1.00  0.00    -0.339 Cl 
HETATM   16  C   UNL     1     -10.669   6.425  68.391  1.00  0.00    -0.349 A  
HETATM   17  C   UNL     1      -9.843   7.722  70.247  1.00  0.00    -0.184 A  
HETATM   18  C   UNL     1     -10.493   5.244  69.124  1.00  0.00    -0.227 A  
HETATM   19 CL   UNL     1      -9.823   3.860  71.335  1.00  0.00    -0.257 Cl 
HETATM   20  C   UNL     1      -9.998   5.305  70.419  1.00  0.00    -0.233 A  
HETATM   21  C   UNL     1      -9.658   6.534  70.977  1.00  0.00    -0.185 A  
ENDBRANCH  13  14
BRANCH  13  22
HETATM   22  C   UNL     1     -10.243   8.935  66.682  1.00  0.00    -0.268 C  
BRANCH  22  23
HETATM   23  N   UNL     1      -8.945   9.558  66.464  1.00  0.00    -0.144 NA 
HETATM   24  C   UNL     1      -7.987   9.756  67.421  1.00  0.00    -0.102 A  
HETATM   25  N   UNL     1      -7.273  10.596  65.456  1.00  0.00    -0.100 NA 
HETATM   26  C   UNL     1      -8.461  10.055  65.289  1.00  0.00    -0.154 A  
HETATM   27  C   UNL     1      -6.967  10.415  66.776  1.00  0.00    -0.103 A  
ENDBRANCH  22  23
ENDBRANCH  13  22
ENDBRANCH  11  13
ENDBRANCH  10  11
ENDBRANCH   9  10
ENDBRANCH   6   9
TORSDOF 7
ENDMDL
MODEL      252
REMARK 921   NORMALIZED FREE ENERGY PREDICTED BY IDOCK:   -4.22 KCAL/MOL
REMARK 922        TOTAL FREE ENERGY PREDICTED BY IDOCK:   -7.06 KCAL/MOL
REMARK 923 INTER-LIGAND FREE ENERGY PREDICTED BY IDOCK:   -6.55 KCAL/MOL
REMARK 924 INTRA-LIGAND FREE ENERGY PREDICTED BY IDOCK:   -0.51 KCAL/MOL
REMARK 927      BINDING AFFINITY PREDICTED BY RF-SCORE:    0.00 PKD
ROOT
HETATM    1 CL   UNL     1      -6.769   9.850  67.582  1.00  0.00    -0.072 Cl 
HETATM    2  C   UNL     1      -8.098  10.825  67.093  1.00  0.00    -0.124 A  
HETATM    3  C   UNL     1      -8.487  10.841  65.756  1.00  0.00    -0.174 A  
HETATM    4  C   UNL     1      -9.521  11.696  65.350  1.00  0.00    -0.171 A  
HETATM    5 CL   UNL     1      -9.948  11.661  63.672  1.00  0.00    -0.368 Cl 
HETATM    6  C   UNL     1     -10.173  12.554  66.262  1.00  0.00    -0.265 A  
HETATM    7  C   UNL     1      -9.797  12.470  67.612  1.00  0.00    -0.202 A  
HETATM    8  C   UNL     1      -8.766  11.613  68.023  1.00  0.00    -0.157 A  
ENDROOT
BRANCH   6   9
HETATM    9  C   UNL     1     -11.152  13.611  65.767  1.00  0.00    -0.287 C  
BRANCH   9  10
HETATM   10  O   UNL     1     -10.565  14.668  64.975  1.00  0.00    -0.390 OA 
BRANCH  10  11
HETATM   11  N   UNL     1      -9.305  15.024  65.513  1.00  0.00    -0.403 NA 
HETATM   12  H   UNL     1      -8.426  14.609  65.204  1.00  0.00     0.000 HD 
BRANCH  11  13
HETATM   13  C   UNL     1      -9.377  15.937  66.446  1.00  0.00    -0.297 C  
BRANCH  13  14
HETATM   14  C   UNL     1      -8.252  16.084  67.448  1.00  0.00    -0.189 A  
HETATM   15 CL   UNL     1      -6.858  17.795  65.779  1.00  0.00    -0.280 Cl 
HETATM   16  C   UNL     1      -8.357  15.424  68.687  1.00  0.00    -0.168 A  
HETATM   17  C   UNL     1      -7.122  16.897  67.233  1.00  0.00    -0.166 A  
HETATM   18  C   UNL     1      -7.404  15.604  69.698  1.00  0.00    -0.144 A  
HETATM   19 CL   UNL     1      -5.167  16.691  70.731  1.00  0.00    -0.208 Cl 
HETATM   20  C   UNL     1      -6.314  16.435  69.475  1.00  0.00    -0.203 A  
HETATM   21  C   UNL     1      -6.160  17.068  68.245  1.00  0.00    -0.135 A  
ENDBRANCH  13  14
BRANCH  13  22
HETATM   22  C   UNL     1     -10.530  16.931  66.560  1.00  0.00    -0.253 C  
BRANCH  22  23
HETATM   23  N   UNL     1     -10.135  18.252  67.030  1.00  0.00    -0.341 NA 
HETATM   24  C   UNL     1      -9.974  19.361  66.244  1.00  0.00    -0.430 A  
HETATM   25  N   UNL     1      -9.480  19.876  68.381  1.00  0.00    -0.309 NA 
HETATM   26  C   UNL     1      -9.853  18.615  68.315  1.00  0.00    -0.371 A  
HETATM   27  C   UNL     1      -9.553  20.350  67.101  1.00  0.00    -0.447 A  
ENDBRANCH  22  23
ENDBRANCH  13  22
ENDBRANCH  11  13
ENDBRANCH  10  11
ENDBRANCH   9  10
ENDBRANCH   6   9
TORSDOF 7
ENDMDL
MODEL      253
REMARK 921   NORMALIZED FREE ENERGY PREDICTED BY IDOCK:   -4.20 KCAL/MOL
REMARK 922        TOTAL FREE ENERGY PREDICTED BY IDOCK:   -7.04 KCAL/MOL
REMARK 923 INTER-LIGAND FREE ENERGY PREDICTED BY IDOCK:   -5.48 KCAL/MOL
REMARK 924 INTRA-LIGAND FREE ENERGY PREDICTED BY IDOCK:   -1.56 KCAL/MOL
REMARK 927      BINDING AFFINITY PREDICTED BY RF-SCORE:    0.00 PKD
ROOT
HETATM    1 CL   UNL     1      -8.540  10.686  63.225  1.00  0.00    -0.169 Cl 
HETATM    2  C   UNL     1      -9.065   9.713  64.541  1.00  0.00    -0.236 A  
HETATM    3  C   UNL     1      -8.393   8.528  64.835  1.00  0.00    -0.171 A  
HETATM    4  C   UNL     1      -8.873   7.702  65.860  1.00  0.00    -0.130 A  
HETATM    5 CL   UNL     1      -7.985   6.246  66.167  1.00  0.00    -0.108 Cl 
HETATM    6  C   UNL     1     -10.030   8.031  66.598  1.00  0.00    -0.326 A  
HETATM    7  C   UNL     1     -10.649   9.260  66.316  1.00  0.00     0.078 A  
HETATM    8  C   UNL     1     -10.171  10.092  65.295  1.00  0.00    -0.261 A  
ENDROOT
BRANCH   6   9
HETATM    9  C   UNL     1     -10.644   7.029  67.567  1.00  0.00    -0.280 C  
BRANCH   9  10
HETATM   10  O   UNL     1     -10.179   7.132  68.932  1.00  0.00    -0.175 OA 
BRANCH  10  11
HETATM   11  N   UNL     1     -11.086   7.914  69.687  1.00  0.00    -0.441 NA 
HETATM   12  H   UNL     1     -12.085   7.715  69.743  1.00  0.00     0.000 HD 
BRANCH  11  13
HETATM   13  C   UNL     1     -10.519   8.916  70.305  1.00  0.00    -0.210 C  
BRANCH  13  14
HETATM   14  C   UNL     1     -10.357  10.246  69.602  1.00  0.00    -0.281 A  
HETATM   15 CL   UNL     1     -12.981  10.952  70.123  1.00  0.00    -0.150 Cl 
HETATM   16  C   UNL     1      -9.097  10.582  69.068  1.00  0.00    -0.188 A  
HETATM   17  C   UNL     1     -11.388  11.199  69.496  1.00  0.00    -0.290 A  
HETATM   18  C   UNL     1      -8.853  11.839  68.499  1.00  0.00    -0.122 A  
HETATM   19 CL   UNL     1      -9.566  14.334  67.777  1.00  0.00    -0.216 Cl 
HETATM   20  C   UNL     1      -9.877  12.776  68.435  1.00  0.00    -0.196 A  
HETATM   21  C   UNL     1     -11.144  12.457  68.915  1.00  0.00    -0.307 A  
ENDBRANCH  13  14
BRANCH  13  22
HETATM   22  C   UNL     1     -10.044   8.848  71.755  1.00  0.00    -0.337 C  
BRANCH  22  23
HETATM   23  N   UNL     1     -10.062   7.509  72.328  1.00  0.00    -0.191 NA 
HETATM   24  C   UNL     1      -9.066   6.578  72.204  1.00  0.00    -0.139 A  
HETATM   25  N   UNL     1     -10.771   5.702  73.388  1.00  0.00    -0.262 NA 
HETATM   26  C   UNL     1     -11.058   6.948  73.072  1.00  0.00    -0.232 A  
HETATM   27  C   UNL     1      -9.535   5.462  72.855  1.00  0.00    -0.144 A  
ENDBRANCH  22  23
ENDBRANCH  13  22
ENDBRANCH  11  13
ENDBRANCH  10  11
ENDBRANCH   9  10
ENDBRANCH   6   9
TORSDOF 7
ENDMDL
MODEL      254
REMARK 921   NORMALIZED FREE ENERGY PREDICTED BY IDOCK:   -4.20 KCAL/MOL
REMARK 922        TOTAL FREE ENERGY PREDICTED BY IDOCK:   -7.03 KCAL/MOL
REMARK 923 INTER-LIGAND FREE ENERGY PREDICTED BY IDOCK:   -6.21 KCAL/MOL
REMARK 924 INTRA-LIGAND FREE ENERGY PREDICTED BY IDOCK:   -0.82 KCAL/MOL
REMARK 927      BINDING AFFINITY PREDICTED BY RF-SCORE:    0.00 PKD
ROOT
HETATM    1 CL   UNL     1      -8.092   3.148  63.538  1.00  0.00    -0.084 Cl 
HETATM    2  C   UNL     1      -8.667   3.850  64.998  1.00  0.00    -0.116 A  
HETATM    3  C   UNL     1      -7.831   3.909  66.111  1.00  0.00    -0.090 A  
HETATM    4  C   UNL     1      -8.331   4.412  67.320  1.00  0.00    -0.100 A  
HETATM    5 CL   UNL     1      -7.232   4.454  68.659  1.00  0.00    -0.055 Cl 
HETATM    6  C   UNL     1      -9.666   4.851  67.445  1.00  0.00    -0.195 A  
HETATM    7  C   UNL     1     -10.464   4.833  66.290  1.00  0.00    -0.311 A  
HETATM    8  C   UNL     1      -9.968   4.334  65.077  1.00  0.00    -0.199 A  
ENDROOT
BRANCH   6   9
HETATM    9  C   UNL     1     -10.241   5.206  68.810  1.00  0.00    -0.132 C  
BRANCH   9  10
HETATM   10  O   UNL     1     -10.537   6.608  69.005  1.00  0.00    -0.203 OA 
BRANCH  10  11
HETATM   11  N   UNL     1     -11.680   6.744  69.829  1.00  0.00    -0.637 NA 
HETATM   12  H   UNL     1     -12.561   6.263  69.648  1.00  0.00     0.000 HD 
BRANCH  11  13
HETATM   13  C   UNL     1     -11.496   7.546  70.844  1.00  0.00    -0.281 C  
BRANCH  13  14
HETATM   14  C   UNL     1     -11.828   9.017  70.717  1.00  0.00    -0.251 A  
HETATM   15 CL   UNL     1     -13.867   8.819  72.577  1.00  0.00    -0.452 Cl 
HETATM   16  C   UNL     1     -11.051   9.815  69.855  1.00  0.00    -0.293 A  
HETATM   17  C   UNL     1     -12.844   9.651  71.457  1.00  0.00    -0.392 A  
HETATM   18  C   UNL     1     -11.238  11.201  69.772  1.00  0.00    -0.318 A  
HETATM   19 CL   UNL     1     -12.426  13.516  70.467  1.00  0.00    -0.395 Cl 
HETATM   20  C   UNL     1     -12.225  11.810  70.536  1.00  0.00    -0.347 A  
HETATM   21  C   UNL     1     -13.037  11.041  71.364  1.00  0.00    -0.441 A  
ENDBRANCH  13  14
BRANCH  13  22
HETATM   22  C   UNL     1     -11.006   7.072  72.211  1.00  0.00    -0.245 C  
BRANCH  22  23
HETATM   23  N   UNL     1      -9.558   7.090  72.366  1.00  0.00    -0.146 NA 
HETATM   24  C   UNL     1      -8.730   6.010  72.221  1.00  0.00    -0.131 A  
HETATM   25  N   UNL     1      -7.514   7.819  72.794  1.00  0.00    -0.095 NA 
HETATM   26  C   UNL     1      -8.780   8.164  72.684  1.00  0.00    -0.213 A  
HETATM   27  C   UNL     1      -7.471   6.482  72.507  1.00  0.00    -0.090 A  
ENDBRANCH  22  23
ENDBRANCH  13  22
ENDBRANCH  11  13
ENDBRANCH  10  11
ENDBRANCH   9  10
ENDBRANCH   6   9
TORSDOF 7
ENDMDL
MODEL      255
REMARK 921   NORMALIZED FREE ENERGY PREDICTED BY IDOCK:   -4.19 KCAL/MOL
REMARK 922        TOTAL FREE ENERGY PREDICTED BY IDOCK:   -7.02 KCAL/MOL
REMARK 923 INTER-LIGAND FREE ENERGY PREDICTED BY IDOCK:   -6.46 KCAL/MOL
REMARK 924 INTRA-LIGAND FREE ENERGY PREDICTED BY IDOCK:   -0.57 KCAL/MOL
REMARK 927      BINDING AFFINITY PREDICTED BY RF-SCORE:    0.00 PKD
ROOT
HETATM    1 CL   UNL     1      -6.246  19.302  69.351  1.00  0.00    -0.309 Cl 
HETATM    2  C   UNL     1      -7.117  18.338  68.225  1.00  0.00    -0.248 A  
HETATM    3  C   UNL     1      -8.330  18.796  67.718  1.00  0.00    -0.293 A  
HETATM    4  C   UNL     1      -9.072  17.973  66.860  1.00  0.00    -0.269 A  
HETATM    5 CL   UNL     1     -10.570  18.612  66.270  1.00  0.00    -0.438 Cl 
HETATM    6  C   UNL     1      -8.628  16.682  66.505  1.00  0.00    -0.320 A  
HETATM    7  C   UNL     1      -7.373  16.273  66.986  1.00  0.00    -0.264 A  
HETATM    8  C   UNL     1      -6.625  17.095  67.841  1.00  0.00    -0.154 A  
ENDROOT
BRANCH   6   9
HETATM    9  C   UNL     1      -9.537  15.732  65.736  1.00  0.00    -0.320 C  
BRANCH   9  10
HETATM   10  O   UNL     1      -9.911  14.530  66.447  1.00  0.00    -0.266 OA 
BRANCH  10  11
HETATM   11  N   UNL     1      -9.106  13.449  66.011  1.00  0.00    -0.451 NA 
HETATM   12  H   UNL     1      -8.115  13.543  65.790  1.00  0.00     0.000 HD 
BRANCH  11  13
HETATM   13  C   UNL     1      -9.757  12.320  65.921  1.00  0.00    -0.235 C  
BRANCH  13  14
HETATM   14  C   UNL     1     -10.170  11.583  67.176  1.00  0.00    -0.233 A  
HETATM   15 CL   UNL     1      -7.603  10.634  67.583  1.00  0.00    -0.092 Cl 
HETATM   16  C   UNL     1     -11.505  11.687  67.616  1.00  0.00    -0.373 A  
HETATM   17  C   UNL     1      -9.277  10.836  67.968  1.00  0.00    -0.150 A  
HETATM   18  C   UNL     1     -11.926  11.117  68.824  1.00  0.00    -0.337 A  
HETATM   19 CL   UNL     1     -11.524   9.751  71.110  1.00  0.00    -0.443 Cl 
HETATM   20  C   UNL     1     -11.019  10.412  69.606  1.00  0.00    -0.277 A  
HETATM   21  C   UNL     1      -9.705  10.256  69.177  1.00  0.00    -0.229 A  
ENDBRANCH  13  14
BRANCH  13  22
HETATM   22  C   UNL     1     -10.191  11.704  64.593  1.00  0.00    -0.281 C  
BRANCH  22  23
HETATM   23  N   UNL     1      -9.156  10.923  63.930  1.00  0.00    -0.176 NA 
HETATM   24  C   UNL     1      -7.848  10.839  64.324  1.00  0.00     0.251 A  
HETATM   25  N   UNL     1      -8.149   9.624  62.450  1.00  0.00    -0.123 NA 
HETATM   26  C   UNL     1      -9.299  10.153  62.812  1.00  0.00    -0.295 A  
HETATM   27  C   UNL     1      -7.241  10.041  63.383  1.00  0.00    -0.135 A  
ENDBRANCH  22  23
ENDBRANCH  13  22
ENDBRANCH  11  13
ENDBRANCH  10  11
ENDBRANCH   9  10
ENDBRANCH   6   9
TORSDOF 7
ENDMDL
MODEL      256
REMARK 921   NORMALIZED FREE ENERGY PREDICTED BY IDOCK:   -4.18 KCAL/MOL
REMARK 922        TOTAL FREE ENERGY PREDICTED BY IDOCK:   -7.01 KCAL/MOL
REMARK 923 INTER-LIGAND FREE ENERGY PREDICTED BY IDOCK:   -4.63 KCAL/MOL
REMARK 924 INTRA-LIGAND FREE ENERGY PREDICTED BY IDOCK:   -2.39 KCAL/MOL
REMARK 927      BINDING AFFINITY PREDICTED BY RF-SCORE:    0.00 PKD
ROOT
HETATM    1 CL   UNL     1     -10.206   9.061  66.664  1.00  0.00    -0.345 Cl 
HETATM    2  C   UNL     1      -9.692   9.040  68.305  1.00  0.00    -0.152 A  
HETATM    3  C   UNL     1      -8.379   8.692  68.613  1.00  0.00    -0.122 A  
HETATM    4  C   UNL     1      -7.988   8.602  69.956  1.00  0.00    -0.106 A  
HETATM    5 CL   UNL     1      -6.340   8.164  70.260  1.00  0.00    -0.036 Cl 
HETATM    6  C   UNL     1      -8.895   8.844  71.009  1.00  0.00    -0.285 A  
HETATM    7  C   UNL     1     -10.194   9.250  70.665  1.00  0.00    -0.335 A  
HETATM    8  C   UNL     1     -10.589   9.345  69.323  1.00  0.00    -0.239 A  
ENDROOT
BRANCH   6   9
HETATM    9  C   UNL     1      -8.505   8.549  72.452  1.00  0.00    -0.126 C  
BRANCH   9  10
HETATM   10  O   UNL     1      -8.963   7.278  72.964  1.00  0.00    -0.127 OA 
BRANCH  10  11
HETATM   11  N   UNL     1      -7.941   6.308  72.817  1.00  0.00    -0.105 NA 
HETATM   12  H   UNL     1      -6.976   6.464  73.109  1.00  0.00     0.000 HD 
BRANCH  11  13
HETATM   13  C   UNL     1      -8.355   5.196  72.270  1.00  0.00    -0.121 C  
BRANCH  13  14
HETATM   14  C   UNL     1      -9.059   5.227  70.931  1.00  0.00    -0.168 A  
HETATM   15 CL   UNL     1     -11.492   5.807  72.112  1.00  0.00    -0.325 Cl 
HETATM   16  C   UNL     1      -8.300   5.024  69.761  1.00  0.00    -0.088 A  
HETATM   17  C   UNL     1     -10.431   5.506  70.781  1.00  0.00    -0.260 A  
HETATM   18  C   UNL     1      -8.870   5.145  68.487  1.00  0.00    -0.109 A  
HETATM   19 CL   UNL     1     -10.908   5.644  66.799  1.00  0.00    -0.344 Cl 
HETATM   20  C   UNL     1     -10.218   5.452  68.363  1.00  0.00    -0.163 A  
HETATM   21  C   UNL     1     -11.003   5.617  69.500  1.00  0.00    -0.266 A  
ENDBRANCH  13  14
BRANCH  13  22
HETATM   22  C   UNL     1      -8.117   3.819  72.886  1.00  0.00    -0.086 C  
BRANCH  22  23
HETATM   23  N   UNL     1      -9.323   3.017  73.039  1.00  0.00    -0.090 NA 
HETATM   24  C   UNL     1      -9.690   1.971  72.235  1.00  0.00    -0.118 A  
HETATM   25  N   UNL     1     -11.270   2.302  73.807  1.00  0.00    -0.201 NA 
HETATM   26  C   UNL     1     -10.291   3.163  73.989  1.00  0.00    -0.159 A  
HETATM   27  C   UNL     1     -10.907   1.555  72.720  1.00  0.00    -0.150 A  
ENDBRANCH  22  23
ENDBRANCH  13  22
ENDBRANCH  11  13
ENDBRANCH  10  11
ENDBRANCH   9  10
ENDBRANCH   6   9
TORSDOF 7
ENDMDL
MODEL      257
REMARK 921   NORMALIZED FREE ENERGY PREDICTED BY IDOCK:   -4.17 KCAL/MOL
REMARK 922        TOTAL FREE ENERGY PREDICTED BY IDOCK:   -6.99 KCAL/MOL
REMARK 923 INTER-LIGAND FREE ENERGY PREDICTED BY IDOCK:   -6.42 KCAL/MOL
REMARK 924 INTRA-LIGAND FREE ENERGY PREDICTED BY IDOCK:   -0.57 KCAL/MOL
REMARK 927      BINDING AFFINITY PREDICTED BY RF-SCORE:    0.00 PKD
ROOT
HETATM    1 CL   UNL     1      -5.519  18.348  70.155  1.00  0.00    -0.233 Cl 
HETATM    2  C   UNL     1      -6.334  17.188  69.182  1.00  0.00    -0.220 A  
HETATM    3  C   UNL     1      -7.583  17.493  68.646  1.00  0.00    -0.273 A  
HETATM    4  C   UNL     1      -8.276  16.516  67.917  1.00  0.00    -0.168 A  
HETATM    5 CL   UNL     1      -9.822  16.969  67.282  1.00  0.00    -0.254 Cl 
HETATM    6  C   UNL     1      -7.746  15.222  67.723  1.00  0.00    -0.164 A  
HETATM    7  C   UNL     1      -6.460  14.967  68.225  1.00  0.00    -0.120 A  
HETATM    8  C   UNL     1      -5.761  15.942  68.951  1.00  0.00    -0.108 A  
ENDROOT
BRANCH   6   9
HETATM    9  C   UNL     1      -8.596  14.121  67.102  1.00  0.00    -0.214 C  
BRANCH   9  10
HETATM   10  O   UNL     1      -9.358  13.331  68.043  1.00  0.00    -0.204 OA 
BRANCH  10  11
HETATM   11  N   UNL     1      -9.162  11.954  67.777  1.00  0.00    -0.178 NA 
HETATM   12  H   UNL     1      -8.241  11.515  67.746  1.00  0.00     0.000 HD 
BRANCH  11  13
HETATM   13  C   UNL     1     -10.274  11.300  67.575  1.00  0.00    -0.189 C  
BRANCH  13  14
HETATM   14  C   UNL     1     -10.338   9.813  67.849  1.00  0.00    -0.258 A  
HETATM   15 CL   UNL     1      -9.214   9.212  65.393  1.00  0.00    -0.278 Cl 
HETATM   16  C   UNL     1     -10.833   9.373  69.092  1.00  0.00    -0.176 A  
HETATM   17  C   UNL     1      -9.876   8.836  66.946  1.00  0.00    -0.229 A  
HETATM   18  C   UNL     1     -10.820   8.018  69.449  1.00  0.00    -0.104 A  
HETATM   19 CL   UNL     1     -10.272   5.418  69.009  1.00  0.00    -0.287 Cl 
HETATM   20  C   UNL     1     -10.329   7.075  68.555  1.00  0.00    -0.186 A  
HETATM   21  C   UNL     1      -9.873   7.475  67.302  1.00  0.00    -0.236 A  
ENDBRANCH  13  14
BRANCH  13  22
HETATM   22  C   UNL     1     -11.571  11.967  67.121  1.00  0.00    -0.316 C  
BRANCH  22  23
HETATM   23  N   UNL     1     -11.666  12.171  65.682  1.00  0.00    -0.406 NA 
HETATM   24  C   UNL     1     -12.714  12.764  65.031  1.00  0.00    -0.380 A  
HETATM   25  N   UNL     1     -11.174  12.096  63.527  1.00  0.00    -0.448 NA 
HETATM   26  C   UNL     1     -10.748  11.809  64.740  1.00  0.00    -0.302 A  
HETATM   27  C   UNL     1     -12.393  12.691  63.696  1.00  0.00    -0.492 A  
ENDBRANCH  22  23
ENDBRANCH  13  22
ENDBRANCH  11  13
ENDBRANCH  10  11
ENDBRANCH   9  10
ENDBRANCH   6   9
TORSDOF 7
ENDMDL
MODEL      258
REMARK 921   NORMALIZED FREE ENERGY PREDICTED BY IDOCK:   -4.16 KCAL/MOL
REMARK 922        TOTAL FREE ENERGY PREDICTED BY IDOCK:   -6.99 KCAL/MOL
REMARK 923 INTER-LIGAND FREE ENERGY PREDICTED BY IDOCK:   -6.32 KCAL/MOL
REMARK 924 INTRA-LIGAND FREE ENERGY PREDICTED BY IDOCK:   -0.67 KCAL/MOL
REMARK 927      BINDING AFFINITY PREDICTED BY RF-SCORE:    0.00 PKD
ROOT
HETATM    1 CL   UNL     1     -12.483  12.411  63.260  1.00  0.00    -0.556 Cl 
HETATM    2  C   UNL     1     -11.749  12.121  64.788  1.00  0.00    -0.327 A  
HETATM    3  C   UNL     1     -10.718  11.190  64.892  1.00  0.00    -0.318 A  
HETATM    4  C   UNL     1     -10.176  10.902  66.152  1.00  0.00    -0.249 A  
HETATM    5 CL   UNL     1      -8.897   9.735  66.202  1.00  0.00    -0.154 Cl 
HETATM    6  C   UNL     1     -10.658  11.522  67.325  1.00  0.00    -0.266 A  
HETATM    7  C   UNL     1     -11.657  12.498  67.178  1.00  0.00    -0.437 A  
HETATM    8  C   UNL     1     -12.199  12.793  65.919  1.00  0.00    -0.422 A  
ENDROOT
BRANCH   6   9
HETATM    9  C   UNL     1     -10.194  11.052  68.698  1.00  0.00    -0.199 C  
BRANCH   9  10
HETATM   10  O   UNL     1     -10.842   9.857  69.188  1.00  0.00    -0.218 OA 
BRANCH  10  11
HETATM   11  N   UNL     1     -10.175   9.394  70.348  1.00  0.00    -0.235 NA 
HETATM   12  H   UNL     1     -10.139   9.921  71.221  1.00  0.00     0.000 HD 
BRANCH  11  13
HETATM   13  C   UNL     1      -9.609   8.227  70.192  1.00  0.00    -0.167 C  
BRANCH  13  14
HETATM   14  C   UNL     1      -9.737   7.174  71.271  1.00  0.00    -0.170 A  
HETATM   15 CL   UNL     1      -7.772   8.370  72.809  1.00  0.00    -0.161 Cl 
HETATM   16  C   UNL     1     -10.703   6.160  71.118  1.00  0.00    -0.312 A  
HETATM   17  C   UNL     1      -8.977   7.180  72.457  1.00  0.00    -0.127 A  
HETATM   18  C   UNL     1     -10.944   5.219  72.127  1.00  0.00    -0.226 A  
HETATM   19 CL   UNL     1     -10.530   4.136  74.559  1.00  0.00    -0.282 Cl 
HETATM   20  C   UNL     1     -10.205   5.264  73.302  1.00  0.00    -0.189 A  
HETATM   21  C   UNL     1      -9.214   6.228  73.464  1.00  0.00    -0.137 A  
ENDBRANCH  13  14
BRANCH  13  22
HETATM   22  C   UNL     1      -8.851   7.823  68.929  1.00  0.00    -0.135 C  
BRANCH  22  23
HETATM   23  N   UNL     1      -9.537   6.832  68.111  1.00  0.00    -0.123 NA 
HETATM   24  C   UNL     1      -9.136   5.537  67.929  1.00  0.00    -0.107 A  
HETATM   25  N   UNL     1     -10.999   5.924  66.722  1.00  0.00    -0.274 NA 
HETATM   26  C   UNL     1     -10.679   7.014  67.388  1.00  0.00    -0.313 A  
HETATM   27  C   UNL     1     -10.048   4.999  67.052  1.00  0.00    -0.214 A  
ENDBRANCH  22  23
ENDBRANCH  13  22
ENDBRANCH  11  13
ENDBRANCH  10  11
ENDBRANCH   9  10
ENDBRANCH   6   9
TORSDOF 7
ENDMDL
MODEL      259
REMARK 921   NORMALIZED FREE ENERGY PREDICTED BY IDOCK:   -4.15 KCAL/MOL
REMARK 922        TOTAL FREE ENERGY PREDICTED BY IDOCK:   -6.97 KCAL/MOL
REMARK 923 INTER-LIGAND FREE ENERGY PREDICTED BY IDOCK:   -6.95 KCAL/MOL
REMARK 924 INTRA-LIGAND FREE ENERGY PREDICTED BY IDOCK:   -0.02 KCAL/MOL
REMARK 927      BINDING AFFINITY PREDICTED BY RF-SCORE:    0.00 PKD
ROOT
HETATM    1 CL   UNL     1      -7.471   8.900  62.620  1.00  0.00    -0.100 Cl 
HETATM    2  C   UNL     1      -8.103   9.869  63.891  1.00  0.00    -0.152 A  
HETATM    3  C   UNL     1      -9.286  10.578  63.695  1.00  0.00    -0.324 A  
HETATM    4  C   UNL     1      -9.755  11.427  64.708  1.00  0.00    -0.244 A  
HETATM    5 CL   UNL     1     -11.232  12.274  64.391  1.00  0.00    -0.364 Cl 
HETATM    6  C   UNL     1      -9.052  11.593  65.920  1.00  0.00    -0.155 A  
HETATM    7  C   UNL     1      -7.896  10.820  66.109  1.00  0.00    -0.155 A  
HETATM    8  C   UNL     1      -7.425   9.966  65.101  1.00  0.00    -0.133 A  
ENDROOT
BRANCH   6   9
HETATM    9  C   UNL     1      -9.472  12.663  66.919  1.00  0.00    -0.229 C  
BRANCH   9  10
HETATM   10  O   UNL     1      -9.436  14.019  66.418  1.00  0.00    -0.282 OA 
BRANCH  10  11
HETATM   11  N   UNL     1     -10.683  14.647  66.655  1.00  0.00    -0.299 NA 
HETATM   12  H   UNL     1     -11.531  14.420  66.137  1.00  0.00     0.000 HD 
BRANCH  11  13
HETATM   13  C   UNL     1     -10.640  15.546  67.602  1.00  0.00    -0.291 C  
BRANCH  13  14
HETATM   14  C   UNL     1     -11.313  15.277  68.931  1.00  0.00    -0.315 A  
HETATM   15 CL   UNL     1     -12.198  12.793  68.092  1.00  0.00    -0.130 Cl 
HETATM   16  C   UNL     1     -11.204  16.240  69.953  1.00  0.00    -0.319 A  
HETATM   17  C   UNL     1     -12.000  14.084  69.226  1.00  0.00    -0.353 A  
HETATM   18  C   UNL     1     -11.712  16.007  71.238  1.00  0.00    -0.516 A  
HETATM   19 CL   UNL     1     -12.943  14.504  73.104  1.00  0.00    -0.603 Cl 
HETATM   20  C   UNL     1     -12.358  14.810  71.516  1.00  0.00    -0.344 A  
HETATM   21  C   UNL     1     -12.519  13.857  70.514  1.00  0.00    -0.422 A  
ENDBRANCH  13  14
BRANCH  13  22
HETATM   22  C   UNL     1      -9.885  16.867  67.473  1.00  0.00    -0.260 C  
BRANCH  22  23
HETATM   23  N   UNL     1      -8.438  16.742  67.585  1.00  0.00    -0.189 NA 
HETATM   24  C   UNL     1      -7.535  17.053  66.605  1.00  0.00    -0.265 A  
HETATM   25  N   UNL     1      -6.444  16.262  68.410  1.00  0.00    -0.127 NA 
HETATM   26  C   UNL     1      -7.735  16.296  68.665  1.00  0.00    -0.192 A  
HETATM   27  C   UNL     1      -6.308  16.732  67.133  1.00  0.00    -0.188 A  
ENDBRANCH  22  23
ENDBRANCH  13  22
ENDBRANCH  11  13
ENDBRANCH  10  11
ENDBRANCH   9  10
ENDBRANCH   6   9
TORSDOF 7
ENDMDL
MODEL      260
REMARK 921   NORMALIZED FREE ENERGY PREDICTED BY IDOCK:   -4.14 KCAL/MOL
REMARK 922        TOTAL FREE ENERGY PREDICTED BY IDOCK:   -6.95 KCAL/MOL
REMARK 923 INTER-LIGAND FREE ENERGY PREDICTED BY IDOCK:   -6.16 KCAL/MOL
REMARK 924 INTRA-LIGAND FREE ENERGY PREDICTED BY IDOCK:   -0.79 KCAL/MOL
REMARK 927      BINDING AFFINITY PREDICTED BY RF-SCORE:    0.00 PKD
ROOT
HETATM    1 CL   UNL     1      -9.694   6.319  74.145  1.00  0.00    -0.212 Cl 
HETATM    2  C   UNL     1     -10.267   7.519  73.056  1.00  0.00    -0.306 A  
HETATM    3  C   UNL     1     -11.630   7.610  72.784  1.00  0.00    -0.334 A  
HETATM    4  C   UNL     1     -12.082   8.539  71.837  1.00  0.00    -0.349 A  
HETATM    5 CL   UNL     1     -13.790   8.593  71.553  1.00  0.00    -0.403 Cl 
HETATM    6  C   UNL     1     -11.190   9.380  71.139  1.00  0.00    -0.427 A  
HETATM    7  C   UNL     1      -9.829   9.304  71.479  1.00  0.00    -0.245 A  
HETATM    8  C   UNL     1      -9.373   8.379  72.429  1.00  0.00    -0.356 A  
ENDROOT
BRANCH   6   9
HETATM    9  C   UNL     1     -11.678  10.238  69.979  1.00  0.00    -0.254 C  
BRANCH   9  10
HETATM   10  O   UNL     1     -11.017   9.996  68.717  1.00  0.00    -0.224 OA 
BRANCH  10  11
HETATM   11  N   UNL     1     -10.893   8.602  68.502  1.00  0.00    -0.441 NA 
HETATM   12  H   UNL     1     -11.601   7.927  68.790  1.00  0.00     0.000 HD 
BRANCH  11  13
HETATM   13  C   UNL     1      -9.785   8.265  67.898  1.00  0.00    -0.161 C  
BRANCH  13  14
HETATM   14  C   UNL     1      -9.548   6.824  67.501  1.00  0.00    -0.146 A  
HETATM   15 CL   UNL     1     -10.088   5.926  70.061  1.00  0.00    -0.239 Cl 
HETATM   16  C   UNL     1      -9.233   6.534  66.158  1.00  0.00    -0.126 A  
HETATM   17  C   UNL     1      -9.679   5.741  68.391  1.00  0.00    -0.133 A  
HETATM   18  C   UNL     1      -9.106   5.216  65.703  1.00  0.00    -0.161 A  
HETATM   19 CL   UNL     1      -9.160   2.542  66.025  1.00  0.00    -0.126 Cl 
HETATM   20  C   UNL     1      -9.272   4.162  66.592  1.00  0.00    -0.155 A  
HETATM   21  C   UNL     1      -9.541   4.418  67.934  1.00  0.00    -0.205 A  
ENDBRANCH  13  14
BRANCH  13  22
HETATM   22  C   UNL     1      -8.704   9.269  67.505  1.00  0.00    -0.115 C  
BRANCH  22  23
HETATM   23  N   UNL     1      -8.823   9.774  66.144  1.00  0.00    -0.138 NA 
HETATM   24  C   UNL     1      -9.975  10.230  65.563  1.00  0.00    -0.296 A  
HETATM   25  N   UNL     1      -8.291  10.325  64.069  1.00  0.00    -0.165 NA 
HETATM   26  C   UNL     1      -7.827   9.875  65.216  1.00  0.00    -0.131 A  
HETATM   27  C   UNL     1      -9.623  10.551  64.273  1.00  0.00    -0.307 A  
ENDBRANCH  22  23
ENDBRANCH  13  22
ENDBRANCH  11  13
ENDBRANCH  10  11
ENDBRANCH   9  10
ENDBRANCH   6   9
TORSDOF 7
ENDMDL
MODEL      261
REMARK 921   NORMALIZED FREE ENERGY PREDICTED BY IDOCK:   -4.12 KCAL/MOL
REMARK 922        TOTAL FREE ENERGY PREDICTED BY IDOCK:   -6.92 KCAL/MOL
REMARK 923 INTER-LIGAND FREE ENERGY PREDICTED BY IDOCK:   -5.53 KCAL/MOL
REMARK 924 INTRA-LIGAND FREE ENERGY PREDICTED BY IDOCK:   -1.40 KCAL/MOL
REMARK 927      BINDING AFFINITY PREDICTED BY RF-SCORE:    0.00 PKD
ROOT
HETATM    1 CL   UNL     1     -10.523  10.975  64.694  1.00  0.00    -0.401 Cl 
HETATM    2  C   UNL     1      -9.744  10.780  66.214  1.00  0.00    -0.205 A  
HETATM    3  C   UNL     1      -8.552  10.064  66.292  1.00  0.00    -0.137 A  
HETATM    4  C   UNL     1      -7.962   9.843  67.544  1.00  0.00    -0.106 A  
HETATM    5 CL   UNL     1      -6.482   8.944  67.561  1.00  0.00    -0.060 Cl 
HETATM    6  C   UNL     1      -8.552  10.318  68.735  1.00  0.00    -0.139 A  
HETATM    7  C   UNL     1      -9.721  11.087  68.616  1.00  0.00    -0.198 A  
HETATM    8  C   UNL     1     -10.312  11.314  67.366  1.00  0.00    -0.233 A  
ENDROOT
BRANCH   6   9
HETATM    9  C   UNL     1      -8.003   9.900  70.093  1.00  0.00    -0.162 C  
BRANCH   9  10
HETATM   10  O   UNL     1      -8.161   8.499  70.414  1.00  0.00    -0.097 OA 
BRANCH  10  11
HETATM   11  N   UNL     1      -8.696   8.366  71.717  1.00  0.00    -0.163 NA 
HETATM   12  H   UNL     1      -8.301   8.830  72.535  1.00  0.00     0.000 HD 
BRANCH  11  13
HETATM   13  C   UNL     1      -9.746   7.590  71.771  1.00  0.00    -0.160 C  
BRANCH  13  14
HETATM   14  C   UNL     1      -9.797   6.328  70.938  1.00  0.00    -0.207 A  
HETATM   15 CL   UNL     1     -10.996   7.652  68.825  1.00  0.00    -0.007 Cl 
HETATM   16  C   UNL     1      -9.250   5.143  71.468  1.00  0.00    -0.177 A  
HETATM   17  C   UNL     1     -10.315   6.281  69.630  1.00  0.00    -0.215 A  
HETATM   18  C   UNL     1      -9.170   3.968  70.709  1.00  0.00    -0.197 A  
HETATM   19 CL   UNL     1      -9.520   2.525  68.462  1.00  0.00    -0.250 Cl 
HETATM   20  C   UNL     1      -9.658   3.954  69.409  1.00  0.00    -0.169 A  
HETATM   21  C   UNL     1     -10.244   5.097  68.873  1.00  0.00    -0.221 A  
ENDBRANCH  13  14
BRANCH  13  22
HETATM   22  C   UNL     1     -10.938   7.852  72.689  1.00  0.00    -0.378 C  
BRANCH  22  23
HETATM   23  N   UNL     1     -11.985   8.668  72.092  1.00  0.00    -0.367 NA 
HETATM   24  C   UNL     1     -13.318   8.358  72.066  1.00  0.00    -0.343 A  
HETATM   25  N   UNL     1     -12.978  10.308  70.990  1.00  0.00    -0.384 NA 
HETATM   26  C   UNL     1     -11.830   9.865  71.456  1.00  0.00    -0.365 A  
HETATM   27  C   UNL     1     -13.911   9.380  71.364  1.00  0.00    -0.189 A  
ENDBRANCH  22  23
ENDBRANCH  13  22
ENDBRANCH  11  13
ENDBRANCH  10  11
ENDBRANCH   9  10
ENDBRANCH   6   9
TORSDOF 7
ENDMDL
MODEL      262
REMARK 921   NORMALIZED FREE ENERGY PREDICTED BY IDOCK:   -4.12 KCAL/MOL
REMARK 922        TOTAL FREE ENERGY PREDICTED BY IDOCK:   -6.92 KCAL/MOL
REMARK 923 INTER-LIGAND FREE ENERGY PREDICTED BY IDOCK:   -5.78 KCAL/MOL
REMARK 924 INTRA-LIGAND FREE ENERGY PREDICTED BY IDOCK:   -1.15 KCAL/MOL
REMARK 927      BINDING AFFINITY PREDICTED BY RF-SCORE:    0.00 PKD
ROOT
HETATM    1 CL   UNL     1     -10.653   2.288  63.386  1.00  0.00    -0.188 Cl 
HETATM    2  C   UNL     1      -9.716   3.595  63.993  1.00  0.00    -0.165 A  
HETATM    3  C   UNL     1     -10.028   4.152  65.232  1.00  0.00    -0.216 A  
HETATM    4  C   UNL     1      -9.309   5.266  65.686  1.00  0.00    -0.114 A  
HETATM    5 CL   UNL     1      -9.755   5.901  67.235  1.00  0.00    -0.127 Cl 
HETATM    6  C   UNL     1      -8.282   5.850  64.915  1.00  0.00    -0.135 A  
HETATM    7  C   UNL     1      -7.953   5.229  63.699  1.00  0.00    -0.101 A  
HETATM    8  C   UNL     1      -8.666   4.112  63.242  1.00  0.00    -0.112 A  
ENDROOT
BRANCH   6   9
HETATM    9  C   UNL     1      -7.652   7.171  65.335  1.00  0.00    -0.100 C  
BRANCH   9  10
HETATM   10  O   UNL     1      -8.019   8.311  64.526  1.00  0.00    -0.132 OA 
BRANCH  10  11
HETATM   11  N   UNL     1      -9.327   8.734  64.863  1.00  0.00    -0.370 NA 
HETATM   12  H   UNL     1     -10.170   8.308  64.479  1.00  0.00     0.000 HD 
BRANCH  11  13
HETATM   13  C   UNL     1      -9.349   9.725  65.715  1.00  0.00    -0.221 C  
BRANCH  13  14
HETATM   14  C   UNL     1      -9.329   9.445  67.202  1.00  0.00    -0.172 A  
HETATM   15 CL   UNL     1      -6.638  10.061  67.382  1.00  0.00    -0.068 Cl 
HETATM   16  C   UNL     1     -10.531   9.075  67.838  1.00  0.00    -0.291 A  
HETATM   17  C   UNL     1      -8.181   9.587  68.004  1.00  0.00    -0.114 A  
HETATM   18  C   UNL     1     -10.603   8.905  69.227  1.00  0.00    -0.219 A  
HETATM   19 CL   UNL     1      -9.562   8.918  71.711  1.00  0.00    -0.368 Cl 
HETATM   20  C   UNL     1      -9.464   9.082  70.002  1.00  0.00    -0.187 A  
HETATM   21  C   UNL     1      -8.253   9.406  69.397  1.00  0.00    -0.119 A  
ENDBRANCH  13  14
BRANCH  13  22
HETATM   22  C   UNL     1      -9.337  11.193  65.296  1.00  0.00    -0.219 C  
BRANCH  22  23
HETATM   23  N   UNL     1     -10.619  11.687  64.811  1.00  0.00    -0.289 NA 
HETATM   24  C   UNL     1     -11.608  12.228  65.588  1.00  0.00    -0.380 A  
HETATM   25  N   UNL     1     -12.287  12.166  63.440  1.00  0.00    -0.567 NA 
HETATM   26  C   UNL     1     -11.060  11.695  63.520  1.00  0.00    -0.393 A  
HETATM   27  C   UNL     1     -12.637  12.502  64.718  1.00  0.00    -0.413 A  
ENDBRANCH  22  23
ENDBRANCH  13  22
ENDBRANCH  11  13
ENDBRANCH  10  11
ENDBRANCH   9  10
ENDBRANCH   6   9
TORSDOF 7
ENDMDL
MODEL      263
REMARK 921   NORMALIZED FREE ENERGY PREDICTED BY IDOCK:   -4.11 KCAL/MOL
REMARK 922        TOTAL FREE ENERGY PREDICTED BY IDOCK:   -6.91 KCAL/MOL
REMARK 923 INTER-LIGAND FREE ENERGY PREDICTED BY IDOCK:   -6.36 KCAL/MOL
REMARK 924 INTRA-LIGAND FREE ENERGY PREDICTED BY IDOCK:   -0.56 KCAL/MOL
REMARK 927      BINDING AFFINITY PREDICTED BY RF-SCORE:    0.00 PKD
ROOT
HETATM    1 CL   UNL     1     -10.363   6.571  74.262  1.00  0.00    -0.362 Cl 
HETATM    2  C   UNL     1     -10.555   7.752  73.028  1.00  0.00    -0.379 A  
HETATM    3  C   UNL     1     -11.833   8.182  72.677  1.00  0.00    -0.389 A  
HETATM    4  C   UNL     1     -11.987   9.088  71.619  1.00  0.00    -0.356 A  
HETATM    5 CL   UNL     1     -13.606   9.575  71.241  1.00  0.00    -0.368 Cl 
HETATM    6  C   UNL     1     -10.880   9.569  70.888  1.00  0.00    -0.407 A  
HETATM    7  C   UNL     1      -9.603   9.163  71.306  1.00  0.00    -0.331 A  
HETATM    8  C   UNL     1      -9.443   8.260  72.366  1.00  0.00    -0.357 A  
ENDROOT
BRANCH   6   9
HETATM    9  C   UNL     1     -11.085  10.393  69.624  1.00  0.00    -0.276 C  
BRANCH   9  10
HETATM   10  O   UNL     1      -9.991  11.274  69.281  1.00  0.00    -0.105 OA 
BRANCH  10  11
HETATM   11  N   UNL     1     -10.404  12.621  69.414  1.00  0.00    -0.252 NA 
HETATM   12  H   UNL     1     -10.943  12.966  70.208  1.00  0.00     0.000 HD 
BRANCH  11  13
HETATM   13  C   UNL     1     -10.026  13.381  68.421  1.00  0.00    -0.231 C  
BRANCH  13  14
HETATM   14  C   UNL     1     -10.698  13.250  67.071  1.00  0.00    -0.263 A  
HETATM   15 CL   UNL     1     -12.007  15.668  67.376  1.00  0.00     0.270 Cl 
HETATM   16  C   UNL     1     -10.402  12.127  66.273  1.00  0.00    -0.250 A  
HETATM   17  C   UNL     1     -11.566  14.221  66.537  1.00  0.00    -0.378 A  
HETATM   18  C   UNL     1     -10.906  11.998  64.972  1.00  0.00    -0.351 A  
HETATM   19 CL   UNL     1     -12.319  12.849  62.842  1.00  0.00    -0.056 Cl 
HETATM   20  C   UNL     1     -11.735  12.985  64.454  1.00  0.00    -0.373 A  
HETATM   21  C   UNL     1     -12.080  14.085  65.235  1.00  0.00    -0.415 A  
ENDBRANCH  13  14
BRANCH  13  22
HETATM   22  C   UNL     1      -8.959  14.465  68.550  1.00  0.00    -0.187 C  
BRANCH  22  23
HETATM   23  N   UNL     1      -7.632  14.053  68.115  1.00  0.00    -0.127 NA 
HETATM   24  C   UNL     1      -6.526  14.858  68.063  1.00  0.00    -0.150 A  
HETATM   25  N   UNL     1      -5.994  12.800  67.315  1.00  0.00    -0.309 NA 
HETATM   26  C   UNL     1      -7.259  12.814  67.681  1.00  0.00    -0.141 A  
HETATM   27  C   UNL     1      -5.528  14.064  67.550  1.00  0.00     0.186 A  
ENDBRANCH  22  23
ENDBRANCH  13  22
ENDBRANCH  11  13
ENDBRANCH  10  11
ENDBRANCH   9  10
ENDBRANCH   6   9
TORSDOF 7
ENDMDL
MODEL      264
REMARK 921   NORMALIZED FREE ENERGY PREDICTED BY IDOCK:   -4.10 KCAL/MOL
REMARK 922        TOTAL FREE ENERGY PREDICTED BY IDOCK:   -6.90 KCAL/MOL
REMARK 923 INTER-LIGAND FREE ENERGY PREDICTED BY IDOCK:   -4.88 KCAL/MOL
REMARK 924 INTRA-LIGAND FREE ENERGY PREDICTED BY IDOCK:   -2.02 KCAL/MOL
REMARK 927      BINDING AFFINITY PREDICTED BY RF-SCORE:    0.00 PKD
ROOT
HETATM    1 CL   UNL     1     -10.755   5.750  68.199  1.00  0.00    -0.298 Cl 
HETATM    2  C   UNL     1      -9.753   6.993  67.561  1.00  0.00    -0.136 A  
HETATM    3  C   UNL     1     -10.312   7.989  66.764  1.00  0.00    -0.360 A  
HETATM    4  C   UNL     1      -9.478   8.956  66.185  1.00  0.00    -0.251 A  
HETATM    5 CL   UNL     1     -10.246  10.162  65.207  1.00  0.00    -0.337 Cl 
HETATM    6  C   UNL     1      -8.081   8.939  66.376  1.00  0.00    -0.110 A  
HETATM    7  C   UNL     1      -7.556   7.957  67.232  1.00  0.00    -0.101 A  
HETATM    8  C   UNL     1      -8.386   6.991  67.817  1.00  0.00    -0.117 A  
ENDROOT
BRANCH   6   9
HETATM    9  C   UNL     1      -7.177   9.874  65.582  1.00  0.00    -0.113 C  
BRANCH   9  10
HETATM   10  O   UNL     1      -7.376  11.283  65.838  1.00  0.00     0.031 OA 
BRANCH  10  11
HETATM   11  N   UNL     1      -6.372  11.753  66.719  1.00  0.00    -0.296 NA 
HETATM   12  H   UNL     1      -5.375  11.701  66.510  1.00  0.00     0.000 HD 
BRANCH  11  13
HETATM   13  C   UNL     1      -6.847  12.259  67.825  1.00  0.00    -0.109 C  
BRANCH  13  14
HETATM   14  C   UNL     1      -8.023  11.601  68.514  1.00  0.00    -0.144 A  
HETATM   15 CL   UNL     1      -9.838  13.155  67.118  1.00  0.00    -0.231 Cl 
HETATM   16  C   UNL     1      -7.776  10.566  69.437  1.00  0.00    -0.157 A  
HETATM   17  C   UNL     1      -9.366  11.930  68.243  1.00  0.00    -0.193 A  
HETATM   18  C   UNL     1      -8.822   9.846  70.029  1.00  0.00    -0.194 A  
HETATM   19 CL   UNL     1     -11.421   9.253  70.414  1.00  0.00    -0.278 Cl 
HETATM   20  C   UNL     1     -10.138  10.165  69.722  1.00  0.00    -0.231 A  
HETATM   21  C   UNL     1     -10.414  11.212  68.847  1.00  0.00    -0.233 A  
ENDBRANCH  13  14
BRANCH  13  22
HETATM   22  C   UNL     1      -6.241  13.476  68.521  1.00  0.00    -0.090 C  
BRANCH  22  23
HETATM   23  N   UNL     1      -7.068  14.673  68.460  1.00  0.00    -0.105 NA 
HETATM   24  C   UNL     1      -7.186  15.504  67.378  1.00  0.00    -0.209 A  
HETATM   25  N   UNL     1      -8.427  16.304  69.080  1.00  0.00    -0.249 NA 
HETATM   26  C   UNL     1      -7.854  15.179  69.453  1.00  0.00    -0.208 A  
HETATM   27  C   UNL     1      -8.020  16.515  67.792  1.00  0.00    -0.160 A  
ENDBRANCH  22  23
ENDBRANCH  13  22
ENDBRANCH  11  13
ENDBRANCH  10  11
ENDBRANCH   9  10
ENDBRANCH   6   9
TORSDOF 7
ENDMDL
MODEL      265
REMARK 921   NORMALIZED FREE ENERGY PREDICTED BY IDOCK:   -4.07 KCAL/MOL
REMARK 922        TOTAL FREE ENERGY PREDICTED BY IDOCK:   -6.86 KCAL/MOL
REMARK 923 INTER-LIGAND FREE ENERGY PREDICTED BY IDOCK:   -5.78 KCAL/MOL
REMARK 924 INTRA-LIGAND FREE ENERGY PREDICTED BY IDOCK:   -1.08 KCAL/MOL
REMARK 927      BINDING AFFINITY PREDICTED BY RF-SCORE:    0.00 PKD
ROOT
HETATM    1 CL   UNL     1      -7.427  16.708  69.154  1.00  0.00    -0.231 Cl 
HETATM    2  C   UNL     1      -8.735  15.822  68.473  1.00  0.00    -0.184 A  
HETATM    3  C   UNL     1      -8.978  15.894  67.104  1.00  0.00    -0.226 A  
HETATM    4  C   UNL     1     -10.090  15.232  66.567  1.00  0.00    -0.270 A  
HETATM    5 CL   UNL     1     -10.327  15.367  64.856  1.00  0.00    -0.352 Cl 
HETATM    6  C   UNL     1     -10.981  14.501  67.381  1.00  0.00    -0.306 A  
HETATM    7  C   UNL     1     -10.675  14.400  68.748  1.00  0.00    -0.258 A  
HETATM    8  C   UNL     1      -9.561  15.057  69.289  1.00  0.00    -0.181 A  
ENDROOT
BRANCH   6   9
HETATM    9  C   UNL     1     -12.285  13.958  66.811  1.00  0.00    -0.399 C  
BRANCH   9  10
HETATM   10  O   UNL     1     -12.229  12.589  66.349  1.00  0.00    -0.584 OA 
BRANCH  10  11
HETATM   11  N   UNL     1     -10.899  12.259  65.996  1.00  0.00    -0.265 NA 
HETATM   12  H   UNL     1     -10.321  12.839  65.388  1.00  0.00     0.000 HD 
BRANCH  11  13
HETATM   13  C   UNL     1     -10.483  11.139  66.525  1.00  0.00    -0.255 C  
BRANCH  13  14
HETATM   14  C   UNL     1      -9.215  10.487  66.017  1.00  0.00    -0.205 A  
HETATM   15 CL   UNL     1      -7.626  12.359  67.292  1.00  0.00    -0.153 Cl 
HETATM   16  C   UNL     1      -9.318   9.317  65.239  1.00  0.00    -0.269 A  
HETATM   17  C   UNL     1      -7.924  10.956  66.327  1.00  0.00    -0.161 A  
HETATM   18  C   UNL     1      -8.183   8.607  64.829  1.00  0.00    -0.161 A  
HETATM   19 CL   UNL     1      -5.527   8.175  64.707  1.00  0.00    -0.040 Cl 
HETATM   20  C   UNL     1      -6.919   9.070  65.173  1.00  0.00    -0.080 A  
HETATM   21  C   UNL     1      -6.784  10.247  65.904  1.00  0.00    -0.117 A  
ENDBRANCH  13  14
BRANCH  13  22
HETATM   22  C   UNL     1     -11.183  10.452  67.695  1.00  0.00    -0.213 C  
BRANCH  22  23
HETATM   23  N   UNL     1     -10.279   9.815  68.643  1.00  0.00    -0.183 NA 
HETATM   24  C   UNL     1      -9.624  10.448  69.665  1.00  0.00    -0.109 A  
HETATM   25  N   UNL     1      -9.046   8.270  69.634  1.00  0.00    -0.153 NA 
HETATM   26  C   UNL     1      -9.922   8.499  68.678  1.00  0.00    -0.184 A  
HETATM   27  C   UNL     1      -8.854   9.473  70.254  1.00  0.00    -0.243 A  
ENDBRANCH  22  23
ENDBRANCH  13  22
ENDBRANCH  11  13
ENDBRANCH  10  11
ENDBRANCH   9  10
ENDBRANCH   6   9
TORSDOF 7
ENDMDL
MODEL      266
REMARK 921   NORMALIZED FREE ENERGY PREDICTED BY IDOCK:   -4.06 KCAL/MOL
REMARK 922        TOTAL FREE ENERGY PREDICTED BY IDOCK:   -6.84 KCAL/MOL
REMARK 923 INTER-LIGAND FREE ENERGY PREDICTED BY IDOCK:   -6.02 KCAL/MOL
REMARK 924 INTRA-LIGAND FREE ENERGY PREDICTED BY IDOCK:   -0.82 KCAL/MOL
REMARK 927      BINDING AFFINITY PREDICTED BY RF-SCORE:    0.00 PKD
ROOT
HETATM    1 CL   UNL     1     -10.430   2.116  63.107  1.00  0.00    -0.138 Cl 
HETATM    2  C   UNL     1      -9.470   3.338  63.844  1.00  0.00    -0.130 A  
HETATM    3  C   UNL     1      -9.252   3.308  65.220  1.00  0.00    -0.151 A  
HETATM    4  C   UNL     1      -8.534   4.348  65.825  1.00  0.00    -0.114 A  
HETATM    5 CL   UNL     1      -8.303   4.242  67.538  1.00  0.00    -0.099 Cl 
HETATM    6  C   UNL     1      -8.034   5.436  65.077  1.00  0.00    -0.110 A  
HETATM    7  C   UNL     1      -8.220   5.405  63.686  1.00  0.00    -0.121 A  
HETATM    8  C   UNL     1      -8.934   4.365  63.075  1.00  0.00    -0.124 A  
ENDROOT
BRANCH   6   9
HETATM    9  C   UNL     1      -7.431   6.647  65.778  1.00  0.00    -0.081 C  
BRANCH   9  10
HETATM   10  O   UNL     1      -7.914   7.928  65.313  1.00  0.00    -0.110 OA 
BRANCH  10  11
HETATM   11  N   UNL     1      -8.318   8.715  66.418  1.00  0.00    -0.110 NA 
HETATM   12  H   UNL     1      -7.661   9.149  67.066  1.00  0.00     0.000 HD 
BRANCH  11  13
HETATM   13  C   UNL     1      -9.614   8.831  66.527  1.00  0.00    -0.237 C  
BRANCH  13  14
HETATM   14  C   UNL     1     -10.283  10.156  66.229  1.00  0.00    -0.288 A  
HETATM   15 CL   UNL     1      -9.619  10.000  63.548  1.00  0.00    -0.251 Cl 
HETATM   16  C   UNL     1     -10.934  10.838  67.276  1.00  0.00    -0.359 A  
HETATM   17  C   UNL     1     -10.341  10.725  64.942  1.00  0.00    -0.299 A  
HETATM   18  C   UNL     1     -11.661  12.013  67.046  1.00  0.00    -0.387 A  
HETATM   19 CL   UNL     1     -12.659  13.957  65.471  1.00  0.00    -0.546 Cl 
HETATM   20  C   UNL     1     -11.731  12.539  65.762  1.00  0.00    -0.426 A  
HETATM   21  C   UNL     1     -11.063  11.911  64.715  1.00  0.00    -0.367 A  
ENDBRANCH  13  14
BRANCH  13  22
HETATM   22  C   UNL     1     -10.534   7.669  66.892  1.00  0.00    -0.318 C  
BRANCH  22  23
HETATM   23  N   UNL     1     -10.552   7.343  68.312  1.00  0.00    -0.187 NA 
HETATM   24  C   UNL     1     -11.108   6.221  68.863  1.00  0.00    -0.362 A  
HETATM   25  N   UNL     1     -10.268   7.525  70.497  1.00  0.00    -0.199 NA 
HETATM   26  C   UNL     1     -10.033   8.087  69.330  1.00  0.00    -0.190 A  
HETATM   27  C   UNL     1     -10.933   6.363  70.219  1.00  0.00    -0.318 A  
ENDBRANCH  22  23
ENDBRANCH  13  22
ENDBRANCH  11  13
ENDBRANCH  10  11
ENDBRANCH   9  10
ENDBRANCH   6   9
TORSDOF 7
ENDMDL
MODEL      267
REMARK 921   NORMALIZED FREE ENERGY PREDICTED BY IDOCK:   -4.05 KCAL/MOL
REMARK 922        TOTAL FREE ENERGY PREDICTED BY IDOCK:   -6.82 KCAL/MOL
REMARK 923 INTER-LIGAND FREE ENERGY PREDICTED BY IDOCK:   -5.84 KCAL/MOL
REMARK 924 INTRA-LIGAND FREE ENERGY PREDICTED BY IDOCK:   -0.98 KCAL/MOL
REMARK 927      BINDING AFFINITY PREDICTED BY RF-SCORE:    0.00 PKD
ROOT
HETATM    1 CL   UNL     1     -11.090   4.528  73.188  1.00  0.00    -0.344 Cl 
HETATM    2  C   UNL     1     -10.925   5.953  72.240  1.00  0.00    -0.265 A  
HETATM    3  C   UNL     1     -11.965   6.879  72.200  1.00  0.00    -0.302 A  
HETATM    4  C   UNL     1     -11.855   8.000  71.366  1.00  0.00    -0.295 A  
HETATM    5 CL   UNL     1     -13.188   9.106  71.369  1.00  0.00    -0.370 Cl 
HETATM    6  C   UNL     1     -10.721   8.211  70.553  1.00  0.00    -0.233 A  
HETATM    7  C   UNL     1      -9.666   7.290  70.661  1.00  0.00    -0.175 A  
HETATM    8  C   UNL     1      -9.769   6.169  71.498  1.00  0.00    -0.182 A  
ENDROOT
BRANCH   6   9
HETATM    9  C   UNL     1     -10.708   9.323  69.513  1.00  0.00    -0.222 C  
BRANCH   9  10
HETATM   10  O   UNL     1      -9.921  10.484  69.866  1.00  0.00    -0.138 OA 
BRANCH  10  11
HETATM   11  N   UNL     1      -8.711  10.480  69.130  1.00  0.00    -0.212 NA 
HETATM   12  H   UNL     1      -7.907   9.905  69.378  1.00  0.00     0.000 HD 
BRANCH  11  13
HETATM   13  C   UNL     1      -8.726  11.287  68.102  1.00  0.00    -0.155 C  
BRANCH  13  14
HETATM   14  C   UNL     1      -8.231  10.805  66.756  1.00  0.00    -0.135 A  
HETATM   15 CL   UNL     1      -5.678  11.753  67.243  1.00  0.00    -0.102 Cl 
HETATM   16  C   UNL     1      -9.124  10.116  65.912  1.00  0.00    -0.190 A  
HETATM   17  C   UNL     1      -6.902  10.958  66.316  1.00  0.00    -0.123 A  
HETATM   18  C   UNL     1      -8.703   9.552  64.701  1.00  0.00    -0.233 A  
HETATM   19 CL   UNL     1      -6.850   8.958  62.838  1.00  0.00    -0.090 Cl 
HETATM   20  C   UNL     1      -7.379   9.687  64.302  1.00  0.00    -0.122 A  
HETATM   21  C   UNL     1      -6.483  10.400  65.094  1.00  0.00    -0.096 A  
ENDBRANCH  13  14
BRANCH  13  22
HETATM   22  C   UNL     1      -9.278  12.709  68.158  1.00  0.00    -0.209 C  
BRANCH  22  23
HETATM   23  N   UNL     1     -10.295  12.996  67.156  1.00  0.00    -0.242 NA 
HETATM   24  C   UNL     1     -11.579  12.520  67.168  1.00  0.00    -0.368 A  
HETATM   25  N   UNL     1     -11.258  13.775  65.325  1.00  0.00    -0.300 NA 
HETATM   26  C   UNL     1     -10.155  13.770  66.042  1.00  0.00    -0.311 A  
HETATM   27  C   UNL     1     -12.151  13.004  66.015  1.00  0.00    -0.432 A  
ENDBRANCH  22  23
ENDBRANCH  13  22
ENDBRANCH  11  13
ENDBRANCH  10  11
ENDBRANCH   9  10
ENDBRANCH   6   9
TORSDOF 7
ENDMDL
MODEL      268
REMARK 921   NORMALIZED FREE ENERGY PREDICTED BY IDOCK:   -4.04 KCAL/MOL
REMARK 922        TOTAL FREE ENERGY PREDICTED BY IDOCK:   -6.81 KCAL/MOL
REMARK 923 INTER-LIGAND FREE ENERGY PREDICTED BY IDOCK:   -5.61 KCAL/MOL
REMARK 924 INTRA-LIGAND FREE ENERGY PREDICTED BY IDOCK:   -1.19 KCAL/MOL
REMARK 927      BINDING AFFINITY PREDICTED BY RF-SCORE:    0.00 PKD
ROOT
HETATM    1 CL   UNL     1     -12.764  11.923  63.205  1.00  0.00    -0.609 Cl 
HETATM    2  C   UNL     1     -12.026  12.616  64.595  1.00  0.00    -0.402 A  
HETATM    3  C   UNL     1     -11.559  13.928  64.546  1.00  0.00    -0.409 A  
HETATM    4  C   UNL     1     -10.891  14.461  65.657  1.00  0.00    -0.317 A  
HETATM    5 CL   UNL     1     -10.339  16.098  65.522  1.00  0.00    -0.398 Cl 
HETATM    6  C   UNL     1     -10.666  13.699  66.823  1.00  0.00    -0.272 A  
HETATM    7  C   UNL     1     -11.201  12.401  66.861  1.00  0.00    -0.359 A  
HETATM    8  C   UNL     1     -11.874  11.865  65.754  1.00  0.00    -0.109 A  
ENDROOT
BRANCH   6   9
HETATM    9  C   UNL     1      -9.770  14.228  67.935  1.00  0.00    -0.222 C  
BRANCH   9  10
HETATM   10  O   UNL     1      -8.642  13.387  68.267  1.00  0.00    -0.169 OA 
BRANCH  10  11
HETATM   11  N   UNL     1      -7.817  13.224  67.128  1.00  0.00    -0.368 NA 
HETATM   12  H   UNL     1      -8.003  13.675  66.233  1.00  0.00     0.000 HD 
BRANCH  11  13
HETATM   13  C   UNL     1      -6.793  12.440  67.336  1.00  0.00    -0.147 C  
BRANCH  13  14
HETATM   14  C   UNL     1      -6.858  10.985  66.924  1.00  0.00    -0.121 A  
HETATM   15 CL   UNL     1      -8.212  10.290  69.234  1.00  0.00    -0.150 Cl 
HETATM   16  C   UNL     1      -6.320  10.608  65.678  1.00  0.00    -0.103 A  
HETATM   17  C   UNL     1      -7.480   9.986  67.697  1.00  0.00    -0.090 A  
HETATM   18  C   UNL     1      -6.442   9.300  65.191  1.00  0.00    -0.070 A  
HETATM   19 CL   UNL     1      -7.278   6.744  65.342  1.00  0.00    -0.074 Cl 
HETATM   20  C   UNL     1      -7.088   8.339  65.957  1.00  0.00    -0.069 A  
HETATM   21  C   UNL     1      -7.592   8.671  67.211  1.00  0.00    -0.093 A  
ENDBRANCH  13  14
BRANCH  13  22
HETATM   22  C   UNL     1      -5.473  12.922  67.934  1.00  0.00    -0.112 C  
BRANCH  22  23
HETATM   23  N   UNL     1      -5.506  13.118  69.377  1.00  0.00    -0.077 NA 
HETATM   24  C   UNL     1      -5.652  14.321  70.013  1.00  0.00    -0.113 A  
HETATM   25  N   UNL     1      -5.414  12.684  71.543  1.00  0.00    -0.394 NA 
HETATM   26  C   UNL     1      -5.394  12.156  70.338  1.00  0.00    -0.134 A  
HETATM   27  C   UNL     1      -5.575  14.029  71.354  1.00  0.00    -0.232 A  
ENDBRANCH  22  23
ENDBRANCH  13  22
ENDBRANCH  11  13
ENDBRANCH  10  11
ENDBRANCH   9  10
ENDBRANCH   6   9
TORSDOF 7
ENDMDL
MODEL      269
REMARK 921   NORMALIZED FREE ENERGY PREDICTED BY IDOCK:   -4.02 KCAL/MOL
REMARK 922        TOTAL FREE ENERGY PREDICTED BY IDOCK:   -6.78 KCAL/MOL
REMARK 923 INTER-LIGAND FREE ENERGY PREDICTED BY IDOCK:   -5.17 KCAL/MOL
REMARK 924 INTRA-LIGAND FREE ENERGY PREDICTED BY IDOCK:   -1.62 KCAL/MOL
REMARK 927      BINDING AFFINITY PREDICTED BY RF-SCORE:    0.00 PKD
ROOT
HETATM    1 CL   UNL     1     -11.709  15.941  64.261  1.00  0.00    -0.295 Cl 
HETATM    2  C   UNL     1     -11.455  14.516  65.189  1.00  0.00    -0.368 A  
HETATM    3  C   UNL     1     -11.044  13.345  64.557  1.00  0.00    -0.396 A  
HETATM    4  C   UNL     1     -10.913  12.168  65.306  1.00  0.00    -0.304 A  
HETATM    5 CL   UNL     1     -10.398  10.752  64.451  1.00  0.00    -0.431 Cl 
HETATM    6  C   UNL     1     -11.200  12.134  66.688  1.00  0.00    -0.375 A  
HETATM    7  C   UNL     1     -11.554  13.344  67.306  1.00  0.00    -0.400 A  
HETATM    8  C   UNL     1     -11.682  14.524  66.561  1.00  0.00    -0.380 A  
ENDROOT
BRANCH   6   9
HETATM    9  C   UNL     1     -11.242  10.809  67.439  1.00  0.00    -0.241 C  
BRANCH   9  10
HETATM   10  O   UNL     1     -10.067  10.513  68.228  1.00  0.00    -0.153 OA 
BRANCH  10  11
HETATM   11  N   UNL     1      -9.291   9.525  67.575  1.00  0.00    -0.126 NA 
HETATM   12  H   UNL     1      -9.671   8.631  67.263  1.00  0.00     0.000 HD 
BRANCH  11  13
HETATM   13  C   UNL     1      -8.042   9.869  67.412  1.00  0.00    -0.113 C  
BRANCH  13  14
HETATM   14  C   UNL     1      -7.538  11.179  67.978  1.00  0.00    -0.100 A  
HETATM   15 CL   UNL     1      -6.817   9.984  70.367  1.00  0.00    -0.142 Cl 
HETATM   16  C   UNL     1      -7.582  12.330  67.166  1.00  0.00    -0.118 A  
HETATM   17  C   UNL     1      -6.971  11.305  69.261  1.00  0.00    -0.119 A  
HETATM   18  C   UNL     1      -7.036  13.548  67.591  1.00  0.00    -0.176 A  
HETATM   19 CL   UNL     1      -5.742  15.123  69.352  1.00  0.00    -0.097 Cl 
HETATM   20  C   UNL     1      -6.452  13.641  68.848  1.00  0.00    -0.101 A  
HETATM   21  C   UNL     1      -6.432  12.532  69.689  1.00  0.00    -0.057 A  
ENDBRANCH  13  14
BRANCH  13  22
HETATM   22  C   UNL     1      -7.011   8.984  66.716  1.00  0.00    -0.081 C  
BRANCH  22  23
HETATM   23  N   UNL     1      -7.100   8.992  65.262  1.00  0.00    -0.083 NA 
HETATM   24  C   UNL     1      -6.351   9.773  64.423  1.00  0.00    -0.116 A  
HETATM   25  N   UNL     1      -7.792   8.534  63.212  1.00  0.00    -0.146 NA 
HETATM   26  C   UNL     1      -7.936   8.242  64.488  1.00  0.00    -0.146 A  
HETATM   27  C   UNL     1      -6.809   9.483  63.160  1.00  0.00    -0.103 A  
ENDBRANCH  22  23
ENDBRANCH  13  22
ENDBRANCH  11  13
ENDBRANCH  10  11
ENDBRANCH   9  10
ENDBRANCH   6   9
TORSDOF 7
ENDMDL
MODEL      270
REMARK 921   NORMALIZED FREE ENERGY PREDICTED BY IDOCK:   -4.02 KCAL/MOL
REMARK 922        TOTAL FREE ENERGY PREDICTED BY IDOCK:   -6.78 KCAL/MOL
REMARK 923 INTER-LIGAND FREE ENERGY PREDICTED BY IDOCK:   -6.11 KCAL/MOL
REMARK 924 INTRA-LIGAND FREE ENERGY PREDICTED BY IDOCK:   -0.67 KCAL/MOL
REMARK 927      BINDING AFFINITY PREDICTED BY RF-SCORE:    0.00 PKD
ROOT
HETATM    1 CL   UNL     1     -12.275  12.719  63.353  1.00  0.00    -0.623 Cl 
HETATM    2  C   UNL     1     -11.545  12.299  64.851  1.00  0.00    -0.342 A  
HETATM    3  C   UNL     1     -10.408  11.494  64.863  1.00  0.00    -0.340 A  
HETATM    4  C   UNL     1      -9.862  11.092  66.090  1.00  0.00    -0.225 A  
HETATM    5 CL   UNL     1      -8.449  10.092  66.024  1.00  0.00    -0.129 Cl 
HETATM    6  C   UNL     1     -10.443  11.472  67.319  1.00  0.00    -0.246 A  
HETATM    7  C   UNL     1     -11.552  12.332  67.273  1.00  0.00    -0.427 A  
HETATM    8  C   UNL     1     -12.099  12.740  66.048  1.00  0.00    -0.458 A  
ENDROOT
BRANCH   6   9
HETATM    9  C   UNL     1      -9.954  10.866  68.628  1.00  0.00    -0.189 C  
BRANCH   9  10
HETATM   10  O   UNL     1     -10.756   9.776  69.137  1.00  0.00    -0.212 OA 
BRANCH  10  11
HETATM   11  N   UNL     1     -10.461   9.565  70.505  1.00  0.00    -0.274 NA 
HETATM   12  H   UNL     1     -10.843  10.141  71.256  1.00  0.00     0.000 HD 
BRANCH  11  13
HETATM   13  C   UNL     1      -9.651   8.561  70.714  1.00  0.00    -0.180 C  
BRANCH  13  14
HETATM   14  C   UNL     1     -10.054   7.449  71.658  1.00  0.00    -0.200 A  
HETATM   15 CL   UNL     1     -11.364   6.079  69.642  1.00  0.00    -0.444 Cl 
HETATM   16  C   UNL     1      -9.626   7.509  72.999  1.00  0.00    -0.268 A  
HETATM   17  C   UNL     1     -10.790   6.318  71.256  1.00  0.00    -0.265 A  
HETATM   18  C   UNL     1      -9.874   6.462  73.896  1.00  0.00    -0.250 A  
HETATM   19 CL   UNL     1     -10.841   4.036  74.557  1.00  0.00    -0.127 Cl 
HETATM   20  C   UNL     1     -10.575   5.342  73.469  1.00  0.00    -0.270 A  
HETATM   21  C   UNL     1     -11.047   5.272  72.162  1.00  0.00    -0.187 A  
ENDBRANCH  13  14
BRANCH  13  22
HETATM   22  C   UNL     1      -8.309   8.403  70.004  1.00  0.00    -0.123 C  
BRANCH  22  23
HETATM   23  N   UNL     1      -7.165   8.866  70.777  1.00  0.00    -0.072 NA 
HETATM   24  C   UNL     1      -6.321   8.070  71.503  1.00  0.00    -0.040 A  
HETATM   25  N   UNL     1      -5.704  10.225  71.730  1.00  0.00    -0.304 NA 
HETATM   26  C   UNL     1      -6.739  10.154  70.920  1.00  0.00     0.142 A  
HETATM   27  C   UNL     1      -5.434   8.936  72.097  1.00  0.00    -0.059 A  
ENDBRANCH  22  23
ENDBRANCH  13  22
ENDBRANCH  11  13
ENDBRANCH  10  11
ENDBRANCH   9  10
ENDBRANCH   6   9
TORSDOF 7
ENDMDL
MODEL      271
REMARK 921   NORMALIZED FREE ENERGY PREDICTED BY IDOCK:   -4.01 KCAL/MOL
REMARK 922        TOTAL FREE ENERGY PREDICTED BY IDOCK:   -6.77 KCAL/MOL
REMARK 923 INTER-LIGAND FREE ENERGY PREDICTED BY IDOCK:   -4.98 KCAL/MOL
REMARK 924 INTRA-LIGAND FREE ENERGY PREDICTED BY IDOCK:   -1.79 KCAL/MOL
REMARK 927      BINDING AFFINITY PREDICTED BY RF-SCORE:    0.00 PKD
ROOT
HETATM    1 CL   UNL     1      -7.325   7.823  74.259  1.00  0.00    -0.157 Cl 
HETATM    2  C   UNL     1      -8.476   7.520  73.019  1.00  0.00    -0.132 A  
HETATM    3  C   UNL     1      -9.532   8.408  72.825  1.00  0.00    -0.312 A  
HETATM    4  C   UNL     1     -10.509   8.115  71.864  1.00  0.00    -0.248 A  
HETATM    5 CL   UNL     1     -11.790   9.267  71.679  1.00  0.00    -0.430 Cl 
HETATM    6  C   UNL     1     -10.460   6.934  71.093  1.00  0.00    -0.234 A  
HETATM    7  C   UNL     1      -9.352   6.090  71.272  1.00  0.00    -0.170 A  
HETATM    8  C   UNL     1      -8.370   6.380  72.229  1.00  0.00    -0.107 A  
ENDROOT
BRANCH   6   9
HETATM    9  C   UNL     1     -11.630   6.541  70.200  1.00  0.00    -0.402 C  
BRANCH   9  10
HETATM   10  O   UNL     1     -11.273   6.169  68.849  1.00  0.00    -0.372 OA 
BRANCH  10  11
HETATM   11  N   UNL     1     -11.196   7.329  68.040  1.00  0.00    -0.468 NA 
HETATM   12  H   UNL     1     -11.967   7.989  67.934  1.00  0.00     0.000 HD 
BRANCH  11  13
HETATM   13  C   UNL     1     -10.044   7.470  67.442  1.00  0.00    -0.216 C  
BRANCH  13  14
HETATM   14  C   UNL     1      -9.212   8.711  67.686  1.00  0.00    -0.148 A  
HETATM   15 CL   UNL     1      -9.914   9.783  65.234  1.00  0.00    -0.348 Cl 
HETATM   16  C   UNL     1      -8.535   8.843  68.914  1.00  0.00    -0.131 A  
HETATM   17  C   UNL     1      -9.121   9.777  66.770  1.00  0.00    -0.146 A  
HETATM   18  C   UNL     1      -7.836  10.011  69.245  1.00  0.00    -0.125 A  
HETATM   19 CL   UNL     1      -6.966  12.514  68.762  1.00  0.00    -0.092 Cl 
HETATM   20  C   UNL     1      -7.786  11.063  68.339  1.00  0.00    -0.127 A  
HETATM   21  C   UNL     1      -8.410  10.945  67.100  1.00  0.00    -0.125 A  
ENDBRANCH  13  14
BRANCH  13  22
HETATM   22  C   UNL     1      -9.435   6.409  66.529  1.00  0.00    -0.156 C  
BRANCH  22  23
HETATM   23  N   UNL     1      -8.205   5.816  67.038  1.00  0.00    -0.102 NA 
HETATM   24  C   UNL     1      -8.115   4.969  68.109  1.00  0.00    -0.086 A  
HETATM   25  N   UNL     1      -6.056   5.355  67.279  1.00  0.00    -0.029 NA 
HETATM   26  C   UNL     1      -6.944   5.999  66.551  1.00  0.00    -0.067 A  
HETATM   27  C   UNL     1      -6.772   4.710  68.249  1.00  0.00    -0.050 A  
ENDBRANCH  22  23
ENDBRANCH  13  22
ENDBRANCH  11  13
ENDBRANCH  10  11
ENDBRANCH   9  10
ENDBRANCH   6   9
TORSDOF 7
ENDMDL
MODEL      272
REMARK 921   NORMALIZED FREE ENERGY PREDICTED BY IDOCK:   -4.01 KCAL/MOL
REMARK 922        TOTAL FREE ENERGY PREDICTED BY IDOCK:   -6.77 KCAL/MOL
REMARK 923 INTER-LIGAND FREE ENERGY PREDICTED BY IDOCK:   -5.71 KCAL/MOL
REMARK 924 INTRA-LIGAND FREE ENERGY PREDICTED BY IDOCK:   -1.06 KCAL/MOL
REMARK 927      BINDING AFFINITY PREDICTED BY RF-SCORE:    0.00 PKD
ROOT
HETATM    1 CL   UNL     1      -5.973   9.409  62.955  1.00  0.00    -0.092 Cl 
HETATM    2  C   UNL     1      -7.318   9.214  64.007  1.00  0.00    -0.100 A  
HETATM    3  C   UNL     1      -8.405  10.080  63.906  1.00  0.00    -0.167 A  
HETATM    4  C   UNL     1      -9.464   9.963  64.817  1.00  0.00    -0.291 A  
HETATM    5 CL   UNL     1     -10.779  11.074  64.627  1.00  0.00    -0.367 Cl 
HETATM    6  C   UNL     1      -9.453   8.998  65.846  1.00  0.00    -0.317 A  
HETATM    7  C   UNL     1      -8.372   8.104  65.884  1.00  0.00    -0.134 A  
HETATM    8  C   UNL     1      -7.312   8.213  64.972  1.00  0.00    -0.082 A  
ENDROOT
BRANCH   6   9
HETATM    9  C   UNL     1     -10.514   9.018  66.939  1.00  0.00    -0.223 C  
BRANCH   9  10
HETATM   10  O   UNL     1     -10.139   8.358  68.169  1.00  0.00    -0.185 OA 
BRANCH  10  11
HETATM   11  N   UNL     1     -11.161   7.459  68.559  1.00  0.00    -0.382 NA 
HETATM   12  H   UNL     1     -12.129   7.542  68.246  1.00  0.00     0.000 HD 
BRANCH  11  13
HETATM   13  C   UNL     1     -10.745   6.512  69.357  1.00  0.00    -0.277 C  
BRANCH  13  14
HETATM   14  C   UNL     1      -9.621   5.597  68.923  1.00  0.00    -0.168 A  
HETATM   15 CL   UNL     1     -10.733   5.259  66.412  1.00  0.00    -0.352 Cl 
HETATM   16  C   UNL     1      -8.568   5.343  69.823  1.00  0.00    -0.100 A  
HETATM   17  C   UNL     1      -9.539   5.022  67.640  1.00  0.00    -0.146 A  
HETATM   18  C   UNL     1      -7.447   4.591  69.447  1.00  0.00    -0.055 A  
HETATM   19 CL   UNL     1      -5.976   3.176  67.689  1.00  0.00    -0.026 Cl 
HETATM   20  C   UNL     1      -7.372   4.061  68.165  1.00  0.00    -0.059 A  
HETATM   21  C   UNL     1      -8.417   4.259  67.268  1.00  0.00    -0.100 A  
ENDBRANCH  13  14
BRANCH  13  22
HETATM   22  C   UNL     1     -11.296   6.298  70.765  1.00  0.00    -0.332 C  
BRANCH  22  23
HETATM   23  N   UNL     1     -12.121   7.393  71.257  1.00  0.00    -0.315 NA 
HETATM   24  C   UNL     1     -11.654   8.588  71.732  1.00  0.00    -0.312 A  
HETATM   25  N   UNL     1     -13.902   8.546  71.880  1.00  0.00    -0.404 NA 
HETATM   26  C   UNL     1     -13.482   7.422  71.339  1.00  0.00    -0.330 A  
HETATM   27  C   UNL     1     -12.775   9.280  72.127  1.00  0.00    -0.390 A  
ENDBRANCH  22  23
ENDBRANCH  13  22
ENDBRANCH  11  13
ENDBRANCH  10  11
ENDBRANCH   9  10
ENDBRANCH   6   9
TORSDOF 7
ENDMDL
MODEL      273
REMARK 921   NORMALIZED FREE ENERGY PREDICTED BY IDOCK:   -4.01 KCAL/MOL
REMARK 922        TOTAL FREE ENERGY PREDICTED BY IDOCK:   -6.77 KCAL/MOL
REMARK 923 INTER-LIGAND FREE ENERGY PREDICTED BY IDOCK:   -5.40 KCAL/MOL
REMARK 924 INTRA-LIGAND FREE ENERGY PREDICTED BY IDOCK:   -1.37 KCAL/MOL
REMARK 927      BINDING AFFINITY PREDICTED BY RF-SCORE:    0.00 PKD
ROOT
HETATM    1 CL   UNL     1     -10.022   6.405  74.253  1.00  0.00    -0.310 Cl 
HETATM    2  C   UNL     1     -10.496   7.575  73.085  1.00  0.00    -0.364 A  
HETATM    3  C   UNL     1     -11.847   7.755  72.798  1.00  0.00    -0.247 A  
HETATM    4  C   UNL     1     -12.222   8.655  71.791  1.00  0.00    -0.343 A  
HETATM    5 CL   UNL     1     -13.920   8.825  71.491  1.00  0.00    -0.425 Cl 
HETATM    6  C   UNL     1     -11.264   9.377  71.048  1.00  0.00    -0.412 A  
HETATM    7  C   UNL     1      -9.915   9.217  71.403  1.00  0.00    -0.373 A  
HETATM    8  C   UNL     1      -9.535   8.321  72.412  1.00  0.00    -0.357 A  
ENDROOT
BRANCH   6   9
HETATM    9  C   UNL     1     -11.680  10.196  69.833  1.00  0.00    -0.179 C  
BRANCH   9  10
HETATM   10  O   UNL     1     -10.754  10.161  68.724  1.00  0.00    -0.201 OA 
BRANCH  10  11
HETATM   11  N   UNL     1     -10.804   8.891  68.100  1.00  0.00    -0.467 NA 
HETATM   12  H   UNL     1     -11.676   8.420  67.858  1.00  0.00     0.000 HD 
BRANCH  11  13
HETATM   13  C   UNL     1      -9.625   8.380  67.865  1.00  0.00    -0.156 C  
BRANCH  13  14
HETATM   14  C   UNL     1      -9.502   6.956  67.368  1.00  0.00    -0.151 A  
HETATM   15 CL   UNL     1     -10.381   5.933  69.783  1.00  0.00    -0.281 Cl 
HETATM   16  C   UNL     1      -9.090   6.735  66.039  1.00  0.00    -0.103 A  
HETATM   17  C   UNL     1      -9.833   5.831  68.146  1.00  0.00    -0.135 A  
HETATM   18  C   UNL     1      -9.059   5.449  65.485  1.00  0.00    -0.126 A  
HETATM   19 CL   UNL     1      -9.424   2.781  65.570  1.00  0.00    -0.054 Cl 
HETATM   20  C   UNL     1      -9.420   4.356  66.262  1.00  0.00    -0.174 A  
HETATM   21  C   UNL     1      -9.791   4.538  67.591  1.00  0.00    -0.181 A  
ENDBRANCH  13  14
BRANCH  13  22
HETATM   22  C   UNL     1      -8.324   9.168  68.009  1.00  0.00    -0.120 C  
BRANCH  22  23
HETATM   23  N   UNL     1      -7.183   8.365  68.428  1.00  0.00    -0.084 NA 
HETATM   24  C   UNL     1      -6.030   8.189  67.712  1.00  0.00    -0.046 A  
HETATM   25  N   UNL     1      -5.919   6.999  69.622  1.00  0.00    -0.023 NA 
HETATM   26  C   UNL     1      -7.061   7.652  69.584  1.00  0.00    -0.064 A  
HETATM   27  C   UNL     1      -5.269   7.326  68.464  1.00  0.00    -0.021 A  
ENDBRANCH  22  23
ENDBRANCH  13  22
ENDBRANCH  11  13
ENDBRANCH  10  11
ENDBRANCH   9  10
ENDBRANCH   6   9
TORSDOF 7
ENDMDL
MODEL      274
REMARK 921   NORMALIZED FREE ENERGY PREDICTED BY IDOCK:   -4.01 KCAL/MOL
REMARK 922        TOTAL FREE ENERGY PREDICTED BY IDOCK:   -6.76 KCAL/MOL
REMARK 923 INTER-LIGAND FREE ENERGY PREDICTED BY IDOCK:   -5.37 KCAL/MOL
REMARK 924 INTRA-LIGAND FREE ENERGY PREDICTED BY IDOCK:   -1.39 KCAL/MOL
REMARK 927      BINDING AFFINITY PREDICTED BY RF-SCORE:    0.00 PKD
ROOT
HETATM    1 CL   UNL     1      -8.791  17.984  67.767  1.00  0.00    -0.252 Cl 
HETATM    2  C   UNL     1      -9.697  16.579  67.369  1.00  0.00    -0.246 A  
HETATM    3  C   UNL     1     -10.295  16.476  66.115  1.00  0.00    -0.344 A  
HETATM    4  C   UNL     1     -11.095  15.362  65.824  1.00  0.00    -0.260 A  
HETATM    5 CL   UNL     1     -11.805  15.304  64.245  1.00  0.00    -0.334 Cl 
HETATM    6  C   UNL     1     -11.323  14.345  66.775  1.00  0.00    -0.360 A  
HETATM    7  C   UNL     1     -10.658  14.450  68.007  1.00  0.00    -0.241 A  
HETATM    8  C   UNL     1      -9.853  15.559  68.301  1.00  0.00    -0.213 A  
ENDROOT
BRANCH   6   9
HETATM    9  C   UNL     1     -12.349  13.251  66.510  1.00  0.00    -0.248 C  
BRANCH   9  10
HETATM   10  O   UNL     1     -11.867  11.900  66.693  1.00  0.00    -0.591 OA 
BRANCH  10  11
HETATM   11  N   UNL     1     -11.355  11.406  65.469  1.00  0.00    -0.083 NA 
HETATM   12  H   UNL     1     -11.924  11.290  64.631  1.00  0.00     0.000 HD 
BRANCH  11  13
HETATM   13  C   UNL     1     -10.083  11.112  65.518  1.00  0.00    -0.257 C  
BRANCH  13  14
HETATM   14  C   UNL     1      -9.444  10.737  66.838  1.00  0.00    -0.192 A  
HETATM   15 CL   UNL     1     -10.762   8.305  66.899  1.00  0.00    -0.306 Cl 
HETATM   16  C   UNL     1      -8.519  11.626  67.420  1.00  0.00    -0.150 A  
HETATM   17  C   UNL     1      -9.680   9.515  67.496  1.00  0.00    -0.155 A  
HETATM   18  C   UNL     1      -7.814  11.293  68.584  1.00  0.00    -0.139 A  
HETATM   19 CL   UNL     1      -7.142   9.640  70.601  1.00  0.00    -0.131 Cl 
HETATM   20  C   UNL     1      -8.039  10.068  69.198  1.00  0.00    -0.126 A  
HETATM   21  C   UNL     1      -8.978   9.186  68.670  1.00  0.00    -0.136 A  
ENDBRANCH  13  14
BRANCH  13  22
HETATM   22  C   UNL     1      -9.183  11.065  64.286  1.00  0.00    -0.152 C  
BRANCH  22  23
HETATM   23  N   UNL     1      -8.272   9.930  64.253  1.00  0.00    -0.151 NA 
HETATM   24  C   UNL     1      -8.619   8.641  63.949  1.00  0.00     0.002 A  
HETATM   25  N   UNL     1      -6.424   8.732  64.448  1.00  0.00    -0.071 NA 
HETATM   26  C   UNL     1      -6.935   9.943  64.520  1.00  0.00    -0.131 A  
HETATM   27  C   UNL     1      -7.460   7.915  64.092  1.00  0.00    -0.105 A  
ENDBRANCH  22  23
ENDBRANCH  13  22
ENDBRANCH  11  13
ENDBRANCH  10  11
ENDBRANCH   9  10
ENDBRANCH   6   9
TORSDOF 7
ENDMDL
MODEL      275
REMARK 921   NORMALIZED FREE ENERGY PREDICTED BY IDOCK:   -4.00 KCAL/MOL
REMARK 922        TOTAL FREE ENERGY PREDICTED BY IDOCK:   -6.76 KCAL/MOL
REMARK 923 INTER-LIGAND FREE ENERGY PREDICTED BY IDOCK:   -5.65 KCAL/MOL
REMARK 924 INTRA-LIGAND FREE ENERGY PREDICTED BY IDOCK:   -1.11 KCAL/MOL
REMARK 927      BINDING AFFINITY PREDICTED BY RF-SCORE:    0.00 PKD
ROOT
HETATM    1 CL   UNL     1      -6.604   4.656  72.835  1.00  0.00    -0.049 Cl 
HETATM    2  C   UNL     1      -8.035   5.014  71.952  1.00  0.00    -0.111 A  
HETATM    3  C   UNL     1      -8.279   4.368  70.742  1.00  0.00    -0.077 A  
HETATM    4  C   UNL     1      -9.409   4.719  69.991  1.00  0.00    -0.146 A  
HETATM    5 CL   UNL     1      -9.646   3.872  68.498  1.00  0.00    -0.208 Cl 
HETATM    6  C   UNL     1     -10.302   5.723  70.421  1.00  0.00    -0.310 A  
HETATM    7  C   UNL     1     -10.060   6.313  71.672  1.00  0.00    -0.214 A  
HETATM    8  C   UNL     1      -8.933   5.961  72.430  1.00  0.00    -0.137 A  
ENDROOT
BRANCH   6   9
HETATM    9  C   UNL     1     -11.407   6.225  69.500  1.00  0.00    -0.404 C  
BRANCH   9  10
HETATM   10  O   UNL     1     -11.124   7.472  68.825  1.00  0.00     0.012 OA 
BRANCH  10  11
HETATM   11  N   UNL     1     -11.167   8.538  69.755  1.00  0.00    -0.445 NA 
HETATM   12  H   UNL     1     -11.780   8.545  70.570  1.00  0.00     0.000 HD 
BRANCH  11  13
HETATM   13  C   UNL     1     -10.347   9.513  69.467  1.00  0.00    -0.217 C  
BRANCH  13  14
HETATM   14  C   UNL     1     -10.795  10.635  68.556  1.00  0.00    -0.275 A  
HETATM   15 CL   UNL     1      -9.949   9.275  66.300  1.00  0.00    -0.357 Cl 
HETATM   16  C   UNL     1     -11.423  11.760  69.125  1.00  0.00    -0.358 A  
HETATM   17  C   UNL     1     -10.669  10.595  67.154  1.00  0.00    -0.272 A  
HETATM   18  C   UNL     1     -11.956  12.783  68.331  1.00  0.00    -0.275 A  
HETATM   19 CL   UNL     1     -12.542  13.941  65.970  1.00  0.00    -0.495 Cl 
HETATM   20  C   UNL     1     -11.849  12.707  66.948  1.00  0.00    -0.355 A  
HETATM   21  C   UNL     1     -11.196  11.629  66.359  1.00  0.00    -0.349 A  
ENDBRANCH  13  14
BRANCH  13  22
HETATM   22  C   UNL     1      -8.940   9.628  70.052  1.00  0.00    -0.237 C  
BRANCH  22  23
HETATM   23  N   UNL     1      -7.892   9.090  69.196  1.00  0.00    -0.091 NA 
HETATM   24  C   UNL     1      -6.868   9.811  68.644  1.00  0.00    -0.051 A  
HETATM   25  N   UNL     1      -6.718   7.663  67.981  1.00  0.00    -0.061 NA 
HETATM   26  C   UNL     1      -7.746   7.795  68.792  1.00  0.00    -0.113 A  
HETATM   27  C   UNL     1      -6.163   8.909  67.883  1.00  0.00    -0.052 A  
ENDBRANCH  22  23
ENDBRANCH  13  22
ENDBRANCH  11  13
ENDBRANCH  10  11
ENDBRANCH   9  10
ENDBRANCH   6   9
TORSDOF 7
ENDMDL
MODEL      276
REMARK 921   NORMALIZED FREE ENERGY PREDICTED BY IDOCK:   -3.97 KCAL/MOL
REMARK 922        TOTAL FREE ENERGY PREDICTED BY IDOCK:   -6.71 KCAL/MOL
REMARK 923 INTER-LIGAND FREE ENERGY PREDICTED BY IDOCK:   -6.02 KCAL/MOL
REMARK 924 INTRA-LIGAND FREE ENERGY PREDICTED BY IDOCK:   -0.69 KCAL/MOL
REMARK 927      BINDING AFFINITY PREDICTED BY RF-SCORE:    0.00 PKD
ROOT
HETATM    1 CL   UNL     1      -6.873   8.579  62.927  1.00  0.00    -0.090 Cl 
HETATM    2  C   UNL     1      -8.033   8.541  64.195  1.00  0.00    -0.150 A  
HETATM    3  C   UNL     1      -8.877   9.632  64.392  1.00  0.00    -0.263 A  
HETATM    4  C   UNL     1      -9.767   9.627  65.475  1.00  0.00    -0.301 A  
HETATM    5 CL   UNL     1     -10.783  11.018  65.654  1.00  0.00    -0.260 Cl 
HETATM    6  C   UNL     1      -9.824   8.547  66.382  1.00  0.00    -0.327 A  
HETATM    7  C   UNL     1      -9.003   7.438  66.121  1.00  0.00    -0.182 A  
HETATM    8  C   UNL     1      -8.114   7.437  65.037  1.00  0.00    -0.122 A  
ENDROOT
BRANCH   6   9
HETATM    9  C   UNL     1     -10.653   8.647  67.656  1.00  0.00    -0.203 C  
BRANCH   9  10
HETATM   10  O   UNL     1     -10.077   8.002  68.814  1.00  0.00    -0.185 OA 
BRANCH  10  11
HETATM   11  N   UNL     1     -11.105   7.429  69.601  1.00  0.00    -0.422 NA 
HETATM   12  H   UNL     1     -11.856   6.859  69.211  1.00  0.00     0.000 HD 
BRANCH  11  13
HETATM   13  C   UNL     1     -10.999   7.700  70.874  1.00  0.00    -0.250 C  
BRANCH  13  14
HETATM   14  C   UNL     1      -9.680   7.488  71.585  1.00  0.00    -0.184 A  
HETATM   15 CL   UNL     1     -10.161   4.780  71.880  1.00  0.00    -0.262 Cl 
HETATM   16  C   UNL     1      -8.818   8.589  71.757  1.00  0.00    -0.278 A  
HETATM   17  C   UNL     1      -9.236   6.232  72.040  1.00  0.00    -0.145 A  
HETATM   18  C   UNL     1      -7.540   8.440  72.311  1.00  0.00    -0.146 A  
HETATM   19 CL   UNL     1      -5.525   6.994  73.363  1.00  0.00    -0.045 Cl 
HETATM   20  C   UNL     1      -7.110   7.186  72.723  1.00  0.00    -0.069 A  
HETATM   21  C   UNL     1      -7.956   6.087  72.606  1.00  0.00    -0.104 A  
ENDBRANCH  13  14
BRANCH  13  22
HETATM   22  C   UNL     1     -12.137   8.289  71.705  1.00  0.00    -0.319 C  
BRANCH  22  23
HETATM   23  N   UNL     1     -12.373   9.707  71.476  1.00  0.00    -0.364 NA 
HETATM   24  C   UNL     1     -11.633  10.514  70.655  1.00  0.00    -0.352 A  
HETATM   25  N   UNL     1     -13.248  11.731  71.649  1.00  0.00    -0.363 NA 
HETATM   26  C   UNL     1     -13.353  10.476  72.033  1.00  0.00    -0.314 A  
HETATM   27  C   UNL     1     -12.185  11.766  70.790  1.00  0.00    -0.326 A  
ENDBRANCH  22  23
ENDBRANCH  13  22
ENDBRANCH  11  13
ENDBRANCH  10  11
ENDBRANCH   9  10
ENDBRANCH   6   9
TORSDOF 7
ENDMDL
MODEL      277
REMARK 921   NORMALIZED FREE ENERGY PREDICTED BY IDOCK:   -3.96 KCAL/MOL
REMARK 922        TOTAL FREE ENERGY PREDICTED BY IDOCK:   -6.70 KCAL/MOL
REMARK 923 INTER-LIGAND FREE ENERGY PREDICTED BY IDOCK:   -6.26 KCAL/MOL
REMARK 924 INTRA-LIGAND FREE ENERGY PREDICTED BY IDOCK:   -0.44 KCAL/MOL
REMARK 927      BINDING AFFINITY PREDICTED BY RF-SCORE:    0.00 PKD
ROOT
HETATM    1 CL   UNL     1      -9.176  17.766  66.045  1.00  0.00    -0.123 Cl 
HETATM    2  C   UNL     1      -9.694  16.128  65.974  1.00  0.00    -0.344 A  
HETATM    3  C   UNL     1     -10.751  15.775  65.138  1.00  0.00    -0.455 A  
HETATM    4  C   UNL     1     -11.218  14.453  65.142  1.00  0.00    -0.359 A  
HETATM    5 CL   UNL     1     -12.534  14.090  64.076  1.00  0.00    -0.341 Cl 
HETATM    6  C   UNL     1     -10.654  13.470  65.982  1.00  0.00    -0.285 A  
HETATM    7  C   UNL     1      -9.553  13.845  66.768  1.00  0.00    -0.288 A  
HETATM    8  C   UNL     1      -9.079  15.165  66.765  1.00  0.00    -0.282 A  
ENDROOT
BRANCH   6   9
HETATM    9  C   UNL     1     -11.302  12.098  66.115  1.00  0.00    -0.361 C  
BRANCH   9  10
HETATM   10  O   UNL     1     -11.493  11.638  67.472  1.00  0.00    -0.342 OA 
BRANCH  10  11
HETATM   11  N   UNL     1     -11.729  10.242  67.474  1.00  0.00    -0.322 NA 
HETATM   12  H   UNL     1     -12.584   9.819  67.114  1.00  0.00     0.000 HD 
BRANCH  11  13
HETATM   13  C   UNL     1     -10.744   9.549  67.981  1.00  0.00    -0.212 C  
BRANCH  13  14
HETATM   14  C   UNL     1     -10.492   8.135  67.505  1.00  0.00    -0.326 A  
HETATM   15 CL   UNL     1      -9.081   9.024  65.297  1.00  0.00    -0.249 Cl 
HETATM   16  C   UNL     1     -10.966   7.062  68.286  1.00  0.00    -0.148 A  
HETATM   17  C   UNL     1      -9.755   7.825  66.346  1.00  0.00    -0.149 A  
HETATM   18  C   UNL     1     -10.675   5.732  67.958  1.00  0.00    -0.290 A  
HETATM   19 CL   UNL     1      -9.524   3.820  66.449  1.00  0.00    -0.198 Cl 
HETATM   20  C   UNL     1      -9.919   5.451  66.827  1.00  0.00    -0.192 A  
HETATM   21  C   UNL     1      -9.473   6.487  66.013  1.00  0.00     0.008 A  
ENDBRANCH  13  14
BRANCH  13  22
HETATM   22  C   UNL     1      -9.767  10.108  69.012  1.00  0.00    -0.206 C  
BRANCH  22  23
HETATM   23  N   UNL     1      -9.307   9.132  69.990  1.00  0.00    -0.184 NA 
HETATM   24  C   UNL     1      -8.161   8.390  69.895  1.00  0.00    -0.119 A  
HETATM   25  N   UNL     1      -9.264   7.830  71.777  1.00  0.00    -0.137 NA 
HETATM   26  C   UNL     1      -9.927   8.782  71.154  1.00  0.00    -0.248 A  
HETATM   27  C   UNL     1      -8.164   7.580  71.005  1.00  0.00    -0.108 A  
ENDBRANCH  22  23
ENDBRANCH  13  22
ENDBRANCH  11  13
ENDBRANCH  10  11
ENDBRANCH   9  10
ENDBRANCH   6   9
TORSDOF 7
ENDMDL
MODEL      278
REMARK 921   NORMALIZED FREE ENERGY PREDICTED BY IDOCK:   -3.95 KCAL/MOL
REMARK 922        TOTAL FREE ENERGY PREDICTED BY IDOCK:   -6.69 KCAL/MOL
REMARK 923 INTER-LIGAND FREE ENERGY PREDICTED BY IDOCK:   -5.59 KCAL/MOL
REMARK 924 INTRA-LIGAND FREE ENERGY PREDICTED BY IDOCK:   -1.09 KCAL/MOL
REMARK 927      BINDING AFFINITY PREDICTED BY RF-SCORE:    0.00 PKD
ROOT
HETATM    1 CL   UNL     1     -12.328  12.689  63.211  1.00  0.00    -0.559 Cl 
HETATM    2  C   UNL     1     -11.092  12.350  64.357  1.00  0.00    -0.333 A  
HETATM    3  C   UNL     1     -10.258  11.251  64.168  1.00  0.00    -0.391 A  
HETATM    4  C   UNL     1      -9.303  10.936  65.144  1.00  0.00    -0.218 A  
HETATM    5 CL   UNL     1      -8.303   9.555  64.839  1.00  0.00    -0.138 Cl 
HETATM    6  C   UNL     1      -9.172  11.697  66.325  1.00  0.00    -0.225 A  
HETATM    7  C   UNL     1      -9.987  12.833  66.457  1.00  0.00    -0.256 A  
HETATM    8  C   UNL     1     -10.941  13.155  65.481  1.00  0.00    -0.296 A  
ENDROOT
BRANCH   6   9
HETATM    9  C   UNL     1      -8.269  11.224  67.457  1.00  0.00    -0.124 C  
BRANCH   9  10
HETATM   10  O   UNL     1      -8.689  11.619  68.782  1.00  0.00    -0.119 OA 
BRANCH  10  11
HETATM   11  N   UNL     1      -8.393  10.585  69.704  1.00  0.00    -0.371 NA 
HETATM   12  H   UNL     1      -7.684  10.670  70.432  1.00  0.00     0.000 HD 
BRANCH  11  13
HETATM   13  C   UNL     1      -9.116   9.511  69.530  1.00  0.00    -0.185 C  
BRANCH  13  14
HETATM   14  C   UNL     1      -8.451   8.153  69.463  1.00  0.00    -0.127 A  
HETATM   15 CL   UNL     1      -8.274   7.995  72.220  1.00  0.00    -0.166 Cl 
HETATM   16  C   UNL     1      -8.249   7.558  68.202  1.00  0.00    -0.125 A  
HETATM   17  C   UNL     1      -8.068   7.419  70.602  1.00  0.00    -0.110 A  
HETATM   18  C   UNL     1      -7.736   6.261  68.077  1.00  0.00    -0.103 A  
HETATM   19 CL   UNL     1      -6.808   3.933  69.066  1.00  0.00    -0.045 Cl 
HETATM   20  C   UNL     1      -7.396   5.542  69.216  1.00  0.00    -0.070 A  
HETATM   21  C   UNL     1      -7.544   6.120  70.474  1.00  0.00    -0.096 A  
ENDBRANCH  13  14
BRANCH  13  22
HETATM   22  C   UNL     1     -10.641   9.530  69.444  1.00  0.00    -0.219 C  
BRANCH  22  23
HETATM   23  N   UNL     1     -11.305   8.663  70.407  1.00  0.00    -0.231 NA 
HETATM   24  C   UNL     1     -11.619   9.000  71.696  1.00  0.00    -0.356 A  
HETATM   25  N   UNL     1     -12.238   6.869  71.304  1.00  0.00    -0.368 NA 
HETATM   26  C   UNL     1     -11.721   7.379  70.206  1.00  0.00    -0.072 A  
HETATM   27  C   UNL     1     -12.181   7.868  72.236  1.00  0.00    -0.287 A  
ENDBRANCH  22  23
ENDBRANCH  13  22
ENDBRANCH  11  13
ENDBRANCH  10  11
ENDBRANCH   9  10
ENDBRANCH   6   9
TORSDOF 7
ENDMDL
MODEL      279
REMARK 921   NORMALIZED FREE ENERGY PREDICTED BY IDOCK:   -3.95 KCAL/MOL
REMARK 922        TOTAL FREE ENERGY PREDICTED BY IDOCK:   -6.68 KCAL/MOL
REMARK 923 INTER-LIGAND FREE ENERGY PREDICTED BY IDOCK:   -5.63 KCAL/MOL
REMARK 924 INTRA-LIGAND FREE ENERGY PREDICTED BY IDOCK:   -1.05 KCAL/MOL
REMARK 927      BINDING AFFINITY PREDICTED BY RF-SCORE:    0.00 PKD
ROOT
HETATM    1 CL   UNL     1     -13.900  14.900  71.240  1.00  0.00    -0.491 Cl 
HETATM    2  C   UNL     1     -12.826  13.733  70.576  1.00  0.00    -0.142 A  
HETATM    3  C   UNL     1     -11.780  14.146  69.755  1.00  0.00    -0.370 A  
HETATM    4  C   UNL     1     -10.955  13.185  69.155  1.00  0.00    -0.145 A  
HETATM    5 CL   UNL     1      -9.676  13.775  68.147  1.00  0.00    -0.222 Cl 
HETATM    6  C   UNL     1     -11.164  11.803  69.352  1.00  0.00    -0.300 A  
HETATM    7  C   UNL     1     -12.190  11.422  70.232  1.00  0.00    -0.433 A  
HETATM    8  C   UNL     1     -13.015  12.381  70.837  1.00  0.00    -0.061 A  
ENDROOT
BRANCH   6   9
HETATM    9  C   UNL     1     -10.386  10.777  68.538  1.00  0.00    -0.185 C  
BRANCH   9  10
HETATM   10  O   UNL     1      -9.401  10.024  69.282  1.00  0.00    -0.188 OA 
BRANCH  10  11
HETATM   11  N   UNL     1      -9.003   8.890  68.533  1.00  0.00    -0.134 NA 
HETATM   12  H   UNL     1      -8.142   8.854  67.988  1.00  0.00     0.000 HD 
BRANCH  11  13
HETATM   13  C   UNL     1      -9.846   7.895  68.609  1.00  0.00    -0.170 C  
BRANCH  13  14
HETATM   14  C   UNL     1     -10.083   7.203  69.934  1.00  0.00    -0.197 A  
HETATM   15 CL   UNL     1      -7.996   5.440  69.500  1.00  0.00    -0.088 Cl 
HETATM   16  C   UNL     1     -11.102   7.687  70.778  1.00  0.00    -0.276 A  
HETATM   17  C   UNL     1      -9.301   6.130  70.401  1.00  0.00    -0.161 A  
HETATM   18  C   UNL     1     -11.304   7.160  72.061  1.00  0.00    -0.293 A  
HETATM   19 CL   UNL     1     -10.716   5.506  74.104  1.00  0.00    -0.241 Cl 
HETATM   20  C   UNL     1     -10.499   6.123  72.513  1.00  0.00    -0.201 A  
HETATM   21  C   UNL     1      -9.512   5.596  71.686  1.00  0.00    -0.173 A  
ENDBRANCH  13  14
BRANCH  13  22
HETATM   22  C   UNL     1     -10.675   7.404  67.424  1.00  0.00    -0.278 C  
BRANCH  22  23
HETATM   23  N   UNL     1     -10.027   6.372  66.627  1.00  0.00    -0.168 NA 
HETATM   24  C   UNL     1      -8.895   6.542  65.875  1.00  0.00    -0.119 A  
HETATM   25  N   UNL     1      -9.640   4.428  65.648  1.00  0.00    -0.172 NA 
HETATM   26  C   UNL     1     -10.426   5.076  66.482  1.00  0.00    -0.276 A  
HETATM   27  C   UNL     1      -8.685   5.328  65.266  1.00  0.00    -0.151 A  
ENDBRANCH  22  23
ENDBRANCH  13  22
ENDBRANCH  11  13
ENDBRANCH  10  11
ENDBRANCH   9  10
ENDBRANCH   6   9
TORSDOF 7
ENDMDL
MODEL      280
REMARK 921   NORMALIZED FREE ENERGY PREDICTED BY IDOCK:   -3.94 KCAL/MOL
REMARK 922        TOTAL FREE ENERGY PREDICTED BY IDOCK:   -6.68 KCAL/MOL
REMARK 923 INTER-LIGAND FREE ENERGY PREDICTED BY IDOCK:   -5.04 KCAL/MOL
REMARK 924 INTRA-LIGAND FREE ENERGY PREDICTED BY IDOCK:   -1.64 KCAL/MOL
REMARK 927      BINDING AFFINITY PREDICTED BY RF-SCORE:    0.00 PKD
ROOT
HETATM    1 CL   UNL     1     -11.930  12.334  68.922  1.00  0.00    -0.335 Cl 
HETATM    2  C   UNL     1     -11.811  10.989  69.986  1.00  0.00    -0.355 A  
HETATM    3  C   UNL     1     -12.944  10.542  70.662  1.00  0.00    -0.362 A  
HETATM    4  C   UNL     1     -12.826   9.494  71.586  1.00  0.00    -0.393 A  
HETATM    5 CL   UNL     1     -14.278   8.993  72.386  1.00  0.00    -0.489 Cl 
HETATM    6  C   UNL     1     -11.582   8.886  71.860  1.00  0.00    -0.442 A  
HETATM    7  C   UNL     1     -10.471   9.320  71.119  1.00  0.00    -0.401 A  
HETATM    8  C   UNL     1     -10.586  10.365  70.191  1.00  0.00    -0.245 A  
ENDROOT
BRANCH   6   9
HETATM    9  C   UNL     1     -11.441   7.890  73.004  1.00  0.00    -0.169 C  
BRANCH   9  10
HETATM   10  O   UNL     1     -10.112   7.352  73.190  1.00  0.00    -0.230 OA 
BRANCH  10  11
HETATM   11  N   UNL     1     -10.079   6.004  72.760  1.00  0.00    -0.180 NA 
HETATM   12  H   UNL     1     -10.874   5.371  72.842  1.00  0.00     0.000 HD 
BRANCH  11  13
HETATM   13  C   UNL     1      -8.931   5.650  72.247  1.00  0.00    -0.139 C  
BRANCH  13  14
HETATM   14  C   UNL     1      -8.305   6.480  71.147  1.00  0.00    -0.122 A  
HETATM   15 CL   UNL     1     -10.098   5.523  69.270  1.00  0.00    -0.268 Cl 
HETATM   16  C   UNL     1      -7.232   7.334  71.469  1.00  0.00    -0.072 A  
HETATM   17  C   UNL     1      -8.774   6.490  69.820  1.00  0.00    -0.143 A  
HETATM   18  C   UNL     1      -6.678   8.205  70.522  1.00  0.00    -0.037 A  
HETATM   19 CL   UNL     1      -6.529   9.322  68.076  1.00  0.00    -0.058 Cl 
HETATM   20  C   UNL     1      -7.178   8.221  69.227  1.00  0.00    -0.064 A  
HETATM   21  C   UNL     1      -8.209   7.358  68.868  1.00  0.00    -0.129 A  
ENDBRANCH  13  14
BRANCH  13  22
HETATM   22  C   UNL     1      -8.126   4.448  72.738  1.00  0.00    -0.094 C  
BRANCH  22  23
HETATM   23  N   UNL     1      -8.242   3.266  71.895  1.00  0.00    -0.062 NA 
HETATM   24  C   UNL     1      -7.258   2.771  71.083  1.00  0.00    -0.033 A  
HETATM   25  N   UNL     1      -9.113   1.508  70.876  1.00  0.00    -0.068 NA 
HETATM   26  C   UNL     1      -9.332   2.458  71.760  1.00  0.00    -0.109 A  
HETATM   27  C   UNL     1      -7.827   1.691  70.450  1.00  0.00    -0.038 A  
ENDBRANCH  22  23
ENDBRANCH  13  22
ENDBRANCH  11  13
ENDBRANCH  10  11
ENDBRANCH   9  10
ENDBRANCH   6   9
TORSDOF 7
ENDMDL
MODEL      281
REMARK 921   NORMALIZED FREE ENERGY PREDICTED BY IDOCK:   -3.94 KCAL/MOL
REMARK 922        TOTAL FREE ENERGY PREDICTED BY IDOCK:   -6.67 KCAL/MOL
REMARK 923 INTER-LIGAND FREE ENERGY PREDICTED BY IDOCK:   -6.25 KCAL/MOL
REMARK 924 INTRA-LIGAND FREE ENERGY PREDICTED BY IDOCK:   -0.42 KCAL/MOL
REMARK 927      BINDING AFFINITY PREDICTED BY RF-SCORE:    0.00 PKD
ROOT
HETATM    1 CL   UNL     1     -10.278   6.435  74.186  1.00  0.00    -0.342 Cl 
HETATM    2  C   UNL     1     -10.491   7.737  73.083  1.00  0.00    -0.349 A  
HETATM    3  C   UNL     1     -11.776   8.181  72.779  1.00  0.00    -0.334 A  
HETATM    4  C   UNL     1     -11.947   9.190  71.822  1.00  0.00    -0.379 A  
HETATM    5 CL   UNL     1     -13.573   9.690  71.499  1.00  0.00    -0.403 Cl 
HETATM    6  C   UNL     1     -10.849   9.763  71.145  1.00  0.00    -0.333 A  
HETATM    7  C   UNL     1      -9.564   9.335  71.517  1.00  0.00    -0.162 A  
HETATM    8  C   UNL     1      -9.388   8.328  72.477  1.00  0.00    -0.350 A  
ENDROOT
BRANCH   6   9
HETATM    9  C   UNL     1     -11.069  10.712  69.974  1.00  0.00    -0.289 C  
BRANCH   9  10
HETATM   10  O   UNL     1     -10.247  10.454  68.813  1.00  0.00    -0.169 OA 
BRANCH  10  11
HETATM   11  N   UNL     1      -9.058  11.219  68.891  1.00  0.00    -0.361 NA 
HETATM   12  H   UNL     1      -8.590  11.437  69.770  1.00  0.00     0.000 HD 
BRANCH  11  13
HETATM   13  C   UNL     1      -8.621  11.619  67.727  1.00  0.00    -0.144 C  
BRANCH  13  14
HETATM   14  C   UNL     1      -9.217  12.849  67.076  1.00  0.00    -0.226 A  
HETATM   15 CL   UNL     1      -6.852  14.259  67.344  1.00  0.00    -0.149 Cl 
HETATM   16  C   UNL     1     -10.545  12.793  66.609  1.00  0.00    -0.272 A  
HETATM   17  C   UNL     1      -8.497  14.039  66.858  1.00  0.00    -0.078 A  
HETATM   18  C   UNL     1     -11.121  13.858  65.905  1.00  0.00    -0.291 A  
HETATM   19 CL   UNL     1     -11.071  16.300  64.770  1.00  0.00    -0.391 Cl 
HETATM   20  C   UNL     1     -10.381  15.010  65.673  1.00  0.00    -0.353 A  
HETATM   21  C   UNL     1      -9.080  15.111  66.159  1.00  0.00    -0.276 A  
ENDBRANCH  13  14
BRANCH  13  22
HETATM   22  C   UNL     1      -7.474  10.941  66.982  1.00  0.00    -0.122 C  
BRANCH  22  23
HETATM   23  N   UNL     1      -7.900  10.034  65.925  1.00  0.00    -0.117 NA 
HETATM   24  C   UNL     1      -7.073   9.407  65.033  1.00  0.00    -0.101 A  
HETATM   25  N   UNL     1      -9.213   8.866  64.582  1.00  0.00     0.103 NA 
HETATM   26  C   UNL     1      -9.179   9.658  65.633  1.00  0.00    -0.215 A  
HETATM   27  C   UNL     1      -7.910   8.702  64.202  1.00  0.00    -0.141 A  
ENDBRANCH  22  23
ENDBRANCH  13  22
ENDBRANCH  11  13
ENDBRANCH  10  11
ENDBRANCH   9  10
ENDBRANCH   6   9
TORSDOF 7
ENDMDL
MODEL      282
REMARK 921   NORMALIZED FREE ENERGY PREDICTED BY IDOCK:   -3.93 KCAL/MOL
REMARK 922        TOTAL FREE ENERGY PREDICTED BY IDOCK:   -6.66 KCAL/MOL
REMARK 923 INTER-LIGAND FREE ENERGY PREDICTED BY IDOCK:   -5.77 KCAL/MOL
REMARK 924 INTRA-LIGAND FREE ENERGY PREDICTED BY IDOCK:   -0.90 KCAL/MOL
REMARK 927      BINDING AFFINITY PREDICTED BY RF-SCORE:    0.00 PKD
ROOT
HETATM    1 CL   UNL     1      -7.160   3.785  63.960  1.00  0.00    -0.049 Cl 
HETATM    2  C   UNL     1      -8.293   4.611  64.955  1.00  0.00    -0.129 A  
HETATM    3  C   UNL     1      -8.304   6.003  64.978  1.00  0.00    -0.121 A  
HETATM    4  C   UNL     1      -9.178   6.670  65.848  1.00  0.00     0.028 A  
HETATM    5 CL   UNL     1      -9.134   8.401  65.820  1.00  0.00    -0.220 Cl 
HETATM    6  C   UNL     1     -10.041   5.966  66.714  1.00  0.00    -0.235 A  
HETATM    7  C   UNL     1     -10.048   4.564  66.623  1.00  0.00    -0.238 A  
HETATM    8  C   UNL     1      -9.178   3.893  65.751  1.00  0.00    -0.154 A  
ENDROOT
BRANCH   6   9
HETATM    9  C   UNL     1     -10.835   6.702  67.785  1.00  0.00    -0.294 C  
BRANCH   9  10
HETATM   10  O   UNL     1     -10.879   6.048  69.074  1.00  0.00    -0.289 OA 
BRANCH  10  11
HETATM   11  N   UNL     1      -9.607   6.124  69.690  1.00  0.00    -0.147 NA 
HETATM   12  H   UNL     1      -8.751   5.786  69.251  1.00  0.00     0.000 HD 
BRANCH  11  13
HETATM   13  C   UNL     1      -9.637   6.667  70.878  1.00  0.00    -0.175 C  
BRANCH  13  14
HETATM   14  C   UNL     1     -10.528   7.862  71.141  1.00  0.00    -0.230 A  
HETATM   15 CL   UNL     1      -8.908   9.527  69.639  1.00  0.00    -0.176 Cl 
HETATM   16  C   UNL     1     -11.698   7.679  71.904  1.00  0.00    -0.328 A  
HETATM   17  C   UNL     1     -10.282   9.145  70.616  1.00  0.00    -0.246 A  
HETATM   18  C   UNL     1     -12.619   8.718  72.095  1.00  0.00    -0.463 A  
HETATM   19 CL   UNL     1     -13.522  11.230  71.737  1.00  0.00    -0.333 Cl 
HETATM   20  C   UNL     1     -12.372   9.967  71.541  1.00  0.00    -0.419 A  
HETATM   21  C   UNL     1     -11.203  10.190  70.818  1.00  0.00    -0.414 A  
ENDBRANCH  13  14
BRANCH  13  22
HETATM   22  C   UNL     1      -8.850   6.126  72.069  1.00  0.00    -0.139 C  
BRANCH  22  23
HETATM   23  N   UNL     1      -9.581   5.164  72.882  1.00  0.00    -0.143 NA 
HETATM   24  C   UNL     1      -9.847   3.868  72.532  1.00  0.00    -0.155 A  
HETATM   25  N   UNL     1     -10.763   4.307  74.542  1.00  0.00    -0.265 NA 
HETATM   26  C   UNL     1     -10.128   5.377  74.113  1.00  0.00    -0.237 A  
HETATM   27  C   UNL     1     -10.594   3.363  73.569  1.00  0.00    -0.196 A  
ENDBRANCH  22  23
ENDBRANCH  13  22
ENDBRANCH  11  13
ENDBRANCH  10  11
ENDBRANCH   9  10
ENDBRANCH   6   9
TORSDOF 7
ENDMDL
MODEL      283
REMARK 921   NORMALIZED FREE ENERGY PREDICTED BY IDOCK:   -3.93 KCAL/MOL
REMARK 922        TOTAL FREE ENERGY PREDICTED BY IDOCK:   -6.65 KCAL/MOL
REMARK 923 INTER-LIGAND FREE ENERGY PREDICTED BY IDOCK:   -5.70 KCAL/MOL
REMARK 924 INTRA-LIGAND FREE ENERGY PREDICTED BY IDOCK:   -0.96 KCAL/MOL
REMARK 927      BINDING AFFINITY PREDICTED BY RF-SCORE:    0.00 PKD
ROOT
HETATM    1 CL   UNL     1      -8.132  18.343  66.265  1.00  0.00    -0.275 Cl 
HETATM    2  C   UNL     1      -8.050  16.844  67.102  1.00  0.00    -0.188 A  
HETATM    3  C   UNL     1      -6.820  16.207  67.258  1.00  0.00    -0.236 A  
HETATM    4  C   UNL     1      -6.770  14.949  67.873  1.00  0.00    -0.160 A  
HETATM    5 CL   UNL     1      -5.207  14.221  68.032  1.00  0.00    -0.116 Cl 
HETATM    6  C   UNL     1      -7.938  14.301  68.329  1.00  0.00    -0.140 A  
HETATM    7  C   UNL     1      -9.153  14.995  68.210  1.00  0.00    -0.182 A  
HETATM    8  C   UNL     1      -9.207  16.256  67.599  1.00  0.00    -0.206 A  
ENDROOT
BRANCH   6   9
HETATM    9  C   UNL     1      -7.885  12.857  68.813  1.00  0.00     0.040 C  
BRANCH   9  10
HETATM   10  O   UNL     1      -7.755  11.865  67.769  1.00  0.00    -0.119 OA 
BRANCH  10  11
HETATM   11  N   UNL     1      -8.283  10.630  68.217  1.00  0.00    -0.115 NA 
HETATM   12  H   UNL     1      -7.710   9.891  68.624  1.00  0.00     0.000 HD 
BRANCH  11  13
HETATM   13  C   UNL     1      -9.576  10.529  68.057  1.00  0.00    -0.148 C  
BRANCH  13  14
HETATM   14  C   UNL     1     -10.237  11.134  66.838  1.00  0.00    -0.260 A  
HETATM   15 CL   UNL     1      -9.012   9.316  65.150  1.00  0.00    -0.249 Cl 
HETATM   16  C   UNL     1     -11.131  12.208  67.014  1.00  0.00    -0.347 A  
HETATM   17  C   UNL     1     -10.052  10.644  65.531  1.00  0.00    -0.280 A  
HETATM   18  C   UNL     1     -11.856  12.743  65.941  1.00  0.00    -0.490 A  
HETATM   19 CL   UNL     1     -12.603  12.849  63.355  1.00  0.00    -0.368 Cl 
HETATM   20  C   UNL     1     -11.681  12.223  64.665  1.00  0.00    -0.356 A  
HETATM   21  C   UNL     1     -10.773  11.190  64.453  1.00  0.00    -0.388 A  
ENDBRANCH  13  14
BRANCH  13  22
HETATM   22  C   UNL     1     -10.484   9.769  69.021  1.00  0.00    -0.213 C  
BRANCH  22  23
HETATM   23  N   UNL     1     -10.218   8.339  69.092  1.00  0.00    -0.214 NA 
HETATM   24  C   UNL     1     -10.971   7.423  69.775  1.00  0.00    -0.200 A  
HETATM   25  N   UNL     1      -9.215   6.387  68.815  1.00  0.00    -0.127 NA 
HETATM   26  C   UNL     1      -9.186   7.667  68.505  1.00  0.00    -0.143 A  
HETATM   27  C   UNL     1     -10.321   6.224  69.602  1.00  0.00    -0.215 A  
ENDBRANCH  22  23
ENDBRANCH  13  22
ENDBRANCH  11  13
ENDBRANCH  10  11
ENDBRANCH   9  10
ENDBRANCH   6   9
TORSDOF 7
ENDMDL
MODEL      284
REMARK 921   NORMALIZED FREE ENERGY PREDICTED BY IDOCK:   -3.91 KCAL/MOL
REMARK 922        TOTAL FREE ENERGY PREDICTED BY IDOCK:   -6.63 KCAL/MOL
REMARK 923 INTER-LIGAND FREE ENERGY PREDICTED BY IDOCK:   -5.06 KCAL/MOL
REMARK 924 INTRA-LIGAND FREE ENERGY PREDICTED BY IDOCK:   -1.57 KCAL/MOL
REMARK 927      BINDING AFFINITY PREDICTED BY RF-SCORE:    0.00 PKD
ROOT
HETATM    1 CL   UNL     1      -7.528   4.448  64.674  1.00  0.00    -0.071 Cl 
HETATM    2  C   UNL     1      -7.428   5.895  65.597  1.00  0.00    -0.081 A  
HETATM    3  C   UNL     1      -7.542   7.129  64.961  1.00  0.00    -0.104 A  
HETATM    4  C   UNL     1      -7.383   8.305  65.707  1.00  0.00    -0.072 A  
HETATM    5 CL   UNL     1      -7.539   9.800  64.847  1.00  0.00    -0.122 Cl 
HETATM    6  C   UNL     1      -7.096   8.273  67.088  1.00  0.00    -0.079 A  
HETATM    7  C   UNL     1      -7.046   7.015  67.711  1.00  0.00    -0.085 A  
HETATM    8  C   UNL     1      -7.209   5.836  66.969  1.00  0.00    -0.075 A  
ENDROOT
BRANCH   6   9
HETATM    9  C   UNL     1      -6.733   9.550  67.835  1.00  0.00    -0.066 C  
BRANCH   9  10
HETATM   10  O   UNL     1      -7.698   9.978  68.824  1.00  0.00    -0.079 OA 
BRANCH  10  11
HETATM   11  N   UNL     1      -8.626  10.867  68.230  1.00  0.00    -0.132 NA 
HETATM   12  H   UNL     1      -8.348  11.687  67.690  1.00  0.00     0.000 HD 
BRANCH  11  13
HETATM   13  C   UNL     1      -9.872  10.537  68.442  1.00  0.00    -0.161 C  
BRANCH  13  14
HETATM   14  C   UNL     1     -10.199   9.305  69.259  1.00  0.00    -0.211 A  
HETATM   15 CL   UNL     1     -10.621   7.788  66.984  1.00  0.00    -0.422 Cl 
HETATM   16  C   UNL     1     -10.127   9.384  70.664  1.00  0.00    -0.356 A  
HETATM   17  C   UNL     1     -10.520   8.058  68.689  1.00  0.00    -0.167 A  
HETATM   18  C   UNL     1     -10.314   8.256  71.472  1.00  0.00    -0.276 A  
HETATM   19 CL   UNL     1     -10.785   5.635  71.876  1.00  0.00    -0.289 Cl 
HETATM   20  C   UNL     1     -10.599   7.029  70.887  1.00  0.00    -0.217 A  
HETATM   21  C   UNL     1     -10.718   6.928  69.504  1.00  0.00    -0.276 A  
ENDBRANCH  13  14
BRANCH  13  22
HETATM   22  C   UNL     1     -11.056  11.367  67.953  1.00  0.00    -0.261 C  
BRANCH  22  23
HETATM   23  N   UNL     1     -10.789  12.138  66.747  1.00  0.00    -0.238 NA 
HETATM   24  C   UNL     1     -10.642  11.619  65.488  1.00  0.00    -0.279 A  
HETATM   25  N   UNL     1     -10.350  13.852  65.421  1.00  0.00    -0.331 NA 
HETATM   26  C   UNL     1     -10.632  13.490  66.655  1.00  0.00    -0.280 A  
HETATM   27  C   UNL     1     -10.355  12.699  64.687  1.00  0.00    -0.330 A  
ENDBRANCH  22  23
ENDBRANCH  13  22
ENDBRANCH  11  13
ENDBRANCH  10  11
ENDBRANCH   9  10
ENDBRANCH   6   9
TORSDOF 7
ENDMDL
MODEL      285
REMARK 921   NORMALIZED FREE ENERGY PREDICTED BY IDOCK:   -3.91 KCAL/MOL
REMARK 922        TOTAL FREE ENERGY PREDICTED BY IDOCK:   -6.63 KCAL/MOL
REMARK 923 INTER-LIGAND FREE ENERGY PREDICTED BY IDOCK:   -4.70 KCAL/MOL
REMARK 924 INTRA-LIGAND FREE ENERGY PREDICTED BY IDOCK:   -1.93 KCAL/MOL
REMARK 927      BINDING AFFINITY PREDICTED BY RF-SCORE:    0.00 PKD
ROOT
HETATM    1 CL   UNL     1      -8.314   2.986  72.385  1.00  0.00    -0.073 Cl 
HETATM    2  C   UNL     1      -9.198   4.460  72.418  1.00  0.00    -0.121 A  
HETATM    3  C   UNL     1      -8.677   5.561  73.093  1.00  0.00    -0.120 A  
HETATM    4  C   UNL     1      -9.437   6.736  73.182  1.00  0.00    -0.145 A  
HETATM    5 CL   UNL     1      -8.723   8.063  74.036  1.00  0.00    -0.315 Cl 
HETATM    6  C   UNL     1     -10.725   6.829  72.614  1.00  0.00    -0.271 A  
HETATM    7  C   UNL     1     -11.196   5.722  71.891  1.00  0.00    -0.289 A  
HETATM    8  C   UNL     1     -10.438   4.546  71.796  1.00  0.00    -0.114 A  
ENDROOT
BRANCH   6   9
HETATM    9  C   UNL     1     -11.609   8.039  72.890  1.00  0.00    -0.218 C  
BRANCH   9  10
HETATM   10  O   UNL     1     -11.965   8.817  71.725  1.00  0.00    -0.303 OA 
BRANCH  10  11
HETATM   11  N   UNL     1     -10.791   9.278  71.083  1.00  0.00    -0.308 NA 
HETATM   12  H   UNL     1     -10.008   9.700  71.582  1.00  0.00     0.000 HD 
BRANCH  11  13
HETATM   13  C   UNL     1     -10.807   9.109  69.787  1.00  0.00    -0.211 C  
BRANCH  13  14
HETATM   14  C   UNL     1     -10.140   7.897  69.174  1.00  0.00    -0.197 A  
HETATM   15 CL   UNL     1      -7.650   8.679  70.092  1.00  0.00    -0.065 Cl 
HETATM   16  C   UNL     1     -10.939   6.949  68.506  1.00  0.00    -0.198 A  
HETATM   17  C   UNL     1      -8.761   7.632  69.281  1.00  0.00    -0.136 A  
HETATM   18  C   UNL     1     -10.401   5.755  68.009  1.00  0.00    -0.258 A  
HETATM   19 CL   UNL     1      -8.389   4.015  67.584  1.00  0.00    -0.094 Cl 
HETATM   20  C   UNL     1      -9.043   5.499  68.154  1.00  0.00    -0.108 A  
HETATM   21  C   UNL     1      -8.220   6.437  68.771  1.00  0.00    -0.121 A  
ENDBRANCH  13  14
BRANCH  13  22
HETATM   22  C   UNL     1     -11.524  10.054  68.826  1.00  0.00     0.022 C  
BRANCH  22  23
HETATM   23  N   UNL     1     -10.920  11.375  68.723  1.00  0.00    -0.207 NA 
HETATM   24  C   UNL     1      -9.728  11.659  68.113  1.00  0.00    -0.189 A  
HETATM   25  N   UNL     1     -10.592  13.546  68.990  1.00  0.00    -0.157 NA 
HETATM   26  C   UNL     1     -11.419  12.546  69.214  1.00  0.00    -0.293 A  
HETATM   27  C   UNL     1      -9.539  13.007  68.305  1.00  0.00    -0.213 A  
ENDBRANCH  22  23
ENDBRANCH  13  22
ENDBRANCH  11  13
ENDBRANCH  10  11
ENDBRANCH   9  10
ENDBRANCH   6   9
TORSDOF 7
ENDMDL
MODEL      286
REMARK 921   NORMALIZED FREE ENERGY PREDICTED BY IDOCK:   -3.90 KCAL/MOL
REMARK 922        TOTAL FREE ENERGY PREDICTED BY IDOCK:   -6.61 KCAL/MOL
REMARK 923 INTER-LIGAND FREE ENERGY PREDICTED BY IDOCK:   -4.95 KCAL/MOL
REMARK 924 INTRA-LIGAND FREE ENERGY PREDICTED BY IDOCK:   -1.66 KCAL/MOL
REMARK 927      BINDING AFFINITY PREDICTED BY RF-SCORE:    0.00 PKD
ROOT
HETATM    1 CL   UNL     1      -7.049  12.982  67.743  1.00  0.00    -0.123 Cl 
HETATM    2  C   UNL     1      -8.104  11.825  68.453  1.00  0.00    -0.150 A  
HETATM    3  C   UNL     1      -9.478  11.925  68.245  1.00  0.00    -0.197 A  
HETATM    4  C   UNL     1     -10.338  11.025  68.888  1.00  0.00    -0.205 A  
HETATM    5 CL   UNL     1     -12.032  11.211  68.580  1.00  0.00    -0.330 Cl 
HETATM    6  C   UNL     1      -9.850  10.024  69.755  1.00  0.00    -0.270 A  
HETATM    7  C   UNL     1      -8.457   9.914  69.898  1.00  0.00    -0.210 A  
HETATM    8  C   UNL     1      -7.592  10.809  69.253  1.00  0.00    -0.129 A  
ENDROOT
BRANCH   6   9
HETATM    9  C   UNL     1     -10.809   9.189  70.594  1.00  0.00    -0.264 C  
BRANCH   9  10
HETATM   10  O   UNL     1     -10.713   7.760  70.395  1.00  0.00    -0.227 OA 
BRANCH  10  11
HETATM   11  N   UNL     1     -11.222   7.421  69.118  1.00  0.00    -0.437 NA 
HETATM   12  H   UNL     1     -12.181   7.614  68.829  1.00  0.00     0.000 HD 
BRANCH  11  13
HETATM   13  C   UNL     1     -10.345   6.838  68.346  1.00  0.00    -0.191 C  
BRANCH  13  14
HETATM   14  C   UNL     1      -9.491   7.666  67.410  1.00  0.00    -0.175 A  
HETATM   15 CL   UNL     1      -7.153   6.615  68.453  1.00  0.00    -0.080 Cl 
HETATM   16  C   UNL     1     -10.128   8.500  66.470  1.00  0.00    -0.328 A  
HETATM   17  C   UNL     1      -8.084   7.609  67.386  1.00  0.00    -0.119 A  
HETATM   18  C   UNL     1      -9.400   9.210  65.507  1.00  0.00    -0.287 A  
HETATM   19 CL   UNL     1      -7.123   9.950  64.273  1.00  0.00    -0.127 Cl 
HETATM   20  C   UNL     1      -8.015   9.114  65.482  1.00  0.00    -0.104 A  
HETATM   21  C   UNL     1      -7.354   8.331  66.425  1.00  0.00    -0.080 A  
ENDBRANCH  13  14
BRANCH  13  22
HETATM   22  C   UNL     1     -10.075   5.335  68.367  1.00  0.00    -0.159 C  
BRANCH  22  23
HETATM   23  N   UNL     1      -9.992   4.724  67.047  1.00  0.00    -0.202 NA 
HETATM   24  C   UNL     1     -10.859   4.946  66.012  1.00  0.00    -0.076 A  
HETATM   25  N   UNL     1      -9.304   3.442  65.382  1.00  0.00    -0.155 NA 
HETATM   26  C   UNL     1      -9.055   3.832  66.614  1.00  0.00    -0.157 A  
HETATM   27  C   UNL     1     -10.422   4.129  64.997  1.00  0.00    -0.167 A  
ENDBRANCH  22  23
ENDBRANCH  13  22
ENDBRANCH  11  13
ENDBRANCH  10  11
ENDBRANCH   9  10
ENDBRANCH   6   9
TORSDOF 7
ENDMDL
MODEL      287
REMARK 921   NORMALIZED FREE ENERGY PREDICTED BY IDOCK:   -3.89 KCAL/MOL
REMARK 922        TOTAL FREE ENERGY PREDICTED BY IDOCK:   -6.60 KCAL/MOL
REMARK 923 INTER-LIGAND FREE ENERGY PREDICTED BY IDOCK:   -5.65 KCAL/MOL
REMARK 924 INTRA-LIGAND FREE ENERGY PREDICTED BY IDOCK:   -0.94 KCAL/MOL
REMARK 927      BINDING AFFINITY PREDICTED BY RF-SCORE:    0.00 PKD
ROOT
HETATM    1 CL   UNL     1     -10.713  19.364  65.382  1.00  0.00    -0.289 Cl 
HETATM    2  C   UNL     1     -10.068  18.228  66.500  1.00  0.00    -0.385 A  
HETATM    3  C   UNL     1      -8.828  17.644  66.252  1.00  0.00    -0.209 A  
HETATM    4  C   UNL     1      -8.343  16.662  67.127  1.00  0.00    -0.177 A  
HETATM    5 CL   UNL     1      -6.794  15.982  66.753  1.00  0.00    -0.086 Cl 
HETATM    6  C   UNL     1      -9.085  16.238  68.250  1.00  0.00    -0.197 A  
HETATM    7  C   UNL     1     -10.303  16.888  68.504  1.00  0.00    -0.336 A  
HETATM    8  C   UNL     1     -10.791  17.874  67.634  1.00  0.00    -0.243 A  
ENDROOT
BRANCH   6   9
HETATM    9  C   UNL     1      -8.632  15.038  69.071  1.00  0.00    -0.205 C  
BRANCH   9  10
HETATM   10  O   UNL     1      -8.589  13.784  68.352  1.00  0.00    -0.166 OA 
BRANCH  10  11
HETATM   11  N   UNL     1      -9.786  13.063  68.580  1.00  0.00    -0.367 NA 
HETATM   12  H   UNL     1     -10.453  13.302  69.313  1.00  0.00     0.000 HD 
BRANCH  11  13
HETATM   13  C   UNL     1      -9.952  12.060  67.759  1.00  0.00    -0.195 C  
BRANCH  13  14
HETATM   14  C   UNL     1      -8.853  11.033  67.587  1.00  0.00    -0.131 A  
HETATM   15 CL   UNL     1      -9.277  10.007  70.121  1.00  0.00    -0.170 Cl 
HETATM   16  C   UNL     1      -8.166  10.975  66.358  1.00  0.00    -0.166 A  
HETATM   17  C   UNL     1      -8.511  10.088  68.572  1.00  0.00    -0.115 A  
HETATM   18  C   UNL     1      -7.214   9.982  66.096  1.00  0.00    -0.109 A  
HETATM   19 CL   UNL     1      -5.779   7.794  66.736  1.00  0.00    -0.031 Cl 
HETATM   20  C   UNL     1      -6.916   9.040  67.072  1.00  0.00    -0.078 A  
HETATM   21  C   UNL     1      -7.547   9.098  68.311  1.00  0.00    -0.083 A  
ENDBRANCH  13  14
BRANCH  13  22
HETATM   22  C   UNL     1     -11.243  11.815  66.982  1.00  0.00    -0.322 C  
BRANCH  22  23
HETATM   23  N   UNL     1     -11.636  12.917  66.114  1.00  0.00    -0.352 NA 
HETATM   24  C   UNL     1     -12.488  13.933  66.454  1.00  0.00    -0.370 A  
HETATM   25  N   UNL     1     -11.824  14.192  64.317  1.00  0.00    -0.418 NA 
HETATM   26  C   UNL     1     -11.238  13.129  64.826  1.00  0.00    -0.324 A  
HETATM   27  C   UNL     1     -12.601  14.701  65.320  1.00  0.00    -0.132 A  
ENDBRANCH  22  23
ENDBRANCH  13  22
ENDBRANCH  11  13
ENDBRANCH  10  11
ENDBRANCH   9  10
ENDBRANCH   6   9
TORSDOF 7
ENDMDL
MODEL      288
REMARK 921   NORMALIZED FREE ENERGY PREDICTED BY IDOCK:   -3.87 KCAL/MOL
REMARK 922        TOTAL FREE ENERGY PREDICTED BY IDOCK:   -6.58 KCAL/MOL
REMARK 923 INTER-LIGAND FREE ENERGY PREDICTED BY IDOCK:   -5.90 KCAL/MOL
REMARK 924 INTRA-LIGAND FREE ENERGY PREDICTED BY IDOCK:   -0.68 KCAL/MOL
REMARK 927      BINDING AFFINITY PREDICTED BY RF-SCORE:    0.00 PKD
ROOT
HETATM    1 CL   UNL     1      -7.302  16.483  67.240  1.00  0.00    -0.178 Cl 
HETATM    2  C   UNL     1      -8.361  15.136  67.098  1.00  0.00    -0.219 A  
HETATM    3  C   UNL     1      -9.728  15.348  66.933  1.00  0.00    -0.241 A  
HETATM    4  C   UNL     1     -10.595  14.247  66.894  1.00  0.00    -0.273 A  
HETATM    5 CL   UNL     1     -12.280  14.589  66.687  1.00  0.00    -0.343 Cl 
HETATM    6  C   UNL     1     -10.120  12.925  67.031  1.00  0.00    -0.245 A  
HETATM    7  C   UNL     1      -8.731  12.743  67.136  1.00  0.00    -0.202 A  
HETATM    8  C   UNL     1      -7.860  13.841  67.171  1.00  0.00    -0.030 A  
ENDROOT
BRANCH   6   9
HETATM    9  C   UNL     1     -11.093  11.763  67.184  1.00  0.00    -0.296 C  
BRANCH   9  10
HETATM   10  O   UNL     1     -11.235  11.255  68.530  1.00  0.00    -0.208 OA 
BRANCH  10  11
HETATM   11  N   UNL     1     -11.405   9.850  68.494  1.00  0.00    -0.514 NA 
HETATM   12  H   UNL     1     -12.201   9.394  68.048  1.00  0.00     0.000 HD 
BRANCH  11  13
HETATM   13  C   UNL     1     -10.444   9.195  69.088  1.00  0.00    -0.217 C  
BRANCH  13  14
HETATM   14  C   UNL     1     -10.775   8.141  70.123  1.00  0.00    -0.243 A  
HETATM   15 CL   UNL     1     -12.680   9.759  71.308  1.00  0.00    -0.433 Cl 
HETATM   16  C   UNL     1     -10.110   6.900  70.063  1.00  0.00    -0.195 A  
HETATM   17  C   UNL     1     -11.757   8.309  71.118  1.00  0.00    -0.280 A  
HETATM   18  C   UNL     1     -10.445   5.846  70.923  1.00  0.00    -0.305 A  
HETATM   19 CL   UNL     1     -11.882   4.718  72.902  1.00  0.00    -0.152 Cl 
HETATM   20  C   UNL     1     -11.440   6.024  71.875  1.00  0.00    -0.269 A  
HETATM   21  C   UNL     1     -12.084   7.253  71.987  1.00  0.00    -0.327 A  
ENDBRANCH  13  14
BRANCH  13  22
HETATM   22  C   UNL     1      -8.966   9.388  68.758  1.00  0.00    -0.132 C  
BRANCH  22  23
HETATM   23  N   UNL     1      -8.562   8.830  67.475  1.00  0.00    -0.126 NA 
HETATM   24  C   UNL     1      -7.385   9.094  66.828  1.00  0.00    -0.086 A  
HETATM   25  N   UNL     1      -8.637   7.701  65.575  1.00  0.00    -0.127 NA 
HETATM   26  C   UNL     1      -9.273   7.964  66.696  1.00  0.00    -0.177 A  
HETATM   27  C   UNL     1      -7.461   8.396  65.646  1.00  0.00    -0.081 A  
ENDBRANCH  22  23
ENDBRANCH  13  22
ENDBRANCH  11  13
ENDBRANCH  10  11
ENDBRANCH   9  10
ENDBRANCH   6   9
TORSDOF 7
ENDMDL
MODEL      289
REMARK 921   NORMALIZED FREE ENERGY PREDICTED BY IDOCK:   -3.87 KCAL/MOL
REMARK 922        TOTAL FREE ENERGY PREDICTED BY IDOCK:   -6.57 KCAL/MOL
REMARK 923 INTER-LIGAND FREE ENERGY PREDICTED BY IDOCK:   -5.72 KCAL/MOL
REMARK 924 INTRA-LIGAND FREE ENERGY PREDICTED BY IDOCK:   -0.85 KCAL/MOL
REMARK 927      BINDING AFFINITY PREDICTED BY RF-SCORE:    0.00 PKD
ROOT
HETATM    1 CL   UNL     1     -10.360  13.525  65.089  1.00  0.00    -0.358 Cl 
HETATM    2  C   UNL     1      -9.772  12.336  66.183  1.00  0.00    -0.245 A  
HETATM    3  C   UNL     1     -10.351  11.069  66.202  1.00  0.00    -0.306 A  
HETATM    4  C   UNL     1      -9.920  10.130  67.148  1.00  0.00    -0.196 A  
HETATM    5 CL   UNL     1     -10.686   8.577  67.110  1.00  0.00    -0.299 Cl 
HETATM    6  C   UNL     1      -8.919  10.437  68.094  1.00  0.00    -0.132 A  
HETATM    7  C   UNL     1      -8.315  11.702  68.010  1.00  0.00    -0.148 A  
HETATM    8  C   UNL     1      -8.740  12.644  67.063  1.00  0.00    -0.198 A  
ENDROOT
BRANCH   6   9
HETATM    9  C   UNL     1      -8.607   9.475  69.233  1.00  0.00    -0.149 C  
BRANCH   9  10
HETATM   10  O   UNL     1      -8.188   8.154  68.823  1.00  0.00    -0.121 OA 
BRANCH  10  11
HETATM   11  N   UNL     1      -8.085   7.313  69.957  1.00  0.00    -0.127 NA 
HETATM   12  H   UNL     1      -7.288   7.326  70.593  1.00  0.00     0.000 HD 
BRANCH  11  13
HETATM   13  C   UNL     1      -9.111   6.519  70.110  1.00  0.00    -0.155 C  
BRANCH  13  14
HETATM   14  C   UNL     1     -10.367   7.026  70.785  1.00  0.00    -0.222 A  
HETATM   15 CL   UNL     1      -8.908   8.314  72.752  1.00  0.00    -0.295 Cl 
HETATM   16  C   UNL     1     -11.616   6.728  70.206  1.00  0.00    -0.417 A  
HETATM   17  C   UNL     1     -10.357   7.834  71.938  1.00  0.00    -0.207 A  
HETATM   18  C   UNL     1     -12.808   7.255  70.720  1.00  0.00    -0.057 A  
HETATM   19 CL   UNL     1     -14.228   8.760  72.444  1.00  0.00    -0.509 Cl 
HETATM   20  C   UNL     1     -12.771   8.076  71.839  1.00  0.00    -0.327 A  
HETATM   21  C   UNL     1     -11.556   8.354  72.459  1.00  0.00    -0.426 A  
ENDBRANCH  13  14
BRANCH  13  22
HETATM   22  C   UNL     1      -9.149   5.085  69.587  1.00  0.00    -0.109 C  
BRANCH  22  23
HETATM   23  N   UNL     1      -9.174   4.978  68.135  1.00  0.00    -0.115 NA 
HETATM   24  C   UNL     1      -8.076   4.844  67.328  1.00  0.00    -0.106 A  
HETATM   25  N   UNL     1      -9.936   4.933  66.059  1.00  0.00    -0.205 NA 
HETATM   26  C   UNL     1     -10.275   4.999  67.330  1.00  0.00    -0.168 A  
HETATM   27  C   UNL     1      -8.572   4.834  66.046  1.00  0.00    -0.117 A  
ENDBRANCH  22  23
ENDBRANCH  13  22
ENDBRANCH  11  13
ENDBRANCH  10  11
ENDBRANCH   9  10
ENDBRANCH   6   9
TORSDOF 7
ENDMDL
MODEL      290
REMARK 921   NORMALIZED FREE ENERGY PREDICTED BY IDOCK:   -3.85 KCAL/MOL
REMARK 922        TOTAL FREE ENERGY PREDICTED BY IDOCK:   -6.55 KCAL/MOL
REMARK 923 INTER-LIGAND FREE ENERGY PREDICTED BY IDOCK:   -5.28 KCAL/MOL
REMARK 924 INTRA-LIGAND FREE ENERGY PREDICTED BY IDOCK:   -1.26 KCAL/MOL
REMARK 927      BINDING AFFINITY PREDICTED BY RF-SCORE:    0.00 PKD
ROOT
HETATM    1 CL   UNL     1      -6.790   8.319  73.115  1.00  0.00    -0.128 Cl 
HETATM    2  C   UNL     1      -7.828   8.238  71.747  1.00  0.00    -0.118 A  
HETATM    3  C   UNL     1      -9.091   8.821  71.804  1.00  0.00    -0.305 A  
HETATM    4  C   UNL     1      -9.962   8.686  70.714  1.00  0.00    -0.197 A  
HETATM    5 CL   UNL     1     -11.515   9.439  70.859  1.00  0.00    -0.355 Cl 
HETATM    6  C   UNL     1      -9.596   7.960  69.561  1.00  0.00    -0.160 A  
HETATM    7  C   UNL     1      -8.295   7.434  69.511  1.00  0.00    -0.132 A  
HETATM    8  C   UNL     1      -7.419   7.571  70.597  1.00  0.00    -0.077 A  
ENDROOT
BRANCH   6   9
HETATM    9  C   UNL     1     -10.623   7.659  68.476  1.00  0.00    -0.124 C  
BRANCH   9  10
HETATM   10  O   UNL     1     -10.455   8.403  67.248  1.00  0.00    -0.279 OA 
BRANCH  10  11
HETATM   11  N   UNL     1     -11.207   9.601  67.310  1.00  0.00    -0.239 NA 
HETATM   12  H   UNL     1     -12.152   9.649  67.692  1.00  0.00     0.000 HD 
BRANCH  11  13
HETATM   13  C   UNL     1     -10.575  10.637  66.829  1.00  0.00    -0.237 C  
BRANCH  13  14
HETATM   14  C   UNL     1     -10.967  12.032  67.266  1.00  0.00    -0.313 A  
HETATM   15 CL   UNL     1     -11.970  12.642  64.760  1.00  0.00    -0.428 Cl 
HETATM   16  C   UNL     1     -10.743  12.412  68.604  1.00  0.00    -0.260 A  
HETATM   17  C   UNL     1     -11.599  12.963  66.419  1.00  0.00    -0.371 A  
HETATM   18  C   UNL     1     -11.178  13.648  69.098  1.00  0.00    -0.309 A  
HETATM   19 CL   UNL     1     -12.403  16.037  68.869  1.00  0.00     0.159 Cl 
HETATM   20  C   UNL     1     -11.829  14.537  68.253  1.00  0.00    -0.312 A  
HETATM   21  C   UNL     1     -12.026  14.208  66.915  1.00  0.00    -0.479 A  
ENDBRANCH  13  14
BRANCH  13  22
HETATM   22  C   UNL     1      -9.392  10.529  65.869  1.00  0.00    -0.181 C  
BRANCH  22  23
HETATM   23  N   UNL     1      -8.120  10.244  66.517  1.00  0.00    -0.118 NA 
HETATM   24  C   UNL     1      -7.662  10.834  67.664  1.00  0.00    -0.104 A  
HETATM   25  N   UNL     1      -6.116   9.387  66.894  1.00  0.00    -0.063 NA 
HETATM   26  C   UNL     1      -7.168   9.358  66.103  1.00  0.00    -0.092 A  
HETATM   27  C   UNL     1      -6.412  10.299  67.869  1.00  0.00    -0.061 A  
ENDBRANCH  22  23
ENDBRANCH  13  22
ENDBRANCH  11  13
ENDBRANCH  10  11
ENDBRANCH   9  10
ENDBRANCH   6   9
TORSDOF 7
ENDMDL
MODEL      291
REMARK 921   NORMALIZED FREE ENERGY PREDICTED BY IDOCK:   -3.85 KCAL/MOL
REMARK 922        TOTAL FREE ENERGY PREDICTED BY IDOCK:   -6.54 KCAL/MOL
REMARK 923 INTER-LIGAND FREE ENERGY PREDICTED BY IDOCK:   -6.69 KCAL/MOL
REMARK 924 INTRA-LIGAND FREE ENERGY PREDICTED BY IDOCK:    0.15 KCAL/MOL
REMARK 927      BINDING AFFINITY PREDICTED BY RF-SCORE:    0.00 PKD
ROOT
HETATM    1 CL   UNL     1     -10.541   5.781  73.493  1.00  0.00    -0.272 Cl 
HETATM    2  C   UNL     1     -10.521   7.249  72.597  1.00  0.00    -0.246 A  
HETATM    3  C   UNL     1     -11.667   8.038  72.541  1.00  0.00    -0.446 A  
HETATM    4  C   UNL     1     -11.669   9.193  71.747  1.00  0.00    -0.386 A  
HETATM    5 CL   UNL     1     -13.129  10.124  71.729  1.00  0.00    -0.538 Cl 
HETATM    6  C   UNL     1     -10.540   9.573  70.990  1.00  0.00    -0.392 A  
HETATM    7  C   UNL     1      -9.383   8.788  71.114  1.00  0.00    -0.297 A  
HETATM    8  C   UNL     1      -9.375   7.634  71.910  1.00  0.00    -0.181 A  
ENDROOT
BRANCH   6   9
HETATM    9  C   UNL     1     -10.629  10.715  69.986  1.00  0.00    -0.094 C  
BRANCH   9  10
HETATM   10  O   UNL     1     -11.831  10.735  69.183  1.00  0.00    -0.303 OA 
BRANCH  10  11
HETATM   11  N   UNL     1     -11.488  10.711  67.810  1.00  0.00    -0.598 NA 
HETATM   12  H   UNL     1     -12.174  10.598  67.064  1.00  0.00     0.000 HD 
BRANCH  11  13
HETATM   13  C   UNL     1     -10.207  10.845  67.591  1.00  0.00    -0.183 C  
BRANCH  13  14
HETATM   14  C   UNL     1      -9.360   9.630  67.284  1.00  0.00    -0.163 A  
HETATM   15 CL   UNL     1      -7.291  10.546  68.875  1.00  0.00    -0.090 Cl 
HETATM   16  C   UNL     1      -9.896   8.621  66.459  1.00  0.00    -0.348 A  
HETATM   17  C   UNL     1      -8.077   9.420  67.824  1.00  0.00    -0.107 A  
HETATM   18  C   UNL     1      -9.207   7.425  66.222  1.00  0.00    -0.182 A  
HETATM   19 CL   UNL     1      -7.129   5.740  66.537  1.00  0.00    -0.068 Cl 
HETATM   20  C   UNL     1      -7.956   7.226  66.791  1.00  0.00    -0.118 A  
HETATM   21  C   UNL     1      -7.382   8.222  67.576  1.00  0.00    -0.093 A  
ENDBRANCH  13  14
BRANCH  13  22
HETATM   22  C   UNL     1      -9.496  12.197  67.569  1.00  0.00    -0.180 C  
BRANCH  22  23
HETATM   23  N   UNL     1     -10.392  13.342  67.489  1.00  0.00    -0.225 NA 
HETATM   24  C   UNL     1     -10.543  14.303  68.452  1.00  0.00    -0.253 A  
HETATM   25  N   UNL     1     -11.938  14.733  66.736  1.00  0.00    -0.274 NA 
HETATM   26  C   UNL     1     -11.232  13.656  66.460  1.00  0.00    -0.310 A  
HETATM   27  C   UNL     1     -11.518  15.144  67.970  1.00  0.00    -0.342 A  
ENDBRANCH  22  23
ENDBRANCH  13  22
ENDBRANCH  11  13
ENDBRANCH  10  11
ENDBRANCH   9  10
ENDBRANCH   6   9
TORSDOF 7
ENDMDL
MODEL      292
REMARK 921   NORMALIZED FREE ENERGY PREDICTED BY IDOCK:   -3.84 KCAL/MOL
REMARK 922        TOTAL FREE ENERGY PREDICTED BY IDOCK:   -6.53 KCAL/MOL
REMARK 923 INTER-LIGAND FREE ENERGY PREDICTED BY IDOCK:   -5.48 KCAL/MOL
REMARK 924 INTRA-LIGAND FREE ENERGY PREDICTED BY IDOCK:   -1.05 KCAL/MOL
REMARK 927      BINDING AFFINITY PREDICTED BY RF-SCORE:    0.00 PKD
ROOT
HETATM    1 CL   UNL     1      -9.776   3.174  64.259  1.00  0.00    -0.152 Cl 
HETATM    2  C   UNL     1      -9.562   4.574  65.233  1.00  0.00    -0.172 A  
HETATM    3  C   UNL     1     -10.372   4.769  66.350  1.00  0.00    -0.312 A  
HETATM    4  C   UNL     1     -10.243   5.949  67.095  1.00  0.00    -0.203 A  
HETATM    5 CL   UNL     1     -11.284   6.119  68.469  1.00  0.00    -0.364 Cl 
HETATM    6  C   UNL     1      -9.321   6.955  66.737  1.00  0.00    -0.190 A  
HETATM    7  C   UNL     1      -8.479   6.702  65.642  1.00  0.00    -0.147 A  
HETATM    8  C   UNL     1      -8.601   5.521  64.896  1.00  0.00    -0.111 A  
ENDROOT
BRANCH   6   9
HETATM    9  C   UNL     1      -9.336   8.306  67.440  1.00  0.00    -0.141 C  
BRANCH   9  10
HETATM   10  O   UNL     1     -10.338   9.233  66.965  1.00  0.00    -0.243 OA 
BRANCH  10  11
HETATM   11  N   UNL     1     -11.149   9.654  68.047  1.00  0.00    -0.509 NA 
HETATM   12  H   UNL     1     -12.125   9.377  68.156  1.00  0.00     0.000 HD 
BRANCH  11  13
HETATM   13  C   UNL     1     -10.526  10.430  68.893  1.00  0.00    -0.212 C  
BRANCH  13  14
HETATM   14  C   UNL     1      -9.771  11.642  68.392  1.00  0.00    -0.199 A  
HETATM   15 CL   UNL     1     -12.118  12.995  67.827  1.00  0.00    -0.322 Cl 
HETATM   16  C   UNL     1      -8.363  11.632  68.442  1.00  0.00    -0.157 A  
HETATM   17  C   UNL     1     -10.401  12.812  67.925  1.00  0.00    -0.226 A  
HETATM   18  C   UNL     1      -7.609  12.760  68.094  1.00  0.00    -0.134 A  
HETATM   19 CL   UNL     1      -7.330  15.313  67.281  1.00  0.00    -0.240 Cl 
HETATM   20  C   UNL     1      -8.253  13.914  67.667  1.00  0.00    -0.177 A  
HETATM   21  C   UNL     1      -9.641  13.940  67.565  1.00  0.00    -0.229 A  
ENDBRANCH  13  14
BRANCH  13  22
HETATM   22  C   UNL     1     -10.558  10.222  70.405  1.00  0.00    -0.147 C  
BRANCH  22  23
HETATM   23  N   UNL     1      -9.772   9.087  70.869  1.00  0.00    -0.240 NA 
HETATM   24  C   UNL     1      -8.416   9.084  71.061  1.00  0.00    -0.203 A  
HETATM   25  N   UNL     1      -9.246   7.040  71.520  1.00  0.00    -0.153 NA 
HETATM   26  C   UNL     1     -10.234   7.843  71.184  1.00  0.00    -0.195 A  
HETATM   27  C   UNL     1      -8.112   7.801  71.449  1.00  0.00    -0.099 A  
ENDBRANCH  22  23
ENDBRANCH  13  22
ENDBRANCH  11  13
ENDBRANCH  10  11
ENDBRANCH   9  10
ENDBRANCH   6   9
TORSDOF 7
ENDMDL
MODEL      293
REMARK 921   NORMALIZED FREE ENERGY PREDICTED BY IDOCK:   -3.83 KCAL/MOL
REMARK 922        TOTAL FREE ENERGY PREDICTED BY IDOCK:   -6.52 KCAL/MOL
REMARK 923 INTER-LIGAND FREE ENERGY PREDICTED BY IDOCK:   -4.69 KCAL/MOL
REMARK 924 INTRA-LIGAND FREE ENERGY PREDICTED BY IDOCK:   -1.83 KCAL/MOL
REMARK 927      BINDING AFFINITY PREDICTED BY RF-SCORE:    0.00 PKD
ROOT
HETATM    1 CL   UNL     1      -7.172  12.897  67.319  1.00  0.00    -0.120 Cl 
HETATM    2  C   UNL     1      -8.064  11.779  68.271  1.00  0.00    -0.154 A  
HETATM    3  C   UNL     1      -9.456  11.777  68.211  1.00  0.00    -0.193 A  
HETATM    4  C   UNL     1     -10.180  10.916  69.046  1.00  0.00    -0.203 A  
HETATM    5 CL   UNL     1     -11.906  10.970  68.914  1.00  0.00    -0.391 Cl 
HETATM    6  C   UNL     1      -9.535  10.055  69.960  1.00  0.00    -0.184 A  
HETATM    7  C   UNL     1      -8.131  10.039  69.954  1.00  0.00    -0.180 A  
HETATM    8  C   UNL     1      -7.402  10.896  69.117  1.00  0.00    -0.126 A  
ENDROOT
BRANCH   6   9
HETATM    9  C   UNL     1     -10.340   9.276  70.992  1.00  0.00    -0.318 C  
BRANCH   9  10
HETATM   10  O   UNL     1     -10.317   7.839  70.830  1.00  0.00    -0.200 OA 
BRANCH  10  11
HETATM   11  N   UNL     1     -11.199   7.463  69.788  1.00  0.00    -0.445 NA 
HETATM   12  H   UNL     1     -12.190   7.705  69.779  1.00  0.00     0.000 HD 
BRANCH  11  13
HETATM   13  C   UNL     1     -10.620   6.775  68.841  1.00  0.00    -0.228 C  
BRANCH  13  14
HETATM   14  C   UNL     1      -9.693   7.465  67.863  1.00  0.00    -0.166 A  
HETATM   15 CL   UNL     1      -7.448   6.453  69.124  1.00  0.00    -0.092 Cl 
HETATM   16  C   UNL     1     -10.255   8.213  66.809  1.00  0.00    -0.372 A  
HETATM   17  C   UNL     1      -8.290   7.356  67.913  1.00  0.00    -0.119 A  
HETATM   18  C   UNL     1      -9.457   8.787  65.811  1.00  0.00    -0.239 A  
HETATM   19 CL   UNL     1      -7.100   9.306  64.615  1.00  0.00    -0.094 Cl 
HETATM   20  C   UNL     1      -8.077   8.640  65.863  1.00  0.00    -0.111 A  
HETATM   21  C   UNL     1      -7.491   7.942  66.915  1.00  0.00    -0.091 A  
ENDBRANCH  13  14
BRANCH  13  22
HETATM   22  C   UNL     1     -10.776   5.264  68.684  1.00  0.00     0.078 C  
BRANCH  22  23
HETATM   23  N   UNL     1     -10.026   4.481  69.655  1.00  0.00    -0.218 NA 
HETATM   24  C   UNL     1     -10.033   4.676  71.010  1.00  0.00    -0.200 A  
HETATM   25  N   UNL     1      -8.633   2.986  70.501  1.00  0.00    -0.060 NA 
HETATM   26  C   UNL     1      -9.190   3.435  69.396  1.00  0.00    -0.151 A  
HETATM   27  C   UNL     1      -9.151   3.748  71.511  1.00  0.00    -0.114 A  
ENDBRANCH  22  23
ENDBRANCH  13  22
ENDBRANCH  11  13
ENDBRANCH  10  11
ENDBRANCH   9  10
ENDBRANCH   6   9
TORSDOF 7
ENDMDL
MODEL      294
REMARK 921   NORMALIZED FREE ENERGY PREDICTED BY IDOCK:   -3.83 KCAL/MOL
REMARK 922        TOTAL FREE ENERGY PREDICTED BY IDOCK:   -6.51 KCAL/MOL
REMARK 923 INTER-LIGAND FREE ENERGY PREDICTED BY IDOCK:   -5.99 KCAL/MOL
REMARK 924 INTRA-LIGAND FREE ENERGY PREDICTED BY IDOCK:   -0.52 KCAL/MOL
REMARK 927      BINDING AFFINITY PREDICTED BY RF-SCORE:    0.00 PKD
ROOT
HETATM    1 CL   UNL     1      -6.797  19.537  69.371  1.00  0.00    -0.375 Cl 
HETATM    2  C   UNL     1      -6.826  17.910  68.816  1.00  0.00    -0.255 A  
HETATM    3  C   UNL     1      -7.754  17.527  67.850  1.00  0.00    -0.213 A  
HETATM    4  C   UNL     1      -7.824  16.184  67.458  1.00  0.00    -0.147 A  
HETATM    5 CL   UNL     1      -9.003  15.784  66.253  1.00  0.00    -0.359 Cl 
HETATM    6  C   UNL     1      -6.984  15.202  68.026  1.00  0.00    -0.144 A  
HETATM    7  C   UNL     1      -6.020  15.631  68.952  1.00  0.00    -0.103 A  
HETATM    8  C   UNL     1      -5.944  16.975  69.345  1.00  0.00    -0.216 A  
ENDROOT
BRANCH   6   9
HETATM    9  C   UNL     1      -7.210  13.724  67.732  1.00  0.00    -0.163 C  
BRANCH   9  10
HETATM   10  O   UNL     1      -8.187  13.073  68.575  1.00  0.00    -0.140 OA 
BRANCH  10  11
HETATM   11  N   UNL     1      -8.446  11.770  68.086  1.00  0.00    -0.152 NA 
HETATM   12  H   UNL     1      -7.710  11.110  67.835  1.00  0.00     0.000 HD 
BRANCH  11  13
HETATM   13  C   UNL     1      -9.719  11.495  67.987  1.00  0.00    -0.186 C  
BRANCH  13  14
HETATM   14  C   UNL     1     -10.727  12.277  68.800  1.00  0.00    -0.247 A  
HETATM   15 CL   UNL     1     -11.045  10.194  70.593  1.00  0.00    -0.391 Cl 
HETATM   16  C   UNL     1     -11.036  13.595  68.411  1.00  0.00    -0.289 A  
HETATM   17  C   UNL     1     -11.339  11.779  69.967  1.00  0.00    -0.045 A  
HETATM   18  C   UNL     1     -11.879  14.408  69.180  1.00  0.00    -0.359 A  
HETATM   19 CL   UNL     1     -13.445  14.918  71.311  1.00  0.00    -0.465 Cl 
HETATM   20  C   UNL     1     -12.446  13.906  70.344  1.00  0.00    -0.334 A  
HETATM   21  C   UNL     1     -12.193  12.594  70.731  1.00  0.00    -0.331 A  
ENDBRANCH  13  14
BRANCH  13  22
HETATM   22  C   UNL     1     -10.279  10.441  67.034  1.00  0.00    -0.225 C  
BRANCH  22  23
HETATM   23  N   UNL     1      -9.976   9.069  67.414  1.00  0.00    -0.193 NA 
HETATM   24  C   UNL     1      -8.866   8.661  68.103  1.00  0.00    -0.142 A  
HETATM   25  N   UNL     1     -10.135   6.870  67.594  1.00  0.00    -0.149 NA 
HETATM   26  C   UNL     1     -10.727   7.960  67.152  1.00  0.00    -0.236 A  
HETATM   27  C   UNL     1      -8.979   7.294  68.189  1.00  0.00    -0.132 A  
ENDBRANCH  22  23
ENDBRANCH  13  22
ENDBRANCH  11  13
ENDBRANCH  10  11
ENDBRANCH   9  10
ENDBRANCH   6   9
TORSDOF 7
ENDMDL
MODEL      295
REMARK 921   NORMALIZED FREE ENERGY PREDICTED BY IDOCK:   -3.81 KCAL/MOL
REMARK 922        TOTAL FREE ENERGY PREDICTED BY IDOCK:   -6.49 KCAL/MOL
REMARK 923 INTER-LIGAND FREE ENERGY PREDICTED BY IDOCK:   -5.44 KCAL/MOL
REMARK 924 INTRA-LIGAND FREE ENERGY PREDICTED BY IDOCK:   -1.05 KCAL/MOL
REMARK 927      BINDING AFFINITY PREDICTED BY RF-SCORE:    0.00 PKD
ROOT
HETATM    1 CL   UNL     1      -7.526   5.548  73.806  1.00  0.00    -0.090 Cl 
HETATM    2  C   UNL     1      -8.660   6.542  72.980  1.00  0.00    -0.118 A  
HETATM    3  C   UNL     1      -9.356   6.032  71.886  1.00  0.00    -0.160 A  
HETATM    4  C   UNL     1     -10.221   6.871  71.170  1.00  0.00    -0.195 A  
HETATM    5 CL   UNL     1     -11.052   6.165  69.824  1.00  0.00    -0.455 Cl 
HETATM    6  C   UNL     1     -10.397   8.226  71.520  1.00  0.00    -0.276 A  
HETATM    7  C   UNL     1      -9.726   8.693  72.661  1.00  0.00    -0.199 A  
HETATM    8  C   UNL     1      -8.863   7.857  73.384  1.00  0.00    -0.324 A  
ENDROOT
BRANCH   6   9
HETATM    9  C   UNL     1     -11.184   9.165  70.615  1.00  0.00    -0.270 C  
BRANCH   9  10
HETATM   10  O   UNL     1     -10.501   9.567  69.405  1.00  0.00    -0.201 OA 
BRANCH  10  11
HETATM   11  N   UNL     1      -9.804  10.778  69.632  1.00  0.00    -0.438 NA 
HETATM   12  H   UNL     1      -9.772  11.245  70.538  1.00  0.00     0.000 HD 
BRANCH  11  13
HETATM   13  C   UNL     1      -9.205  11.241  68.567  1.00  0.00    -0.181 C  
BRANCH  13  14
HETATM   14  C   UNL     1      -9.514  12.637  68.071  1.00  0.00    -0.209 A  
HETATM   15 CL   UNL     1     -12.136  11.961  67.502  1.00  0.00    -0.072 Cl 
HETATM   16  C   UNL     1      -8.502  13.615  68.127  1.00  0.00    -0.175 A  
HETATM   17  C   UNL     1     -10.782  13.033  67.605  1.00  0.00    -0.227 A  
HETATM   18  C   UNL     1      -8.752  14.950  67.784  1.00  0.00    -0.168 A  
HETATM   19 CL   UNL     1     -10.340  16.971  66.978  1.00  0.00    -0.309 Cl 
HETATM   20  C   UNL     1     -10.020  15.325  67.357  1.00  0.00    -0.223 A  
HETATM   21  C   UNL     1     -11.029  14.372  67.251  1.00  0.00    -0.301 A  
ENDBRANCH  13  14
BRANCH  13  22
HETATM   22  C   UNL     1      -8.140  10.463  67.798  1.00  0.00    -0.103 C  
BRANCH  22  23
HETATM   23  N   UNL     1      -8.440  10.273  66.385  1.00  0.00    -0.128 NA 
HETATM   24  C   UNL     1      -9.545   9.639  65.886  1.00  0.00    -0.257 A  
HETATM   25  N   UNL     1      -8.225  10.302  64.185  1.00  0.00    -0.161 NA 
HETATM   26  C   UNL     1      -7.686  10.681  65.324  1.00  0.00    -0.021 A  
HETATM   27  C   UNL     1      -9.381   9.655  64.521  1.00  0.00    -0.182 A  
ENDBRANCH  22  23
ENDBRANCH  13  22
ENDBRANCH  11  13
ENDBRANCH  10  11
ENDBRANCH   9  10
ENDBRANCH   6   9
TORSDOF 7
ENDMDL
MODEL      296
REMARK 921   NORMALIZED FREE ENERGY PREDICTED BY IDOCK:   -3.79 KCAL/MOL
REMARK 922        TOTAL FREE ENERGY PREDICTED BY IDOCK:   -6.47 KCAL/MOL
REMARK 923 INTER-LIGAND FREE ENERGY PREDICTED BY IDOCK:   -5.65 KCAL/MOL
REMARK 924 INTRA-LIGAND FREE ENERGY PREDICTED BY IDOCK:   -0.82 KCAL/MOL
REMARK 927      BINDING AFFINITY PREDICTED BY RF-SCORE:    0.00 PKD
ROOT
HETATM    1 CL   UNL     1      -5.529  17.732  68.721  1.00  0.00    -0.166 Cl 
HETATM    2  C   UNL     1      -6.851  16.796  68.145  1.00  0.00    -0.149 A  
HETATM    3  C   UNL     1      -8.110  17.380  68.027  1.00  0.00    -0.227 A  
HETATM    4  C   UNL     1      -9.199  16.592  67.630  1.00  0.00    -0.200 A  
HETATM    5 CL   UNL     1     -10.732  17.388  67.506  1.00  0.00    -0.322 Cl 
HETATM    6  C   UNL     1      -9.057  15.214  67.358  1.00  0.00    -0.199 A  
HETATM    7  C   UNL     1      -7.764  14.670  67.429  1.00  0.00    -0.226 A  
HETATM    8  C   UNL     1      -6.671  15.455  67.822  1.00  0.00    -0.187 A  
ENDROOT
BRANCH   6   9
HETATM    9  C   UNL     1     -10.281  14.340  67.122  1.00  0.00    -0.254 C  
BRANCH   9  10
HETATM   10  O   UNL     1     -10.092  13.261  66.178  1.00  0.00    -0.282 OA 
BRANCH  10  11
HETATM   11  N   UNL     1     -10.675  12.075  66.687  1.00  0.00    -0.236 NA 
HETATM   12  H   UNL     1     -11.676  11.882  66.648  1.00  0.00     0.000 HD 
BRANCH  11  13
HETATM   13  C   UNL     1      -9.806  11.253  67.211  1.00  0.00    -0.182 C  
BRANCH  13  14
HETATM   14  C   UNL     1      -9.037  10.298  66.323  1.00  0.00    -0.178 A  
HETATM   15 CL   UNL     1     -10.509   8.130  67.213  1.00  0.00    -0.370 Cl 
HETATM   16  C   UNL     1      -8.041  10.815  65.473  1.00  0.00    -0.084 A  
HETATM   17  C   UNL     1      -9.301   8.916  66.257  1.00  0.00    -0.219 A  
HETATM   18  C   UNL     1      -7.367  10.003  64.552  1.00  0.00    -0.142 A  
HETATM   19 CL   UNL     1      -6.872   7.658  63.321  1.00  0.00    -0.065 Cl 
HETATM   20  C   UNL     1      -7.666   8.648  64.482  1.00  0.00    -0.124 A  
HETATM   21  C   UNL     1      -8.616   8.099  65.339  1.00  0.00    -0.154 A  
ENDBRANCH  13  14
BRANCH  13  22
HETATM   22  C   UNL     1      -9.463  11.229  68.699  1.00  0.00    -0.175 C  
BRANCH  22  23
HETATM   23  N   UNL     1     -10.600  10.964  69.570  1.00  0.00    -0.211 NA 
HETATM   24  C   UNL     1     -11.617  11.839  69.838  1.00  0.00    -0.274 A  
HETATM   25  N   UNL     1     -11.937   9.935  70.999  1.00  0.00    -0.337 NA 
HETATM   26  C   UNL     1     -10.847   9.819  70.270  1.00  0.00    -0.301 A  
HETATM   27  C   UNL     1     -12.425  11.185  70.738  1.00  0.00    -0.384 A  
ENDBRANCH  22  23
ENDBRANCH  13  22
ENDBRANCH  11  13
ENDBRANCH  10  11
ENDBRANCH   9  10
ENDBRANCH   6   9
TORSDOF 7
ENDMDL
MODEL      297
REMARK 921   NORMALIZED FREE ENERGY PREDICTED BY IDOCK:   -3.78 KCAL/MOL
REMARK 922        TOTAL FREE ENERGY PREDICTED BY IDOCK:   -6.45 KCAL/MOL
REMARK 923 INTER-LIGAND FREE ENERGY PREDICTED BY IDOCK:   -5.33 KCAL/MOL
REMARK 924 INTRA-LIGAND FREE ENERGY PREDICTED BY IDOCK:   -1.12 KCAL/MOL
REMARK 927      BINDING AFFINITY PREDICTED BY RF-SCORE:    0.00 PKD
ROOT
HETATM    1 CL   UNL     1     -13.468   9.882  71.336  1.00  0.00    -0.410 Cl 
HETATM    2  C   UNL     1     -12.423   8.570  71.711  1.00  0.00    -0.342 A  
HETATM    3  C   UNL     1     -11.086   8.818  72.016  1.00  0.00    -0.441 A  
HETATM    4  C   UNL     1     -10.222   7.739  72.246  1.00  0.00    -0.228 A  
HETATM    5 CL   UNL     1      -8.575   8.126  72.619  1.00  0.00    -0.241 Cl 
HETATM    6  C   UNL     1     -10.667   6.402  72.165  1.00  0.00    -0.259 A  
HETATM    7  C   UNL     1     -12.032   6.189  71.914  1.00  0.00    -0.278 A  
HETATM    8  C   UNL     1     -12.902   7.265  71.688  1.00  0.00    -0.415 A  
ENDROOT
BRANCH   6   9
HETATM    9  C   UNL     1      -9.674   5.249  72.222  1.00  0.00    -0.158 C  
BRANCH   9  10
HETATM   10  O   UNL     1      -8.953   4.998  70.995  1.00  0.00    -0.127 OA 
BRANCH  10  11
HETATM   11  N   UNL     1      -9.595   5.661  69.921  1.00  0.00    -0.155 NA 
HETATM   12  H   UNL     1     -10.608   5.701  69.814  1.00  0.00     0.000 HD 
BRANCH  11  13
HETATM   13  C   UNL     1      -8.763   6.216  69.080  1.00  0.00    -0.121 C  
BRANCH  13  14
HETATM   14  C   UNL     1      -9.164   7.471  68.337  1.00  0.00    -0.139 A  
HETATM   15 CL   UNL     1     -10.930   6.073  66.729  1.00  0.00    -0.366 Cl 
HETATM   16  C   UNL     1      -8.597   8.701  68.726  1.00  0.00    -0.130 A  
HETATM   17  C   UNL     1     -10.122   7.490  67.305  1.00  0.00    -0.231 A  
HETATM   18  C   UNL     1      -9.004   9.911  68.151  1.00  0.00    -0.118 A  
HETATM   19 CL   UNL     1     -10.506  11.398  66.480  1.00  0.00    -0.280 Cl 
HETATM   20  C   UNL     1      -9.974   9.909  67.156  1.00  0.00    -0.200 A  
HETATM   21  C   UNL     1     -10.522   8.706  66.721  1.00  0.00    -0.298 A  
ENDBRANCH  13  14
BRANCH  13  22
HETATM   22  C   UNL     1      -7.348   5.698  68.833  1.00  0.00    -0.082 C  
BRANCH  22  23
HETATM   23  N   UNL     1      -7.182   4.989  67.572  1.00  0.00    -0.070 NA 
HETATM   24  C   UNL     1      -6.403   5.400  66.525  1.00  0.00    -0.039 A  
HETATM   25  N   UNL     1      -7.442   3.476  65.980  1.00  0.00    -0.075 NA 
HETATM   26  C   UNL     1      -7.768   3.811  67.211  1.00  0.00    -0.079 A  
HETATM   27  C   UNL     1      -6.593   4.456  65.544  1.00  0.00    -0.044 A  
ENDBRANCH  22  23
ENDBRANCH  13  22
ENDBRANCH  11  13
ENDBRANCH  10  11
ENDBRANCH   9  10
ENDBRANCH   6   9
TORSDOF 7
ENDMDL
MODEL      298
REMARK 921   NORMALIZED FREE ENERGY PREDICTED BY IDOCK:   -3.78 KCAL/MOL
REMARK 922        TOTAL FREE ENERGY PREDICTED BY IDOCK:   -6.45 KCAL/MOL
REMARK 923 INTER-LIGAND FREE ENERGY PREDICTED BY IDOCK:   -5.80 KCAL/MOL
REMARK 924 INTRA-LIGAND FREE ENERGY PREDICTED BY IDOCK:   -0.65 KCAL/MOL
REMARK 927      BINDING AFFINITY PREDICTED BY RF-SCORE:    0.00 PKD
ROOT
HETATM    1 CL   UNL     1      -9.308   3.185  73.434  1.00  0.00    -0.100 Cl 
HETATM    2  C   UNL     1      -9.697   4.199  72.101  1.00  0.00    -0.162 A  
HETATM    3  C   UNL     1     -10.716   5.140  72.224  1.00  0.00    -0.266 A  
HETATM    4  C   UNL     1     -11.080   5.910  71.111  1.00  0.00    -0.236 A  
HETATM    5 CL   UNL     1     -12.355   7.060  71.342  1.00  0.00    -0.398 Cl 
HETATM    6  C   UNL     1     -10.448   5.748  69.860  1.00  0.00    -0.360 A  
HETATM    7  C   UNL     1      -9.385   4.833  69.784  1.00  0.00    -0.208 A  
HETATM    8  C   UNL     1      -9.015   4.064  70.897  1.00  0.00    -0.157 A  
ENDROOT
BRANCH   6   9
HETATM    9  C   UNL     1     -10.989   6.450  68.621  1.00  0.00    -0.330 C  
BRANCH   9  10
HETATM   10  O   UNL     1     -11.235   7.866  68.776  1.00  0.00     0.210 OA 
BRANCH  10  11
HETATM   11  N   UNL     1     -10.016   8.536  69.040  1.00  0.00    -0.187 NA 
HETATM   12  H   UNL     1      -9.532   8.484  69.936  1.00  0.00     0.000 HD 
BRANCH  11  13
HETATM   13  C   UNL     1      -9.572   9.227  68.024  1.00  0.00    -0.142 C  
BRANCH  13  14
HETATM   14  C   UNL     1     -10.406  10.355  67.454  1.00  0.00    -0.275 A  
HETATM   15 CL   UNL     1     -11.363  11.045  69.957  1.00  0.00    -0.365 Cl 
HETATM   16  C   UNL     1     -10.345  10.610  66.070  1.00  0.00    -0.290 A  
HETATM   17  C   UNL     1     -11.204  11.206  68.242  1.00  0.00    -0.279 A  
HETATM   18  C   UNL     1     -11.008  11.702  65.496  1.00  0.00    -0.327 A  
HETATM   19 CL   UNL     1     -12.541  13.915  65.601  1.00  0.00    -0.544 Cl 
HETATM   20  C   UNL     1     -11.763  12.548  66.298  1.00  0.00    -0.404 A  
HETATM   21  C   UNL     1     -11.877  12.297  67.662  1.00  0.00    -0.334 A  
ENDBRANCH  13  14
BRANCH  13  22
HETATM   22  C   UNL     1      -8.201   9.003  67.391  1.00  0.00    -0.108 C  
BRANCH  22  23
HETATM   23  N   UNL     1      -8.001   7.663  66.858  1.00  0.00    -0.113 NA 
HETATM   24  C   UNL     1      -7.247   6.680  67.441  1.00  0.00    -0.086 A  
HETATM   25  N   UNL     1      -8.090   5.926  65.492  1.00  0.00    -0.124 NA 
HETATM   26  C   UNL     1      -8.512   7.156  65.699  1.00  0.00    -0.134 A  
HETATM   27  C   UNL     1      -7.305   5.619  66.568  1.00  0.00    -0.079 A  
ENDBRANCH  22  23
ENDBRANCH  13  22
ENDBRANCH  11  13
ENDBRANCH  10  11
ENDBRANCH   9  10
ENDBRANCH   6   9
TORSDOF 7
ENDMDL
MODEL      299
REMARK 921   NORMALIZED FREE ENERGY PREDICTED BY IDOCK:   -3.77 KCAL/MOL
REMARK 922        TOTAL FREE ENERGY PREDICTED BY IDOCK:   -6.44 KCAL/MOL
REMARK 923 INTER-LIGAND FREE ENERGY PREDICTED BY IDOCK:   -5.53 KCAL/MOL
REMARK 924 INTRA-LIGAND FREE ENERGY PREDICTED BY IDOCK:   -0.91 KCAL/MOL
REMARK 927      BINDING AFFINITY PREDICTED BY RF-SCORE:    0.00 PKD
ROOT
HETATM    1 CL   UNL     1      -8.913   1.709  63.256  1.00  0.00    -0.086 Cl 
HETATM    2  C   UNL     1      -9.383   2.978  64.316  1.00  0.00    -0.138 A  
HETATM    3  C   UNL     1      -8.602   3.270  65.432  1.00  0.00    -0.112 A  
HETATM    4  C   UNL     1      -9.031   4.254  66.334  1.00  0.00    -0.120 A  
HETATM    5 CL   UNL     1      -8.007   4.561  67.697  1.00  0.00    -0.095 Cl 
HETATM    6  C   UNL     1     -10.243   4.951  66.148  1.00  0.00    -0.309 A  
HETATM    7  C   UNL     1     -10.977   4.675  64.983  1.00  0.00     0.068 A  
HETATM    8  C   UNL     1     -10.550   3.695  64.076  1.00  0.00    -0.272 A  
ENDROOT
BRANCH   6   9
HETATM    9  C   UNL     1     -10.785   5.869  67.236  1.00  0.00    -0.297 C  
BRANCH   9  10
HETATM   10  O   UNL     1     -10.200   7.191  67.270  1.00  0.00    -0.194 OA 
BRANCH  10  11
HETATM   11  N   UNL     1     -10.944   8.019  68.146  1.00  0.00    -0.441 NA 
HETATM   12  H   UNL     1     -11.961   7.988  68.216  1.00  0.00     0.000 HD 
BRANCH  11  13
HETATM   13  C   UNL     1     -10.201   8.825  68.855  1.00  0.00    -0.207 C  
BRANCH  13  14
HETATM   14  C   UNL     1     -10.686  10.225  69.165  1.00  0.00    -0.259 A  
HETATM   15 CL   UNL     1      -9.306  11.286  67.014  1.00  0.00    -0.178 Cl 
HETATM   16  C   UNL     1     -11.566  10.413  70.248  1.00  0.00    -0.410 A  
HETATM   17  C   UNL     1     -10.350  11.353  68.391  1.00  0.00    -0.195 A  
HETATM   18  C   UNL     1     -12.135  11.664  70.523  1.00  0.00    -0.458 A  
HETATM   19 CL   UNL     1     -12.545  14.281  70.037  1.00  0.00    -0.346 Cl 
HETATM   20  C   UNL     1     -11.814  12.756  69.727  1.00  0.00    -0.310 A  
HETATM   21  C   UNL     1     -10.914  12.610  68.676  1.00  0.00    -0.292 A  
ENDBRANCH  13  14
BRANCH  13  22
HETATM   22  C   UNL     1      -8.858   8.419  69.458  1.00  0.00    -0.145 C  
BRANCH  22  23
HETATM   23  N   UNL     1      -8.957   7.444  70.535  1.00  0.00    -0.155 NA 
HETATM   24  C   UNL     1      -8.103   6.393  70.738  1.00  0.00    -0.120 A  
HETATM   25  N   UNL     1      -9.728   6.355  72.299  1.00  0.00    -0.152 NA 
HETATM   26  C   UNL     1      -9.905   7.398  71.515  1.00  0.00    -0.173 A  
HETATM   27  C   UNL     1      -8.610   5.724  71.826  1.00  0.00    -0.131 A  
ENDBRANCH  22  23
ENDBRANCH  13  22
ENDBRANCH  11  13
ENDBRANCH  10  11
ENDBRANCH   9  10
ENDBRANCH   6   9
TORSDOF 7
ENDMDL
MODEL      300
REMARK 921   NORMALIZED FREE ENERGY PREDICTED BY IDOCK:   -3.74 KCAL/MOL
REMARK 922        TOTAL FREE ENERGY PREDICTED BY IDOCK:   -6.39 KCAL/MOL
REMARK 923 INTER-LIGAND FREE ENERGY PREDICTED BY IDOCK:   -5.35 KCAL/MOL
REMARK 924 INTRA-LIGAND FREE ENERGY PREDICTED BY IDOCK:   -1.04 KCAL/MOL
REMARK 927      BINDING AFFINITY PREDICTED BY RF-SCORE:    0.00 PKD
ROOT
HETATM    1 CL   UNL     1      -9.053   2.336  62.467  1.00  0.00    -0.084 Cl 
HETATM    2  C   UNL     1      -9.404   3.483  63.699  1.00  0.00    -0.118 A  
HETATM    3  C   UNL     1      -8.372   4.237  64.253  1.00  0.00    -0.105 A  
HETATM    4  C   UNL     1      -8.652   5.115  65.309  1.00  0.00    -0.148 A  
HETATM    5 CL   UNL     1      -7.318   6.018  65.946  1.00  0.00    -0.075 Cl 
HETATM    6  C   UNL     1      -9.954   5.247  65.837  1.00  0.00    -0.103 A  
HETATM    7  C   UNL     1     -10.981   4.518  65.217  1.00  0.00    -0.014 A  
HETATM    8  C   UNL     1     -10.707   3.641  64.157  1.00  0.00    -0.221 A  
ENDROOT
BRANCH   6   9
HETATM    9  C   UNL     1     -10.199   6.053  67.106  1.00  0.00    -0.202 C  
BRANCH   9  10
HETATM   10  O   UNL     1     -10.884   7.311  66.911  1.00  0.00    -0.355 OA 
BRANCH  10  11
HETATM   11  N   UNL     1     -10.292   8.308  67.725  1.00  0.00    -0.231 NA 
HETATM   12  H   UNL     1     -10.402   8.340  68.738  1.00  0.00     0.000 HD 
BRANCH  11  13
HETATM   13  C   UNL     1      -9.592   9.181  67.051  1.00  0.00    -0.170 C  
BRANCH  13  14
HETATM   14  C   UNL     1     -10.293  10.242  66.231  1.00  0.00    -0.256 A  
HETATM   15 CL   UNL     1     -11.282  11.482  68.498  1.00  0.00    -0.283 Cl 
HETATM   16  C   UNL     1     -10.153  10.218  64.829  1.00  0.00    -0.336 A  
HETATM   17  C   UNL     1     -11.039  11.294  66.796  1.00  0.00    -0.250 A  
HETATM   18  C   UNL     1     -10.687  11.230  64.022  1.00  0.00    -0.444 A  
HETATM   19 CL   UNL     1     -12.010  13.542  63.617  1.00  0.00    -0.484 Cl 
HETATM   20  C   UNL     1     -11.392  12.276  64.604  1.00  0.00    -0.322 A  
HETATM   21  C   UNL     1     -11.584  12.304  65.982  1.00  0.00    -0.451 A  
ENDBRANCH  13  14
BRANCH  13  22
HETATM   22  C   UNL     1      -8.067   9.239  67.083  1.00  0.00    -0.109 C  
BRANCH  22  23
HETATM   23  N   UNL     1      -7.526  10.498  67.574  1.00  0.00    -0.092 NA 
HETATM   24  C   UNL     1      -7.801  11.060  68.792  1.00  0.00    -0.138 A  
HETATM   25  N   UNL     1      -6.421  12.413  67.633  1.00  0.00    -0.113 NA 
HETATM   26  C   UNL     1      -6.668  11.334  66.920  1.00  0.00    -0.135 A  
HETATM   27  C   UNL     1      -7.117  12.253  68.798  1.00  0.00    -0.107 A  
ENDBRANCH  22  23
ENDBRANCH  13  22
ENDBRANCH  11  13
ENDBRANCH  10  11
ENDBRANCH   9  10
ENDBRANCH   6   9
TORSDOF 7
ENDMDL
MODEL      301
REMARK 921   NORMALIZED FREE ENERGY PREDICTED BY IDOCK:   -3.74 KCAL/MOL
REMARK 922        TOTAL FREE ENERGY PREDICTED BY IDOCK:   -6.38 KCAL/MOL
REMARK 923 INTER-LIGAND FREE ENERGY PREDICTED BY IDOCK:   -6.43 KCAL/MOL
REMARK 924 INTRA-LIGAND FREE ENERGY PREDICTED BY IDOCK:    0.05 KCAL/MOL
REMARK 927      BINDING AFFINITY PREDICTED BY RF-SCORE:    0.00 PKD
ROOT
HETATM    1 CL   UNL     1      -6.193  17.719  69.778  1.00  0.00    -0.219 Cl 
HETATM    2  C   UNL     1      -7.308  17.420  68.505  1.00  0.00    -0.237 A  
HETATM    3  C   UNL     1      -8.327  18.335  68.250  1.00  0.00    -0.316 A  
HETATM    4  C   UNL     1      -9.278  18.048  67.261  1.00  0.00    -0.255 A  
HETATM    5 CL   UNL     1     -10.514  19.234  67.001  1.00  0.00    -0.518 Cl 
HETATM    6  C   UNL     1      -9.239  16.846  66.523  1.00  0.00    -0.295 A  
HETATM    7  C   UNL     1      -8.167  15.972  66.763  1.00  0.00    -0.307 A  
HETATM    8  C   UNL     1      -7.210  16.257  67.748  1.00  0.00    -0.152 A  
ENDROOT
BRANCH   6   9
HETATM    9  C   UNL     1     -10.389  16.467  65.598  1.00  0.00    -0.350 C  
BRANCH   9  10
HETATM   10  O   UNL     1     -10.997  15.183  65.869  1.00  0.00    -0.333 OA 
BRANCH  10  11
HETATM   11  N   UNL     1     -10.000  14.178  65.889  1.00  0.00    -0.316 NA 
HETATM   12  H   UNL     1      -9.126  14.246  65.368  1.00  0.00     0.000 HD 
BRANCH  11  13
HETATM   13  C   UNL     1     -10.308  13.156  66.641  1.00  0.00    -0.265 C  
BRANCH  13  14
HETATM   14  C   UNL     1      -9.220  12.232  67.144  1.00  0.00    -0.196 A  
HETATM   15 CL   UNL     1     -10.836  10.006  66.848  1.00  0.00    -0.212 Cl 
HETATM   16  C   UNL     1      -7.966  12.780  67.479  1.00  0.00    -0.177 A  
HETATM   17  C   UNL     1      -9.372  10.835  67.246  1.00  0.00    -0.151 A  
HETATM   18  C   UNL     1      -6.886  11.968  67.849  1.00  0.00    -0.087 A  
HETATM   19 CL   UNL     1      -5.712   9.590  68.323  1.00  0.00    -0.037 Cl 
HETATM   20  C   UNL     1      -7.049  10.590  67.911  1.00  0.00    -0.083 A  
HETATM   21  C   UNL     1      -8.289  10.023  67.628  1.00  0.00    -0.114 A  
ENDBRANCH  13  14
BRANCH  13  22
HETATM   22  C   UNL     1     -11.730  12.853  67.107  1.00  0.00    -0.377 C  
BRANCH  22  23
HETATM   23  N   UNL     1     -11.980  13.164  68.507  1.00  0.00    -0.331 NA 
HETATM   24  C   UNL     1     -12.102  12.247  69.516  1.00  0.00    -0.198 A  
HETATM   25  N   UNL     1     -12.403  14.321  70.344  1.00  0.00    -0.333 NA 
HETATM   26  C   UNL     1     -12.141  14.403  69.057  1.00  0.00    -0.263 A  
HETATM   27  C   UNL     1     -12.380  12.987  70.641  1.00  0.00    -0.310 A  
ENDBRANCH  22  23
ENDBRANCH  13  22
ENDBRANCH  11  13
ENDBRANCH  10  11
ENDBRANCH   9  10
ENDBRANCH   6   9
TORSDOF 7
ENDMDL
MODEL      302
REMARK 921   NORMALIZED FREE ENERGY PREDICTED BY IDOCK:   -3.72 KCAL/MOL
REMARK 922        TOTAL FREE ENERGY PREDICTED BY IDOCK:   -6.36 KCAL/MOL
REMARK 923 INTER-LIGAND FREE ENERGY PREDICTED BY IDOCK:   -4.61 KCAL/MOL
REMARK 924 INTRA-LIGAND FREE ENERGY PREDICTED BY IDOCK:   -1.75 KCAL/MOL
REMARK 927      BINDING AFFINITY PREDICTED BY RF-SCORE:    0.00 PKD
ROOT
HETATM    1 CL   UNL     1     -10.255   9.732  66.137  1.00  0.00    -0.312 Cl 
HETATM    2  C   UNL     1      -9.309   9.198  67.470  1.00  0.00    -0.135 A  
HETATM    3  C   UNL     1      -8.103   8.539  67.240  1.00  0.00    -0.105 A  
HETATM    4  C   UNL     1      -7.374   8.039  68.327  1.00  0.00    -0.095 A  
HETATM    5 CL   UNL     1      -5.886   7.232  67.963  1.00  0.00    -0.029 Cl 
HETATM    6  C   UNL     1      -7.837   8.174  69.654  1.00  0.00    -0.103 A  
HETATM    7  C   UNL     1      -9.025   8.894  69.855  1.00  0.00    -0.160 A  
HETATM    8  C   UNL     1      -9.755   9.400  68.771  1.00  0.00    -0.161 A  
ENDROOT
BRANCH   6   9
HETATM    9  C   UNL     1      -7.133   7.454  70.797  1.00  0.00    -0.063 C  
BRANCH   9  10
HETATM   10  O   UNL     1      -7.258   6.014  70.785  1.00  0.00    -0.072 OA 
BRANCH  10  11
HETATM   11  N   UNL     1      -7.831   5.574  72.002  1.00  0.00    -0.105 NA 
HETATM   12  H   UNL     1      -7.341   5.607  72.896  1.00  0.00     0.000 HD 
BRANCH  11  13
HETATM   13  C   UNL     1      -9.049   5.121  71.870  1.00  0.00    -0.137 C  
BRANCH  13  14
HETATM   14  C   UNL     1     -10.215   6.086  71.834  1.00  0.00    -0.237 A  
HETATM   15 CL   UNL     1      -9.412   7.298  74.188  1.00  0.00    -0.285 Cl 
HETATM   16  C   UNL     1     -11.107   6.031  70.746  1.00  0.00    -0.355 A  
HETATM   17  C   UNL     1     -10.430   7.080  72.807  1.00  0.00    -0.238 A  
HETATM   18  C   UNL     1     -12.143   6.963  70.599  1.00  0.00    -0.363 A  
HETATM   19 CL   UNL     1     -13.560   9.126  71.352  1.00  0.00    -0.381 Cl 
HETATM   20  C   UNL     1     -12.317   7.955  71.554  1.00  0.00    -0.315 A  
HETATM   21  C   UNL     1     -11.478   8.009  72.663  1.00  0.00    -0.465 A  
ENDBRANCH  13  14
BRANCH  13  22
HETATM   22  C   UNL     1      -9.381   3.642  71.687  1.00  0.00    -0.133 C  
BRANCH  22  23
HETATM   23  N   UNL     1      -8.891   3.069  70.440  1.00  0.00    -0.074 NA 
HETATM   24  C   UNL     1      -9.497   3.188  69.219  1.00  0.00    -0.109 A  
HETATM   25  N   UNL     1      -7.645   1.919  69.021  1.00  0.00    -0.043 NA 
HETATM   26  C   UNL     1      -7.764   2.320  70.269  1.00  0.00    -0.042 A  
HETATM   27  C   UNL     1      -8.715   2.454  68.359  1.00  0.00    -0.093 A  
ENDBRANCH  22  23
ENDBRANCH  13  22
ENDBRANCH  11  13
ENDBRANCH  10  11
ENDBRANCH   9  10
ENDBRANCH   6   9
TORSDOF 7
ENDMDL
MODEL      303
REMARK 921   NORMALIZED FREE ENERGY PREDICTED BY IDOCK:   -3.72 KCAL/MOL
REMARK 922        TOTAL FREE ENERGY PREDICTED BY IDOCK:   -6.36 KCAL/MOL
REMARK 923 INTER-LIGAND FREE ENERGY PREDICTED BY IDOCK:   -5.50 KCAL/MOL
REMARK 924 INTRA-LIGAND FREE ENERGY PREDICTED BY IDOCK:   -0.85 KCAL/MOL
REMARK 927      BINDING AFFINITY PREDICTED BY RF-SCORE:    0.00 PKD
ROOT
HETATM    1 CL   UNL     1     -12.553  12.188  63.000  1.00  0.00    -0.319 Cl 
HETATM    2  C   UNL     1     -11.790  12.218  64.540  1.00  0.00    -0.369 A  
HETATM    3  C   UNL     1     -12.250  13.093  65.521  1.00  0.00    -0.513 A  
HETATM    4  C   UNL     1     -11.576  13.167  66.748  1.00  0.00    -0.366 A  
HETATM    5 CL   UNL     1     -12.206  14.277  67.918  1.00  0.00    -0.284 Cl 
HETATM    6  C   UNL     1     -10.431  12.384  67.012  1.00  0.00    -0.238 A  
HETATM    7  C   UNL     1     -10.029  11.470  66.025  1.00  0.00    -0.258 A  
HETATM    8  C   UNL     1     -10.703  11.390  64.798  1.00  0.00    -0.362 A  
ENDROOT
BRANCH   6   9
HETATM    9  C   UNL     1      -9.602  12.622  68.268  1.00  0.00    -0.208 C  
BRANCH   9  10
HETATM   10  O   UNL     1      -8.217  12.964  68.033  1.00  0.00    -0.147 OA 
BRANCH  10  11
HETATM   11  N   UNL     1      -7.757  13.822  69.061  1.00  0.00    -0.319 NA 
HETATM   12  H   UNL     1      -7.720  13.550  70.043  1.00  0.00     0.000 HD 
BRANCH  11  13
HETATM   13  C   UNL     1      -7.384  14.998  68.629  1.00  0.00    -0.118 C  
BRANCH  13  14
HETATM   14  C   UNL     1      -8.353  15.859  67.847  1.00  0.00    -0.158 A  
HETATM   15 CL   UNL     1      -9.962  16.235  70.066  1.00  0.00     0.071 Cl 
HETATM   16  C   UNL     1      -8.076  16.135  66.494  1.00  0.00    -0.331 A  
HETATM   17  C   UNL     1      -9.498  16.451  68.415  1.00  0.00    -0.220 A  
HETATM   18  C   UNL     1      -8.874  17.009  65.745  1.00  0.00     0.154 A  
HETATM   19 CL   UNL     1     -10.934  18.715  65.430  1.00  0.00     0.076 Cl 
HETATM   20  C   UNL     1      -9.980  17.608  66.335  1.00  0.00    -0.334 A  
HETATM   21  C   UNL     1     -10.304  17.321  67.658  1.00  0.00    -0.350 A  
ENDBRANCH  13  14
BRANCH  13  22
HETATM   22  C   UNL     1      -6.012  15.602  68.917  1.00  0.00    -0.103 C  
BRANCH  22  23
HETATM   23  N   UNL     1      -5.959  17.052  68.790  1.00  0.00    -0.148 NA 
HETATM   24  C   UNL     1      -5.265  17.742  67.833  1.00  0.00    -0.137 A  
HETATM   25  N   UNL     1      -6.274  19.197  69.226  1.00  0.00    -0.264 NA 
HETATM   26  C   UNL     1      -6.575  17.969  69.592  1.00  0.00    -0.074 A  
HETATM   27  C   UNL     1      -5.463  19.069  68.134  1.00  0.00    -0.185 A  
ENDBRANCH  22  23
ENDBRANCH  13  22
ENDBRANCH  11  13
ENDBRANCH  10  11
ENDBRANCH   9  10
ENDBRANCH   6   9
TORSDOF 7
ENDMDL
MODEL      304
REMARK 921   NORMALIZED FREE ENERGY PREDICTED BY IDOCK:   -3.72 KCAL/MOL
REMARK 922        TOTAL FREE ENERGY PREDICTED BY IDOCK:   -6.36 KCAL/MOL
REMARK 923 INTER-LIGAND FREE ENERGY PREDICTED BY IDOCK:   -6.20 KCAL/MOL
REMARK 924 INTRA-LIGAND FREE ENERGY PREDICTED BY IDOCK:   -0.16 KCAL/MOL
REMARK 927      BINDING AFFINITY PREDICTED BY RF-SCORE:    0.00 PKD
ROOT
HETATM    1 CL   UNL     1      -7.014   9.328  62.491  1.00  0.00    -0.095 Cl 
HETATM    2  C   UNL     1      -8.329   9.891  63.445  1.00  0.00    -0.168 A  
HETATM    3  C   UNL     1      -9.195  10.851  62.928  1.00  0.00    -0.348 A  
HETATM    4  C   UNL     1     -10.219  11.362  63.738  1.00  0.00    -0.382 A  
HETATM    5 CL   UNL     1     -11.255  12.553  63.025  1.00  0.00    -0.112 Cl 
HETATM    6  C   UNL     1     -10.389  10.936  65.072  1.00  0.00    -0.356 A  
HETATM    7  C   UNL     1      -9.537   9.925  65.544  1.00  0.00    -0.341 A  
HETATM    8  C   UNL     1      -8.514   9.408  64.736  1.00  0.00    -0.180 A  
ENDROOT
BRANCH   6   9
HETATM    9  C   UNL     1     -11.377  11.643  65.992  1.00  0.00    -0.196 C  
BRANCH   9  10
HETATM   10  O   UNL     1     -11.005  11.668  67.389  1.00  0.00    -0.231 OA 
BRANCH  10  11
HETATM   11  N   UNL     1     -12.035  11.085  68.166  1.00  0.00    -0.763 NA 
HETATM   12  H   UNL     1     -13.004  11.023  67.855  1.00  0.00     0.000 HD 
BRANCH  11  13
HETATM   13  C   UNL     1     -11.622  10.635  69.321  1.00  0.00    -0.275 C  
BRANCH  13  14
HETATM   14  C   UNL     1     -10.689   9.445  69.380  1.00  0.00    -0.234 A  
HETATM   15 CL   UNL     1      -8.454  11.075  69.447  1.00  0.00     0.056 Cl 
HETATM   16  C   UNL     1     -11.242   8.150  69.419  1.00  0.00     0.213 A  
HETATM   17  C   UNL     1      -9.287   9.560  69.454  1.00  0.00    -0.180 A  
HETATM   18  C   UNL     1     -10.440   7.014  69.580  1.00  0.00    -0.238 A  
HETATM   19 CL   UNL     1      -8.079   5.763  69.926  1.00  0.00    -0.105 Cl 
HETATM   20  C   UNL     1      -9.062   7.153  69.684  1.00  0.00    -0.140 A  
HETATM   21  C   UNL     1      -8.482   8.416  69.606  1.00  0.00    -0.127 A  
ENDBRANCH  13  14
BRANCH  13  22
HETATM   22  C   UNL     1     -11.986  11.284  70.655  1.00  0.00    -0.336 C  
BRANCH  22  23
HETATM   23  N   UNL     1     -12.269  12.710  70.568  1.00  0.00    -0.353 NA 
HETATM   24  C   UNL     1     -11.985  13.513  69.496  1.00  0.00    -0.334 A  
HETATM   25  N   UNL     1     -12.911  14.748  71.138  1.00  0.00    -0.337 NA 
HETATM   26  C   UNL     1     -12.851  13.491  71.523  1.00  0.00    -0.352 A  
HETATM   27  C   UNL     1     -12.377  14.774  69.879  1.00  0.00    -0.283 A  
ENDBRANCH  22  23
ENDBRANCH  13  22
ENDBRANCH  11  13
ENDBRANCH  10  11
ENDBRANCH   9  10
ENDBRANCH   6   9
TORSDOF 7
ENDMDL
MODEL      305
REMARK 921   NORMALIZED FREE ENERGY PREDICTED BY IDOCK:   -3.68 KCAL/MOL
REMARK 922        TOTAL FREE ENERGY PREDICTED BY IDOCK:   -6.31 KCAL/MOL
REMARK 923 INTER-LIGAND FREE ENERGY PREDICTED BY IDOCK:   -5.57 KCAL/MOL
REMARK 924 INTRA-LIGAND FREE ENERGY PREDICTED BY IDOCK:   -0.74 KCAL/MOL
REMARK 927      BINDING AFFINITY PREDICTED BY RF-SCORE:    0.00 PKD
ROOT
HETATM    1 CL   UNL     1     -11.398  15.942  64.613  1.00  0.00    -0.396 Cl 
HETATM    2  C   UNL     1     -10.884  14.498  65.391  1.00  0.00    -0.354 A  
HETATM    3  C   UNL     1     -10.777  13.319  64.656  1.00  0.00    -0.415 A  
HETATM    4  C   UNL     1     -10.432  12.129  65.311  1.00  0.00    -0.276 A  
HETATM    5 CL   UNL     1     -10.318  10.705  64.331  1.00  0.00    -0.414 Cl 
HETATM    6  C   UNL     1     -10.202  12.090  66.703  1.00  0.00    -0.229 A  
HETATM    7  C   UNL     1     -10.261  13.305  67.404  1.00  0.00    -0.229 A  
HETATM    8  C   UNL     1     -10.601  14.499  66.752  1.00  0.00    -0.276 A  
ENDROOT
BRANCH   6   9
HETATM    9  C   UNL     1     -10.024  10.759  67.422  1.00  0.00    -0.184 C  
BRANCH   9  10
HETATM   10  O   UNL     1      -8.735  10.131  67.241  1.00  0.00    -0.128 OA 
BRANCH  10  11
HETATM   11  N   UNL     1      -8.562   9.109  68.205  1.00  0.00    -0.128 NA 
HETATM   12  H   UNL     1      -7.921   9.187  68.994  1.00  0.00     0.000 HD 
BRANCH  11  13
HETATM   13  C   UNL     1      -9.305   8.057  67.987  1.00  0.00    -0.138 C  
BRANCH  13  14
HETATM   14  C   UNL     1      -9.847   7.258  69.152  1.00  0.00    -0.166 A  
HETATM   15 CL   UNL     1      -7.379   6.105  69.638  1.00  0.00    -0.077 Cl 
HETATM   16  C   UNL     1     -11.198   7.422  69.517  1.00  0.00    -0.015 A  
HETATM   17  C   UNL     1      -9.058   6.394  69.935  1.00  0.00    -0.142 A  
HETATM   18  C   UNL     1     -11.733   6.794  70.649  1.00  0.00    -0.440 A  
HETATM   19 CL   UNL     1     -11.573   5.235  72.840  1.00  0.00    -0.349 Cl 
HETATM   20  C   UNL     1     -10.928   5.971  71.425  1.00  0.00    -0.276 A  
HETATM   21  C   UNL     1      -9.601   5.756  71.066  1.00  0.00    -0.203 A  
ENDBRANCH  13  14
BRANCH  13  22
HETATM   22  C   UNL     1      -9.722   7.598  66.591  1.00  0.00    -0.213 C  
BRANCH  22  23
HETATM   23  N   UNL     1      -8.617   7.149  65.755  1.00  0.00    -0.149 NA 
HETATM   24  C   UNL     1      -8.038   7.872  64.747  1.00  0.00    -0.141 A  
HETATM   25  N   UNL     1      -7.057   5.848  64.881  1.00  0.00    -0.059 NA 
HETATM   26  C   UNL     1      -7.976   5.946  65.818  1.00  0.00    -0.111 A  
HETATM   27  C   UNL     1      -7.085   7.039  64.210  1.00  0.00    -0.059 A  
ENDBRANCH  22  23
ENDBRANCH  13  22
ENDBRANCH  11  13
ENDBRANCH  10  11
ENDBRANCH   9  10
ENDBRANCH   6   9
TORSDOF 7
ENDMDL
MODEL      306
REMARK 921   NORMALIZED FREE ENERGY PREDICTED BY IDOCK:   -3.65 KCAL/MOL
REMARK 922        TOTAL FREE ENERGY PREDICTED BY IDOCK:   -6.26 KCAL/MOL
REMARK 923 INTER-LIGAND FREE ENERGY PREDICTED BY IDOCK:   -5.04 KCAL/MOL
REMARK 924 INTRA-LIGAND FREE ENERGY PREDICTED BY IDOCK:   -1.22 KCAL/MOL
REMARK 927      BINDING AFFINITY PREDICTED BY RF-SCORE:    0.00 PKD
ROOT
HETATM    1 CL   UNL     1      -7.684   2.918  65.022  1.00  0.00    -0.080 Cl 
HETATM    2  C   UNL     1      -8.557   4.301  65.553  1.00  0.00    -0.119 A  
HETATM    3  C   UNL     1      -7.884   5.500  65.771  1.00  0.00    -0.104 A  
HETATM    4  C   UNL     1      -8.588   6.602  66.277  1.00  0.00    -0.138 A  
HETATM    5 CL   UNL     1      -7.683   8.059  66.521  1.00  0.00    -0.092 Cl 
HETATM    6  C   UNL     1      -9.963   6.525  66.585  1.00  0.00    -0.204 A  
HETATM    7  C   UNL     1     -10.624   5.320  66.298  1.00  0.00    -0.308 A  
HETATM    8  C   UNL     1      -9.925   4.216  65.788  1.00  0.00    -0.200 A  
ENDROOT
BRANCH   6   9
HETATM    9  C   UNL     1     -10.660   7.666  67.315  1.00  0.00    -0.318 C  
BRANCH   9  10
HETATM   10  O   UNL     1     -10.876   7.449  68.728  1.00  0.00    -0.155 OA 
BRANCH  10  11
HETATM   11  N   UNL     1      -9.684   7.722  69.440  1.00  0.00    -0.167 NA 
HETATM   12  H   UNL     1      -8.896   7.075  69.483  1.00  0.00     0.000 HD 
BRANCH  11  13
HETATM   13  C   UNL     1      -9.690   8.884  70.038  1.00  0.00    -0.174 C  
BRANCH  13  14
HETATM   14  C   UNL     1      -9.174  10.109  69.316  1.00  0.00    -0.220 A  
HETATM   15 CL   UNL     1     -11.717  10.812  68.483  1.00  0.00    -0.327 Cl 
HETATM   16  C   UNL     1      -7.797  10.403  69.377  1.00  0.00    -0.163 A  
HETATM   17  C   UNL     1     -10.005  11.012  68.626  1.00  0.00    -0.199 A  
HETATM   18  C   UNL     1      -7.272  11.576  68.821  1.00  0.00    -0.112 A  
HETATM   19 CL   UNL     1      -7.479  13.931  67.529  1.00  0.00    -0.186 Cl 
HETATM   20  C   UNL     1      -8.116  12.469  68.173  1.00  0.00    -0.167 A  
HETATM   21  C   UNL     1      -9.474  12.185  68.059  1.00  0.00    -0.201 A  
ENDBRANCH  13  14
BRANCH  13  22
HETATM   22  C   UNL     1     -10.254   9.104  71.440  1.00  0.00    -0.332 C  
BRANCH  22  23
HETATM   23  N   UNL     1     -10.191   7.930  72.301  1.00  0.00    -0.221 NA 
HETATM   24  C   UNL     1      -9.092   7.516  73.002  1.00  0.00    -0.172 A  
HETATM   25  N   UNL     1     -10.786   6.069  73.336  1.00  0.00    -0.255 NA 
HETATM   26  C   UNL     1     -11.197   7.044  72.553  1.00  0.00    -0.275 A  
HETATM   27  C   UNL     1      -9.480   6.353  73.623  1.00  0.00    -0.150 A  
ENDBRANCH  22  23
ENDBRANCH  13  22
ENDBRANCH  11  13
ENDBRANCH  10  11
ENDBRANCH   9  10
ENDBRANCH   6   9
TORSDOF 7
ENDMDL
MODEL      307
REMARK 921   NORMALIZED FREE ENERGY PREDICTED BY IDOCK:   -3.64 KCAL/MOL
REMARK 922        TOTAL FREE ENERGY PREDICTED BY IDOCK:   -6.25 KCAL/MOL
REMARK 923 INTER-LIGAND FREE ENERGY PREDICTED BY IDOCK:   -5.34 KCAL/MOL
REMARK 924 INTRA-LIGAND FREE ENERGY PREDICTED BY IDOCK:   -0.90 KCAL/MOL
REMARK 927      BINDING AFFINITY PREDICTED BY RF-SCORE:    0.00 PKD
ROOT
HETATM    1 CL   UNL     1     -11.037   2.698  73.531  1.00  0.00    -0.310 Cl 
HETATM    2  C   UNL     1     -10.756   4.289  72.944  1.00  0.00    -0.167 A  
HETATM    3  C   UNL     1      -9.464   4.682  72.605  1.00  0.00    -0.163 A  
HETATM    4  C   UNL     1      -9.230   6.003  72.201  1.00  0.00    -0.145 A  
HETATM    5 CL   UNL     1      -7.597   6.416  71.795  1.00  0.00    -0.094 Cl 
HETATM    6  C   UNL     1     -10.270   6.954  72.139  1.00  0.00    -0.213 A  
HETATM    7  C   UNL     1     -11.571   6.511  72.430  1.00  0.00    -0.292 A  
HETATM    8  C   UNL     1     -11.810   5.189  72.831  1.00  0.00    -0.147 A  
ENDROOT
BRANCH   6   9
HETATM    9  C   UNL     1      -9.963   8.425  71.890  1.00  0.00    -0.261 C  
BRANCH   9  10
HETATM   10  O   UNL     1      -9.552   8.746  70.541  1.00  0.00    -0.171 OA 
BRANCH  10  11
HETATM   11  N   UNL     1     -10.480   8.205  69.619  1.00  0.00    -0.223 NA 
HETATM   12  H   UNL     1     -11.058   7.389  69.820  1.00  0.00     0.000 HD 
BRANCH  11  13
HETATM   13  C   UNL     1     -10.524   8.853  68.485  1.00  0.00    -0.182 C  
BRANCH  13  14
HETATM   14  C   UNL     1     -10.568  10.366  68.479  1.00  0.00    -0.237 A  
HETATM   15 CL   UNL     1      -7.960  10.536  67.570  1.00  0.00    -0.106 Cl 
HETATM   16  C   UNL     1     -11.766  11.011  68.844  1.00  0.00    -0.400 A  
HETATM   17  C   UNL     1      -9.488  11.172  68.073  1.00  0.00    -0.174 A  
HETATM   18  C   UNL     1     -11.906  12.402  68.758  1.00  0.00    -0.358 A  
HETATM   19 CL   UNL     1     -11.021  14.879  68.176  1.00  0.00    -0.263 Cl 
HETATM   20  C   UNL     1     -10.837  13.176  68.324  1.00  0.00    -0.253 A  
HETATM   21  C   UNL     1      -9.627  12.570  67.998  1.00  0.00    -0.212 A  
ENDBRANCH  13  14
BRANCH  13  22
HETATM   22  C   UNL     1     -10.476   8.166  67.122  1.00  0.00    -0.326 C  
BRANCH  22  23
HETATM   23  N   UNL     1      -9.581   7.018  67.063  1.00  0.00    -0.149 NA 
HETATM   24  C   UNL     1      -9.932   5.756  66.665  1.00  0.00    -0.176 A  
HETATM   25  N   UNL     1      -7.762   5.778  67.272  1.00  0.00    -0.100 NA 
HETATM   26  C   UNL     1      -8.258   6.991  67.394  1.00  0.00    -0.119 A  
HETATM   27  C   UNL     1      -8.792   5.002  66.818  1.00  0.00    -0.107 A  
ENDBRANCH  22  23
ENDBRANCH  13  22
ENDBRANCH  11  13
ENDBRANCH  10  11
ENDBRANCH   9  10
ENDBRANCH   6   9
TORSDOF 7
ENDMDL
MODEL      308
REMARK 921   NORMALIZED FREE ENERGY PREDICTED BY IDOCK:   -3.63 KCAL/MOL
REMARK 922        TOTAL FREE ENERGY PREDICTED BY IDOCK:   -6.24 KCAL/MOL
REMARK 923 INTER-LIGAND FREE ENERGY PREDICTED BY IDOCK:   -5.46 KCAL/MOL
REMARK 924 INTRA-LIGAND FREE ENERGY PREDICTED BY IDOCK:   -0.77 KCAL/MOL
REMARK 927      BINDING AFFINITY PREDICTED BY RF-SCORE:    0.00 PKD
ROOT
HETATM    1 CL   UNL     1      -5.592   9.612  62.752  1.00  0.00    -0.088 Cl 
HETATM    2  C   UNL     1      -6.935   9.249  63.762  1.00  0.00    -0.091 A  
HETATM    3  C   UNL     1      -8.018  10.123  63.810  1.00  0.00    -0.153 A  
HETATM    4  C   UNL     1      -9.075   9.861  64.692  1.00  0.00    -0.242 A  
HETATM    5 CL   UNL     1     -10.387  10.992  64.695  1.00  0.00    -0.392 Cl 
HETATM    6  C   UNL     1      -9.066   8.738  65.546  1.00  0.00    -0.221 A  
HETATM    7  C   UNL     1      -7.988   7.845  65.432  1.00  0.00    -0.123 A  
HETATM    8  C   UNL     1      -6.930   8.101  64.547  1.00  0.00    -0.075 A  
ENDROOT
BRANCH   6   9
HETATM    9  C   UNL     1     -10.123   8.579  66.631  1.00  0.00    -0.294 C  
BRANCH   9  10
HETATM   10  O   UNL     1      -9.611   8.270  67.947  1.00  0.00    -0.147 OA 
BRANCH  10  11
HETATM   11  N   UNL     1      -9.002   9.421  68.504  1.00  0.00    -0.128 NA 
HETATM   12  H   UNL     1      -8.575  10.156  67.941  1.00  0.00     0.000 HD 
BRANCH  11  13
HETATM   13  C   UNL     1      -9.038   9.448  69.810  1.00  0.00    -0.193 C  
BRANCH  13  14
HETATM   14  C   UNL     1     -10.368   9.393  70.530  1.00  0.00    -0.341 A  
HETATM   15 CL   UNL     1     -11.380  11.487  69.030  1.00  0.00    -0.306 Cl 
HETATM   16  C   UNL     1     -10.565   8.406  71.516  1.00  0.00    -0.307 A  
HETATM   17  C   UNL     1     -11.450  10.244  70.231  1.00  0.00    -0.317 A  
HETATM   18  C   UNL     1     -11.805   8.234  72.144  1.00  0.00    -0.431 A  
HETATM   19 CL   UNL     1     -14.402   8.824  72.547  1.00  0.00    -0.451 Cl 
HETATM   20  C   UNL     1     -12.868   9.064  71.809  1.00  0.00    -0.374 A  
HETATM   21  C   UNL     1     -12.691  10.076  70.870  1.00  0.00    -0.414 A  
ENDBRANCH  13  14
BRANCH  13  22
HETATM   22  C   UNL     1      -7.788   9.477  70.685  1.00  0.00    -0.117 C  
BRANCH  22  23
HETATM   23  N   UNL     1      -7.094   8.199  70.779  1.00  0.00    -0.047 NA 
HETATM   24  C   UNL     1      -5.761   8.036  71.043  1.00  0.00    -0.033 A  
HETATM   25  N   UNL     1      -6.716   6.021  70.717  1.00  0.00    -0.055 NA 
HETATM   26  C   UNL     1      -7.636   6.958  70.616  1.00  0.00    -0.094 A  
HETATM   27  C   UNL     1      -5.548   6.679  70.984  1.00  0.00    -0.027 A  
ENDBRANCH  22  23
ENDBRANCH  13  22
ENDBRANCH  11  13
ENDBRANCH  10  11
ENDBRANCH   9  10
ENDBRANCH   6   9
TORSDOF 7
ENDMDL
MODEL      309
REMARK 921   NORMALIZED FREE ENERGY PREDICTED BY IDOCK:   -3.60 KCAL/MOL
REMARK 922        TOTAL FREE ENERGY PREDICTED BY IDOCK:   -6.20 KCAL/MOL
REMARK 923 INTER-LIGAND FREE ENERGY PREDICTED BY IDOCK:   -5.34 KCAL/MOL
REMARK 924 INTRA-LIGAND FREE ENERGY PREDICTED BY IDOCK:   -0.86 KCAL/MOL
REMARK 927      BINDING AFFINITY PREDICTED BY RF-SCORE:    0.00 PKD
ROOT
HETATM    1 CL   UNL     1      -6.017  17.826  66.394  1.00  0.00    -0.212 Cl 
HETATM    2  C   UNL     1      -6.936  16.517  67.025  1.00  0.00    -0.215 A  
HETATM    3  C   UNL     1      -6.444  15.785  68.103  1.00  0.00    -0.138 A  
HETATM    4  C   UNL     1      -7.161  14.672  68.563  1.00  0.00    -0.112 A  
HETATM    5 CL   UNL     1      -6.487  13.812  69.907  1.00  0.00    -0.099 Cl 
HETATM    6  C   UNL     1      -8.366  14.263  67.953  1.00  0.00    -0.162 A  
HETATM    7  C   UNL     1      -8.864  15.056  66.907  1.00  0.00    -0.285 A  
HETATM    8  C   UNL     1      -8.153  16.173  66.446  1.00  0.00    -0.305 A  
ENDROOT
BRANCH   6   9
HETATM    9  C   UNL     1      -9.022  12.943  68.339  1.00  0.00    -0.124 C  
BRANCH   9  10
HETATM   10  O   UNL     1      -8.162  11.784  68.257  1.00  0.00    -0.144 OA 
BRANCH  10  11
HETATM   11  N   UNL     1      -8.663  10.759  69.095  1.00  0.00    -0.319 NA 
HETATM   12  H   UNL     1      -8.487  10.720  70.099  1.00  0.00     0.000 HD 
BRANCH  11  13
HETATM   13  C   UNL     1      -9.374   9.867  68.457  1.00  0.00    -0.143 C  
BRANCH  13  14
HETATM   14  C   UNL     1      -8.993   9.463  67.049  1.00  0.00    -0.146 A  
HETATM   15 CL   UNL     1     -10.765  11.279  65.944  1.00  0.00    -0.312 Cl 
HETATM   16  C   UNL     1      -7.992   8.489  66.871  1.00  0.00    -0.095 A  
HETATM   17  C   UNL     1      -9.548  10.050  65.896  1.00  0.00    -0.224 A  
HETATM   18  C   UNL     1      -7.519   8.147  65.597  1.00  0.00    -0.081 A  
HETATM   19 CL   UNL     1      -7.449   8.377  62.914  1.00  0.00    -0.104 Cl 
HETATM   20  C   UNL     1      -8.059   8.763  64.475  1.00  0.00    -0.156 A  
HETATM   21  C   UNL     1      -9.080   9.698  64.617  1.00  0.00    -0.286 A  
ENDBRANCH  13  14
BRANCH  13  22
HETATM   22  C   UNL     1     -10.566   9.142  69.078  1.00  0.00    -0.199 C  
BRANCH  22  23
HETATM   23  N   UNL     1     -11.399   9.980  69.929  1.00  0.00    -0.254 NA 
HETATM   24  C   UNL     1     -12.038  11.125  69.537  1.00  0.00    -0.326 A  
HETATM   25  N   UNL     1     -12.425  10.760  71.726  1.00  0.00    -0.270 NA 
HETATM   26  C   UNL     1     -11.682   9.783  71.249  1.00  0.00    -0.394 A  
HETATM   27  C   UNL     1     -12.654  11.598  70.671  1.00  0.00    -0.230 A  
ENDBRANCH  22  23
ENDBRANCH  13  22
ENDBRANCH  11  13
ENDBRANCH  10  11
ENDBRANCH   9  10
ENDBRANCH   6   9
TORSDOF 7
ENDMDL
MODEL      310
REMARK 921   NORMALIZED FREE ENERGY PREDICTED BY IDOCK:   -3.58 KCAL/MOL
REMARK 922        TOTAL FREE ENERGY PREDICTED BY IDOCK:   -6.17 KCAL/MOL
REMARK 923 INTER-LIGAND FREE ENERGY PREDICTED BY IDOCK:   -5.19 KCAL/MOL
REMARK 924 INTRA-LIGAND FREE ENERGY PREDICTED BY IDOCK:   -0.97 KCAL/MOL
REMARK 927      BINDING AFFINITY PREDICTED BY RF-SCORE:    0.00 PKD
ROOT
HETATM    1 CL   UNL     1     -10.436  12.229  67.309  1.00  0.00    -0.230 Cl 
HETATM    2  C   UNL     1     -10.942  11.137  68.537  1.00  0.00    -0.220 A  
HETATM    3  C   UNL     1     -11.823  11.571  69.525  1.00  0.00    -0.419 A  
HETATM    4  C   UNL     1     -12.172  10.699  70.566  1.00  0.00    -0.358 A  
HETATM    5 CL   UNL     1     -13.272  11.309  71.757  1.00  0.00    -0.540 Cl 
HETATM    6  C   UNL     1     -11.642   9.394  70.648  1.00  0.00    -0.330 A  
HETATM    7  C   UNL     1     -10.803   8.969  69.606  1.00  0.00    -0.196 A  
HETATM    8  C   UNL     1     -10.455   9.835  68.560  1.00  0.00    -0.239 A  
ENDROOT
BRANCH   6   9
HETATM    9  C   UNL     1     -11.876   8.538  71.886  1.00  0.00    -0.341 C  
BRANCH   9  10
HETATM   10  O   UNL     1     -11.144   7.292  71.918  1.00  0.00    -0.231 OA 
BRANCH  10  11
HETATM   11  N   UNL     1      -9.976   7.445  72.702  1.00  0.00    -0.181 NA 
HETATM   12  H   UNL     1      -9.939   8.018  73.546  1.00  0.00     0.000 HD 
BRANCH  11  13
HETATM   13  C   UNL     1      -8.949   6.783  72.241  1.00  0.00    -0.132 C  
BRANCH  13  14
HETATM   14  C   UNL     1      -9.047   6.066  70.912  1.00  0.00    -0.161 A  
HETATM   15 CL   UNL     1     -10.161   3.824  72.092  1.00  0.00    -0.239 Cl 
HETATM   16  C   UNL     1      -8.634   6.739  69.745  1.00  0.00    -0.141 A  
HETATM   17  C   UNL     1      -9.584   4.772  70.765  1.00  0.00    -0.179 A  
HETATM   18  C   UNL     1      -8.797   6.173  68.475  1.00  0.00    -0.113 A  
HETATM   19 CL   UNL     1      -9.600   4.231  66.789  1.00  0.00    -0.205 Cl 
HETATM   20  C   UNL     1      -9.359   4.908  68.351  1.00  0.00    -0.131 A  
HETATM   21  C   UNL     1      -9.737   4.201  69.489  1.00  0.00    -0.254 A  
ENDBRANCH  13  14
BRANCH  13  22
HETATM   22  C   UNL     1      -7.596   6.730  72.948  1.00  0.00    -0.094 C  
BRANCH  22  23
HETATM   23  N   UNL     1      -7.179   5.391  73.340  1.00  0.00    -0.085 NA 
HETATM   24  C   UNL     1      -6.266   4.616  72.677  1.00  0.00    -0.025 A  
HETATM   25  N   UNL     1      -7.074   3.479  74.447  1.00  0.00    -0.050 NA 
HETATM   26  C   UNL     1      -7.620   4.677  74.416  1.00  0.00    -0.085 A  
HETATM   27  C   UNL     1      -6.229   3.431  73.373  1.00  0.00    -0.016 A  
ENDBRANCH  22  23
ENDBRANCH  13  22
ENDBRANCH  11  13
ENDBRANCH  10  11
ENDBRANCH   9  10
ENDBRANCH   6   9
TORSDOF 7
ENDMDL
MODEL      311
REMARK 921   NORMALIZED FREE ENERGY PREDICTED BY IDOCK:   -3.57 KCAL/MOL
REMARK 922        TOTAL FREE ENERGY PREDICTED BY IDOCK:   -6.16 KCAL/MOL
REMARK 923 INTER-LIGAND FREE ENERGY PREDICTED BY IDOCK:   -5.26 KCAL/MOL
REMARK 924 INTRA-LIGAND FREE ENERGY PREDICTED BY IDOCK:   -0.89 KCAL/MOL
REMARK 927      BINDING AFFINITY PREDICTED BY RF-SCORE:    0.00 PKD
ROOT
HETATM    1 CL   UNL     1      -5.362   6.941  69.505  1.00  0.00    -0.014 Cl 
HETATM    2  C   UNL     1      -5.707   8.378  68.627  1.00  0.00    -0.037 A  
HETATM    3  C   UNL     1      -5.308   9.612  69.137  1.00  0.00    -0.036 A  
HETATM    4  C   UNL     1      -5.659  10.785  68.455  1.00  0.00    -0.040 A  
HETATM    5 CL   UNL     1      -5.128  12.279  69.151  1.00  0.00    -0.059 Cl 
HETATM    6  C   UNL     1      -6.420  10.751  67.267  1.00  0.00    -0.070 A  
HETATM    7  C   UNL     1      -6.755   9.490  66.748  1.00  0.00    -0.072 A  
HETATM    8  C   UNL     1      -6.402   8.314  67.424  1.00  0.00    -0.057 A  
ENDROOT
BRANCH   6   9
HETATM    9  C   UNL     1      -6.956  12.038  66.653  1.00  0.00     0.154 C  
BRANCH   9  10
HETATM   10  O   UNL     1      -7.966  12.716  67.434  1.00  0.00    -0.160 OA 
BRANCH  10  11
HETATM   11  N   UNL     1      -8.446  13.840  66.719  1.00  0.00    -0.439 NA 
HETATM   12  H   UNL     1      -7.834  14.533  66.288  1.00  0.00     0.000 HD 
BRANCH  11  13
HETATM   13  C   UNL     1      -9.750  13.903  66.665  1.00  0.00    -0.289 C  
BRANCH  13  14
HETATM   14  C   UNL     1     -10.545  14.204  67.916  1.00  0.00    -0.244 A  
HETATM   15 CL   UNL     1     -10.355  16.933  67.500  1.00  0.00    -0.310 Cl 
HETATM   16  C   UNL     1     -11.044  13.130  68.678  1.00  0.00    -0.304 A  
HETATM   17  C   UNL     1     -10.866  15.509  68.338  1.00  0.00    -0.273 A  
HETATM   18  C   UNL     1     -11.876  13.339  69.786  1.00  0.00    -0.394 A  
HETATM   19 CL   UNL     1     -13.261  14.891  71.497  1.00  0.00    -0.410 Cl 
HETATM   20  C   UNL     1     -12.205  14.634  70.164  1.00  0.00    -0.335 A  
HETATM   21  C   UNL     1     -11.692  15.718  69.457  1.00  0.00    -0.369 A  
ENDBRANCH  13  14
BRANCH  13  22
HETATM   22  C   UNL     1     -10.546  13.744  65.371  1.00  0.00    -0.322 C  
BRANCH  22  23
HETATM   23  N   UNL     1     -10.282  12.503  64.656  1.00  0.00    -0.303 NA 
HETATM   24  C   UNL     1     -10.103  11.275  65.233  1.00  0.00    -0.267 A  
HETATM   25  N   UNL     1      -9.870  11.098  62.999  1.00  0.00    -0.341 NA 
HETATM   26  C   UNL     1     -10.160  12.344  63.306  1.00  0.00     0.039 A  
HETATM   27  C   UNL     1      -9.834  10.423  64.187  1.00  0.00    -0.313 A  
ENDBRANCH  22  23
ENDBRANCH  13  22
ENDBRANCH  11  13
ENDBRANCH  10  11
ENDBRANCH   9  10
ENDBRANCH   6   9
TORSDOF 7
ENDMDL
MODEL      312
REMARK 921   NORMALIZED FREE ENERGY PREDICTED BY IDOCK:   -3.57 KCAL/MOL
REMARK 922        TOTAL FREE ENERGY PREDICTED BY IDOCK:   -6.15 KCAL/MOL
REMARK 923 INTER-LIGAND FREE ENERGY PREDICTED BY IDOCK:   -5.47 KCAL/MOL
REMARK 924 INTRA-LIGAND FREE ENERGY PREDICTED BY IDOCK:   -0.69 KCAL/MOL
REMARK 927      BINDING AFFINITY PREDICTED BY RF-SCORE:    0.00 PKD
ROOT
HETATM    1 CL   UNL     1     -10.047  16.197  65.489  1.00  0.00    -0.352 Cl 
HETATM    2  C   UNL     1      -9.926  14.510  65.796  1.00  0.00    -0.334 A  
HETATM    3  C   UNL     1     -10.482  13.603  64.897  1.00  0.00    -0.426 A  
HETATM    4  C   UNL     1     -10.447  12.233  65.191  1.00  0.00    -0.288 A  
HETATM    5 CL   UNL     1     -11.159  11.167  64.026  1.00  0.00    -0.312 Cl 
HETATM    6  C   UNL     1      -9.873  11.746  66.385  1.00  0.00    -0.237 A  
HETATM    7  C   UNL     1      -9.268  12.681  67.241  1.00  0.00    -0.195 A  
HETATM    8  C   UNL     1      -9.297  14.052  66.949  1.00  0.00    -0.266 A  
ENDROOT
BRANCH   6   9
HETATM    9  C   UNL     1     -10.021  10.282  66.776  1.00  0.00    -0.209 C  
BRANCH   9  10
HETATM   10  O   UNL     1      -8.780   9.590  67.045  1.00  0.00    -0.127 OA 
BRANCH  10  11
HETATM   11  N   UNL     1      -8.955   8.200  66.839  1.00  0.00    -0.135 NA 
HETATM   12  H   UNL     1      -9.235   7.798  65.944  1.00  0.00     0.000 HD 
BRANCH  11  13
HETATM   13  C   UNL     1      -8.722   7.483  67.905  1.00  0.00    -0.124 C  
BRANCH  13  14
HETATM   14  C   UNL     1      -8.649   5.975  67.802  1.00  0.00    -0.106 A  
HETATM   15 CL   UNL     1     -11.147   5.837  66.619  1.00  0.00    -0.217 Cl 
HETATM   16  C   UNL     1      -7.483   5.320  68.243  1.00  0.00    -0.076 A  
HETATM   17  C   UNL     1      -9.667   5.185  67.233  1.00  0.00    -0.155 A  
HETATM   18  C   UNL     1      -7.309   3.940  68.078  1.00  0.00    -0.062 A  
HETATM   19 CL   UNL     1      -8.083   1.499  67.243  1.00  0.00    -0.065 Cl 
HETATM   20  C   UNL     1      -8.313   3.186  67.486  1.00  0.00    -0.083 A  
HETATM   21  C   UNL     1      -9.495   3.797  67.078  1.00  0.00    -0.227 A  
ENDBRANCH  13  14
BRANCH  13  22
HETATM   22  C   UNL     1      -8.454   8.087  69.282  1.00  0.00    -0.136 C  
BRANCH  22  23
HETATM   23  N   UNL     1      -9.650   8.295  70.086  1.00  0.00    -0.167 NA 
HETATM   24  C   UNL     1      -9.853   9.332  70.956  1.00  0.00    -0.285 A  
HETATM   25  N   UNL     1     -11.637   7.957  70.997  1.00  0.00    -0.282 NA 
HETATM   26  C   UNL     1     -10.763   7.506  70.122  1.00  0.00    -0.239 A  
HETATM   27  C   UNL     1     -11.083   9.092  71.520  1.00  0.00    -0.365 A  
ENDBRANCH  22  23
ENDBRANCH  13  22
ENDBRANCH  11  13
ENDBRANCH  10  11
ENDBRANCH   9  10
ENDBRANCH   6   9
TORSDOF 7
ENDMDL
MODEL      313
REMARK 921   NORMALIZED FREE ENERGY PREDICTED BY IDOCK:   -3.55 KCAL/MOL
REMARK 922        TOTAL FREE ENERGY PREDICTED BY IDOCK:   -6.12 KCAL/MOL
REMARK 923 INTER-LIGAND FREE ENERGY PREDICTED BY IDOCK:   -5.16 KCAL/MOL
REMARK 924 INTRA-LIGAND FREE ENERGY PREDICTED BY IDOCK:   -0.95 KCAL/MOL
REMARK 927      BINDING AFFINITY PREDICTED BY RF-SCORE:    0.00 PKD
ROOT
HETATM    1 CL   UNL     1     -10.287   2.890  74.120  1.00  0.00    -0.202 Cl 
HETATM    2  C   UNL     1     -10.409   3.999  72.812  1.00  0.00    -0.168 A  
HETATM    3  C   UNL     1     -11.179   5.151  72.953  1.00  0.00    -0.362 A  
HETATM    4  C   UNL     1     -11.336   6.011  71.858  1.00  0.00    -0.279 A  
HETATM    5 CL   UNL     1     -12.307   7.423  72.110  1.00  0.00    -0.275 Cl 
HETATM    6  C   UNL     1     -10.744   5.734  70.607  1.00  0.00    -0.351 A  
HETATM    7  C   UNL     1      -9.927   4.596  70.515  1.00  0.00    -0.295 A  
HETATM    8  C   UNL     1      -9.763   3.735  71.609  1.00  0.00    -0.239 A  
ENDROOT
BRANCH   6   9
HETATM    9  C   UNL     1     -11.088   6.574  69.383  1.00  0.00    -0.348 C  
BRANCH   9  10
HETATM   10  O   UNL     1     -10.556   7.918  69.392  1.00  0.00    -0.225 OA 
BRANCH  10  11
HETATM   11  N   UNL     1      -9.171   7.884  69.101  1.00  0.00    -0.145 NA 
HETATM   12  H   UNL     1      -8.580   7.073  69.284  1.00  0.00     0.000 HD 
BRANCH  11  13
HETATM   13  C   UNL     1      -8.723   8.993  68.575  1.00  0.00    -0.133 C  
BRANCH  13  14
HETATM   14  C   UNL     1      -8.282   9.019  67.128  1.00  0.00    -0.110 A  
HETATM   15 CL   UNL     1      -5.621   9.279  67.841  1.00  0.00    -0.038 Cl 
HETATM   16  C   UNL     1      -9.255   8.876  66.119  1.00  0.00    -0.273 A  
HETATM   17  C   UNL     1      -6.936   9.125  66.728  1.00  0.00    -0.081 A  
HETATM   18  C   UNL     1      -8.902   8.785  64.767  1.00  0.00    -0.089 A  
HETATM   19 CL   UNL     1      -7.127   8.704  62.742  1.00  0.00    -0.090 Cl 
HETATM   20  C   UNL     1      -7.565   8.859  64.398  1.00  0.00    -0.114 A  
HETATM   21  C   UNL     1      -6.584   9.044  65.368  1.00  0.00    -0.068 A  
ENDBRANCH  13  14
BRANCH  13  22
HETATM   22  C   UNL     1      -8.667  10.319  69.331  1.00  0.00    -0.156 C  
BRANCH  22  23
HETATM   23  N   UNL     1      -9.584  11.333  68.829  1.00  0.00    -0.181 NA 
HETATM   24  C   UNL     1     -10.948  11.296  68.940  1.00  0.00    -0.223 A  
HETATM   25  N   UNL     1     -10.334  13.145  67.809  1.00  0.00    -0.226 NA 
HETATM   26  C   UNL     1      -9.257  12.478  68.165  1.00  0.00    -0.209 A  
HETATM   27  C   UNL     1     -11.391  12.421  68.287  1.00  0.00    -0.284 A  
ENDBRANCH  22  23
ENDBRANCH  13  22
ENDBRANCH  11  13
ENDBRANCH  10  11
ENDBRANCH   9  10
ENDBRANCH   6   9
TORSDOF 7
ENDMDL
MODEL      314
REMARK 921   NORMALIZED FREE ENERGY PREDICTED BY IDOCK:   -3.53 KCAL/MOL
REMARK 922        TOTAL FREE ENERGY PREDICTED BY IDOCK:   -6.10 KCAL/MOL
REMARK 923 INTER-LIGAND FREE ENERGY PREDICTED BY IDOCK:   -5.31 KCAL/MOL
REMARK 924 INTRA-LIGAND FREE ENERGY PREDICTED BY IDOCK:   -0.79 KCAL/MOL
REMARK 927      BINDING AFFINITY PREDICTED BY RF-SCORE:    0.00 PKD
ROOT
HETATM    1 CL   UNL     1      -9.352   2.421  68.427  1.00  0.00    -0.254 Cl 
HETATM    2  C   UNL     1      -8.893   3.994  67.906  1.00  0.00    -0.111 A  
HETATM    3  C   UNL     1      -9.873   4.950  67.651  1.00  0.00    -0.205 A  
HETATM    4  C   UNL     1      -9.497   6.205  67.153  1.00  0.00    -0.119 A  
HETATM    5 CL   UNL     1     -10.772   7.341  66.862  1.00  0.00    -0.405 Cl 
HETATM    6  C   UNL     1      -8.148   6.524  66.890  1.00  0.00    -0.113 A  
HETATM    7  C   UNL     1      -7.180   5.559  67.213  1.00  0.00    -0.075 A  
HETATM    8  C   UNL     1      -7.551   4.304  67.715  1.00  0.00    -0.069 A  
ENDROOT
BRANCH   6   9
HETATM    9  C   UNL     1      -7.782   7.814  66.168  1.00  0.00    -0.089 C  
BRANCH   9  10
HETATM   10  O   UNL     1      -8.674   8.926  66.408  1.00  0.00    -0.120 OA 
BRANCH  10  11
HETATM   11  N   UNL     1      -7.973   9.968  67.061  1.00  0.00    -0.106 NA 
HETATM   12  H   UNL     1      -6.963  10.093  66.989  1.00  0.00     0.000 HD 
BRANCH  11  13
HETATM   13  C   UNL     1      -8.744  10.753  67.764  1.00  0.00    -0.130 C  
BRANCH  13  14
HETATM   14  C   UNL     1      -9.630  11.764  67.068  1.00  0.00    -0.196 A  
HETATM   15 CL   UNL     1      -7.754  13.773  67.386  1.00  0.00    -0.178 Cl 
HETATM   16  C   UNL     1     -10.873  11.340  66.558  1.00  0.00    -0.319 A  
HETATM   17  C   UNL     1      -9.256  13.104  66.849  1.00  0.00    -0.236 A  
HETATM   18  C   UNL     1     -11.691  12.198  65.812  1.00  0.00    -0.391 A  
HETATM   19 CL   UNL     1     -12.271  14.547  64.629  1.00  0.00    -0.480 Cl 
HETATM   20  C   UNL     1     -11.288  13.506  65.582  1.00  0.00    -0.298 A  
HETATM   21  C   UNL     1     -10.085  13.967  66.109  1.00  0.00    -0.319 A  
ENDBRANCH  13  14
BRANCH  13  22
HETATM   22  C   UNL     1      -8.857  10.678  69.285  1.00  0.00    -0.077 C  
BRANCH  22  23
HETATM   23  N   UNL     1      -9.540   9.489  69.776  1.00  0.00    -0.201 NA 
HETATM   24  C   UNL     1     -10.888   9.374  69.983  1.00  0.00    -0.241 A  
HETATM   25  N   UNL     1      -9.869   7.453  70.573  1.00  0.00    -0.180 NA 
HETATM   26  C   UNL     1      -8.969   8.299  70.119  1.00  0.00    -0.142 A  
HETATM   27  C   UNL     1     -11.066   8.110  70.492  1.00  0.00    -0.253 A  
ENDBRANCH  22  23
ENDBRANCH  13  22
ENDBRANCH  11  13
ENDBRANCH  10  11
ENDBRANCH   9  10
ENDBRANCH   6   9
TORSDOF 7
ENDMDL
MODEL      315
REMARK 921   NORMALIZED FREE ENERGY PREDICTED BY IDOCK:   -3.53 KCAL/MOL
REMARK 922        TOTAL FREE ENERGY PREDICTED BY IDOCK:   -6.09 KCAL/MOL
REMARK 923 INTER-LIGAND FREE ENERGY PREDICTED BY IDOCK:   -5.79 KCAL/MOL
REMARK 924 INTRA-LIGAND FREE ENERGY PREDICTED BY IDOCK:   -0.31 KCAL/MOL
REMARK 927      BINDING AFFINITY PREDICTED BY RF-SCORE:    0.00 PKD
ROOT
HETATM    1 CL   UNL     1      -9.145  11.167  62.614  1.00  0.00    -0.368 Cl 
HETATM    2  C   UNL     1      -9.842  11.083  64.183  1.00  0.00    -0.308 A  
HETATM    3  C   UNL     1     -10.678  12.107  64.623  1.00  0.00    -0.346 A  
HETATM    4  C   UNL     1     -11.181  12.071  65.930  1.00  0.00    -0.337 A  
HETATM    5 CL   UNL     1     -12.213  13.379  66.404  1.00  0.00    -0.451 Cl 
HETATM    6  C   UNL     1     -10.854  11.027  66.822  1.00  0.00    -0.307 A  
HETATM    7  C   UNL     1     -10.058   9.981  66.329  1.00  0.00    -0.310 A  
HETATM    8  C   UNL     1      -9.555  10.010  65.020  1.00  0.00    -0.362 A  
ENDROOT
BRANCH   6   9
HETATM    9  C   UNL     1     -11.249  11.109  68.290  1.00  0.00    -0.279 C  
BRANCH   9  10
HETATM   10  O   UNL     1     -10.217  10.719  69.226  1.00  0.00    -0.218 OA 
BRANCH  10  11
HETATM   11  N   UNL     1     -10.473   9.409  69.699  1.00  0.00    -0.213 NA 
HETATM   12  H   UNL     1     -11.370   9.121  70.089  1.00  0.00     0.000 HD 
BRANCH  11  13
HETATM   13  C   UNL     1      -9.449   8.607  69.587  1.00  0.00    -0.162 C  
BRANCH  13  14
HETATM   14  C   UNL     1      -9.515   7.420  68.650  1.00  0.00    -0.139 A  
HETATM   15 CL   UNL     1      -6.758   7.295  68.453  1.00  0.00    -0.052 Cl 
HETATM   16  C   UNL     1     -10.777   6.885  68.323  1.00  0.00    -0.265 A  
HETATM   17  C   UNL     1      -8.376   6.780  68.125  1.00  0.00    -0.118 A  
HETATM   18  C   UNL     1     -10.902   5.725  67.548  1.00  0.00    -0.268 A  
HETATM   19 CL   UNL     1      -9.915   3.642  66.153  1.00  0.00    -0.016 Cl 
HETATM   20  C   UNL     1      -9.764   5.091  67.067  1.00  0.00    -0.165 A  
HETATM   21  C   UNL     1      -8.506   5.621  67.338  1.00  0.00    -0.106 A  
ENDBRANCH  13  14
BRANCH  13  22
HETATM   22  C   UNL     1      -8.127   8.825  70.320  1.00  0.00    -0.116 C  
BRANCH  22  23
HETATM   23  N   UNL     1      -8.179   8.538  71.746  1.00  0.00    -0.163 NA 
HETATM   24  C   UNL     1      -9.265   8.048  72.419  1.00  0.00    -0.202 A  
HETATM   25  N   UNL     1      -7.578   8.400  73.870  1.00  0.00    -0.329 NA 
HETATM   26  C   UNL     1      -7.176   8.709  72.655  1.00  0.00     0.057 A  
HETATM   27  C   UNL     1      -8.874   7.986  73.736  1.00  0.00    -0.247 A  
ENDBRANCH  22  23
ENDBRANCH  13  22
ENDBRANCH  11  13
ENDBRANCH  10  11
ENDBRANCH   9  10
ENDBRANCH   6   9
TORSDOF 7
ENDMDL
MODEL      316
REMARK 921   NORMALIZED FREE ENERGY PREDICTED BY IDOCK:   -3.53 KCAL/MOL
REMARK 922        TOTAL FREE ENERGY PREDICTED BY IDOCK:   -6.09 KCAL/MOL
REMARK 923 INTER-LIGAND FREE ENERGY PREDICTED BY IDOCK:   -5.81 KCAL/MOL
REMARK 924 INTRA-LIGAND FREE ENERGY PREDICTED BY IDOCK:   -0.28 KCAL/MOL
REMARK 927      BINDING AFFINITY PREDICTED BY RF-SCORE:    0.00 PKD
ROOT
HETATM    1 CL   UNL     1     -11.315  15.850  64.260  1.00  0.00    -0.322 Cl 
HETATM    2  C   UNL     1     -11.141  14.705  65.531  1.00  0.00    -0.345 A  
HETATM    3  C   UNL     1      -9.952  14.653  66.255  1.00  0.00    -0.306 A  
HETATM    4  C   UNL     1      -9.788  13.668  67.238  1.00  0.00    -0.241 A  
HETATM    5 CL   UNL     1      -8.283  13.666  68.096  1.00  0.00    -0.149 Cl 
HETATM    6  C   UNL     1     -10.793  12.715  67.506  1.00  0.00    -0.267 A  
HETATM    7  C   UNL     1     -12.001  12.831  66.801  1.00  0.00    -0.389 A  
HETATM    8  C   UNL     1     -12.172  13.818  65.820  1.00  0.00    -0.495 A  
ENDROOT
BRANCH   6   9
HETATM    9  C   UNL     1     -10.518  11.538  68.434  1.00  0.00    -0.207 C  
BRANCH   9  10
HETATM   10  O   UNL     1     -10.985  10.257  67.954  1.00  0.00    -0.267 OA 
BRANCH  10  11
HETATM   11  N   UNL     1      -9.887   9.491  67.492  1.00  0.00    -0.159 NA 
HETATM   12  H   UNL     1      -9.294   9.778  66.714  1.00  0.00     0.000 HD 
BRANCH  11  13
HETATM   13  C   UNL     1      -9.708   8.383  68.160  1.00  0.00    -0.155 C  
BRANCH  13  14
HETATM   14  C   UNL     1      -9.635   7.061  67.426  1.00  0.00    -0.164 A  
HETATM   15 CL   UNL     1      -8.609   8.266  65.156  1.00  0.00    -0.164 Cl 
HETATM   16  C   UNL     1     -10.019   5.887  68.104  1.00  0.00    -0.173 A  
HETATM   17  C   UNL     1      -9.147   6.929  66.112  1.00  0.00    -0.113 A  
HETATM   18  C   UNL     1      -9.875   4.622  67.519  1.00  0.00    -0.200 A  
HETATM   19 CL   UNL     1      -9.143   2.958  65.531  1.00  0.00    -0.149 Cl 
HETATM   20  C   UNL     1      -9.361   4.513  66.233  1.00  0.00    -0.151 A  
HETATM   21  C   UNL     1      -9.013   5.658  65.523  1.00  0.00    -0.113 A  
ENDBRANCH  13  14
BRANCH  13  22
HETATM   22  C   UNL     1      -9.507   8.337  69.673  1.00  0.00    -0.163 C  
BRANCH  22  23
HETATM   23  N   UNL     1     -10.721   8.557  70.445  1.00  0.00    -0.224 NA 
HETATM   24  C   UNL     1     -10.897   9.532  71.390  1.00  0.00    -0.312 A  
HETATM   25  N   UNL     1     -12.763   8.277  71.248  1.00  0.00    -0.249 NA 
HETATM   26  C   UNL     1     -11.881   7.842  70.373  1.00  0.00     0.040 A  
HETATM   27  C   UNL     1     -12.163   9.328  71.885  1.00  0.00    -0.378 A  
ENDBRANCH  22  23
ENDBRANCH  13  22
ENDBRANCH  11  13
ENDBRANCH  10  11
ENDBRANCH   9  10
ENDBRANCH   6   9
TORSDOF 7
ENDMDL
MODEL      317
REMARK 921   NORMALIZED FREE ENERGY PREDICTED BY IDOCK:   -3.51 KCAL/MOL
REMARK 922        TOTAL FREE ENERGY PREDICTED BY IDOCK:   -6.07 KCAL/MOL
REMARK 923 INTER-LIGAND FREE ENERGY PREDICTED BY IDOCK:   -5.12 KCAL/MOL
REMARK 924 INTRA-LIGAND FREE ENERGY PREDICTED BY IDOCK:   -0.96 KCAL/MOL
REMARK 927      BINDING AFFINITY PREDICTED BY RF-SCORE:    0.00 PKD
ROOT
HETATM    1 CL   UNL     1     -12.545  12.949  63.452  1.00  0.00    -0.368 Cl 
HETATM    2  C   UNL     1     -11.384  13.143  64.706  1.00  0.00    -0.324 A  
HETATM    3  C   UNL     1     -10.739  14.367  64.865  1.00  0.00    -0.444 A  
HETATM    4  C   UNL     1      -9.740  14.496  65.839  1.00  0.00    -0.293 A  
HETATM    5 CL   UNL     1      -8.983  16.048  65.979  1.00  0.00    -0.373 Cl 
HETATM    6  C   UNL     1      -9.358  13.411  66.658  1.00  0.00    -0.248 A  
HETATM    7  C   UNL     1     -10.069  12.209  66.512  1.00  0.00    -0.229 A  
HETATM    8  C   UNL     1     -11.072  12.076  65.541  1.00  0.00    -0.361 A  
ENDROOT
BRANCH   6   9
HETATM    9  C   UNL     1      -8.142  13.516  67.568  1.00  0.00    -0.186 C  
BRANCH   9  10
HETATM   10  O   UNL     1      -7.723  12.275  68.179  1.00  0.00    -0.119 OA 
BRANCH  10  11
HETATM   11  N   UNL     1      -7.142  11.433  67.200  1.00  0.00    -0.125 NA 
HETATM   12  H   UNL     1      -7.000  11.718  66.231  1.00  0.00     0.000 HD 
BRANCH  11  13
HETATM   13  C   UNL     1      -6.806  10.257  67.658  1.00  0.00    -0.075 C  
BRANCH  13  14
HETATM   14  C   UNL     1      -7.757   9.089  67.515  1.00  0.00    -0.096 A  
HETATM   15 CL   UNL     1      -9.443  10.095  69.464  1.00  0.00    -0.237 Cl 
HETATM   16  C   UNL     1      -7.479   8.103  66.548  1.00  0.00    -0.088 A  
HETATM   17  C   UNL     1      -8.944   8.958  68.261  1.00  0.00    -0.137 A  
HETATM   18  C   UNL     1      -8.371   7.054  66.292  1.00  0.00    -0.129 A  
HETATM   19 CL   UNL     1     -10.669   5.701  66.673  1.00  0.00    -0.364 Cl 
HETATM   20  C   UNL     1      -9.552   6.962  67.017  1.00  0.00    -0.158 A  
HETATM   21  C   UNL     1      -9.834   7.897  68.009  1.00  0.00    -0.195 A  
ENDBRANCH  13  14
BRANCH  13  22
HETATM   22  C   UNL     1      -5.451   9.961  68.299  1.00  0.00    -0.039 C  
BRANCH  22  23
HETATM   23  N   UNL     1      -5.493   9.821  69.748  1.00  0.00    -0.033 NA 
HETATM   24  C   UNL     1      -5.361   8.645  70.437  1.00  0.00    -0.021 A  
HETATM   25  N   UNL     1      -5.712  10.333  71.888  1.00  0.00    -0.299 NA 
HETATM   26  C   UNL     1      -5.676  10.815  70.664  1.00  0.00    -0.116 A  
HETATM   27  C   UNL     1      -5.515   8.986  71.760  1.00  0.00    -0.057 A  
ENDBRANCH  22  23
ENDBRANCH  13  22
ENDBRANCH  11  13
ENDBRANCH  10  11
ENDBRANCH   9  10
ENDBRANCH   6   9
TORSDOF 7
ENDMDL
MODEL      318
REMARK 921   NORMALIZED FREE ENERGY PREDICTED BY IDOCK:   -3.47 KCAL/MOL
REMARK 922        TOTAL FREE ENERGY PREDICTED BY IDOCK:   -6.01 KCAL/MOL
REMARK 923 INTER-LIGAND FREE ENERGY PREDICTED BY IDOCK:   -4.80 KCAL/MOL
REMARK 924 INTRA-LIGAND FREE ENERGY PREDICTED BY IDOCK:   -1.21 KCAL/MOL
REMARK 927      BINDING AFFINITY PREDICTED BY RF-SCORE:    0.00 PKD
ROOT
HETATM    1 CL   UNL     1      -9.448   1.925  68.346  1.00  0.00    -0.248 Cl 
HETATM    2  C   UNL     1      -9.061   3.536  67.887  1.00  0.00    -0.157 A  
HETATM    3  C   UNL     1     -10.084   4.451  67.652  1.00  0.00    -0.038 A  
HETATM    4  C   UNL     1      -9.764   5.741  67.204  1.00  0.00    -0.136 A  
HETATM    5 CL   UNL     1     -11.090   6.823  66.934  1.00  0.00    -0.418 Cl 
HETATM    6  C   UNL     1      -8.429   6.134  66.972  1.00  0.00    -0.105 A  
HETATM    7  C   UNL     1      -7.419   5.207  67.275  1.00  0.00    -0.083 A  
HETATM    8  C   UNL     1      -7.734   3.918  67.727  1.00  0.00    -0.071 A  
ENDROOT
BRANCH   6   9
HETATM    9  C   UNL     1      -8.119   7.466  66.301  1.00  0.00    -0.117 C  
BRANCH   9  10
HETATM   10  O   UNL     1      -8.604   8.634  67.001  1.00  0.00    -0.115 OA 
BRANCH  10  11
HETATM   11  N   UNL     1      -8.072   8.659  68.313  1.00  0.00    -0.117 NA 
HETATM   12  H   UNL     1      -7.328   8.035  68.627  1.00  0.00     0.000 HD 
BRANCH  11  13
HETATM   13  C   UNL     1      -8.626   9.558  69.082  1.00  0.00    -0.140 C  
BRANCH  13  14
HETATM   14  C   UNL     1      -8.786  10.980  68.589  1.00  0.00    -0.161 A  
HETATM   15 CL   UNL     1     -11.507  10.648  68.212  1.00  0.00    -0.358 Cl 
HETATM   16  C   UNL     1      -7.655  11.819  68.560  1.00  0.00    -0.131 A  
HETATM   17  C   UNL     1     -10.022  11.535  68.206  1.00  0.00    -0.202 A  
HETATM   18  C   UNL     1      -7.754  13.173  68.217  1.00  0.00    -0.141 A  
HETATM   19 CL   UNL     1      -9.120  15.379  67.494  1.00  0.00    -0.193 Cl 
HETATM   20  C   UNL     1      -8.990  13.707  67.874  1.00  0.00    -0.195 A  
HETATM   21  C   UNL     1     -10.118  12.893  67.851  1.00  0.00    -0.232 A  
ENDBRANCH  13  14
BRANCH  13  22
HETATM   22  C   UNL     1      -9.192   9.246  70.465  1.00  0.00    -0.261 C  
BRANCH  22  23
HETATM   23  N   UNL     1      -9.920   7.988  70.545  1.00  0.00    -0.190 NA 
HETATM   24  C   UNL     1     -11.270   7.838  70.377  1.00  0.00    -0.237 A  
HETATM   25  N   UNL     1     -10.345   5.839  70.853  1.00  0.00    -0.225 NA 
HETATM   26  C   UNL     1      -9.399   6.753  70.802  1.00  0.00    -0.161 A  
HETATM   27  C   UNL     1     -11.511   6.501  70.588  1.00  0.00    -0.374 A  
ENDBRANCH  22  23
ENDBRANCH  13  22
ENDBRANCH  11  13
ENDBRANCH  10  11
ENDBRANCH   9  10
ENDBRANCH   6   9
TORSDOF 7
ENDMDL
MODEL      319
REMARK 921   NORMALIZED FREE ENERGY PREDICTED BY IDOCK:   -3.46 KCAL/MOL
REMARK 922        TOTAL FREE ENERGY PREDICTED BY IDOCK:   -6.00 KCAL/MOL
REMARK 923 INTER-LIGAND FREE ENERGY PREDICTED BY IDOCK:   -3.97 KCAL/MOL
REMARK 924 INTRA-LIGAND FREE ENERGY PREDICTED BY IDOCK:   -2.03 KCAL/MOL
REMARK 927      BINDING AFFINITY PREDICTED BY RF-SCORE:    0.00 PKD
ROOT
HETATM    1 CL   UNL     1      -7.854  12.777  68.323  1.00  0.00    -0.136 Cl 
HETATM    2  C   UNL     1      -7.692  11.074  68.485  1.00  0.00    -0.122 A  
HETATM    3  C   UNL     1      -8.536  10.379  69.348  1.00  0.00    -0.143 A  
HETATM    4  C   UNL     1      -8.349   9.002  69.533  1.00  0.00    -0.117 A  
HETATM    5 CL   UNL     1      -9.438   8.207  70.620  1.00  0.00    -0.165 Cl 
HETATM    6  C   UNL     1      -7.316   8.300  68.877  1.00  0.00    -0.090 A  
HETATM    7  C   UNL     1      -6.519   9.018  67.970  1.00  0.00    -0.060 A  
HETATM    8  C   UNL     1      -6.706  10.394  67.778  1.00  0.00    -0.070 A  
ENDROOT
BRANCH   6   9
HETATM    9  C   UNL     1      -7.007   6.854  69.242  1.00  0.00    -0.074 C  
BRANCH   9  10
HETATM   10  O   UNL     1      -6.755   5.978  68.120  1.00  0.00    -0.059 OA 
BRANCH  10  11
HETATM   11  N   UNL     1      -7.982   5.480  67.619  1.00  0.00    -0.101 NA 
HETATM   12  H   UNL     1      -8.618   4.904  68.170  1.00  0.00     0.000 HD 
BRANCH  11  13
HETATM   13  C   UNL     1      -8.220   5.831  66.384  1.00  0.00    -0.107 C  
BRANCH  13  14
HETATM   14  C   UNL     1      -8.910   7.146  66.090  1.00  0.00    -0.171 A  
HETATM   15 CL   UNL     1     -10.917   6.614  67.919  1.00  0.00    -0.340 Cl 
HETATM   16  C   UNL     1      -8.321   8.028  65.163  1.00  0.00    -0.139 A  
HETATM   17  C   UNL     1     -10.088   7.566  66.737  1.00  0.00    -0.243 A  
HETATM   18  C   UNL     1      -8.851   9.303  64.925  1.00  0.00    -0.233 A  
HETATM   19 CL   UNL     1     -10.621  11.290  65.341  1.00  0.00    -0.324 Cl 
HETATM   20  C   UNL     1      -9.996   9.709  65.599  1.00  0.00    -0.251 A  
HETATM   21  C   UNL     1     -10.624   8.843  66.489  1.00  0.00    -0.051 A  
ENDBRANCH  13  14
BRANCH  13  22
HETATM   22  C   UNL     1      -7.785   5.003  65.177  1.00  0.00    -0.083 C  
BRANCH  22  23
HETATM   23  N   UNL     1      -8.885   4.523  64.352  1.00  0.00    -0.148 NA 
HETATM   24  C   UNL     1      -9.993   3.864  64.811  1.00  0.00    -0.200 A  
HETATM   25  N   UNL     1     -10.101   4.046  62.568  1.00  0.00    -0.160 NA 
HETATM   26  C   UNL     1      -9.005   4.635  62.998  1.00  0.00    -0.123 A  
HETATM   27  C   UNL     1     -10.724   3.565  63.686  1.00  0.00    -0.260 A  
ENDBRANCH  22  23
ENDBRANCH  13  22
ENDBRANCH  11  13
ENDBRANCH  10  11
ENDBRANCH   9  10
ENDBRANCH   6   9
TORSDOF 7
ENDMDL
MODEL      320
REMARK 921   NORMALIZED FREE ENERGY PREDICTED BY IDOCK:   -3.44 KCAL/MOL
REMARK 922        TOTAL FREE ENERGY PREDICTED BY IDOCK:   -5.96 KCAL/MOL
REMARK 923 INTER-LIGAND FREE ENERGY PREDICTED BY IDOCK:   -4.65 KCAL/MOL
REMARK 924 INTRA-LIGAND FREE ENERGY PREDICTED BY IDOCK:   -1.31 KCAL/MOL
REMARK 927      BINDING AFFINITY PREDICTED BY RF-SCORE:    0.00 PKD
ROOT
HETATM    1 CL   UNL     1     -10.764   5.655  68.069  1.00  0.00    -0.264 Cl 
HETATM    2  C   UNL     1      -9.689   6.818  67.399  1.00  0.00    -0.133 A  
HETATM    3  C   UNL     1     -10.200   7.898  66.683  1.00  0.00    -0.303 A  
HETATM    4  C   UNL     1      -9.317   8.800  66.074  1.00  0.00    -0.232 A  
HETATM    5 CL   UNL     1     -10.026  10.117  65.202  1.00  0.00    -0.395 Cl 
HETATM    6  C   UNL     1      -7.917   8.636  66.157  1.00  0.00    -0.106 A  
HETATM    7  C   UNL     1      -7.435   7.571  66.935  1.00  0.00    -0.098 A  
HETATM    8  C   UNL     1      -8.315   6.669  67.549  1.00  0.00    -0.121 A  
ENDROOT
BRANCH   6   9
HETATM    9  C   UNL     1      -6.984   9.509  65.328  1.00  0.00    -0.091 C  
BRANCH   9  10
HETATM   10  O   UNL     1      -6.895  10.888  65.753  1.00  0.00    -0.090 OA 
BRANCH  10  11
HETATM   11  N   UNL     1      -6.164  10.967  66.963  1.00  0.00    -0.074 NA 
HETATM   12  H   UNL     1      -5.265  10.507  67.106  1.00  0.00     0.000 HD 
BRANCH  11  13
HETATM   13  C   UNL     1      -6.754  11.687  67.880  1.00  0.00    -0.066 C  
BRANCH  13  14
HETATM   14  C   UNL     1      -7.611  12.869  67.479  1.00  0.00    -0.164 A  
HETATM   15 CL   UNL     1      -5.555  14.654  67.973  1.00  0.00    -0.134 Cl 
HETATM   16  C   UNL     1      -8.924  12.632  67.028  1.00  0.00    -0.216 A  
HETATM   17  C   UNL     1      -7.148  14.199  67.477  1.00  0.00    -0.163 A  
HETATM   18  C   UNL     1      -9.731  13.668  66.543  1.00  0.00    -0.298 A  
HETATM   19 CL   UNL     1     -10.217  16.235  65.883  1.00  0.00    -0.365 Cl 
HETATM   20  C   UNL     1      -9.243  14.968  66.520  1.00  0.00    -0.290 A  
HETATM   21  C   UNL     1      -7.965  15.240  66.999  1.00  0.00    -0.243 A  
ENDBRANCH  13  14
BRANCH  13  22
HETATM   22  C   UNL     1      -6.679  11.373  69.372  1.00  0.00    -0.122 C  
BRANCH  22  23
HETATM   23  N   UNL     1      -7.497  10.242  69.787  1.00  0.00    -0.157 NA 
HETATM   24  C   UNL     1      -8.851  10.137  69.623  1.00  0.00    -0.164 A  
HETATM   25  N   UNL     1      -8.079   8.308  70.688  1.00  0.00    -0.105 NA 
HETATM   26  C   UNL     1      -7.069   9.105  70.408  1.00  0.00    -0.079 A  
HETATM   27  C   UNL     1      -9.191   8.938  70.203  1.00  0.00    -0.180 A  
ENDBRANCH  22  23
ENDBRANCH  13  22
ENDBRANCH  11  13
ENDBRANCH  10  11
ENDBRANCH   9  10
ENDBRANCH   6   9
TORSDOF 7
ENDMDL
MODEL      321
REMARK 921   NORMALIZED FREE ENERGY PREDICTED BY IDOCK:   -3.43 KCAL/MOL
REMARK 922        TOTAL FREE ENERGY PREDICTED BY IDOCK:   -5.96 KCAL/MOL
REMARK 923 INTER-LIGAND FREE ENERGY PREDICTED BY IDOCK:   -5.66 KCAL/MOL
REMARK 924 INTRA-LIGAND FREE ENERGY PREDICTED BY IDOCK:   -0.30 KCAL/MOL
REMARK 927      BINDING AFFINITY PREDICTED BY RF-SCORE:    0.00 PKD
ROOT
HETATM    1 CL   UNL     1     -10.893   3.052  73.270  1.00  0.00    -0.284 Cl 
HETATM    2  C   UNL     1     -10.629   4.665  72.737  1.00  0.00    -0.208 A  
HETATM    3  C   UNL     1      -9.347   5.071  72.374  1.00  0.00    -0.157 A  
HETATM    4  C   UNL     1      -9.125   6.407  72.013  1.00  0.00    -0.141 A  
HETATM    5 CL   UNL     1      -7.505   6.836  71.574  1.00  0.00    -0.086 Cl 
HETATM    6  C   UNL     1     -10.166   7.359  72.021  1.00  0.00    -0.221 A  
HETATM    7  C   UNL     1     -11.457   6.905  72.335  1.00  0.00    -0.297 A  
HETATM    8  C   UNL     1     -11.685   5.569  72.692  1.00  0.00    -0.240 A  
ENDROOT
BRANCH   6   9
HETATM    9  C   UNL     1      -9.865   8.839  71.819  1.00  0.00    -0.321 C  
BRANCH   9  10
HETATM   10  O   UNL     1      -9.543   9.220  70.462  1.00  0.00    -0.223 OA 
BRANCH  10  11
HETATM   11  N   UNL     1     -10.609   8.863  69.601  1.00  0.00    -0.226 NA 
HETATM   12  H   UNL     1     -11.279   8.125  69.816  1.00  0.00     0.000 HD 
BRANCH  11  13
HETATM   13  C   UNL     1     -10.650   9.570  68.503  1.00  0.00    -0.212 C  
BRANCH  13  14
HETATM   14  C   UNL     1     -10.645  11.082  68.577  1.00  0.00    -0.218 A  
HETATM   15 CL   UNL     1      -7.883  11.178  68.456  1.00  0.00    -0.128 Cl 
HETATM   16  C   UNL     1     -11.878  11.762  68.625  1.00  0.00    -0.369 A  
HETATM   17  C   UNL     1      -9.471  11.858  68.543  1.00  0.00    -0.148 A  
HETATM   18  C   UNL     1     -11.946  13.160  68.587  1.00  0.00    -0.319 A  
HETATM   19 CL   UNL     1     -10.860  15.620  68.431  1.00  0.00    -0.277 Cl 
HETATM   20  C   UNL     1     -10.776  13.905  68.522  1.00  0.00    -0.257 A  
HETATM   21  C   UNL     1      -9.541  13.263  68.516  1.00  0.00    -0.127 A  
ENDBRANCH  13  14
BRANCH  13  22
HETATM   22  C   UNL     1     -10.644   8.954  67.106  1.00  0.00    -0.231 C  
BRANCH  22  23
HETATM   23  N   UNL     1      -9.815   9.664  66.142  1.00  0.00    -0.247 NA 
HETATM   24  C   UNL     1      -8.506   9.382  65.860  1.00  0.00    -0.126 A  
HETATM   25  N   UNL     1      -9.173  11.157  64.643  1.00  0.00    -0.163 NA 
HETATM   26  C   UNL     1     -10.183  10.724  65.366  1.00  0.00    -0.276 A  
HETATM   27  C   UNL     1      -8.125  10.330  64.940  1.00  0.00    -0.154 A  
ENDBRANCH  22  23
ENDBRANCH  13  22
ENDBRANCH  11  13
ENDBRANCH  10  11
ENDBRANCH   9  10
ENDBRANCH   6   9
TORSDOF 7
ENDMDL
MODEL      322
REMARK 921   NORMALIZED FREE ENERGY PREDICTED BY IDOCK:   -3.43 KCAL/MOL
REMARK 922        TOTAL FREE ENERGY PREDICTED BY IDOCK:   -5.95 KCAL/MOL
REMARK 923 INTER-LIGAND FREE ENERGY PREDICTED BY IDOCK:   -4.28 KCAL/MOL
REMARK 924 INTRA-LIGAND FREE ENERGY PREDICTED BY IDOCK:   -1.66 KCAL/MOL
REMARK 927      BINDING AFFINITY PREDICTED BY RF-SCORE:    0.00 PKD
ROOT
HETATM    1 CL   UNL     1     -10.292   9.850  66.190  1.00  0.00    -0.269 Cl 
HETATM    2  C   UNL     1      -9.272   9.505  67.531  1.00  0.00    -0.126 A  
HETATM    3  C   UNL     1      -7.963   9.083  67.311  1.00  0.00    -0.099 A  
HETATM    4  C   UNL     1      -7.161   8.730  68.405  1.00  0.00    -0.077 A  
HETATM    5 CL   UNL     1      -5.545   8.215  68.053  1.00  0.00    -0.034 Cl 
HETATM    6  C   UNL     1      -7.649   8.780  69.728  1.00  0.00    -0.072 A  
HETATM    7  C   UNL     1      -8.953   9.267  69.919  1.00  0.00    -0.194 A  
HETATM    8  C   UNL     1      -9.757   9.624  68.828  1.00  0.00    -0.167 A  
ENDROOT
BRANCH   6   9
HETATM    9  C   UNL     1      -6.832   8.208  70.879  1.00  0.00    -0.042 C  
BRANCH   9  10
HETATM   10  O   UNL     1      -6.715   6.767  70.891  1.00  0.00    -0.052 OA 
BRANCH  10  11
HETATM   11  N   UNL     1      -7.253   6.256  72.097  1.00  0.00    -0.089 NA 
HETATM   12  H   UNL     1      -6.841   6.433  73.013  1.00  0.00     0.000 HD 
BRANCH  11  13
HETATM   13  C   UNL     1      -8.328   5.535  71.923  1.00  0.00    -0.119 C  
BRANCH  13  14
HETATM   14  C   UNL     1      -9.687   6.201  71.880  1.00  0.00    -0.169 A  
HETATM   15 CL   UNL     1      -9.389   7.197  74.444  1.00  0.00    -0.239 Cl 
HETATM   16  C   UNL     1     -10.451   6.108  70.700  1.00  0.00    -0.292 A  
HETATM   17  C   UNL     1     -10.212   6.962  72.942  1.00  0.00    -0.203 A  
HETATM   18  C   UNL     1     -11.667   6.789  70.558  1.00  0.00    -0.430 A  
HETATM   19 CL   UNL     1     -13.621   8.432  71.418  1.00  0.00    -0.301 Cl 
HETATM   20  C   UNL     1     -12.151   7.560  71.607  1.00  0.00    -0.311 A  
HETATM   21  C   UNL     1     -11.439   7.637  72.801  1.00  0.00    -0.384 A  
ENDBRANCH  13  14
BRANCH  13  22
HETATM   22  C   UNL     1      -8.300   4.025  71.695  1.00  0.00    -0.090 C  
BRANCH  22  23
HETATM   23  N   UNL     1      -9.043   3.258  72.685  1.00  0.00    -0.088 NA 
HETATM   24  C   UNL     1      -8.688   3.096  73.997  1.00  0.00    -0.076 A  
HETATM   25  N   UNL     1     -10.578   1.942  73.582  1.00  0.00    -0.111 NA 
HETATM   26  C   UNL     1     -10.203   2.567  72.486  1.00  0.00    -0.159 A  
HETATM   27  C   UNL     1      -9.645   2.265  74.528  1.00  0.00    -0.090 A  
ENDBRANCH  22  23
ENDBRANCH  13  22
ENDBRANCH  11  13
ENDBRANCH  10  11
ENDBRANCH   9  10
ENDBRANCH   6   9
TORSDOF 7
ENDMDL
MODEL      323
REMARK 921   NORMALIZED FREE ENERGY PREDICTED BY IDOCK:   -3.42 KCAL/MOL
REMARK 922        TOTAL FREE ENERGY PREDICTED BY IDOCK:   -5.94 KCAL/MOL
REMARK 923 INTER-LIGAND FREE ENERGY PREDICTED BY IDOCK:   -4.49 KCAL/MOL
REMARK 924 INTRA-LIGAND FREE ENERGY PREDICTED BY IDOCK:   -1.45 KCAL/MOL
REMARK 927      BINDING AFFINITY PREDICTED BY RF-SCORE:    0.00 PKD
ROOT
HETATM    1 CL   UNL     1      -9.529   3.195  74.406  1.00  0.00    -0.111 Cl 
HETATM    2  C   UNL     1      -9.971   4.245  73.119  1.00  0.00    -0.142 A  
HETATM    3  C   UNL     1     -10.499   5.503  73.406  1.00  0.00    -0.266 A  
HETATM    4  C   UNL     1     -10.929   6.324  72.354  1.00  0.00    -0.254 A  
HETATM    5 CL   UNL     1     -11.572   7.872  72.788  1.00  0.00    -0.431 Cl 
HETATM    6  C   UNL     1     -10.853   5.905  71.009  1.00  0.00    -0.339 A  
HETATM    7  C   UNL     1     -10.263   4.657  70.751  1.00  0.00    -0.214 A  
HETATM    8  C   UNL     1      -9.827   3.834  71.799  1.00  0.00    -0.244 A  
ENDROOT
BRANCH   6   9
HETATM    9  C   UNL     1     -11.504   6.726  69.903  1.00  0.00    -0.300 C  
BRANCH   9  10
HETATM   10  O   UNL     1     -10.800   7.935  69.540  1.00  0.00    -0.221 OA 
BRANCH  10  11
HETATM   11  N   UNL     1      -9.405   7.690  69.534  1.00  0.00    -0.153 NA 
HETATM   12  H   UNL     1      -8.829   7.712  70.376  1.00  0.00     0.000 HD 
BRANCH  11  13
HETATM   13  C   UNL     1      -8.928   7.432  68.346  1.00  0.00    -0.134 C  
BRANCH  13  14
HETATM   14  C   UNL     1      -8.477   6.030  67.999  1.00  0.00    -0.115 A  
HETATM   15 CL   UNL     1     -10.827   5.506  66.636  1.00  0.00    -0.327 Cl 
HETATM   16  C   UNL     1      -7.197   5.608  68.407  1.00  0.00    -0.075 A  
HETATM   17  C   UNL     1      -9.249   5.132  67.237  1.00  0.00    -0.115 A  
HETATM   18  C   UNL     1      -6.679   4.363  68.028  1.00  0.00    -0.047 A  
HETATM   19 CL   UNL     1      -6.794   1.997  66.747  1.00  0.00    -0.039 Cl 
HETATM   20  C   UNL     1      -7.446   3.507  67.249  1.00  0.00    -0.074 A  
HETATM   21  C   UNL     1      -8.731   3.878  66.866  1.00  0.00    -0.114 A  
ENDBRANCH  13  14
BRANCH  13  22
HETATM   22  C   UNL     1      -8.843   8.472  67.231  1.00  0.00    -0.130 C  
BRANCH  22  23
HETATM   23  N   UNL     1      -8.554   9.823  67.693  1.00  0.00    -0.125 NA 
HETATM   24  C   UNL     1      -9.440  10.866  67.708  1.00  0.00    -0.157 A  
HETATM   25  N   UNL     1      -7.436  11.570  68.459  1.00  0.00    -0.108 NA 
HETATM   26  C   UNL     1      -7.366  10.286  68.181  1.00  0.00    -0.085 A  
HETATM   27  C   UNL     1      -8.720  11.941  68.171  1.00  0.00    -0.173 A  
ENDBRANCH  22  23
ENDBRANCH  13  22
ENDBRANCH  11  13
ENDBRANCH  10  11
ENDBRANCH   9  10
ENDBRANCH   6   9
TORSDOF 7
ENDMDL
MODEL      324
REMARK 921   NORMALIZED FREE ENERGY PREDICTED BY IDOCK:   -3.39 KCAL/MOL
REMARK 922        TOTAL FREE ENERGY PREDICTED BY IDOCK:   -5.90 KCAL/MOL
REMARK 923 INTER-LIGAND FREE ENERGY PREDICTED BY IDOCK:   -5.54 KCAL/MOL
REMARK 924 INTRA-LIGAND FREE ENERGY PREDICTED BY IDOCK:   -0.36 KCAL/MOL
REMARK 927      BINDING AFFINITY PREDICTED BY RF-SCORE:    0.00 PKD
ROOT
HETATM    1 CL   UNL     1      -6.898  14.440  67.416  1.00  0.00    -0.155 Cl 
HETATM    2  C   UNL     1      -8.092  13.212  67.572  1.00  0.00    -0.181 A  
HETATM    3  C   UNL     1      -9.439  13.563  67.620  1.00  0.00    -0.222 A  
HETATM    4  C   UNL     1     -10.402  12.565  67.824  1.00  0.00    -0.222 A  
HETATM    5 CL   UNL     1     -12.056  13.077  67.871  1.00  0.00    -0.317 Cl 
HETATM    6  C   UNL     1     -10.042  11.211  67.995  1.00  0.00    -0.191 A  
HETATM    7  C   UNL     1      -8.681  10.884  67.883  1.00  0.00    -0.131 A  
HETATM    8  C   UNL     1      -7.714  11.878  67.674  1.00  0.00    -0.141 A  
ENDROOT
BRANCH   6   9
HETATM    9  C   UNL     1     -11.081  10.179  68.411  1.00  0.00    -0.218 C  
BRANCH   9  10
HETATM   10  O   UNL     1     -10.763   9.436  69.610  1.00  0.00    -0.225 OA 
BRANCH  10  11
HETATM   11  N   UNL     1     -11.186   8.092  69.464  1.00  0.00    -0.439 NA 
HETATM   12  H   UNL     1     -12.130   7.830  69.179  1.00  0.00     0.000 HD 
BRANCH  11  13
HETATM   13  C   UNL     1     -10.250   7.221  69.731  1.00  0.00    -0.210 C  
BRANCH  13  14
HETATM   14  C   UNL     1     -10.353   6.355  70.968  1.00  0.00    -0.247 A  
HETATM   15 CL   UNL     1     -12.971   7.132  71.415  1.00  0.00    -0.434 Cl 
HETATM   16  C   UNL     1      -9.247   5.563  71.336  1.00  0.00    -0.167 A  
HETATM   17  C   UNL     1     -11.521   6.251  71.748  1.00  0.00    -0.301 A  
HETATM   18  C   UNL     1      -9.314   4.662  72.406  1.00  0.00    -0.160 A  
HETATM   19 CL   UNL     1     -10.584   3.415  74.428  1.00  0.00    -0.250 Cl 
HETATM   20  C   UNL     1     -10.486   4.553  73.142  1.00  0.00    -0.195 A  
HETATM   21  C   UNL     1     -11.582   5.353  72.829  1.00  0.00    -0.293 A  
ENDBRANCH  13  14
BRANCH  13  22
HETATM   22  C   UNL     1      -9.051   6.971  68.820  1.00  0.00    -0.133 C  
BRANCH  22  23
HETATM   23  N   UNL     1      -9.303   6.019  67.746  1.00  0.00    -0.107 NA 
HETATM   24  C   UNL     1      -9.226   4.657  67.857  1.00  0.00    -0.127 A  
HETATM   25  N   UNL     1      -9.750   5.212  65.737  1.00  0.00    -0.139 NA 
HETATM   26  C   UNL     1      -9.649   6.308  66.459  1.00  0.00    -0.146 A  
HETATM   27  C   UNL     1      -9.492   4.180  66.595  1.00  0.00    -0.191 A  
ENDBRANCH  22  23
ENDBRANCH  13  22
ENDBRANCH  11  13
ENDBRANCH  10  11
ENDBRANCH   9  10
ENDBRANCH   6   9
TORSDOF 7
ENDMDL
MODEL      325
REMARK 921   NORMALIZED FREE ENERGY PREDICTED BY IDOCK:   -3.37 KCAL/MOL
REMARK 922        TOTAL FREE ENERGY PREDICTED BY IDOCK:   -5.87 KCAL/MOL
REMARK 923 INTER-LIGAND FREE ENERGY PREDICTED BY IDOCK:   -4.87 KCAL/MOL
REMARK 924 INTRA-LIGAND FREE ENERGY PREDICTED BY IDOCK:   -1.00 KCAL/MOL
REMARK 927      BINDING AFFINITY PREDICTED BY RF-SCORE:    0.00 PKD
ROOT
HETATM    1 CL   UNL     1      -6.879   4.296  63.334  1.00  0.00    -0.042 Cl 
HETATM    2  C   UNL     1      -7.654   4.218  64.867  1.00  0.00    -0.077 A  
HETATM    3  C   UNL     1      -7.017   3.585  65.931  1.00  0.00    -0.061 A  
HETATM    4  C   UNL     1      -7.686   3.458  67.156  1.00  0.00    -0.079 A  
HETATM    5 CL   UNL     1      -6.829   2.660  68.433  1.00  0.00    -0.046 Cl 
HETATM    6  C   UNL     1      -8.998   3.944  67.337  1.00  0.00    -0.153 A  
HETATM    7  C   UNL     1      -9.590   4.628  66.263  1.00  0.00    -0.187 A  
HETATM    8  C   UNL     1      -8.922   4.762  65.037  1.00  0.00    -0.153 A  
ENDROOT
BRANCH   6   9
HETATM    9  C   UNL     1      -9.777   3.621  68.606  1.00  0.00     0.009 C  
BRANCH   9  10
HETATM   10  O   UNL     1      -9.478   4.466  69.741  1.00  0.00    -0.146 OA 
BRANCH  10  11
HETATM   11  N   UNL     1     -10.209   5.675  69.641  1.00  0.00    -0.226 NA 
HETATM   12  H   UNL     1     -11.104   5.749  69.158  1.00  0.00     0.000 HD 
BRANCH  11  13
HETATM   13  C   UNL     1      -9.626   6.685  70.229  1.00  0.00    -0.161 C  
BRANCH  13  14
HETATM   14  C   UNL     1     -10.444   7.881  70.666  1.00  0.00    -0.216 A  
HETATM   15 CL   UNL     1      -9.302   9.495  68.730  1.00  0.00    -0.145 Cl 
HETATM   16  C   UNL     1     -11.374   7.721  71.712  1.00  0.00    -0.302 A  
HETATM   17  C   UNL     1     -10.369   9.142  70.044  1.00  0.00    -0.207 A  
HETATM   18  C   UNL     1     -12.236   8.758  72.092  1.00  0.00    -0.448 A  
HETATM   19 CL   UNL     1     -13.254  11.243  71.880  1.00  0.00    -0.566 Cl 
HETATM   20  C   UNL     1     -12.167   9.984  71.444  1.00  0.00    -0.416 A  
HETATM   21  C   UNL     1     -11.229  10.186  70.435  1.00  0.00    -0.402 A  
ENDBRANCH  13  14
BRANCH  13  22
HETATM   22  C   UNL     1      -8.137   6.717  70.565  1.00  0.00    -0.117 C  
BRANCH  22  23
HETATM   23  N   UNL     1      -7.838   7.187  71.911  1.00  0.00    -0.092 NA 
HETATM   24  C   UNL     1      -8.064   6.488  73.066  1.00  0.00    -0.107 A  
HETATM   25  N   UNL     1      -7.204   8.510  73.566  1.00  0.00    -0.323 NA 
HETATM   26  C   UNL     1      -7.293   8.388  72.258  1.00  0.00    -0.093 A  
HETATM   27  C   UNL     1      -7.679   7.335  74.078  1.00  0.00    -0.112 A  
ENDBRANCH  22  23
ENDBRANCH  13  22
ENDBRANCH  11  13
ENDBRANCH  10  11
ENDBRANCH   9  10
ENDBRANCH   6   9
TORSDOF 7
ENDMDL
MODEL      326
REMARK 921   NORMALIZED FREE ENERGY PREDICTED BY IDOCK:   -3.37 KCAL/MOL
REMARK 922        TOTAL FREE ENERGY PREDICTED BY IDOCK:   -5.86 KCAL/MOL
REMARK 923 INTER-LIGAND FREE ENERGY PREDICTED BY IDOCK:   -4.24 KCAL/MOL
REMARK 924 INTRA-LIGAND FREE ENERGY PREDICTED BY IDOCK:   -1.63 KCAL/MOL
REMARK 927      BINDING AFFINITY PREDICTED BY RF-SCORE:    0.00 PKD
ROOT
HETATM    1 CL   UNL     1     -10.996   2.580  73.087  1.00  0.00    -0.250 Cl 
HETATM    2  C   UNL     1     -10.331   4.152  73.297  1.00  0.00    -0.164 A  
HETATM    3  C   UNL     1      -8.970   4.296  73.559  1.00  0.00    -0.092 A  
HETATM    4  C   UNL     1      -8.449   5.573  73.805  1.00  0.00    -0.114 A  
HETATM    5 CL   UNL     1      -6.749   5.673  74.123  1.00  0.00    -0.079 Cl 
HETATM    6  C   UNL     1      -9.270   6.721  73.806  1.00  0.00    -0.190 A  
HETATM    7  C   UNL     1     -10.625   6.548  73.480  1.00  0.00    -0.312 A  
HETATM    8  C   UNL     1     -11.150   5.273  73.229  1.00  0.00    -0.376 A  
ENDROOT
BRANCH   6   9
HETATM    9  C   UNL     1      -8.723   8.065  74.268  1.00  0.00    -0.049 C  
BRANCH   9  10
HETATM   10  O   UNL     1      -7.910   8.764  73.297  1.00  0.00    -0.400 OA 
BRANCH  10  11
HETATM   11  N   UNL     1      -8.671   9.011  72.128  1.00  0.00    -0.322 NA 
HETATM   12  H   UNL     1      -9.602   9.426  72.145  1.00  0.00     0.000 HD 
BRANCH  11  13
HETATM   13  C   UNL     1      -8.064   8.655  71.028  1.00  0.00    -0.140 C  
BRANCH  13  14
HETATM   14  C   UNL     1      -8.606   7.509  70.201  1.00  0.00    -0.141 A  
HETATM   15 CL   UNL     1     -10.964   8.863  69.690  1.00  0.00    -0.183 Cl 
HETATM   16  C   UNL     1      -7.796   6.374  70.002  1.00  0.00    -0.111 A  
HETATM   17  C   UNL     1      -9.864   7.535  69.568  1.00  0.00    -0.169 A  
HETATM   18  C   UNL     1      -8.194   5.327  69.162  1.00  0.00    -0.092 A  
HETATM   19 CL   UNL     1      -9.897   4.123  67.456  1.00  0.00    -0.186 Cl 
HETATM   20  C   UNL     1      -9.426   5.388  68.522  1.00  0.00    -0.123 A  
HETATM   21  C   UNL     1     -10.267   6.476  68.734  1.00  0.00    -0.194 A  
ENDBRANCH  13  14
BRANCH  13  22
HETATM   22  C   UNL     1      -6.838   9.377  70.473  1.00  0.00    -0.098 C  
BRANCH  22  23
HETATM   23  N   UNL     1      -7.066  10.053  69.203  1.00  0.00    -0.064 NA 
HETATM   24  C   UNL     1      -6.384   9.813  68.041  1.00  0.00    -0.056 A  
HETATM   25  N   UNL     1      -7.884  11.461  67.707  1.00  0.00    -0.112 NA 
HETATM   26  C   UNL     1      -7.979  11.034  68.948  1.00  0.00    -0.138 A  
HETATM   27  C   UNL     1      -6.897  10.708  67.133  1.00  0.00    -0.083 A  
ENDBRANCH  22  23
ENDBRANCH  13  22
ENDBRANCH  11  13
ENDBRANCH  10  11
ENDBRANCH   9  10
ENDBRANCH   6   9
TORSDOF 7
ENDMDL
MODEL      327
REMARK 921   NORMALIZED FREE ENERGY PREDICTED BY IDOCK:   -3.37 KCAL/MOL
REMARK 922        TOTAL FREE ENERGY PREDICTED BY IDOCK:   -5.86 KCAL/MOL
REMARK 923 INTER-LIGAND FREE ENERGY PREDICTED BY IDOCK:   -4.92 KCAL/MOL
REMARK 924 INTRA-LIGAND FREE ENERGY PREDICTED BY IDOCK:   -0.95 KCAL/MOL
REMARK 927      BINDING AFFINITY PREDICTED BY RF-SCORE:    0.00 PKD
ROOT
HETATM    1 CL   UNL     1     -10.430   2.573  63.649  1.00  0.00    -0.173 Cl 
HETATM    2  C   UNL     1      -9.759   3.569  64.880  1.00  0.00    -0.157 A  
HETATM    3  C   UNL     1      -9.753   3.124  66.200  1.00  0.00     0.137 A  
HETATM    4  C   UNL     1      -9.275   3.971  67.209  1.00  0.00    -0.165 A  
HETATM    5 CL   UNL     1      -9.298   3.349  68.825  1.00  0.00    -0.230 Cl 
HETATM    6  C   UNL     1      -8.810   5.273  66.925  1.00  0.00    -0.110 A  
HETATM    7  C   UNL     1      -8.774   5.668  65.578  1.00  0.00    -0.151 A  
HETATM    8  C   UNL     1      -9.247   4.822  64.564  1.00  0.00    -0.061 A  
ENDROOT
BRANCH   6   9
HETATM    9  C   UNL     1      -8.482   6.243  68.052  1.00  0.00    -0.117 C  
BRANCH   9  10
HETATM   10  O   UNL     1      -9.186   7.505  68.000  1.00  0.00    -0.137 OA 
BRANCH  10  11
HETATM   11  N   UNL     1      -8.413   8.509  68.631  1.00  0.00    -0.130 NA 
HETATM   12  H   UNL     1      -7.393   8.495  68.659  1.00  0.00     0.000 HD 
BRANCH  11  13
HETATM   13  C   UNL     1      -9.132   9.454  69.175  1.00  0.00    -0.148 C  
BRANCH  13  14
HETATM   14  C   UNL     1      -9.639  10.601  68.328  1.00  0.00    -0.167 A  
HETATM   15 CL   UNL     1      -7.376  12.109  68.840  1.00  0.00    -0.089 Cl 
HETATM   16  C   UNL     1     -10.872  10.459  67.662  1.00  0.00    -0.361 A  
HETATM   17  C   UNL     1      -8.916  11.792  68.119  1.00  0.00    -0.181 A  
HETATM   18  C   UNL     1     -11.347  11.439  66.780  1.00  0.00    -0.252 A  
HETATM   19 CL   UNL     1     -11.162  13.773  65.449  1.00  0.00    -0.298 Cl 
HETATM   20  C   UNL     1     -10.602  12.591  66.565  1.00  0.00    -0.242 A  
HETATM   21  C   UNL     1      -9.400  12.779  67.241  1.00  0.00    -0.200 A  
ENDBRANCH  13  14
BRANCH  13  22
HETATM   22  C   UNL     1      -9.556   9.449  70.642  1.00  0.00    -0.268 C  
BRANCH  22  23
HETATM   23  N   UNL     1     -10.827   8.785  70.895  1.00  0.00    -0.226 NA 
HETATM   24  C   UNL     1     -12.013   9.413  71.160  1.00  0.00    -0.337 A  
HETATM   25  N   UNL     1     -12.312   7.181  71.230  1.00  0.00    -0.362 NA 
HETATM   26  C   UNL     1     -11.059   7.441  70.920  1.00  0.00    -0.263 A  
HETATM   27  C   UNL     1     -12.915   8.399  71.380  1.00  0.00    -0.229 A  
ENDBRANCH  22  23
ENDBRANCH  13  22
ENDBRANCH  11  13
ENDBRANCH  10  11
ENDBRANCH   9  10
ENDBRANCH   6   9
TORSDOF 7
ENDMDL
MODEL      328
REMARK 921   NORMALIZED FREE ENERGY PREDICTED BY IDOCK:   -3.36 KCAL/MOL
REMARK 922        TOTAL FREE ENERGY PREDICTED BY IDOCK:   -5.86 KCAL/MOL
REMARK 923 INTER-LIGAND FREE ENERGY PREDICTED BY IDOCK:   -5.29 KCAL/MOL
REMARK 924 INTRA-LIGAND FREE ENERGY PREDICTED BY IDOCK:   -0.57 KCAL/MOL
REMARK 927      BINDING AFFINITY PREDICTED BY RF-SCORE:    0.00 PKD
ROOT
HETATM    1 CL   UNL     1      -9.341   5.783  72.227  1.00  0.00    -0.152 Cl 
HETATM    2  C   UNL     1      -9.587   7.056  71.098  1.00  0.00    -0.165 A  
HETATM    3  C   UNL     1     -10.702   7.881  71.221  1.00  0.00    -0.257 A  
HETATM    4  C   UNL     1     -10.938   8.868  70.253  1.00  0.00    -0.241 A  
HETATM    5 CL   UNL     1     -12.344   9.855  70.474  1.00  0.00    -0.272 Cl 
HETATM    6  C   UNL     1     -10.079   9.040  69.147  1.00  0.00    -0.201 A  
HETATM    7  C   UNL     1      -8.933   8.231  69.084  1.00  0.00    -0.147 A  
HETATM    8  C   UNL     1      -8.691   7.246  70.052  1.00  0.00    -0.141 A  
ENDROOT
BRANCH   6   9
HETATM    9  C   UNL     1     -10.458   9.980  68.009  1.00  0.00    -0.218 C  
BRANCH   9  10
HETATM   10  O   UNL     1      -9.682  11.197  67.934  1.00  0.00    -0.168 OA 
BRANCH  10  11
HETATM   11  N   UNL     1     -10.517  12.272  67.544  1.00  0.00    -0.211 NA 
HETATM   12  H   UNL     1     -11.534  12.203  67.500  1.00  0.00     0.000 HD 
BRANCH  11  13
HETATM   13  C   UNL     1      -9.858  13.360  67.246  1.00  0.00    -0.233 C  
BRANCH  13  14
HETATM   14  C   UNL     1      -8.716  13.818  68.127  1.00  0.00    -0.183 A  
HETATM   15 CL   UNL     1     -10.447  15.039  69.906  1.00  0.00    -0.215 Cl 
HETATM   16  C   UNL     1      -7.401  13.456  67.774  1.00  0.00    -0.158 A  
HETATM   17  C   UNL     1      -8.898  14.544  69.320  1.00  0.00     0.118 A  
HETATM   18  C   UNL     1      -6.311  13.757  68.601  1.00  0.00    -0.090 A  
HETATM   19 CL   UNL     1      -5.186  14.777  70.826  1.00  0.00    -0.123 Cl 
HETATM   20  C   UNL     1      -6.517  14.446  69.789  1.00  0.00    -0.150 A  
HETATM   21  C   UNL     1      -7.800  14.854  70.143  1.00  0.00     0.470 A  
ENDBRANCH  13  14
BRANCH  13  22
HETATM   22  C   UNL     1     -10.137  14.196  65.999  1.00  0.00    -0.316 C  
BRANCH  22  23
HETATM   23  N   UNL     1     -10.828  13.475  64.939  1.00  0.00    -0.341 NA 
HETATM   24  C   UNL     1     -10.419  12.294  64.382  1.00  0.00    -0.325 A  
HETATM   25  N   UNL     1     -12.306  12.990  63.366  1.00  0.00    -0.731 NA 
HETATM   26  C   UNL     1     -11.984  13.844  64.315  1.00  0.00    -0.444 A  
HETATM   27  C   UNL     1     -11.341  12.022  63.400  1.00  0.00    -0.397 A  
ENDBRANCH  22  23
ENDBRANCH  13  22
ENDBRANCH  11  13
ENDBRANCH  10  11
ENDBRANCH   9  10
ENDBRANCH   6   9
TORSDOF 7
ENDMDL
MODEL      329
REMARK 921   NORMALIZED FREE ENERGY PREDICTED BY IDOCK:   -3.32 KCAL/MOL
REMARK 922        TOTAL FREE ENERGY PREDICTED BY IDOCK:   -5.80 KCAL/MOL
REMARK 923 INTER-LIGAND FREE ENERGY PREDICTED BY IDOCK:   -4.98 KCAL/MOL
REMARK 924 INTRA-LIGAND FREE ENERGY PREDICTED BY IDOCK:   -0.82 KCAL/MOL
REMARK 927      BINDING AFFINITY PREDICTED BY RF-SCORE:    0.00 PKD
ROOT
HETATM    1 CL   UNL     1      -6.162   4.678  63.599  1.00  0.00    -0.022 Cl 
HETATM    2  C   UNL     1      -7.332   5.425  64.614  1.00  0.00    -0.064 A  
HETATM    3  C   UNL     1      -7.466   6.811  64.607  1.00  0.00    -0.097 A  
HETATM    4  C   UNL     1      -8.368   7.420  65.491  1.00  0.00    -0.135 A  
HETATM    5 CL   UNL     1      -8.480   9.147  65.423  1.00  0.00    -0.147 Cl 
HETATM    6  C   UNL     1      -9.137   6.663  66.401  1.00  0.00    -0.172 A  
HETATM    7  C   UNL     1      -9.021   5.265  66.341  1.00  0.00    -0.128 A  
HETATM    8  C   UNL     1      -8.124   4.652  65.455  1.00  0.00    -0.107 A  
ENDROOT
BRANCH   6   9
HETATM    9  C   UNL     1      -9.959   7.353  67.482  1.00  0.00    -0.173 C  
BRANCH   9  10
HETATM   10  O   UNL     1      -9.437   7.226  68.824  1.00  0.00    -0.143 OA 
BRANCH  10  11
HETATM   11  N   UNL     1      -8.351   8.117  68.999  1.00  0.00    -0.127 NA 
HETATM   12  H   UNL     1      -7.567   8.179  68.349  1.00  0.00     0.000 HD 
BRANCH  11  13
HETATM   13  C   UNL     1      -8.449   8.853  70.074  1.00  0.00    -0.139 C  
BRANCH  13  14
HETATM   14  C   UNL     1      -9.806   9.103  70.698  1.00  0.00    -0.308 A  
HETATM   15 CL   UNL     1     -10.486  10.922  68.727  1.00  0.00    -0.203 Cl 
HETATM   16  C   UNL     1     -10.165   8.380  71.852  1.00  0.00    -0.340 A  
HETATM   17  C   UNL     1     -10.760   9.984  70.153  1.00  0.00    -0.307 A  
HETATM   18  C   UNL     1     -11.443   8.487  72.416  1.00  0.00    -0.419 A  
HETATM   19 CL   UNL     1     -13.962   9.436  72.508  1.00  0.00    -0.406 Cl 
HETATM   20  C   UNL     1     -12.379   9.338  71.844  1.00  0.00    -0.382 A  
HETATM   21  C   UNL     1     -12.039  10.097  70.728  1.00  0.00    -0.438 A  
ENDBRANCH  13  14
BRANCH  13  22
HETATM   22  C   UNL     1      -7.244   9.448  70.798  1.00  0.00    -0.113 C  
BRANCH  22  23
HETATM   23  N   UNL     1      -6.795  10.725  70.261  1.00  0.00    -0.256 NA 
HETATM   24  C   UNL     1      -7.211  11.283  69.083  1.00  0.00    -0.115 A  
HETATM   25  N   UNL     1      -5.674  12.619  70.046  1.00  0.00    -0.125 NA 
HETATM   26  C   UNL     1      -5.889  11.578  70.822  1.00  0.00    -0.021 A  
HETATM   27  C   UNL     1      -6.492  12.448  68.963  1.00  0.00    -0.097 A  
ENDBRANCH  22  23
ENDBRANCH  13  22
ENDBRANCH  11  13
ENDBRANCH  10  11
ENDBRANCH   9  10
ENDBRANCH   6   9
TORSDOF 7
ENDMDL
MODEL      330
REMARK 921   NORMALIZED FREE ENERGY PREDICTED BY IDOCK:   -3.32 KCAL/MOL
REMARK 922        TOTAL FREE ENERGY PREDICTED BY IDOCK:   -5.80 KCAL/MOL
REMARK 923 INTER-LIGAND FREE ENERGY PREDICTED BY IDOCK:   -4.88 KCAL/MOL
REMARK 924 INTRA-LIGAND FREE ENERGY PREDICTED BY IDOCK:   -0.92 KCAL/MOL
REMARK 927      BINDING AFFINITY PREDICTED BY RF-SCORE:    0.00 PKD
ROOT
HETATM    1 CL   UNL     1      -6.415   8.531  73.837  1.00  0.00    -0.140 Cl 
HETATM    2  C   UNL     1      -7.633   8.016  72.738  1.00  0.00    -0.124 A  
HETATM    3  C   UNL     1      -8.976   8.156  73.082  1.00  0.00    -0.330 A  
HETATM    4  C   UNL     1      -9.962   7.665  72.215  1.00  0.00    -0.190 A  
HETATM    5 CL   UNL     1     -11.608   7.876  72.710  1.00  0.00    -0.431 Cl 
HETATM    6  C   UNL     1      -9.630   7.019  71.005  1.00  0.00    -0.170 A  
HETATM    7  C   UNL     1      -8.271   6.947  70.661  1.00  0.00    -0.120 A  
HETATM    8  C   UNL     1      -7.281   7.441  71.523  1.00  0.00    -0.071 A  
ENDROOT
BRANCH   6   9
HETATM    9  C   UNL     1     -10.703   6.321  70.179  1.00  0.00    -0.286 C  
BRANCH   9  10
HETATM   10  O   UNL     1     -10.821   6.781  68.813  1.00  0.00    -0.232 OA 
BRANCH  10  11
HETATM   11  N   UNL     1     -10.860   8.196  68.789  1.00  0.00    -0.421 NA 
HETATM   12  H   UNL     1     -11.383   8.754  69.464  1.00  0.00     0.000 HD 
BRANCH  11  13
HETATM   13  C   UNL     1     -10.161   8.719  67.816  1.00  0.00    -0.228 C  
BRANCH  13  14
HETATM   14  C   UNL     1      -9.285   9.925  68.077  1.00  0.00    -0.129 A  
HETATM   15 CL   UNL     1     -11.454  11.641  67.995  1.00  0.00    -0.367 Cl 
HETATM   16  C   UNL     1      -7.904   9.729  68.279  1.00  0.00    -0.089 A  
HETATM   17  C   UNL     1      -9.783  11.237  68.187  1.00  0.00    -0.185 A  
HETATM   18  C   UNL     1      -7.057  10.788  68.629  1.00  0.00    -0.078 A  
HETATM   19 CL   UNL     1      -6.545  13.362  69.236  1.00  0.00    -0.107 Cl 
HETATM   20  C   UNL     1      -7.576  12.070  68.763  1.00  0.00    -0.070 A  
HETATM   21  C   UNL     1      -8.928  12.301  68.528  1.00  0.00    -0.070 A  
ENDBRANCH  13  14
BRANCH  13  22
HETATM   22  C   UNL     1     -10.125   8.141  66.403  1.00  0.00    -0.126 C  
BRANCH  22  23
HETATM   23  N   UNL     1      -9.557   9.037  65.405  1.00  0.00    -0.120 NA 
HETATM   24  C   UNL     1     -10.115  10.214  64.984  1.00  0.00    -0.235 A  
HETATM   25  N   UNL     1      -8.202   9.840  63.853  1.00  0.00    -0.146 NA 
HETATM   26  C   UNL     1      -8.392   8.865  64.717  1.00  0.00    -0.175 A  
HETATM   27  C   UNL     1      -9.265  10.685  64.012  1.00  0.00    -0.239 A  
ENDBRANCH  22  23
ENDBRANCH  13  22
ENDBRANCH  11  13
ENDBRANCH  10  11
ENDBRANCH   9  10
ENDBRANCH   6   9
TORSDOF 7
ENDMDL
MODEL      331
REMARK 921   NORMALIZED FREE ENERGY PREDICTED BY IDOCK:   -3.28 KCAL/MOL
REMARK 922        TOTAL FREE ENERGY PREDICTED BY IDOCK:   -5.74 KCAL/MOL
REMARK 923 INTER-LIGAND FREE ENERGY PREDICTED BY IDOCK:   -4.31 KCAL/MOL
REMARK 924 INTRA-LIGAND FREE ENERGY PREDICTED BY IDOCK:   -1.44 KCAL/MOL
REMARK 927      BINDING AFFINITY PREDICTED BY RF-SCORE:    0.00 PKD
ROOT
HETATM    1 CL   UNL     1     -11.256  11.471  63.775  1.00  0.00    -0.483 Cl 
HETATM    2  C   UNL     1      -9.988  11.445  64.936  1.00  0.00    -0.265 A  
HETATM    3  C   UNL     1      -8.858  10.664  64.706  1.00  0.00    -0.196 A  
HETATM    4  C   UNL     1      -7.864  10.586  65.691  1.00  0.00    -0.150 A  
HETATM    5 CL   UNL     1      -6.488   9.596  65.332  1.00  0.00    -0.076 Cl 
HETATM    6  C   UNL     1      -7.982  11.271  66.919  1.00  0.00    -0.155 A  
HETATM    7  C   UNL     1      -9.105  12.095  67.095  1.00  0.00    -0.189 A  
HETATM    8  C   UNL     1     -10.101  12.179  66.111  1.00  0.00    -0.251 A  
ENDROOT
BRANCH   6   9
HETATM    9  C   UNL     1      -6.991  11.017  68.047  1.00  0.00    -0.068 C  
BRANCH   9  10
HETATM   10  O   UNL     1      -6.865   9.635  68.453  1.00  0.00    -0.060 OA 
BRANCH  10  11
HETATM   11  N   UNL     1      -7.826   9.341  69.451  1.00  0.00    -0.080 NA 
HETATM   12  H   UNL     1      -8.004   9.947  70.251  1.00  0.00     0.000 HD 
BRANCH  11  13
HETATM   13  C   UNL     1      -8.461   8.218  69.245  1.00  0.00    -0.126 C  
BRANCH  13  14
HETATM   14  C   UNL     1      -7.898   7.195  68.283  1.00  0.00    -0.122 A  
HETATM   15 CL   UNL     1      -9.851   7.744  66.401  1.00  0.00    -0.247 Cl 
HETATM   16  C   UNL     1      -6.734   6.491  68.647  1.00  0.00    -0.068 A  
HETATM   17  C   UNL     1      -8.444   6.944  67.009  1.00  0.00    -0.121 A  
HETATM   18  C   UNL     1      -6.103   5.609  67.761  1.00  0.00    -0.026 A  
HETATM   19 CL   UNL     1      -5.842   4.352  65.392  1.00  0.00    -0.021 Cl 
HETATM   20  C   UNL     1      -6.640   5.401  66.497  1.00  0.00    -0.056 A  
HETATM   21  C   UNL     1      -7.814   6.050  66.124  1.00  0.00    -0.104 A  
ENDBRANCH  13  14
BRANCH  13  22
HETATM   22  C   UNL     1      -9.745   7.834  69.977  1.00  0.00    -0.176 C  
BRANCH  22  23
HETATM   23  N   UNL     1     -10.693   8.928  70.136  1.00  0.00    -0.221 NA 
HETATM   24  C   UNL     1     -11.226   9.673  69.119  1.00  0.00    -0.019 A  
HETATM   25  N   UNL     1     -11.998  10.435  71.094  1.00  0.00    -0.366 NA 
HETATM   26  C   UNL     1     -11.207   9.405  71.307  1.00  0.00    -0.367 A  
HETATM   27  C   UNL     1     -12.019  10.610  69.738  1.00  0.00    -0.291 A  
ENDBRANCH  22  23
ENDBRANCH  13  22
ENDBRANCH  11  13
ENDBRANCH  10  11
ENDBRANCH   9  10
ENDBRANCH   6   9
TORSDOF 7
ENDMDL
MODEL      332
REMARK 921   NORMALIZED FREE ENERGY PREDICTED BY IDOCK:   -3.27 KCAL/MOL
REMARK 922        TOTAL FREE ENERGY PREDICTED BY IDOCK:   -5.73 KCAL/MOL
REMARK 923 INTER-LIGAND FREE ENERGY PREDICTED BY IDOCK:   -6.05 KCAL/MOL
REMARK 924 INTRA-LIGAND FREE ENERGY PREDICTED BY IDOCK:    0.32 KCAL/MOL
REMARK 927      BINDING AFFINITY PREDICTED BY RF-SCORE:    0.00 PKD
ROOT
HETATM    1 CL   UNL     1      -6.512  13.776  67.596  1.00  0.00    -0.179 Cl 
HETATM    2  C   UNL     1      -7.706  12.589  67.249  1.00  0.00    -0.146 A  
HETATM    3  C   UNL     1      -9.051  12.951  67.218  1.00  0.00    -0.208 A  
HETATM    4  C   UNL     1     -10.024  11.965  67.011  1.00  0.00    -0.202 A  
HETATM    5 CL   UNL     1     -11.674  12.492  66.985  1.00  0.00    -0.440 Cl 
HETATM    6  C   UNL     1      -9.679  10.607  66.845  1.00  0.00    -0.213 A  
HETATM    7  C   UNL     1      -8.313  10.284  66.822  1.00  0.00    -0.124 A  
HETATM    8  C   UNL     1      -7.335  11.268  67.025  1.00  0.00    -0.136 A  
ENDROOT
BRANCH   6   9
HETATM    9  C   UNL     1     -10.756   9.530  66.819  1.00  0.00    -0.066 C  
BRANCH   9  10
HETATM   10  O   UNL     1     -10.523   8.407  67.700  1.00  0.00    -0.243 OA 
BRANCH  10  11
HETATM   11  N   UNL     1     -11.275   7.292  67.259  1.00  0.00    -0.545 NA 
HETATM   12  H   UNL     1     -12.072   7.368  66.627  1.00  0.00     0.000 HD 
BRANCH  11  13
HETATM   13  C   UNL     1     -10.848   6.154  67.740  1.00  0.00    -0.325 C  
BRANCH  13  14
HETATM   14  C   UNL     1     -10.901   5.897  69.231  1.00  0.00    -0.414 A  
HETATM   15 CL   UNL     1      -9.038   3.859  69.044  1.00  0.00    -0.181 Cl 
HETATM   16  C   UNL     1     -11.727   6.710  70.031  1.00  0.00    -0.378 A  
HETATM   17  C   UNL     1     -10.122   4.918  69.878  1.00  0.00    -0.262 A  
HETATM   18  C   UNL     1     -11.741   6.594  71.427  1.00  0.00    -0.374 A  
HETATM   19 CL   UNL     1     -10.923   5.529  73.762  1.00  0.00    -0.247 Cl 
HETATM   20  C   UNL     1     -10.940   5.643  72.046  1.00  0.00    -0.243 A  
HETATM   21  C   UNL     1     -10.146   4.796  71.279  1.00  0.00    -0.258 A  
ENDBRANCH  13  14
BRANCH  13  22
HETATM   22  C   UNL     1     -10.337   5.011  66.867  1.00  0.00    -0.218 C  
BRANCH  22  23
HETATM   23  N   UNL     1      -9.276   5.392  65.945  1.00  0.00    -0.160 NA 
HETATM   24  C   UNL     1      -8.878   4.672  64.850  1.00  0.00    -0.151 A  
HETATM   25  N   UNL     1      -7.600   6.518  65.044  1.00  0.00    -0.085 NA 
HETATM   26  C   UNL     1      -8.497   6.510  66.007  1.00  0.00    -0.145 A  
HETATM   27  C   UNL     1      -7.828   5.382  64.318  1.00  0.00    -0.104 A  
ENDBRANCH  22  23
ENDBRANCH  13  22
ENDBRANCH  11  13
ENDBRANCH  10  11
ENDBRANCH   9  10
ENDBRANCH   6   9
TORSDOF 7
ENDMDL
MODEL      333
REMARK 921   NORMALIZED FREE ENERGY PREDICTED BY IDOCK:   -3.26 KCAL/MOL
REMARK 922        TOTAL FREE ENERGY PREDICTED BY IDOCK:   -5.72 KCAL/MOL
REMARK 923 INTER-LIGAND FREE ENERGY PREDICTED BY IDOCK:   -6.01 KCAL/MOL
REMARK 924 INTRA-LIGAND FREE ENERGY PREDICTED BY IDOCK:    0.30 KCAL/MOL
REMARK 927      BINDING AFFINITY PREDICTED BY RF-SCORE:    0.00 PKD
ROOT
HETATM    1 CL   UNL     1      -8.974  10.804  64.449  1.00  0.00    -0.196 Cl 
HETATM    2  C   UNL     1      -9.472  10.419  66.048  1.00  0.00    -0.185 A  
HETATM    3  C   UNL     1     -10.496  11.149  66.647  1.00  0.00    -0.298 A  
HETATM    4  C   UNL     1     -10.845  10.880  67.978  1.00  0.00    -0.245 A  
HETATM    5 CL   UNL     1     -12.128  11.828  68.653  1.00  0.00    -0.281 Cl 
HETATM    6  C   UNL     1     -10.176   9.895  68.735  1.00  0.00    -0.205 A  
HETATM    7  C   UNL     1      -9.189   9.138  68.084  1.00  0.00    -0.137 A  
HETATM    8  C   UNL     1      -8.839   9.400  66.752  1.00  0.00    -0.142 A  
ENDROOT
BRANCH   6   9
HETATM    9  C   UNL     1     -10.435   9.756  70.229  1.00  0.00    -0.288 C  
BRANCH   9  10
HETATM   10  O   UNL     1     -11.439   8.780  70.590  1.00  0.00    -0.265 OA 
BRANCH  10  11
HETATM   11  N   UNL     1     -11.487   7.761  69.609  1.00  0.00    -0.421 NA 
HETATM   12  H   UNL     1     -11.667   7.943  68.621  1.00  0.00     0.000 HD 
BRANCH  11  13
HETATM   13  C   UNL     1     -11.280   6.565  70.091  1.00  0.00    -0.377 C  
BRANCH  13  14
HETATM   14  C   UNL     1     -10.360   5.606  69.366  1.00  0.00    -0.343 A  
HETATM   15 CL   UNL     1     -10.989   6.706  66.906  1.00  0.00    -0.451 Cl 
HETATM   16  C   UNL     1      -9.609   4.685  70.122  1.00  0.00    -0.266 A  
HETATM   17  C   UNL     1     -10.167   5.619  67.971  1.00  0.00    -0.186 A  
HETATM   18  C   UNL     1      -8.662   3.844  69.524  1.00  0.00    -0.127 A  
HETATM   19 CL   UNL     1      -7.272   2.896  67.420  1.00  0.00    -0.053 Cl 
HETATM   20  C   UNL     1      -8.465   3.896  68.150  1.00  0.00    -0.093 A  
HETATM   21  C   UNL     1      -9.223   4.766  67.371  1.00  0.00    -0.142 A  
ENDBRANCH  13  14
BRANCH  13  22
HETATM   22  C   UNL     1     -11.878   6.074  71.407  1.00  0.00     0.028 C  
BRANCH  22  23
HETATM   23  N   UNL     1     -11.054   6.344  72.576  1.00  0.00    -0.252 NA 
HETATM   24  C   UNL     1     -10.591   7.575  72.956  1.00  0.00    -0.368 A  
HETATM   25  N   UNL     1      -9.833   6.012  74.390  1.00  0.00    -0.231 NA 
HETATM   26  C   UNL     1     -10.595   5.436  73.485  1.00  0.00    -0.270 A  
HETATM   27  C   UNL     1      -9.825   7.342  74.073  1.00  0.00    -0.218 A  
ENDBRANCH  22  23
ENDBRANCH  13  22
ENDBRANCH  11  13
ENDBRANCH  10  11
ENDBRANCH   9  10
ENDBRANCH   6   9
TORSDOF 7
ENDMDL
MODEL      334
REMARK 921   NORMALIZED FREE ENERGY PREDICTED BY IDOCK:   -3.25 KCAL/MOL
REMARK 922        TOTAL FREE ENERGY PREDICTED BY IDOCK:   -5.70 KCAL/MOL
REMARK 923 INTER-LIGAND FREE ENERGY PREDICTED BY IDOCK:   -5.07 KCAL/MOL
REMARK 924 INTRA-LIGAND FREE ENERGY PREDICTED BY IDOCK:   -0.63 KCAL/MOL
REMARK 927      BINDING AFFINITY PREDICTED BY RF-SCORE:    0.00 PKD
ROOT
HETATM    1 CL   UNL     1     -13.012  13.209  64.921  1.00  0.00    -0.333 Cl 
HETATM    2  C   UNL     1     -11.673  13.098  65.993  1.00  0.00    -0.379 A  
HETATM    3  C   UNL     1     -10.647  14.037  65.916  1.00  0.00    -0.302 A  
HETATM    4  C   UNL     1      -9.522  13.897  66.740  1.00  0.00    -0.279 A  
HETATM    5 CL   UNL     1      -8.289  15.103  66.588  1.00  0.00    -0.235 Cl 
HETATM    6  C   UNL     1      -9.394  12.818  67.641  1.00  0.00    -0.191 A  
HETATM    7  C   UNL     1     -10.471  11.922  67.736  1.00  0.00    -0.224 A  
HETATM    8  C   UNL     1     -11.600  12.061  66.917  1.00  0.00    -0.389 A  
ENDROOT
BRANCH   6   9
HETATM    9  C   UNL     1      -8.084  12.576  68.380  1.00  0.00    -0.136 C  
BRANCH   9  10
HETATM   10  O   UNL     1      -8.048  11.377  69.187  1.00  0.00    -0.057 OA 
BRANCH  10  11
HETATM   11  N   UNL     1      -7.940  10.241  68.349  1.00  0.00    -0.104 NA 
HETATM   12  H   UNL     1      -7.855  10.300  67.334  1.00  0.00     0.000 HD 
BRANCH  11  13
HETATM   13  C   UNL     1      -7.960   9.109  69.002  1.00  0.00    -0.101 C  
BRANCH  13  14
HETATM   14  C   UNL     1      -9.266   8.575  69.549  1.00  0.00    -0.150 A  
HETATM   15 CL   UNL     1      -9.286   6.486  67.736  1.00  0.00    -0.119 Cl 
HETATM   16  C   UNL     1      -9.860   9.230  70.647  1.00  0.00    -0.332 A  
HETATM   17  C   UNL     1      -9.900   7.418  69.057  1.00  0.00    -0.168 A  
HETATM   18  C   UNL     1     -11.010   8.725  71.267  1.00  0.00    -0.345 A  
HETATM   19 CL   UNL     1     -12.986   6.921  71.572  1.00  0.00    -0.396 Cl 
HETATM   20  C   UNL     1     -11.600   7.565  70.784  1.00  0.00    -0.277 A  
HETATM   21  C   UNL     1     -11.061   6.920  69.675  1.00  0.00    -0.302 A  
ENDBRANCH  13  14
BRANCH  13  22
HETATM   22  C   UNL     1      -6.725   8.236  69.207  1.00  0.00    -0.043 C  
BRANCH  22  23
HETATM   23  N   UNL     1      -6.301   8.115  70.595  1.00  0.00    -0.036 NA 
HETATM   24  C   UNL     1      -5.456   8.973  71.246  1.00  0.00    -0.043 A  
HETATM   25  N   UNL     1      -6.053   7.306  72.638  1.00  0.00    -0.044 NA 
HETATM   26  C   UNL     1      -6.659   7.141  71.481  1.00  0.00    -0.048 A  
HETATM   27  C   UNL     1      -5.305   8.442  72.504  1.00  0.00    -0.042 A  
ENDBRANCH  22  23
ENDBRANCH  13  22
ENDBRANCH  11  13
ENDBRANCH  10  11
ENDBRANCH   9  10
ENDBRANCH   6   9
TORSDOF 7
ENDMDL
MODEL      335
REMARK 921   NORMALIZED FREE ENERGY PREDICTED BY IDOCK:   -3.25 KCAL/MOL
REMARK 922        TOTAL FREE ENERGY PREDICTED BY IDOCK:   -5.70 KCAL/MOL
REMARK 923 INTER-LIGAND FREE ENERGY PREDICTED BY IDOCK:   -5.03 KCAL/MOL
REMARK 924 INTRA-LIGAND FREE ENERGY PREDICTED BY IDOCK:   -0.67 KCAL/MOL
REMARK 927      BINDING AFFINITY PREDICTED BY RF-SCORE:    0.00 PKD
ROOT
HETATM    1 CL   UNL     1     -10.997  16.465  64.891  1.00  0.00    -0.366 Cl 
HETATM    2  C   UNL     1     -10.970  15.138  65.984  1.00  0.00    -0.332 A  
HETATM    3  C   UNL     1      -9.878  14.964  66.831  1.00  0.00    -0.246 A  
HETATM    4  C   UNL     1      -9.827  13.839  67.665  1.00  0.00    -0.234 A  
HETATM    5 CL   UNL     1      -8.438  13.691  68.690  1.00  0.00    -0.094 Cl 
HETATM    6  C   UNL     1     -10.850  12.867  67.662  1.00  0.00    -0.252 A  
HETATM    7  C   UNL     1     -11.964  13.102  66.840  1.00  0.00    -0.421 A  
HETATM    8  C   UNL     1     -12.022  14.229  66.007  1.00  0.00    -0.412 A  
ENDROOT
BRANCH   6   9
HETATM    9  C   UNL     1     -10.681  11.560  68.426  1.00  0.00    -0.208 C  
BRANCH   9  10
HETATM   10  O   UNL     1     -11.031  10.368  67.687  1.00  0.00    -0.287 OA 
BRANCH  10  11
HETATM   11  N   UNL     1      -9.875   9.834  67.068  1.00  0.00    -0.182 NA 
HETATM   12  H   UNL     1      -9.443  10.246  66.240  1.00  0.00     0.000 HD 
BRANCH  11  13
HETATM   13  C   UNL     1      -9.415   8.764  67.659  1.00  0.00    -0.141 C  
BRANCH  13  14
HETATM   14  C   UNL     1      -9.354   7.452  66.907  1.00  0.00    -0.195 A  
HETATM   15 CL   UNL     1     -11.408   6.378  68.419  1.00  0.00    -0.287 Cl 
HETATM   16  C   UNL     1      -8.436   7.319  65.847  1.00  0.00    -0.148 A  
HETATM   17  C   UNL     1     -10.209   6.364  67.173  1.00  0.00    -0.199 A  
HETATM   18  C   UNL     1      -8.403   6.171  65.045  1.00  0.00    -0.112 A  
HETATM   19 CL   UNL     1      -9.267   3.733  64.294  1.00  0.00    -0.133 Cl 
HETATM   20  C   UNL     1      -9.277   5.124  65.305  1.00  0.00    -0.084 A  
HETATM   21  C   UNL     1     -10.167   5.208  66.372  1.00  0.00    -0.303 A  
ENDBRANCH  13  14
BRANCH  13  22
HETATM   22  C   UNL     1      -8.865   8.762  69.083  1.00  0.00    -0.137 C  
BRANCH  22  23
HETATM   23  N   UNL     1      -7.516   9.296  69.205  1.00  0.00    -0.071 NA 
HETATM   24  C   UNL     1      -6.425   8.607  69.661  1.00  0.00    -0.039 A  
HETATM   25  N   UNL     1      -5.827  10.724  69.175  1.00  0.00    -0.040 NA 
HETATM   26  C   UNL     1      -7.104  10.560  68.897  1.00  0.00    -0.074 A  
HETATM   27  C   UNL     1      -5.395   9.517  69.649  1.00  0.00    -0.034 A  
ENDBRANCH  22  23
ENDBRANCH  13  22
ENDBRANCH  11  13
ENDBRANCH  10  11
ENDBRANCH   9  10
ENDBRANCH   6   9
TORSDOF 7
ENDMDL
MODEL      336
REMARK 921   NORMALIZED FREE ENERGY PREDICTED BY IDOCK:   -3.23 KCAL/MOL
REMARK 922        TOTAL FREE ENERGY PREDICTED BY IDOCK:   -5.67 KCAL/MOL
REMARK 923 INTER-LIGAND FREE ENERGY PREDICTED BY IDOCK:   -3.58 KCAL/MOL
REMARK 924 INTRA-LIGAND FREE ENERGY PREDICTED BY IDOCK:   -2.09 KCAL/MOL
REMARK 927      BINDING AFFINITY PREDICTED BY RF-SCORE:    0.00 PKD
ROOT
HETATM    1 CL   UNL     1      -9.156   9.038  64.575  1.00  0.00    -0.083 Cl 
HETATM    2  C   UNL     1      -8.519   9.538  66.092  1.00  0.00    -0.120 A  
HETATM    3  C   UNL     1      -7.234   9.150  66.463  1.00  0.00    -0.085 A  
HETATM    4  C   UNL     1      -6.750   9.496  67.732  1.00  0.00    -0.067 A  
HETATM    5 CL   UNL     1      -5.144   8.978  68.121  1.00  0.00    -0.034 Cl 
HETATM    6  C   UNL     1      -7.537  10.218  68.653  1.00  0.00    -0.089 A  
HETATM    7  C   UNL     1      -8.805  10.645  68.227  1.00  0.00    -0.139 A  
HETATM    8  C   UNL     1      -9.292  10.305  66.956  1.00  0.00    -0.177 A  
ENDROOT
BRANCH   6   9
HETATM    9  C   UNL     1      -7.070  10.411  70.090  1.00  0.00    -0.117 C  
BRANCH   9  10
HETATM   10  O   UNL     1      -7.834   9.693  71.085  1.00  0.00    -0.289 OA 
BRANCH  10  11
HETATM   11  N   UNL     1      -7.070   8.610  71.583  1.00  0.00    -0.094 NA 
HETATM   12  H   UNL     1      -6.146   8.722  72.001  1.00  0.00     0.000 HD 
BRANCH  11  13
HETATM   13  C   UNL     1      -7.663   7.453  71.455  1.00  0.00    -0.086 C  
BRANCH  13  14
HETATM   14  C   UNL     1      -8.376   7.108  70.165  1.00  0.00    -0.137 A  
HETATM   15 CL   UNL     1      -6.195   5.690  69.223  1.00  0.00    -0.028 Cl 
HETATM   16  C   UNL     1      -9.704   7.542  69.988  1.00  0.00    -0.172 A  
HETATM   17  C   UNL     1      -7.802   6.323  69.147  1.00  0.00    -0.105 A  
HETATM   18  C   UNL     1     -10.455   7.167  68.866  1.00  0.00    -0.218 A  
HETATM   19 CL   UNL     1     -10.814   5.868  66.534  1.00  0.00    -0.290 Cl 
HETATM   20  C   UNL     1      -9.879   6.365  67.889  1.00  0.00    -0.123 A  
HETATM   21  C   UNL     1      -8.555   5.956  68.016  1.00  0.00    -0.113 A  
ENDBRANCH  13  14
BRANCH  13  22
HETATM   22  C   UNL     1      -7.635   6.371  72.531  1.00  0.00    -0.100 C  
BRANCH  22  23
HETATM   23  N   UNL     1      -8.928   5.752  72.790  1.00  0.00    -0.128 NA 
HETATM   24  C   UNL     1      -9.285   4.480  72.434  1.00  0.00    -0.125 A  
HETATM   25  N   UNL     1     -11.027   5.498  73.438  1.00  0.00    -0.287 NA 
HETATM   26  C   UNL     1      -9.998   6.319  73.417  1.00  0.00    -0.185 A  
HETATM   27  C   UNL     1     -10.595   4.351  72.832  1.00  0.00    -0.193 A  
ENDBRANCH  22  23
ENDBRANCH  13  22
ENDBRANCH  11  13
ENDBRANCH  10  11
ENDBRANCH   9  10
ENDBRANCH   6   9
TORSDOF 7
ENDMDL
MODEL      337
REMARK 921   NORMALIZED FREE ENERGY PREDICTED BY IDOCK:   -3.23 KCAL/MOL
REMARK 922        TOTAL FREE ENERGY PREDICTED BY IDOCK:   -5.67 KCAL/MOL
REMARK 923 INTER-LIGAND FREE ENERGY PREDICTED BY IDOCK:   -4.46 KCAL/MOL
REMARK 924 INTRA-LIGAND FREE ENERGY PREDICTED BY IDOCK:   -1.21 KCAL/MOL
REMARK 927      BINDING AFFINITY PREDICTED BY RF-SCORE:    0.00 PKD
ROOT
HETATM    1 CL   UNL     1     -11.686  13.053  66.426  1.00  0.00    -0.418 Cl 
HETATM    2  C   UNL     1     -10.653  11.840  67.071  1.00  0.00    -0.232 A  
HETATM    3  C   UNL     1     -11.012  10.498  66.962  1.00  0.00    -0.247 A  
HETATM    4  C   UNL     1     -10.205   9.519  67.557  1.00  0.00    -0.228 A  
HETATM    5 CL   UNL     1     -10.716   7.874  67.379  1.00  0.00    -0.325 Cl 
HETATM    6  C   UNL     1      -9.039   9.858  68.277  1.00  0.00    -0.122 A  
HETATM    7  C   UNL     1      -8.673  11.213  68.318  1.00  0.00    -0.151 A  
HETATM    8  C   UNL     1      -9.476  12.196  67.721  1.00  0.00    -0.192 A  
ENDROOT
BRANCH   6   9
HETATM    9  C   UNL     1      -8.289   8.802  69.079  1.00  0.00    -0.129 C  
BRANCH   9  10
HETATM   10  O   UNL     1      -7.566   7.831  68.289  1.00  0.00    -0.104 OA 
BRANCH  10  11
HETATM   11  N   UNL     1      -6.931   6.898  69.144  1.00  0.00    -0.075 NA 
HETATM   12  H   UNL     1      -6.117   7.126  69.715  1.00  0.00     0.000 HD 
BRANCH  11  13
HETATM   13  C   UNL     1      -7.489   5.717  69.131  1.00  0.00    -0.083 C  
BRANCH  13  14
HETATM   14  C   UNL     1      -8.454   5.324  70.228  1.00  0.00    -0.111 A  
HETATM   15 CL   UNL     1      -6.416   4.292  71.788  1.00  0.00    -0.018 Cl 
HETATM   16  C   UNL     1      -9.820   5.633  70.072  1.00  0.00    -0.247 A  
HETATM   17  C   UNL     1      -8.056   4.710  71.431  1.00  0.00    -0.101 A  
HETATM   18  C   UNL     1     -10.748   5.393  71.094  1.00  0.00    -0.239 A  
HETATM   19 CL   UNL     1     -11.456   4.561  73.556  1.00  0.00    -0.359 Cl 
HETATM   20  C   UNL     1     -10.326   4.816  72.285  1.00  0.00    -0.201 A  
HETATM   21  C   UNL     1      -8.991   4.460  72.451  1.00  0.00    -0.135 A  
ENDBRANCH  13  14
BRANCH  13  22
HETATM   22  C   UNL     1      -7.267   4.696  68.017  1.00  0.00    -0.065 C  
BRANCH  22  23
HETATM   23  N   UNL     1      -8.158   4.853  66.876  1.00  0.00    -0.107 NA 
HETATM   24  C   UNL     1      -9.427   4.350  66.782  1.00  0.00    -0.180 A  
HETATM   25  N   UNL     1      -8.898   5.418  64.870  1.00  0.00    -0.102 NA 
HETATM   26  C   UNL     1      -7.891   5.513  65.712  1.00  0.00    -0.104 A  
HETATM   27  C   UNL     1      -9.860   4.699  65.525  1.00  0.00    -0.184 A  
ENDBRANCH  22  23
ENDBRANCH  13  22
ENDBRANCH  11  13
ENDBRANCH  10  11
ENDBRANCH   9  10
ENDBRANCH   6   9
TORSDOF 7
ENDMDL
MODEL      338
REMARK 921   NORMALIZED FREE ENERGY PREDICTED BY IDOCK:   -3.21 KCAL/MOL
REMARK 922        TOTAL FREE ENERGY PREDICTED BY IDOCK:   -5.64 KCAL/MOL
REMARK 923 INTER-LIGAND FREE ENERGY PREDICTED BY IDOCK:   -4.74 KCAL/MOL
REMARK 924 INTRA-LIGAND FREE ENERGY PREDICTED BY IDOCK:   -0.91 KCAL/MOL
REMARK 927      BINDING AFFINITY PREDICTED BY RF-SCORE:    0.00 PKD
ROOT
HETATM    1 CL   UNL     1     -13.494   9.776  71.683  1.00  0.00    -0.447 Cl 
HETATM    2  C   UNL     1     -12.222   8.620  71.742  1.00  0.00    -0.343 A  
HETATM    3  C   UNL     1     -10.924   9.037  72.029  1.00  0.00    -0.355 A  
HETATM    4  C   UNL     1      -9.880   8.103  72.001  1.00  0.00    -0.232 A  
HETATM    5 CL   UNL     1      -8.294   8.695  72.368  1.00  0.00    -0.165 Cl 
HETATM    6  C   UNL     1     -10.107   6.748  71.676  1.00  0.00    -0.197 A  
HETATM    7  C   UNL     1     -11.434   6.349  71.450  1.00  0.00    -0.363 A  
HETATM    8  C   UNL     1     -12.483   7.280  71.482  1.00  0.00    -0.408 A  
ENDROOT
BRANCH   6   9
HETATM    9  C   UNL     1      -8.937   5.797  71.458  1.00  0.00    -0.140 C  
BRANCH   9  10
HETATM   10  O   UNL     1      -8.725   5.390  70.087  1.00  0.00    -0.122 OA 
BRANCH  10  11
HETATM   11  N   UNL     1      -8.513   6.532  69.278  1.00  0.00    -0.126 NA 
HETATM   12  H   UNL     1      -8.747   7.479  69.575  1.00  0.00     0.000 HD 
BRANCH  11  13
HETATM   13  C   UNL     1      -7.989   6.255  68.114  1.00  0.00    -0.108 C  
BRANCH  13  14
HETATM   14  C   UNL     1      -7.490   7.372  67.223  1.00  0.00    -0.103 A  
HETATM   15 CL   UNL     1     -10.044   8.385  66.895  1.00  0.00    -0.337 Cl 
HETATM   16  C   UNL     1      -6.107   7.477  66.978  1.00  0.00    -0.047 A  
HETATM   17  C   UNL     1      -8.330   8.355  66.666  1.00  0.00    -0.110 A  
HETATM   18  C   UNL     1      -5.570   8.547  66.251  1.00  0.00    -0.039 A  
HETATM   19 CL   UNL     1      -5.753  10.861  64.883  1.00  0.00    -0.012 Cl 
HETATM   20  C   UNL     1      -6.415   9.523  65.737  1.00  0.00    -0.074 A  
HETATM   21  C   UNL     1      -7.790   9.424  65.927  1.00  0.00    -0.099 A  
ENDBRANCH  13  14
BRANCH  13  22
HETATM   22  C   UNL     1      -7.789   4.831  67.600  1.00  0.00    -0.090 C  
BRANCH  22  23
HETATM   23  N   UNL     1      -8.751   4.420  66.586  1.00  0.00    -0.111 NA 
HETATM   24  C   UNL     1      -8.570   3.409  65.682  1.00  0.00    -0.116 A  
HETATM   25  N   UNL     1     -10.569   4.386  65.328  1.00  0.00    -0.225 NA 
HETATM   26  C   UNL     1      -9.980   4.963  66.354  1.00  0.00    -0.234 A  
HETATM   27  C   UNL     1      -9.703   3.417  64.903  1.00  0.00    -0.135 A  
ENDBRANCH  22  23
ENDBRANCH  13  22
ENDBRANCH  11  13
ENDBRANCH  10  11
ENDBRANCH   9  10
ENDBRANCH   6   9
TORSDOF 7
ENDMDL
MODEL      339
REMARK 921   NORMALIZED FREE ENERGY PREDICTED BY IDOCK:   -3.21 KCAL/MOL
REMARK 922        TOTAL FREE ENERGY PREDICTED BY IDOCK:   -5.64 KCAL/MOL
REMARK 923 INTER-LIGAND FREE ENERGY PREDICTED BY IDOCK:   -4.12 KCAL/MOL
REMARK 924 INTRA-LIGAND FREE ENERGY PREDICTED BY IDOCK:   -1.52 KCAL/MOL
REMARK 927      BINDING AFFINITY PREDICTED BY RF-SCORE:    0.00 PKD
ROOT
HETATM    1 CL   UNL     1     -10.223  10.713  66.152  1.00  0.00    -0.304 Cl 
HETATM    2  C   UNL     1     -10.333   9.382  67.235  1.00  0.00    -0.260 A  
HETATM    3  C   UNL     1     -10.408   8.086  66.731  1.00  0.00    -0.360 A  
HETATM    4  C   UNL     1     -10.575   7.012  67.616  1.00  0.00    -0.257 A  
HETATM    5 CL   UNL     1     -10.659   5.430  66.914  1.00  0.00    -0.329 Cl 
HETATM    6  C   UNL     1     -10.682   7.210  69.009  1.00  0.00    -0.204 A  
HETATM    7  C   UNL     1     -10.544   8.522  69.489  1.00  0.00    -0.215 A  
HETATM    8  C   UNL     1     -10.373   9.599  68.608  1.00  0.00    -0.226 A  
ENDROOT
BRANCH   6   9
HETATM    9  C   UNL     1     -11.059   6.056  69.929  1.00  0.00    -0.399 C  
BRANCH   9  10
HETATM   10  O   UNL     1     -10.638   6.205  71.304  1.00  0.00    -0.226 OA 
BRANCH  10  11
HETATM   11  N   UNL     1     -10.311   4.938  71.843  1.00  0.00    -0.203 NA 
HETATM   12  H   UNL     1     -11.011   4.259  72.141  1.00  0.00     0.000 HD 
BRANCH  11  13
HETATM   13  C   UNL     1      -9.025   4.722  71.921  1.00  0.00    -0.127 C  
BRANCH  13  14
HETATM   14  C   UNL     1      -8.098   5.832  72.365  1.00  0.00    -0.107 A  
HETATM   15 CL   UNL     1      -7.410   6.438  69.755  1.00  0.00    -0.078 Cl 
HETATM   16  C   UNL     1      -7.993   6.119  73.741  1.00  0.00    -0.097 A  
HETATM   17  C   UNL     1      -7.369   6.640  71.472  1.00  0.00    -0.087 A  
HETATM   18  C   UNL     1      -7.236   7.200  74.209  1.00  0.00    -0.106 A  
HETATM   19 CL   UNL     1      -5.657   9.357  73.878  1.00  0.00    -0.056 Cl 
HETATM   20  C   UNL     1      -6.550   8.003  73.307  1.00  0.00    -0.097 A  
HETATM   21  C   UNL     1      -6.600   7.719  71.945  1.00  0.00    -0.047 A  
ENDBRANCH  13  14
BRANCH  13  22
HETATM   22  C   UNL     1      -8.382   3.366  71.639  1.00  0.00    -0.065 C  
BRANCH  22  23
HETATM   23  N   UNL     1      -7.996   3.165  70.249  1.00  0.00    -0.043 NA 
HETATM   24  C   UNL     1      -8.856   3.117  69.185  1.00  0.00    -0.099 A  
HETATM   25  N   UNL     1      -6.747   2.778  68.465  1.00  0.00    -0.036 NA 
HETATM   26  C   UNL     1      -6.734   2.983  69.766  1.00  0.00    -0.034 A  
HETATM   27  C   UNL     1      -8.060   2.861  68.093  1.00  0.00    -0.061 A  
ENDBRANCH  22  23
ENDBRANCH  13  22
ENDBRANCH  11  13
ENDBRANCH  10  11
ENDBRANCH   9  10
ENDBRANCH   6   9
TORSDOF 7
ENDMDL
MODEL      340
REMARK 921   NORMALIZED FREE ENERGY PREDICTED BY IDOCK:   -3.19 KCAL/MOL
REMARK 922        TOTAL FREE ENERGY PREDICTED BY IDOCK:   -5.61 KCAL/MOL
REMARK 923 INTER-LIGAND FREE ENERGY PREDICTED BY IDOCK:   -3.90 KCAL/MOL
REMARK 924 INTRA-LIGAND FREE ENERGY PREDICTED BY IDOCK:   -1.71 KCAL/MOL
REMARK 927      BINDING AFFINITY PREDICTED BY RF-SCORE:    0.00 PKD
ROOT
HETATM    1 CL   UNL     1     -10.377   3.175  72.332  1.00  0.00    -0.192 Cl 
HETATM    2  C   UNL     1     -10.042   4.815  71.938  1.00  0.00    -0.198 A  
HETATM    3  C   UNL     1      -8.745   5.305  72.068  1.00  0.00    -0.133 A  
HETATM    4  C   UNL     1      -8.493   6.661  71.820  1.00  0.00    -0.119 A  
HETATM    5 CL   UNL     1      -6.856   7.195  72.002  1.00  0.00    -0.056 Cl 
HETATM    6  C   UNL     1      -9.525   7.550  71.452  1.00  0.00    -0.159 A  
HETATM    7  C   UNL     1     -10.810   7.013  71.272  1.00  0.00    -0.260 A  
HETATM    8  C   UNL     1     -11.066   5.656  71.516  1.00  0.00    -0.235 A  
ENDROOT
BRANCH   6   9
HETATM    9  C   UNL     1      -9.267   9.050  71.380  1.00  0.00    -0.223 C  
BRANCH   9  10
HETATM   10  O   UNL     1      -8.599   9.501  70.180  1.00  0.00    -0.189 OA 
BRANCH  10  11
HETATM   11  N   UNL     1      -9.251   8.968  69.042  1.00  0.00    -0.139 NA 
HETATM   12  H   UNL     1     -10.260   9.022  68.899  1.00  0.00     0.000 HD 
BRANCH  11  13
HETATM   13  C   UNL     1      -8.436   8.402  68.192  1.00  0.00    -0.132 C  
BRANCH  13  14
HETATM   14  C   UNL     1      -8.480   6.903  67.986  1.00  0.00    -0.124 A  
HETATM   15 CL   UNL     1     -11.062   7.016  66.997  1.00  0.00    -0.387 Cl 
HETATM   16  C   UNL     1      -7.335   6.143  68.290  1.00  0.00    -0.086 A  
HETATM   17  C   UNL     1      -9.592   6.226  67.449  1.00  0.00    -0.119 A  
HETATM   18  C   UNL     1      -7.273   4.769  68.023  1.00  0.00    -0.066 A  
HETATM   19 CL   UNL     1      -8.281   2.450  67.094  1.00  0.00    -0.079 Cl 
HETATM   20  C   UNL     1      -8.371   4.127  67.463  1.00  0.00    -0.098 A  
HETATM   21  C   UNL     1      -9.532   4.844  67.191  1.00  0.00    -0.154 A  
ENDBRANCH  13  14
BRANCH  13  22
HETATM   22  C   UNL     1      -7.450   9.182  67.326  1.00  0.00    -0.088 C  
BRANCH  22  23
HETATM   23  N   UNL     1      -7.731   9.123  65.898  1.00  0.00    -0.094 NA 
HETATM   24  C   UNL     1      -6.991   8.442  64.970  1.00  0.00    -0.074 A  
HETATM   25  N   UNL     1      -8.688   9.510  63.943  1.00  0.00    -0.212 NA 
HETATM   26  C   UNL     1      -8.760   9.729  65.239  1.00  0.00    -0.159 A  
HETATM   27  C   UNL     1      -7.594   8.710  63.764  1.00  0.00    -0.127 A  
ENDBRANCH  22  23
ENDBRANCH  13  22
ENDBRANCH  11  13
ENDBRANCH  10  11
ENDBRANCH   9  10
ENDBRANCH   6   9
TORSDOF 7
ENDMDL
MODEL      341
REMARK 921   NORMALIZED FREE ENERGY PREDICTED BY IDOCK:   -3.19 KCAL/MOL
REMARK 922        TOTAL FREE ENERGY PREDICTED BY IDOCK:   -5.61 KCAL/MOL
REMARK 923 INTER-LIGAND FREE ENERGY PREDICTED BY IDOCK:   -4.62 KCAL/MOL
REMARK 924 INTRA-LIGAND FREE ENERGY PREDICTED BY IDOCK:   -0.99 KCAL/MOL
REMARK 927      BINDING AFFINITY PREDICTED BY RF-SCORE:    0.00 PKD
ROOT
HETATM    1 CL   UNL     1      -7.430   7.820  74.346  1.00  0.00    -0.173 Cl 
HETATM    2  C   UNL     1      -8.608   7.547  73.124  1.00  0.00    -0.150 A  
HETATM    3  C   UNL     1      -9.588   8.507  72.883  1.00  0.00    -0.187 A  
HETATM    4  C   UNL     1     -10.590   8.245  71.939  1.00  0.00    -0.282 A  
HETATM    5 CL   UNL     1     -11.773   9.486  71.694  1.00  0.00    -0.460 Cl 
HETATM    6  C   UNL     1     -10.641   7.025  71.231  1.00  0.00    -0.238 A  
HETATM    7  C   UNL     1      -9.605   6.104  71.454  1.00  0.00    -0.177 A  
HETATM    8  C   UNL     1      -8.598   6.363  72.395  1.00  0.00    -0.120 A  
ENDROOT
BRANCH   6   9
HETATM    9  C   UNL     1     -11.843   6.683  70.360  1.00  0.00    -0.346 C  
BRANCH   9  10
HETATM   10  O   UNL     1     -11.523   6.123  69.066  1.00  0.00    -0.340 OA 
BRANCH  10  11
HETATM   11  N   UNL     1     -10.962   7.125  68.238  1.00  0.00    -0.457 NA 
HETATM   12  H   UNL     1     -11.450   7.986  67.994  1.00  0.00     0.000 HD 
BRANCH  11  13
HETATM   13  C   UNL     1      -9.759   6.839  67.818  1.00  0.00    -0.124 C  
BRANCH  13  14
HETATM   14  C   UNL     1      -9.503   5.541  67.083  1.00  0.00    -0.122 A  
HETATM   15 CL   UNL     1      -8.399   4.369  69.333  1.00  0.00    -0.079 Cl 
HETATM   16  C   UNL     1      -9.910   5.431  65.739  1.00  0.00    -0.009 A  
HETATM   17  C   UNL     1      -8.926   4.407  67.686  1.00  0.00    -0.118 A  
HETATM   18  C   UNL     1      -9.799   4.226  65.034  1.00  0.00    -0.198 A  
HETATM   19 CL   UNL     1      -9.160   1.618  64.810  1.00  0.00    -0.121 Cl 
HETATM   20  C   UNL     1      -9.256   3.111  65.660  1.00  0.00    -0.141 A  
HETATM   21  C   UNL     1      -8.805   3.200  66.973  1.00  0.00    -0.155 A  
ENDBRANCH  13  14
BRANCH  13  22
HETATM   22  C   UNL     1      -8.568   7.781  67.975  1.00  0.00    -0.123 C  
BRANCH  22  23
HETATM   23  N   UNL     1      -8.089   8.354  66.725  1.00  0.00    -0.098 NA 
HETATM   24  C   UNL     1      -8.745   9.295  65.978  1.00  0.00    -0.153 A  
HETATM   25  N   UNL     1      -6.827   8.719  64.946  1.00  0.00    -0.072 NA 
HETATM   26  C   UNL     1      -6.925   8.056  66.079  1.00  0.00    -0.058 A  
HETATM   27  C   UNL     1      -7.952   9.493  64.873  1.00  0.00    -0.121 A  
ENDBRANCH  22  23
ENDBRANCH  13  22
ENDBRANCH  11  13
ENDBRANCH  10  11
ENDBRANCH   9  10
ENDBRANCH   6   9
TORSDOF 7
ENDMDL
MODEL      342
REMARK 921   NORMALIZED FREE ENERGY PREDICTED BY IDOCK:   -3.17 KCAL/MOL
REMARK 922        TOTAL FREE ENERGY PREDICTED BY IDOCK:   -5.59 KCAL/MOL
REMARK 923 INTER-LIGAND FREE ENERGY PREDICTED BY IDOCK:   -5.58 KCAL/MOL
REMARK 924 INTRA-LIGAND FREE ENERGY PREDICTED BY IDOCK:   -0.00 KCAL/MOL
REMARK 927      BINDING AFFINITY PREDICTED BY RF-SCORE:    0.00 PKD
ROOT
HETATM    1 CL   UNL     1      -6.102  13.697  67.765  1.00  0.00    -0.152 Cl 
HETATM    2  C   UNL     1      -7.517  12.730  67.626  1.00  0.00    -0.144 A  
HETATM    3  C   UNL     1      -8.709  13.166  68.200  1.00  0.00    -0.193 A  
HETATM    4  C   UNL     1      -9.839  12.339  68.150  1.00  0.00    -0.212 A  
HETATM    5 CL   UNL     1     -11.284  12.949  68.885  1.00  0.00    -0.309 Cl 
HETATM    6  C   UNL     1      -9.799  11.066  67.543  1.00  0.00    -0.190 A  
HETATM    7  C   UNL     1      -8.599  10.682  66.923  1.00  0.00    -0.126 A  
HETATM    8  C   UNL     1      -7.467  11.508  66.966  1.00  0.00    -0.151 A  
ENDROOT
BRANCH   6   9
HETATM    9  C   UNL     1     -10.975  10.107  67.673  1.00  0.00    -0.268 C  
BRANCH   9  10
HETATM   10  O   UNL     1     -10.673   8.850  68.320  1.00  0.00    -0.180 OA 
BRANCH  10  11
HETATM   11  N   UNL     1      -9.832   9.077  69.435  1.00  0.00    -0.178 NA 
HETATM   12  H   UNL     1      -9.185   9.863  69.497  1.00  0.00     0.000 HD 
BRANCH  11  13
HETATM   13  C   UNL     1      -9.965   8.183  70.378  1.00  0.00    -0.188 C  
BRANCH  13  14
HETATM   14  C   UNL     1      -9.526   6.755  70.133  1.00  0.00    -0.159 A  
HETATM   15 CL   UNL     1     -11.496   5.759  71.802  1.00  0.00    -0.256 Cl 
HETATM   16  C   UNL     1      -8.463   6.516  69.240  1.00  0.00    -0.127 A  
HETATM   17  C   UNL     1     -10.161   5.638  70.709  1.00  0.00    -0.209 A  
HETATM   18  C   UNL     1      -8.078   5.215  68.889  1.00  0.00    -0.085 A  
HETATM   19 CL   UNL     1      -8.298   2.532  68.981  1.00  0.00    -0.075 Cl 
HETATM   20  C   UNL     1      -8.740   4.128  69.445  1.00  0.00    -0.084 A  
HETATM   21  C   UNL     1      -9.766   4.332  70.363  1.00  0.00    -0.280 A  
ENDBRANCH  13  14
BRANCH  13  22
HETATM   22  C   UNL     1     -10.498   8.504  71.772  1.00  0.00    -0.300 C  
BRANCH  22  23
HETATM   23  N   UNL     1     -11.761   9.228  71.777  1.00  0.00    -0.380 NA 
HETATM   24  C   UNL     1     -11.935  10.528  71.384  1.00  0.00    -0.230 A  
HETATM   25  N   UNL     1     -13.900   9.689  72.097  1.00  0.00    -0.318 NA 
HETATM   26  C   UNL     1     -12.977   8.753  72.173  1.00  0.00    -0.406 A  
HETATM   27  C   UNL     1     -13.265  10.795  71.607  1.00  0.00    -0.383 A  
ENDBRANCH  22  23
ENDBRANCH  13  22
ENDBRANCH  11  13
ENDBRANCH  10  11
ENDBRANCH   9  10
ENDBRANCH   6   9
TORSDOF 7
ENDMDL
MODEL      343
REMARK 921   NORMALIZED FREE ENERGY PREDICTED BY IDOCK:   -3.15 KCAL/MOL
REMARK 922        TOTAL FREE ENERGY PREDICTED BY IDOCK:   -5.56 KCAL/MOL
REMARK 923 INTER-LIGAND FREE ENERGY PREDICTED BY IDOCK:   -4.75 KCAL/MOL
REMARK 924 INTRA-LIGAND FREE ENERGY PREDICTED BY IDOCK:   -0.82 KCAL/MOL
REMARK 927      BINDING AFFINITY PREDICTED BY RF-SCORE:    0.00 PKD
ROOT
HETATM    1 CL   UNL     1      -6.693   4.574  72.846  1.00  0.00    -0.054 Cl 
HETATM    2  C   UNL     1      -8.115   4.969  71.965  1.00  0.00    -0.112 A  
HETATM    3  C   UNL     1      -8.376   4.333  70.753  1.00  0.00    -0.091 A  
HETATM    4  C   UNL     1      -9.497   4.714  70.003  1.00  0.00    -0.172 A  
HETATM    5 CL   UNL     1      -9.755   3.878  68.508  1.00  0.00    -0.170 Cl 
HETATM    6  C   UNL     1     -10.365   5.738  70.438  1.00  0.00    -0.310 A  
HETATM    7  C   UNL     1     -10.108   6.318  71.690  1.00  0.00    -0.214 A  
HETATM    8  C   UNL     1      -8.990   5.936  72.446  1.00  0.00    -0.137 A  
ENDROOT
BRANCH   6   9
HETATM    9  C   UNL     1     -11.458   6.270  69.519  1.00  0.00    -0.317 C  
BRANCH   9  10
HETATM   10  O   UNL     1     -10.986   6.984  68.354  1.00  0.00    -0.165 OA 
BRANCH  10  11
HETATM   11  N   UNL     1     -10.826   8.356  68.668  1.00  0.00    -0.430 NA 
HETATM   12  H   UNL     1     -11.471   8.872  69.266  1.00  0.00     0.000 HD 
BRANCH  11  13
HETATM   13  C   UNL     1      -9.772   8.896  68.116  1.00  0.00    -0.160 C  
BRANCH  13  14
HETATM   14  C   UNL     1      -9.862  10.278  67.506  1.00  0.00    -0.204 A  
HETATM   15 CL   UNL     1      -7.545  11.097  68.776  1.00  0.00    -0.122 Cl 
HETATM   16  C   UNL     1     -10.918  10.559  66.616  1.00  0.00    -0.102 A  
HETATM   17  C   UNL     1      -8.912  11.292  67.735  1.00  0.00    -0.141 A  
HETATM   18  C   UNL     1     -10.998  11.781  65.937  1.00  0.00    -0.354 A  
HETATM   19 CL   UNL     1     -10.106  14.238  65.288  1.00  0.00    -0.396 Cl 
HETATM   20  C   UNL     1     -10.032  12.755  66.154  1.00  0.00    -0.266 A  
HETATM   21  C   UNL     1      -9.001  12.522  67.060  1.00  0.00    -0.211 A  
ENDBRANCH  13  14
BRANCH  13  22
HETATM   22  C   UNL     1      -8.399   8.228  68.095  1.00  0.00    -0.129 C  
BRANCH  22  23
HETATM   23  N   UNL     1      -7.999   7.725  66.788  1.00  0.00    -0.106 NA 
HETATM   24  C   UNL     1      -7.045   8.283  65.980  1.00  0.00    -0.069 A  
HETATM   25  N   UNL     1      -7.947   6.491  64.954  1.00  0.00    -0.121 NA 
HETATM   26  C   UNL     1      -8.497   6.632  66.142  1.00  0.00    -0.135 A  
HETATM   27  C   UNL     1      -7.042   7.510  64.843  1.00  0.00    -0.060 A  
ENDBRANCH  22  23
ENDBRANCH  13  22
ENDBRANCH  11  13
ENDBRANCH  10  11
ENDBRANCH   9  10
ENDBRANCH   6   9
TORSDOF 7
ENDMDL
MODEL      344
REMARK 921   NORMALIZED FREE ENERGY PREDICTED BY IDOCK:   -3.14 KCAL/MOL
REMARK 922        TOTAL FREE ENERGY PREDICTED BY IDOCK:   -5.55 KCAL/MOL
REMARK 923 INTER-LIGAND FREE ENERGY PREDICTED BY IDOCK:   -5.16 KCAL/MOL
REMARK 924 INTRA-LIGAND FREE ENERGY PREDICTED BY IDOCK:   -0.39 KCAL/MOL
REMARK 927      BINDING AFFINITY PREDICTED BY RF-SCORE:    0.00 PKD
ROOT
HETATM    1 CL   UNL     1      -5.589   9.618  62.747  1.00  0.00    -0.088 Cl 
HETATM    2  C   UNL     1      -6.949   9.329  63.759  1.00  0.00    -0.091 A  
HETATM    3  C   UNL     1      -8.027  10.210  63.734  1.00  0.00    -0.153 A  
HETATM    4  C   UNL     1      -9.098  10.012  64.616  1.00  0.00    -0.237 A  
HETATM    5 CL   UNL     1     -10.402  11.149  64.527  1.00  0.00    -0.374 Cl 
HETATM    6  C   UNL     1      -9.108   8.946  65.541  1.00  0.00    -0.248 A  
HETATM    7  C   UNL     1      -8.034   8.042  65.499  1.00  0.00    -0.117 A  
HETATM    8  C   UNL     1      -6.963   8.234  64.616  1.00  0.00    -0.075 A  
ENDROOT
BRANCH   6   9
HETATM    9  C   UNL     1     -10.182   8.864  66.618  1.00  0.00    -0.268 C  
BRANCH   9  10
HETATM   10  O   UNL     1     -10.179   7.645  67.396  1.00  0.00    -0.201 OA 
BRANCH  10  11
HETATM   11  N   UNL     1      -9.094   7.663  68.306  1.00  0.00    -0.137 NA 
HETATM   12  H   UNL     1      -8.218   8.153  68.123  1.00  0.00     0.000 HD 
BRANCH  11  13
HETATM   13  C   UNL     1      -9.324   6.991  69.402  1.00  0.00    -0.146 C  
BRANCH  13  14
HETATM   14  C   UNL     1     -10.517   7.339  70.266  1.00  0.00    -0.231 A  
HETATM   15 CL   UNL     1      -9.802  10.010  70.351  1.00  0.00    -0.181 Cl 
HETATM   16  C   UNL     1     -11.427   6.319  70.607  1.00  0.00    -0.397 A  
HETATM   17  C   UNL     1     -10.802   8.645  70.707  1.00  0.00    -0.230 A  
HETATM   18  C   UNL     1     -12.605   6.594  71.314  1.00  0.00    -0.229 A  
HETATM   19 CL   UNL     1     -14.349   8.241  72.539  1.00  0.00    -0.313 Cl 
HETATM   20  C   UNL     1     -12.882   7.895  71.711  1.00  0.00    -0.328 A  
HETATM   21  C   UNL     1     -11.981   8.917  71.426  1.00  0.00    -0.374 A  
ENDBRANCH  13  14
BRANCH  13  22
HETATM   22  C   UNL     1      -8.475   5.805  69.855  1.00  0.00    -0.123 C  
BRANCH  22  23
HETATM   23  N   UNL     1      -8.696   4.585  69.090  1.00  0.00    -0.083 NA 
HETATM   24  C   UNL     1      -8.540   4.456  67.737  1.00  0.00    -0.103 A  
HETATM   25  N   UNL     1      -9.248   2.500  68.603  1.00  0.00    -0.165 NA 
HETATM   26  C   UNL     1      -9.097   3.375  69.575  1.00  0.00    -0.135 A  
HETATM   27  C   UNL     1      -8.904   3.160  67.456  1.00  0.00    -0.136 A  
ENDBRANCH  22  23
ENDBRANCH  13  22
ENDBRANCH  11  13
ENDBRANCH  10  11
ENDBRANCH   9  10
ENDBRANCH   6   9
TORSDOF 7
ENDMDL
MODEL      345
REMARK 921   NORMALIZED FREE ENERGY PREDICTED BY IDOCK:   -3.13 KCAL/MOL
REMARK 922        TOTAL FREE ENERGY PREDICTED BY IDOCK:   -5.54 KCAL/MOL
REMARK 923 INTER-LIGAND FREE ENERGY PREDICTED BY IDOCK:   -3.90 KCAL/MOL
REMARK 924 INTRA-LIGAND FREE ENERGY PREDICTED BY IDOCK:   -1.63 KCAL/MOL
REMARK 927      BINDING AFFINITY PREDICTED BY RF-SCORE:    0.00 PKD
ROOT
HETATM    1 CL   UNL     1      -9.926   9.661  65.952  1.00  0.00    -0.364 Cl 
HETATM    2  C   UNL     1      -8.922   9.698  67.347  1.00  0.00    -0.131 A  
HETATM    3  C   UNL     1      -7.663   9.104  67.307  1.00  0.00    -0.095 A  
HETATM    4  C   UNL     1      -6.881   9.070  68.470  1.00  0.00    -0.064 A  
HETATM    5 CL   UNL     1      -5.327   8.315  68.341  1.00  0.00    -0.032 Cl 
HETATM    6  C   UNL     1      -7.341   9.612  69.688  1.00  0.00    -0.093 A  
HETATM    7  C   UNL     1      -8.589  10.255  69.680  1.00  0.00    -0.126 A  
HETATM    8  C   UNL     1      -9.374  10.296  68.519  1.00  0.00    -0.155 A  
ENDROOT
BRANCH   6   9
HETATM    9  C   UNL     1      -6.564   9.390  70.979  1.00  0.00    -0.081 C  
BRANCH   9  10
HETATM   10  O   UNL     1      -6.692   8.069  71.553  1.00  0.00    -0.048 OA 
BRANCH  10  11
HETATM   11  N   UNL     1      -7.670   8.087  72.577  1.00  0.00    -0.112 NA 
HETATM   12  H   UNL     1      -7.607   8.685  73.401  1.00  0.00     0.000 HD 
BRANCH  11  13
HETATM   13  C   UNL     1      -8.661   7.263  72.364  1.00  0.00    -0.119 C  
BRANCH  13  14
HETATM   14  C   UNL     1      -8.499   6.122  71.383  1.00  0.00    -0.128 A  
HETATM   15 CL   UNL     1      -7.278   4.528  73.286  1.00  0.00    -0.077 Cl 
HETATM   16  C   UNL     1      -9.003   6.275  70.076  1.00  0.00    -0.149 A  
HETATM   17  C   UNL     1      -7.917   4.885  71.719  1.00  0.00    -0.109 A  
HETATM   18  C   UNL     1      -8.980   5.221  69.153  1.00  0.00    -0.124 A  
HETATM   19 CL   UNL     1      -8.441   2.691  68.400  1.00  0.00    -0.090 Cl 
HETATM   20  C   UNL     1      -8.430   3.999  69.518  1.00  0.00    -0.060 A  
HETATM   21  C   UNL     1      -7.886   3.831  70.787  1.00  0.00    -0.051 A  
ENDBRANCH  13  14
BRANCH  13  22
HETATM   22  C   UNL     1      -9.995   7.343  73.103  1.00  0.00    -0.268 C  
BRANCH  22  23
HETATM   23  N   UNL     1     -11.101   7.831  72.291  1.00  0.00    -0.277 NA 
HETATM   24  C   UNL     1     -11.312   9.135  71.936  1.00  0.00    -0.346 A  
HETATM   25  N   UNL     1     -12.974   7.854  71.116  1.00  0.00    -0.172 NA 
HETATM   26  C   UNL     1     -12.112   7.090  71.753  1.00  0.00    -0.336 A  
HETATM   27  C   UNL     1     -12.487   9.127  71.222  1.00  0.00    -0.300 A  
ENDBRANCH  22  23
ENDBRANCH  13  22
ENDBRANCH  11  13
ENDBRANCH  10  11
ENDBRANCH   9  10
ENDBRANCH   6   9
TORSDOF 7
ENDMDL
MODEL      346
REMARK 921   NORMALIZED FREE ENERGY PREDICTED BY IDOCK:   -3.12 KCAL/MOL
REMARK 922        TOTAL FREE ENERGY PREDICTED BY IDOCK:   -5.52 KCAL/MOL
REMARK 923 INTER-LIGAND FREE ENERGY PREDICTED BY IDOCK:   -5.38 KCAL/MOL
REMARK 924 INTRA-LIGAND FREE ENERGY PREDICTED BY IDOCK:   -0.14 KCAL/MOL
REMARK 927      BINDING AFFINITY PREDICTED BY RF-SCORE:    0.00 PKD
ROOT
HETATM    1 CL   UNL     1      -9.324   7.035  66.379  1.00  0.00    -0.199 Cl 
HETATM    2  C   UNL     1      -8.740   8.608  66.755  1.00  0.00    -0.124 A  
HETATM    3  C   UNL     1      -7.376   8.877  66.667  1.00  0.00    -0.085 A  
HETATM    4  C   UNL     1      -6.897  10.138  67.048  1.00  0.00    -0.083 A  
HETATM    5 CL   UNL     1      -5.190  10.397  66.910  1.00  0.00    -0.040 Cl 
HETATM    6  C   UNL     1      -7.761  11.143  67.532  1.00  0.00    -0.116 A  
HETATM    7  C   UNL     1      -9.137  10.860  67.552  1.00  0.00    -0.142 A  
HETATM    8  C   UNL     1      -9.620   9.601  67.168  1.00  0.00    -0.210 A  
ENDROOT
BRANCH   6   9
HETATM    9  C   UNL     1      -7.200  12.429  68.123  1.00  0.00    -0.100 C  
BRANCH   9  10
HETATM   10  O   UNL     1      -8.155  13.505  68.270  1.00  0.00    -0.143 OA 
BRANCH  10  11
HETATM   11  N   UNL     1      -7.539  14.737  67.946  1.00  0.00    -0.125 NA 
HETATM   12  H   UNL     1      -6.754  14.817  67.299  1.00  0.00     0.000 HD 
BRANCH  11  13
HETATM   13  C   UNL     1      -8.073  15.762  68.555  1.00  0.00    -0.153 C  
BRANCH  13  14
HETATM   14  C   UNL     1      -7.403  17.117  68.485  1.00  0.00    -0.231 A  
HETATM   15 CL   UNL     1      -9.115  17.970  66.486  1.00  0.00    -0.286 Cl 
HETATM   16  C   UNL     1      -6.345  17.397  69.372  1.00  0.00    -0.246 A  
HETATM   17  C   UNL     1      -7.816  18.144  67.614  1.00  0.00    -0.224 A  
HETATM   18  C   UNL     1      -5.754  18.666  69.431  1.00  0.00    -0.238 A  
HETATM   19 CL   UNL     1      -5.504  21.243  68.687  1.00  0.00    -0.306 Cl 
HETATM   20  C   UNL     1      -6.199  19.673  68.585  1.00  0.00    -0.248 A  
HETATM   21  C   UNL     1      -7.214  19.414  67.668  1.00  0.00    -0.263 A  
ENDBRANCH  13  14
BRANCH  13  22
HETATM   22  C   UNL     1      -9.399  15.693  69.309  1.00  0.00    -0.267 C  
BRANCH  22  23
HETATM   23  N   UNL     1     -10.447  14.962  68.611  1.00  0.00    -0.235 NA 
HETATM   24  C   UNL     1     -11.125  13.880  69.103  1.00  0.00    -0.245 A  
HETATM   25  N   UNL     1     -11.841  14.330  67.015  1.00  0.00    -0.413 NA 
HETATM   26  C   UNL     1     -10.930  15.216  67.360  1.00  0.00    -0.314 A  
HETATM   27  C   UNL     1     -11.971  13.496  68.090  1.00  0.00    -0.341 A  
ENDBRANCH  22  23
ENDBRANCH  13  22
ENDBRANCH  11  13
ENDBRANCH  10  11
ENDBRANCH   9  10
ENDBRANCH   6   9
TORSDOF 7
ENDMDL
MODEL      347
REMARK 921   NORMALIZED FREE ENERGY PREDICTED BY IDOCK:   -3.08 KCAL/MOL
REMARK 922        TOTAL FREE ENERGY PREDICTED BY IDOCK:   -5.46 KCAL/MOL
REMARK 923 INTER-LIGAND FREE ENERGY PREDICTED BY IDOCK:   -4.83 KCAL/MOL
REMARK 924 INTRA-LIGAND FREE ENERGY PREDICTED BY IDOCK:   -0.63 KCAL/MOL
REMARK 927      BINDING AFFINITY PREDICTED BY RF-SCORE:    0.00 PKD
ROOT
HETATM    1 CL   UNL     1     -13.245  13.979  65.294  1.00  0.00    -0.206 Cl 
HETATM    2  C   UNL     1     -11.869  14.246  66.289  1.00  0.00    -0.406 A  
HETATM    3  C   UNL     1     -11.994  14.169  67.675  1.00  0.00    -0.405 A  
HETATM    4  C   UNL     1     -10.887  14.463  68.482  1.00  0.00    -0.251 A  
HETATM    5 CL   UNL     1     -11.119  14.346  70.195  1.00  0.00    -0.144 Cl 
HETATM    6  C   UNL     1      -9.648  14.848  67.929  1.00  0.00    -0.205 A  
HETATM    7  C   UNL     1      -9.538  14.858  66.529  1.00  0.00    -0.297 A  
HETATM    8  C   UNL     1     -10.642  14.561  65.717  1.00  0.00    -0.326 A  
ENDROOT
BRANCH   6   9
HETATM    9  C   UNL     1      -8.522  15.352  68.823  1.00  0.00    -0.188 C  
BRANCH   9  10
HETATM   10  O   UNL     1      -7.456  16.045  68.135  1.00  0.00    -0.124 OA 
BRANCH  10  11
HETATM   11  N   UNL     1      -6.906  17.036  68.983  1.00  0.00    -0.219 NA 
HETATM   12  H   UNL     1      -6.625  16.855  69.947  1.00  0.00     0.000 HD 
BRANCH  11  13
HETATM   13  C   UNL     1      -6.794  18.205  68.412  1.00  0.00    -0.230 C  
BRANCH  13  14
HETATM   14  C   UNL     1      -7.938  18.759  67.591  1.00  0.00    -0.269 A  
HETATM   15 CL   UNL     1      -9.765  18.237  69.602  1.00  0.00     0.327 Cl 
HETATM   16  C   UNL     1      -7.662  19.293  66.317  1.00  0.00    -0.301 A  
HETATM   17  C   UNL     1      -9.267  18.822  68.053  1.00  0.00    -0.302 A  
HETATM   18  C   UNL     1      -8.656  19.915  65.551  1.00  0.00     0.386 A  
HETATM   19 CL   UNL     1     -11.165  20.797  65.121  1.00  0.00     1.044 Cl 
HETATM   20  C   UNL     1      -9.954  19.995  66.041  1.00  0.00    -0.435 A  
HETATM   21  C   UNL     1     -10.266  19.438  67.278  1.00  0.00    -0.525 A  
ENDBRANCH  13  14
BRANCH  13  22
HETATM   22  C   UNL     1      -5.569  19.104  68.570  1.00  0.00    -0.203 C  
BRANCH  22  23
HETATM   23  N   UNL     1      -5.379  19.625  69.916  1.00  0.00    -0.211 NA 
HETATM   24  C   UNL     1      -5.301  18.873  71.057  1.00  0.00    -0.259 A  
HETATM   25  N   UNL     1      -5.147  21.058  71.585  1.00  0.00    -0.565 NA 
HETATM   26  C   UNL     1      -5.254  20.934  70.279  1.00  0.00    -0.292 A  
HETATM   27  C   UNL     1      -5.173  19.783  72.079  1.00  0.00    -0.224 A  
ENDBRANCH  22  23
ENDBRANCH  13  22
ENDBRANCH  11  13
ENDBRANCH  10  11
ENDBRANCH   9  10
ENDBRANCH   6   9
TORSDOF 7
ENDMDL
MODEL      348
REMARK 921   NORMALIZED FREE ENERGY PREDICTED BY IDOCK:   -3.04 KCAL/MOL
REMARK 922        TOTAL FREE ENERGY PREDICTED BY IDOCK:   -5.40 KCAL/MOL
REMARK 923 INTER-LIGAND FREE ENERGY PREDICTED BY IDOCK:   -4.99 KCAL/MOL
REMARK 924 INTRA-LIGAND FREE ENERGY PREDICTED BY IDOCK:   -0.41 KCAL/MOL
REMARK 927      BINDING AFFINITY PREDICTED BY RF-SCORE:    0.00 PKD
ROOT
HETATM    1 CL   UNL     1     -10.391  12.253  63.374  1.00  0.00    -0.439 Cl 
HETATM    2  C   UNL     1     -10.524  12.166  65.086  1.00  0.00    -0.281 A  
HETATM    3  C   UNL     1      -9.453  11.688  65.837  1.00  0.00    -0.246 A  
HETATM    4  C   UNL     1      -9.595  11.548  67.225  1.00  0.00    -0.172 A  
HETATM    5 CL   UNL     1      -8.221  10.947  68.092  1.00  0.00    -0.116 Cl 
HETATM    6  C   UNL     1     -10.802  11.868  67.882  1.00  0.00    -0.254 A  
HETATM    7  C   UNL     1     -11.841  12.402  67.104  1.00  0.00    -0.361 A  
HETATM    8  C   UNL     1     -11.702  12.549  65.716  1.00  0.00    -0.478 A  
ENDROOT
BRANCH   6   9
HETATM    9  C   UNL     1     -10.999  11.523  69.352  1.00  0.00    -0.176 C  
BRANCH   9  10
HETATM   10  O   UNL     1     -11.053  10.109  69.649  1.00  0.00    -0.236 OA 
BRANCH  10  11
HETATM   11  N   UNL     1     -10.522   9.873  70.941  1.00  0.00    -0.357 NA 
HETATM   12  H   UNL     1     -10.607  10.536  71.711  1.00  0.00     0.000 HD 
BRANCH  11  13
HETATM   13  C   UNL     1      -9.913   8.722  71.050  1.00  0.00    -0.234 C  
BRANCH  13  14
HETATM   14  C   UNL     1      -9.060   8.207  69.911  1.00  0.00    -0.151 A  
HETATM   15 CL   UNL     1     -11.279   7.297  68.530  1.00  0.00     0.090 Cl 
HETATM   16  C   UNL     1      -7.666   8.403  69.964  1.00  0.00    -0.090 A  
HETATM   17  C   UNL     1      -9.590   7.586  68.763  1.00  0.00    -0.149 A  
HETATM   18  C   UNL     1      -6.833   8.046  68.896  1.00  0.00    -0.061 A  
HETATM   19 CL   UNL     1      -6.366   7.066  66.431  1.00  0.00    -0.048 Cl 
HETATM   20  C   UNL     1      -7.382   7.464  67.760  1.00  0.00    -0.092 A  
HETATM   21  C   UNL     1      -8.750   7.218  67.696  1.00  0.00    -0.125 A  
ENDBRANCH  13  14
BRANCH  13  22
HETATM   22  C   UNL     1      -9.960   7.863  72.311  1.00  0.00    -0.219 C  
BRANCH  22  23
HETATM   23  N   UNL     1      -9.634   6.461  72.092  1.00  0.00    -0.150 NA 
HETATM   24  C   UNL     1      -8.419   5.879  72.334  1.00  0.00    -0.117 A  
HETATM   25  N   UNL     1      -9.832   4.343  71.487  1.00  0.00    -0.181 NA 
HETATM   26  C   UNL     1     -10.463   5.492  71.608  1.00  0.00    -0.231 A  
HETATM   27  C   UNL     1      -8.561   4.571  71.937  1.00  0.00    -0.113 A  
ENDBRANCH  22  23
ENDBRANCH  13  22
ENDBRANCH  11  13
ENDBRANCH  10  11
ENDBRANCH   9  10
ENDBRANCH   6   9
TORSDOF 7
ENDMDL
MODEL      349
REMARK 921   NORMALIZED FREE ENERGY PREDICTED BY IDOCK:   -3.03 KCAL/MOL
REMARK 922        TOTAL FREE ENERGY PREDICTED BY IDOCK:   -5.39 KCAL/MOL
REMARK 923 INTER-LIGAND FREE ENERGY PREDICTED BY IDOCK:   -4.61 KCAL/MOL
REMARK 924 INTRA-LIGAND FREE ENERGY PREDICTED BY IDOCK:   -0.77 KCAL/MOL
REMARK 927      BINDING AFFINITY PREDICTED BY RF-SCORE:    0.00 PKD
ROOT
HETATM    1 CL   UNL     1      -5.394  17.824  68.736  1.00  0.00    -0.162 Cl 
HETATM    2  C   UNL     1      -6.734  16.947  68.112  1.00  0.00    -0.146 A  
HETATM    3  C   UNL     1      -7.945  17.600  67.894  1.00  0.00    -0.231 A  
HETATM    4  C   UNL     1      -9.055  16.864  67.458  1.00  0.00    -0.222 A  
HETATM    5 CL   UNL     1     -10.525  17.745  67.208  1.00  0.00    -0.363 Cl 
HETATM    6  C   UNL     1      -8.983  15.471  67.245  1.00  0.00    -0.216 A  
HETATM    7  C   UNL     1      -7.733  14.853  67.418  1.00  0.00    -0.231 A  
HETATM    8  C   UNL     1      -6.619  15.587  67.850  1.00  0.00    -0.175 A  
ENDROOT
BRANCH   6   9
HETATM    9  C   UNL     1     -10.243  14.663  66.965  1.00  0.00    -0.261 C  
BRANCH   9  10
HETATM   10  O   UNL     1     -10.059  13.520  66.098  1.00  0.00    -0.290 OA 
BRANCH  10  11
HETATM   11  N   UNL     1     -10.704  12.390  66.655  1.00  0.00    -0.231 NA 
HETATM   12  H   UNL     1     -11.713  12.244  66.612  1.00  0.00     0.000 HD 
BRANCH  11  13
HETATM   13  C   UNL     1      -9.883  11.553  67.230  1.00  0.00    -0.190 C  
BRANCH  13  14
HETATM   14  C   UNL     1      -9.241  10.447  66.421  1.00  0.00    -0.187 A  
HETATM   15 CL   UNL     1     -10.718   8.503  67.723  1.00  0.00    -0.225 Cl 
HETATM   16  C   UNL     1      -8.306  10.790  65.425  1.00  0.00    -0.104 A  
HETATM   17  C   UNL     1      -9.569   9.085  66.569  1.00  0.00    -0.223 A  
HETATM   18  C   UNL     1      -7.756   9.825  64.571  1.00  0.00    -0.137 A  
HETATM   19 CL   UNL     1      -7.478   7.313  63.639  1.00  0.00    -0.090 Cl 
HETATM   20  C   UNL     1      -8.118   8.492  64.715  1.00  0.00    -0.151 A  
HETATM   21  C   UNL     1      -9.008   8.117  65.717  1.00  0.00    -0.165 A  
ENDBRANCH  13  14
BRANCH  13  22
HETATM   22  C   UNL     1      -9.471  11.654  68.697  1.00  0.00    -0.123 C  
BRANCH  22  23
HETATM   23  N   UNL     1      -8.154  11.103  68.987  1.00  0.00    -0.116 NA 
HETATM   24  C   UNL     1      -7.908   9.973  69.719  1.00  0.00    -0.177 A  
HETATM   25  N   UNL     1      -5.954  10.892  69.074  1.00  0.00    -0.040 NA 
HETATM   26  C   UNL     1      -6.949  11.609  68.595  1.00  0.00    -0.088 A  
HETATM   27  C   UNL     1      -6.538   9.871  69.772  1.00  0.00    -0.066 A  
ENDBRANCH  22  23
ENDBRANCH  13  22
ENDBRANCH  11  13
ENDBRANCH  10  11
ENDBRANCH   9  10
ENDBRANCH   6   9
TORSDOF 7
ENDMDL
MODEL      350
REMARK 921   NORMALIZED FREE ENERGY PREDICTED BY IDOCK:   -3.02 KCAL/MOL
REMARK 922        TOTAL FREE ENERGY PREDICTED BY IDOCK:   -5.38 KCAL/MOL
REMARK 923 INTER-LIGAND FREE ENERGY PREDICTED BY IDOCK:   -6.47 KCAL/MOL
REMARK 924 INTRA-LIGAND FREE ENERGY PREDICTED BY IDOCK:    1.09 KCAL/MOL
REMARK 927      BINDING AFFINITY PREDICTED BY RF-SCORE:    0.00 PKD
ROOT
HETATM    1 CL   UNL     1      -5.183  17.296  69.470  1.00  0.00    -0.160 Cl 
HETATM    2  C   UNL     1      -6.763  16.741  69.078  1.00  0.00    -0.209 A  
HETATM    3  C   UNL     1      -7.804  17.657  68.952  1.00  0.00    -0.186 A  
HETATM    4  C   UNL     1      -9.104  17.191  68.708  1.00  0.00    -0.244 A  
HETATM    5 CL   UNL     1     -10.346  18.390  68.563  1.00  0.00    -0.370 Cl 
HETATM    6  C   UNL     1      -9.389  15.814  68.599  1.00  0.00    -0.206 A  
HETATM    7  C   UNL     1      -8.308  14.921  68.672  1.00  0.00    -0.164 A  
HETATM    8  C   UNL     1      -7.006  15.382  68.912  1.00  0.00    -0.127 A  
ENDROOT
BRANCH   6   9
HETATM    9  C   UNL     1     -10.829  15.323  68.532  1.00  0.00    -0.253 C  
BRANCH   9  10
HETATM   10  O   UNL     1     -11.096  14.343  67.503  1.00  0.00    -0.285 OA 
BRANCH  10  11
HETATM   11  N   UNL     1     -12.040  13.399  67.977  1.00  0.00    -0.313 NA 
HETATM   12  H   UNL     1     -13.040  13.590  68.039  1.00  0.00     0.000 HD 
BRANCH  11  13
HETATM   13  C   UNL     1     -11.505  12.260  68.327  1.00  0.00    -0.315 C  
BRANCH  13  14
HETATM   14  C   UNL     1     -10.752  11.433  67.307  1.00  0.00    -0.283 A  
HETATM   15 CL   UNL     1     -11.310   9.082  68.656  1.00  0.00     0.323 Cl 
HETATM   16  C   UNL     1     -10.178  12.083  66.197  1.00  0.00    -0.255 A  
HETATM   17  C   UNL     1     -10.639  10.031  67.375  1.00  0.00    -0.271 A  
HETATM   18  C   UNL     1      -9.561  11.365  65.164  1.00  0.00    -0.258 A  
HETATM   19 CL   UNL     1      -8.771   9.094  63.950  1.00  0.00    -0.191 Cl 
HETATM   20  C   UNL     1      -9.489   9.980  65.237  1.00  0.00    -0.263 A  
HETATM   21  C   UNL     1     -10.009   9.312  66.342  1.00  0.00    -0.356 A  
ENDBRANCH  13  14
BRANCH  13  22
HETATM   22  C   UNL     1     -11.542  11.717  69.754  1.00  0.00    -0.299 C  
BRANCH  22  23
HETATM   23  N   UNL     1     -12.226  12.582  70.705  1.00  0.00    -0.351 NA 
HETATM   24  C   UNL     1     -11.999  13.922  70.868  1.00  0.00    -0.231 A  
HETATM   25  N   UNL     1     -13.562  13.239  72.340  1.00  0.00    -0.598 NA 
HETATM   26  C   UNL     1     -13.196  12.219  71.593  1.00  0.00    -0.257 A  
HETATM   27  C   UNL     1     -12.827  14.303  71.897  1.00  0.00    -0.348 A  
ENDBRANCH  22  23
ENDBRANCH  13  22
ENDBRANCH  11  13
ENDBRANCH  10  11
ENDBRANCH   9  10
ENDBRANCH   6   9
TORSDOF 7
ENDMDL
MODEL      351
REMARK 921   NORMALIZED FREE ENERGY PREDICTED BY IDOCK:   -3.01 KCAL/MOL
REMARK 922        TOTAL FREE ENERGY PREDICTED BY IDOCK:   -5.35 KCAL/MOL
REMARK 923 INTER-LIGAND FREE ENERGY PREDICTED BY IDOCK:   -5.28 KCAL/MOL
REMARK 924 INTRA-LIGAND FREE ENERGY PREDICTED BY IDOCK:   -0.07 KCAL/MOL
REMARK 927      BINDING AFFINITY PREDICTED BY RF-SCORE:    0.00 PKD
ROOT
HETATM    1 CL   UNL     1     -11.598  15.961  64.056  1.00  0.00    -0.119 Cl 
HETATM    2  C   UNL     1     -11.419  15.002  65.471  1.00  0.00    -0.265 A  
HETATM    3  C   UNL     1     -10.153  14.811  66.020  1.00  0.00    -0.327 A  
HETATM    4  C   UNL     1     -10.004  13.966  67.129  1.00  0.00    -0.239 A  
HETATM    5 CL   UNL     1      -8.401  13.779  67.756  1.00  0.00    -0.165 Cl 
HETATM    6  C   UNL     1     -11.104  13.290  67.698  1.00  0.00    -0.292 A  
HETATM    7  C   UNL     1     -12.374  13.549  67.157  1.00  0.00    -0.220 A  
HETATM    8  C   UNL     1     -12.529  14.397  66.051  1.00  0.00    -0.305 A  
ENDROOT
BRANCH   6   9
HETATM    9  C   UNL     1     -10.893  12.229  68.770  1.00  0.00    -0.229 C  
BRANCH   9  10
HETATM   10  O   UNL     1     -11.457  10.932  68.470  1.00  0.00    -0.273 OA 
BRANCH  10  11
HETATM   11  N   UNL     1     -10.417   9.992  68.279  1.00  0.00    -0.200 NA 
HETATM   12  H   UNL     1     -10.025   9.768  67.364  1.00  0.00     0.000 HD 
BRANCH  11  13
HETATM   13  C   UNL     1     -10.006   9.437  69.388  1.00  0.00    -0.183 C  
BRANCH  13  14
HETATM   14  C   UNL     1     -10.974   8.647  70.242  1.00  0.00    -0.251 A  
HETATM   15 CL   UNL     1     -12.076  10.954  71.301  1.00  0.00    -0.378 Cl 
HETATM   16  C   UNL     1     -10.972   7.242  70.147  1.00  0.00    -0.280 A  
HETATM   17  C   UNL     1     -11.925   9.244  71.094  1.00  0.00    -0.322 A  
HETATM   18  C   UNL     1     -11.912   6.458  70.828  1.00  0.00    -0.248 A  
HETATM   19 CL   UNL     1     -14.042   6.113  72.440  1.00  0.00     0.315 Cl 
HETATM   20  C   UNL     1     -12.861   7.070  71.638  1.00  0.00    -0.364 A  
HETATM   21  C   UNL     1     -12.861   8.454  71.786  1.00  0.00    -0.371 A  
ENDBRANCH  13  14
BRANCH  13  22
HETATM   22  C   UNL     1      -8.557   9.488  69.867  1.00  0.00    -0.204 C  
BRANCH  22  23
HETATM   23  N   UNL     1      -7.706   8.446  69.308  1.00  0.00    -0.096 NA 
HETATM   24  C   UNL     1      -7.864   7.865  68.079  1.00  0.00    -0.127 A  
HETATM   25  N   UNL     1      -6.113   6.922  69.139  1.00  0.00    -0.025 NA 
HETATM   26  C   UNL     1      -6.623   7.867  69.901  1.00  0.00    -0.037 A  
HETATM   27  C   UNL     1      -6.874   6.913  68.003  1.00  0.00    -0.078 A  
ENDBRANCH  22  23
ENDBRANCH  13  22
ENDBRANCH  11  13
ENDBRANCH  10  11
ENDBRANCH   9  10
ENDBRANCH   6   9
TORSDOF 7
ENDMDL
MODEL      352
REMARK 921   NORMALIZED FREE ENERGY PREDICTED BY IDOCK:   -2.96 KCAL/MOL
REMARK 922        TOTAL FREE ENERGY PREDICTED BY IDOCK:   -5.30 KCAL/MOL
REMARK 923 INTER-LIGAND FREE ENERGY PREDICTED BY IDOCK:   -4.79 KCAL/MOL
REMARK 924 INTRA-LIGAND FREE ENERGY PREDICTED BY IDOCK:   -0.51 KCAL/MOL
REMARK 927      BINDING AFFINITY PREDICTED BY RF-SCORE:    0.00 PKD
ROOT
HETATM    1 CL   UNL     1      -9.634   4.229  67.313  1.00  0.00    -0.212 Cl 
HETATM    2  C   UNL     1      -9.197   5.825  66.846  1.00  0.00    -0.122 A  
HETATM    3  C   UNL     1     -10.121   6.859  66.976  1.00  0.00    -0.287 A  
HETATM    4  C   UNL     1      -9.786   8.143  66.523  1.00  0.00    -0.239 A  
HETATM    5 CL   UNL     1     -10.986   9.376  66.718  1.00  0.00     0.003 Cl 
HETATM    6  C   UNL     1      -8.537   8.414  65.925  1.00  0.00    -0.179 A  
HETATM    7  C   UNL     1      -7.606   7.364  65.863  1.00  0.00    -0.089 A  
HETATM    8  C   UNL     1      -7.936   6.080  66.319  1.00  0.00    -0.106 A  
ENDROOT
BRANCH   6   9
HETATM    9  C   UNL     1      -8.269   9.760  65.263  1.00  0.00    -0.137 C  
BRANCH   9  10
HETATM   10  O   UNL     1      -8.748  10.910  65.997  1.00  0.00    -0.176 OA 
BRANCH  10  11
HETATM   11  N   UNL     1      -7.677  11.806  66.230  1.00  0.00    -0.376 NA 
HETATM   12  H   UNL     1      -6.865  11.879  65.618  1.00  0.00     0.000 HD 
BRANCH  11  13
HETATM   13  C   UNL     1      -7.831  12.532  67.305  1.00  0.00    -0.160 C  
BRANCH  13  14
HETATM   14  C   UNL     1      -8.532  13.870  67.221  1.00  0.00    -0.212 A  
HETATM   15 CL   UNL     1     -10.937  12.680  66.546  1.00  0.00    -0.288 Cl 
HETATM   16  C   UNL     1      -7.803  15.038  67.521  1.00  0.00    -0.203 A  
HETATM   17  C   UNL     1      -9.898  14.014  66.911  1.00  0.00    -0.267 A  
HETATM   18  C   UNL     1      -8.418  16.296  67.565  1.00  0.00    -0.183 A  
HETATM   19 CL   UNL     1     -10.539  17.946  67.384  1.00  0.00    -0.389 Cl 
HETATM   20  C   UNL     1      -9.774  16.409  67.287  1.00  0.00    -0.239 A  
HETATM   21  C   UNL     1     -10.512  15.280  66.945  1.00  0.00    -0.289 A  
ENDBRANCH  13  14
BRANCH  13  22
HETATM   22  C   UNL     1      -7.387  12.080  68.694  1.00  0.00    -0.111 C  
BRANCH  22  23
HETATM   23  N   UNL     1      -7.898  10.775  69.090  1.00  0.00    -0.148 NA 
HETATM   24  C   UNL     1      -9.178  10.513  69.499  1.00  0.00    -0.048 A  
HETATM   25  N   UNL     1      -7.958   8.620  69.585  1.00  0.00    -0.094 NA 
HETATM   26  C   UNL     1      -7.206   9.600  69.131  1.00  0.00    -0.068 A  
HETATM   27  C   UNL     1      -9.186   9.175  69.815  1.00  0.00    -0.171 A  
ENDBRANCH  22  23
ENDBRANCH  13  22
ENDBRANCH  11  13
ENDBRANCH  10  11
ENDBRANCH   9  10
ENDBRANCH   6   9
TORSDOF 7
ENDMDL
MODEL      353
REMARK 921   NORMALIZED FREE ENERGY PREDICTED BY IDOCK:   -2.95 KCAL/MOL
REMARK 922        TOTAL FREE ENERGY PREDICTED BY IDOCK:   -5.28 KCAL/MOL
REMARK 923 INTER-LIGAND FREE ENERGY PREDICTED BY IDOCK:   -5.03 KCAL/MOL
REMARK 924 INTRA-LIGAND FREE ENERGY PREDICTED BY IDOCK:   -0.26 KCAL/MOL
REMARK 927      BINDING AFFINITY PREDICTED BY RF-SCORE:    0.00 PKD
ROOT
HETATM    1 CL   UNL     1      -9.412   9.531  64.547  1.00  0.00    -0.187 Cl 
HETATM    2  C   UNL     1      -8.775   9.880  66.105  1.00  0.00    -0.136 A  
HETATM    3  C   UNL     1      -7.421   9.674  66.358  1.00  0.00    -0.094 A  
HETATM    4  C   UNL     1      -6.922   9.888  67.651  1.00  0.00    -0.086 A  
HETATM    5 CL   UNL     1      -5.229   9.610  67.889  1.00  0.00    -0.036 Cl 
HETATM    6  C   UNL     1      -7.761  10.296  68.710  1.00  0.00    -0.096 A  
HETATM    7  C   UNL     1      -9.108  10.552  68.407  1.00  0.00    -0.148 A  
HETATM    8  C   UNL     1      -9.610  10.344  67.115  1.00  0.00    -0.192 A  
ENDROOT
BRANCH   6   9
HETATM    9  C   UNL     1      -7.241  10.331  70.141  1.00  0.00    -0.129 C  
BRANCH   9  10
HETATM   10  O   UNL     1      -7.669   9.231  70.976  1.00  0.00    -0.223 OA 
BRANCH  10  11
HETATM   11  N   UNL     1      -7.821   8.065  70.187  1.00  0.00    -0.097 NA 
HETATM   12  H   UNL     1      -7.409   7.959  69.261  1.00  0.00     0.000 HD 
BRANCH  11  13
HETATM   13  C   UNL     1      -8.541   7.139  70.762  1.00  0.00    -0.146 C  
BRANCH  13  14
HETATM   14  C   UNL     1     -10.020   7.365  70.993  1.00  0.00    -0.183 A  
HETATM   15 CL   UNL     1     -10.698   5.846  68.782  1.00  0.00    -0.344 Cl 
HETATM   16  C   UNL     1     -10.424   8.118  72.113  1.00  0.00    -0.352 A  
HETATM   17  C   UNL     1     -11.026   6.815  70.176  1.00  0.00    -0.292 A  
HETATM   18  C   UNL     1     -11.777   8.274  72.442  1.00  0.00    -0.463 A  
HETATM   19 CL   UNL     1     -14.410   7.850  72.067  1.00  0.00    -0.486 Cl 
HETATM   20  C   UNL     1     -12.752   7.696  71.640  1.00  0.00    -0.343 A  
HETATM   21  C   UNL     1     -12.385   6.983  70.502  1.00  0.00    -0.153 A  
ENDBRANCH  13  14
BRANCH  13  22
HETATM   22  C   UNL     1      -7.985   5.779  71.178  1.00  0.00    -0.112 C  
BRANCH  22  23
HETATM   23  N   UNL     1      -8.854   5.026  72.072  1.00  0.00    -0.128 NA 
HETATM   24  C   UNL     1      -9.461   3.836  71.774  1.00  0.00    -0.146 A  
HETATM   25  N   UNL     1     -10.056   4.486  73.848  1.00  0.00    -0.159 NA 
HETATM   26  C   UNL     1      -9.219   5.367  73.342  1.00  0.00    -0.131 A  
HETATM   27  C   UNL     1     -10.213   3.530  72.884  1.00  0.00    -0.164 A  
ENDBRANCH  22  23
ENDBRANCH  13  22
ENDBRANCH  11  13
ENDBRANCH  10  11
ENDBRANCH   9  10
ENDBRANCH   6   9
TORSDOF 7
ENDMDL
MODEL      354
REMARK 921   NORMALIZED FREE ENERGY PREDICTED BY IDOCK:   -2.95 KCAL/MOL
REMARK 922        TOTAL FREE ENERGY PREDICTED BY IDOCK:   -5.27 KCAL/MOL
REMARK 923 INTER-LIGAND FREE ENERGY PREDICTED BY IDOCK:   -4.40 KCAL/MOL
REMARK 924 INTRA-LIGAND FREE ENERGY PREDICTED BY IDOCK:   -0.88 KCAL/MOL
REMARK 927      BINDING AFFINITY PREDICTED BY RF-SCORE:    0.00 PKD
ROOT
HETATM    1 CL   UNL     1     -11.890   1.545  73.489  1.00  0.00    -0.311 Cl 
HETATM    2  C   UNL     1     -10.772   2.636  72.771  1.00  0.00    -0.051 A  
HETATM    3  C   UNL     1      -9.756   2.145  71.954  1.00  0.00    -0.210 A  
HETATM    4  C   UNL     1      -8.803   3.030  71.434  1.00  0.00    -0.081 A  
HETATM    5 CL   UNL     1      -7.571   2.346  70.426  1.00  0.00    -0.042 Cl 
HETATM    6  C   UNL     1      -8.836   4.410  71.727  1.00  0.00    -0.145 A  
HETATM    7  C   UNL     1      -9.906   4.882  72.505  1.00  0.00    -0.202 A  
HETATM    8  C   UNL     1     -10.864   4.000  73.024  1.00  0.00    -0.234 A  
ENDROOT
BRANCH   6   9
HETATM    9  C   UNL     1      -7.684   5.319  71.317  1.00  0.00    -0.102 C  
BRANCH   9  10
HETATM   10  O   UNL     1      -7.613   5.619  69.904  1.00  0.00    -0.072 OA 
BRANCH  10  11
HETATM   11  N   UNL     1      -8.809   6.254  69.491  1.00  0.00    -0.134 NA 
HETATM   12  H   UNL     1      -9.737   5.935  69.770  1.00  0.00     0.000 HD 
BRANCH  11  13
HETATM   13  C   UNL     1      -8.608   7.287  68.717  1.00  0.00    -0.129 C  
BRANCH  13  14
HETATM   14  C   UNL     1      -9.501   8.503  68.833  1.00  0.00    -0.147 A  
HETATM   15 CL   UNL     1      -8.869   8.836  71.506  1.00  0.00    -0.285 Cl 
HETATM   16  C   UNL     1     -10.178   8.960  67.684  1.00  0.00    -0.296 A  
HETATM   17  C   UNL     1      -9.653   9.246  70.020  1.00  0.00    -0.209 A  
HETATM   18  C   UNL     1     -10.934  10.139  67.699  1.00  0.00    -0.331 A  
HETATM   19 CL   UNL     1     -11.935  12.343  68.880  1.00  0.00    -0.327 Cl 
HETATM   20  C   UNL     1     -11.043  10.872  68.873  1.00  0.00    -0.252 A  
HETATM   21  C   UNL     1     -10.421  10.424  70.034  1.00  0.00    -0.235 A  
ENDBRANCH  13  14
BRANCH  13  22
HETATM   22  C   UNL     1      -7.463   7.373  67.711  1.00  0.00    -0.101 C  
BRANCH  22  23
HETATM   23  N   UNL     1      -7.681   6.611  66.489  1.00  0.00    -0.100 NA 
HETATM   24  C   UNL     1      -6.754   6.407  65.503  1.00  0.00    -0.048 A  
HETATM   25  N   UNL     1      -8.698   5.428  64.922  1.00  0.00    -0.132 NA 
HETATM   26  C   UNL     1      -8.829   5.980  66.110  1.00  0.00    -0.148 A  
HETATM   27  C   UNL     1      -7.412   5.685  64.536  1.00  0.00    -0.072 A  
ENDBRANCH  22  23
ENDBRANCH  13  22
ENDBRANCH  11  13
ENDBRANCH  10  11
ENDBRANCH   9  10
ENDBRANCH   6   9
TORSDOF 7
ENDMDL
MODEL      355
REMARK 921   NORMALIZED FREE ENERGY PREDICTED BY IDOCK:   -2.87 KCAL/MOL
REMARK 922        TOTAL FREE ENERGY PREDICTED BY IDOCK:   -5.16 KCAL/MOL
REMARK 923 INTER-LIGAND FREE ENERGY PREDICTED BY IDOCK:   -3.90 KCAL/MOL
REMARK 924 INTRA-LIGAND FREE ENERGY PREDICTED BY IDOCK:   -1.26 KCAL/MOL
REMARK 927      BINDING AFFINITY PREDICTED BY RF-SCORE:    0.00 PKD
ROOT
HETATM    1 CL   UNL     1     -10.450  12.115  67.293  1.00  0.00    -0.232 Cl 
HETATM    2  C   UNL     1     -10.738  10.706  68.234  1.00  0.00    -0.219 A  
HETATM    3  C   UNL     1     -11.203  10.832  69.541  1.00  0.00    -0.342 A  
HETATM    4  C   UNL     1     -11.362   9.684  70.328  1.00  0.00    -0.257 A  
HETATM    5 CL   UNL     1     -11.945   9.920  71.942  1.00  0.00    -0.316 Cl 
HETATM    6  C   UNL     1     -11.052   8.398  69.835  1.00  0.00    -0.109 A  
HETATM    7  C   UNL     1     -10.642   8.300  68.496  1.00  0.00    -0.143 A  
HETATM    8  C   UNL     1     -10.485   9.446  67.703  1.00  0.00    -0.328 A  
ENDROOT
BRANCH   6   9
HETATM    9  C   UNL     1     -11.044   7.192  70.765  1.00  0.00    -0.269 C  
BRANCH   9  10
HETATM   10  O   UNL     1     -10.230   6.082  70.322  1.00  0.00    -0.187 OA 
BRANCH  10  11
HETATM   11  N   UNL     1      -8.977   6.117  70.979  1.00  0.00    -0.143 NA 
HETATM   12  H   UNL     1      -8.808   6.646  71.835  1.00  0.00     0.000 HD 
BRANCH  11  13
HETATM   13  C   UNL     1      -8.056   5.408  70.383  1.00  0.00    -0.101 C  
BRANCH  13  14
HETATM   14  C   UNL     1      -8.077   5.254  68.877  1.00  0.00    -0.086 A  
HETATM   15 CL   UNL     1      -9.004   2.654  69.056  1.00  0.00    -0.154 Cl 
HETATM   16  C   UNL     1      -7.712   6.355  68.078  1.00  0.00    -0.104 A  
HETATM   17  C   UNL     1      -8.498   4.081  68.222  1.00  0.00    -0.093 A  
HETATM   18  C   UNL     1      -7.811   6.313  66.681  1.00  0.00    -0.104 A  
HETATM   19 CL   UNL     1      -8.424   5.118  64.346  1.00  0.00    -0.141 Cl 
HETATM   20  C   UNL     1      -8.259   5.156  66.058  1.00  0.00    -0.114 A  
HETATM   21  C   UNL     1      -8.587   4.038  66.818  1.00  0.00    -0.106 A  
ENDBRANCH  13  14
BRANCH  13  22
HETATM   22  C   UNL     1      -6.893   4.749  71.120  1.00  0.00    -0.039 C  
BRANCH  22  23
HETATM   23  N   UNL     1      -7.260   4.134  72.388  1.00  0.00    -0.060 NA 
HETATM   24  C   UNL     1      -6.806   4.520  73.620  1.00  0.00    -0.065 A  
HETATM   25  N   UNL     1      -8.173   2.744  73.845  1.00  0.00    -0.070 NA 
HETATM   26  C   UNL     1      -8.104   3.078  72.574  1.00  0.00    -0.063 A  
HETATM   27  C   UNL     1      -7.372   3.634  74.505  1.00  0.00    -0.054 A  
ENDBRANCH  22  23
ENDBRANCH  13  22
ENDBRANCH  11  13
ENDBRANCH  10  11
ENDBRANCH   9  10
ENDBRANCH   6   9
TORSDOF 7
ENDMDL
MODEL      356
REMARK 921   NORMALIZED FREE ENERGY PREDICTED BY IDOCK:   -2.87 KCAL/MOL
REMARK 922        TOTAL FREE ENERGY PREDICTED BY IDOCK:   -5.16 KCAL/MOL
REMARK 923 INTER-LIGAND FREE ENERGY PREDICTED BY IDOCK:   -4.54 KCAL/MOL
REMARK 924 INTRA-LIGAND FREE ENERGY PREDICTED BY IDOCK:   -0.61 KCAL/MOL
REMARK 927      BINDING AFFINITY PREDICTED BY RF-SCORE:    0.00 PKD
ROOT
HETATM    1 CL   UNL     1      -6.190   4.694  63.613  1.00  0.00    -0.022 Cl 
HETATM    2  C   UNL     1      -7.353   5.385  64.673  1.00  0.00    -0.064 A  
HETATM    3  C   UNL     1      -7.577   6.760  64.650  1.00  0.00    -0.105 A  
HETATM    4  C   UNL     1      -8.470   7.327  65.570  1.00  0.00    -0.111 A  
HETATM    5 CL   UNL     1      -8.696   9.042  65.479  1.00  0.00    -0.194 Cl 
HETATM    6  C   UNL     1      -9.141   6.542  66.531  1.00  0.00    -0.166 A  
HETATM    7  C   UNL     1      -8.939   5.153  66.489  1.00  0.00    -0.118 A  
HETATM    8  C   UNL     1      -8.050   4.581  65.568  1.00  0.00    -0.109 A  
ENDROOT
BRANCH   6   9
HETATM    9  C   UNL     1      -9.950   7.200  67.642  1.00  0.00    -0.158 C  
BRANCH   9  10
HETATM   10  O   UNL     1      -9.552   6.842  68.985  1.00  0.00    -0.138 OA 
BRANCH  10  11
HETATM   11  N   UNL     1      -8.370   7.539  69.333  1.00  0.00    -0.130 NA 
HETATM   12  H   UNL     1      -7.542   7.569  68.738  1.00  0.00     0.000 HD 
BRANCH  11  13
HETATM   13  C   UNL     1      -8.443   8.140  70.491  1.00  0.00    -0.125 C  
BRANCH  13  14
HETATM   14  C   UNL     1      -9.793   8.474  71.086  1.00  0.00    -0.263 A  
HETATM   15 CL   UNL     1     -10.135  10.610  69.361  1.00  0.00    -0.228 Cl 
HETATM   16  C   UNL     1     -10.303   7.656  72.113  1.00  0.00    -0.270 A  
HETATM   17  C   UNL     1     -10.602   9.533  70.631  1.00  0.00    -0.308 A  
HETATM   18  C   UNL     1     -11.590   7.847  72.632  1.00  0.00    -0.435 A  
HETATM   19 CL   UNL     1     -13.979   9.086  72.751  1.00  0.00    -0.383 Cl 
HETATM   20  C   UNL     1     -12.383   8.878  72.145  1.00  0.00    -0.378 A  
HETATM   21  C   UNL     1     -11.890   9.730  71.161  1.00  0.00    -0.466 A  
ENDBRANCH  13  14
BRANCH  13  22
HETATM   22  C   UNL     1      -7.219   8.487  71.335  1.00  0.00    -0.092 C  
BRANCH  22  23
HETATM   23  N   UNL     1      -6.686   7.370  72.104  1.00  0.00    -0.057 NA 
HETATM   24  C   UNL     1      -7.428   6.373  72.676  1.00  0.00    -0.091 A  
HETATM   25  N   UNL     1      -5.249   6.056  73.151  1.00  0.00    -0.026 NA 
HETATM   26  C   UNL     1      -5.376   7.124  72.392  1.00  0.00    -0.037 A  
HETATM   27  C   UNL     1      -6.517   5.580  73.333  1.00  0.00    -0.067 A  
ENDBRANCH  22  23
ENDBRANCH  13  22
ENDBRANCH  11  13
ENDBRANCH  10  11
ENDBRANCH   9  10
ENDBRANCH   6   9
TORSDOF 7
ENDMDL
MODEL      357
REMARK 921   NORMALIZED FREE ENERGY PREDICTED BY IDOCK:   -2.86 KCAL/MOL
REMARK 922        TOTAL FREE ENERGY PREDICTED BY IDOCK:   -5.15 KCAL/MOL
REMARK 923 INTER-LIGAND FREE ENERGY PREDICTED BY IDOCK:   -4.41 KCAL/MOL
REMARK 924 INTRA-LIGAND FREE ENERGY PREDICTED BY IDOCK:   -0.74 KCAL/MOL
REMARK 927      BINDING AFFINITY PREDICTED BY RF-SCORE:    0.00 PKD
ROOT
HETATM    1 CL   UNL     1      -6.383   4.809  63.003  1.00  0.00    -0.025 Cl 
HETATM    2  C   UNL     1      -7.623   5.150  64.143  1.00  0.00    -0.069 A  
HETATM    3  C   UNL     1      -7.715   6.422  64.704  1.00  0.00    -0.107 A  
HETATM    4  C   UNL     1      -8.679   6.672  65.689  1.00  0.00    -0.082 A  
HETATM    5 CL   UNL     1      -8.732   8.277  66.338  1.00  0.00    -0.147 Cl 
HETATM    6  C   UNL     1      -9.557   5.663  66.140  1.00  0.00    -0.142 A  
HETATM    7  C   UNL     1      -9.478   4.409  65.513  1.00  0.00    -0.175 A  
HETATM    8  C   UNL     1      -8.517   4.155  64.524  1.00  0.00    -0.107 A  
ENDROOT
BRANCH   6   9
HETATM    9  C   UNL     1     -10.459   5.901  67.344  1.00  0.00    -0.248 C  
BRANCH   9  10
HETATM   10  O   UNL     1     -10.176   5.074  68.495  1.00  0.00    -0.146 OA 
BRANCH  10  11
HETATM   11  N   UNL     1      -8.878   5.361  68.981  1.00  0.00    -0.100 NA 
HETATM   12  H   UNL     1      -8.078   4.744  68.840  1.00  0.00     0.000 HD 
BRANCH  11  13
HETATM   13  C   UNL     1      -8.804   6.494  69.628  1.00  0.00    -0.138 C  
BRANCH  13  14
HETATM   14  C   UNL     1     -10.035   7.064  70.299  1.00  0.00    -0.186 A  
HETATM   15 CL   UNL     1     -10.202   4.917  72.037  1.00  0.00    -0.255 Cl 
HETATM   16  C   UNL     1     -10.524   8.313  69.871  1.00  0.00    -0.223 A  
HETATM   17  C   UNL     1     -10.693   6.437  71.375  1.00  0.00    -0.245 A  
HETATM   18  C   UNL     1     -11.593   8.944  70.520  1.00  0.00    -0.189 A  
HETATM   19 CL   UNL     1     -13.490   9.116  72.424  1.00  0.00    -0.520 Cl 
HETATM   20  C   UNL     1     -12.207   8.322  71.599  1.00  0.00    -0.313 A  
HETATM   21  C   UNL     1     -11.774   7.068  72.018  1.00  0.00    -0.332 A  
ENDBRANCH  13  14
BRANCH  13  22
HETATM   22  C   UNL     1      -7.505   7.277  69.805  1.00  0.00    -0.093 C  
BRANCH  22  23
HETATM   23  N   UNL     1      -7.205   7.634  71.184  1.00  0.00    -0.061 NA 
HETATM   24  C   UNL     1      -6.546   6.843  72.086  1.00  0.00    -0.057 A  
HETATM   25  N   UNL     1      -7.150   8.772  73.080  1.00  0.00    -0.343 NA 
HETATM   26  C   UNL     1      -7.526   8.799  71.818  1.00  0.00    -0.042 A  
HETATM   27  C   UNL     1      -6.539   7.563  73.257  1.00  0.00    -0.066 A  
ENDBRANCH  22  23
ENDBRANCH  13  22
ENDBRANCH  11  13
ENDBRANCH  10  11
ENDBRANCH   9  10
ENDBRANCH   6   9
TORSDOF 7
ENDMDL
MODEL      358
REMARK 921   NORMALIZED FREE ENERGY PREDICTED BY IDOCK:   -2.81 KCAL/MOL
REMARK 922        TOTAL FREE ENERGY PREDICTED BY IDOCK:   -5.09 KCAL/MOL
REMARK 923 INTER-LIGAND FREE ENERGY PREDICTED BY IDOCK:   -3.91 KCAL/MOL
REMARK 924 INTRA-LIGAND FREE ENERGY PREDICTED BY IDOCK:   -1.18 KCAL/MOL
REMARK 927      BINDING AFFINITY PREDICTED BY RF-SCORE:    0.00 PKD
ROOT
HETATM    1 CL   UNL     1      -7.544   7.686  73.673  1.00  0.00    -0.139 Cl 
HETATM    2  C   UNL     1      -8.565   7.390  72.322  1.00  0.00    -0.116 A  
HETATM    3  C   UNL     1      -9.519   8.338  71.957  1.00  0.00    -0.304 A  
HETATM    4  C   UNL     1     -10.399   8.057  70.903  1.00  0.00    -0.200 A  
HETATM    5 CL   UNL     1     -11.557   9.284  70.507  1.00  0.00    -0.288 Cl 
HETATM    6  C   UNL     1     -10.354   6.831  70.206  1.00  0.00    -0.224 A  
HETATM    7  C   UNL     1      -9.344   5.922  70.560  1.00  0.00    -0.185 A  
HETATM    8  C   UNL     1      -8.458   6.200  71.611  1.00  0.00    -0.130 A  
ENDROOT
BRANCH   6   9
HETATM    9  C   UNL     1     -11.441   6.469  69.202  1.00  0.00    -0.171 C  
BRANCH   9  10
HETATM   10  O   UNL     1     -10.970   5.843  67.987  1.00  0.00    -0.274 OA 
BRANCH  10  11
HETATM   11  N   UNL     1     -10.847   6.817  66.966  1.00  0.00    -0.414 NA 
HETATM   12  H   UNL     1     -11.617   7.417  66.670  1.00  0.00     0.000 HD 
BRANCH  11  13
HETATM   13  C   UNL     1      -9.652   6.871  66.441  1.00  0.00    -0.095 C  
BRANCH  13  14
HETATM   14  C   UNL     1      -8.708   5.698  66.586  1.00  0.00    -0.118 A  
HETATM   15 CL   UNL     1      -7.064   7.107  68.308  1.00  0.00    -0.079 Cl 
HETATM   16  C   UNL     1      -9.012   4.495  65.918  1.00  0.00    -0.125 A  
HETATM   17  C   UNL     1      -7.560   5.721  67.402  1.00  0.00    -0.096 A  
HETATM   18  C   UNL     1      -8.238   3.341  66.095  1.00  0.00    -0.094 A  
HETATM   19 CL   UNL     1      -6.203   1.951  67.183  1.00  0.00    -0.020 Cl 
HETATM   20  C   UNL     1      -7.129   3.378  66.930  1.00  0.00    -0.058 A  
HETATM   21  C   UNL     1      -6.778   4.564  67.570  1.00  0.00    -0.048 A  
ENDBRANCH  13  14
BRANCH  13  22
HETATM   22  C   UNL     1      -9.151   8.054  65.616  1.00  0.00     0.007 C  
BRANCH  22  23
HETATM   23  N   UNL     1      -9.040   9.300  66.363  1.00  0.00    -0.151 NA 
HETATM   24  C   UNL     1      -8.474  10.457  65.900  1.00  0.00    -0.156 A  
HETATM   25  N   UNL     1      -9.164  10.754  68.024  1.00  0.00    -0.147 NA 
HETATM   26  C   UNL     1      -9.467   9.533  67.637  1.00  0.00    -0.131 A  
HETATM   27  C   UNL     1      -8.548  11.338  66.952  1.00  0.00    -0.150 A  
ENDBRANCH  22  23
ENDBRANCH  13  22
ENDBRANCH  11  13
ENDBRANCH  10  11
ENDBRANCH   9  10
ENDBRANCH   6   9
TORSDOF 7
ENDMDL
MODEL      359
REMARK 921   NORMALIZED FREE ENERGY PREDICTED BY IDOCK:   -2.78 KCAL/MOL
REMARK 922        TOTAL FREE ENERGY PREDICTED BY IDOCK:   -5.04 KCAL/MOL
REMARK 923 INTER-LIGAND FREE ENERGY PREDICTED BY IDOCK:   -4.42 KCAL/MOL
REMARK 924 INTRA-LIGAND FREE ENERGY PREDICTED BY IDOCK:   -0.63 KCAL/MOL
REMARK 927      BINDING AFFINITY PREDICTED BY RF-SCORE:    0.00 PKD
ROOT
HETATM    1 CL   UNL     1      -9.873  11.415  62.694  1.00  0.00    -0.188 Cl 
HETATM    2  C   UNL     1      -9.563  10.839  64.284  1.00  0.00    -0.283 A  
HETATM    3  C   UNL     1      -8.612   9.841  64.483  1.00  0.00    -0.199 A  
HETATM    4  C   UNL     1      -8.419   9.322  65.770  1.00  0.00    -0.135 A  
HETATM    5 CL   UNL     1      -7.219   8.084  65.939  1.00  0.00    -0.064 Cl 
HETATM    6  C   UNL     1      -9.173   9.776  66.873  1.00  0.00    -0.174 A  
HETATM    7  C   UNL     1     -10.081  10.823  66.649  1.00  0.00    -0.265 A  
HETATM    8  C   UNL     1     -10.275  11.349  65.364  1.00  0.00    -0.320 A  
ENDROOT
BRANCH   6   9
HETATM    9  C   UNL     1      -9.088   9.064  68.217  1.00  0.00    -0.133 C  
BRANCH   9  10
HETATM   10  O   UNL     1      -9.707   7.759  68.261  1.00  0.00    -0.153 OA 
BRANCH  10  11
HETATM   11  N   UNL     1      -8.836   6.839  68.893  1.00  0.00    -0.129 NA 
HETATM   12  H   UNL     1      -7.913   7.093  69.244  1.00  0.00     0.000 HD 
BRANCH  11  13
HETATM   13  C   UNL     1      -9.330   5.633  68.983  1.00  0.00    -0.124 C  
BRANCH  13  14
HETATM   14  C   UNL     1      -9.333   4.724  67.772  1.00  0.00    -0.163 A  
HETATM   15 CL   UNL     1     -11.435   6.105  66.619  1.00  0.00     0.169 Cl 
HETATM   16  C   UNL     1      -8.370   3.699  67.691  1.00  0.00    -0.099 A  
HETATM   17  C   UNL     1     -10.216   4.880  66.687  1.00  0.00    -0.255 A  
HETATM   18  C   UNL     1      -8.251   2.893  66.552  1.00  0.00    -0.088 A  
HETATM   19 CL   UNL     1      -8.939   2.127  64.063  1.00  0.00    -0.097 Cl 
HETATM   20  C   UNL     1      -9.112   3.086  65.479  1.00  0.00    -0.150 A  
HETATM   21  C   UNL     1     -10.102   4.062  65.548  1.00  0.00    -0.142 A  
ENDBRANCH  13  14
BRANCH  13  22
HETATM   22  C   UNL     1      -9.870   5.041  70.283  1.00  0.00    -0.234 C  
BRANCH  22  23
HETATM   23  N   UNL     1     -10.266   6.033  71.273  1.00  0.00    -0.199 NA 
HETATM   24  C   UNL     1     -11.537   6.505  71.460  1.00  0.00    -0.315 A  
HETATM   25  N   UNL     1     -10.131   7.541  72.885  1.00  0.00    -0.234 NA 
HETATM   26  C   UNL     1      -9.457   6.664  72.171  1.00  0.00    -0.144 A  
HETATM   27  C   UNL     1     -11.425   7.450  72.453  1.00  0.00    -0.300 A  
ENDBRANCH  22  23
ENDBRANCH  13  22
ENDBRANCH  11  13
ENDBRANCH  10  11
ENDBRANCH   9  10
ENDBRANCH   6   9
TORSDOF 7
ENDMDL
MODEL      360
REMARK 921   NORMALIZED FREE ENERGY PREDICTED BY IDOCK:   -2.77 KCAL/MOL
REMARK 922        TOTAL FREE ENERGY PREDICTED BY IDOCK:   -5.03 KCAL/MOL
REMARK 923 INTER-LIGAND FREE ENERGY PREDICTED BY IDOCK:   -4.29 KCAL/MOL
REMARK 924 INTRA-LIGAND FREE ENERGY PREDICTED BY IDOCK:   -0.74 KCAL/MOL
REMARK 927      BINDING AFFINITY PREDICTED BY RF-SCORE:    0.00 PKD
ROOT
HETATM    1 CL   UNL     1     -10.459  14.441  65.620  1.00  0.00    -0.325 Cl 
HETATM    2  C   UNL     1      -9.867  12.999  66.344  1.00  0.00    -0.270 A  
HETATM    3  C   UNL     1      -9.823  11.821  65.600  1.00  0.00    -0.265 A  
HETATM    4  C   UNL     1      -9.412  10.633  66.218  1.00  0.00    -0.177 A  
HETATM    5 CL   UNL     1      -9.383   9.210  65.230  1.00  0.00    -0.270 Cl 
HETATM    6  C   UNL     1      -9.052  10.593  67.582  1.00  0.00    -0.145 A  
HETATM    7  C   UNL     1      -9.051  11.807  68.288  1.00  0.00    -0.187 A  
HETATM    8  C   UNL     1      -9.457  13.000  67.672  1.00  0.00    -0.201 A  
ENDROOT
BRANCH   6   9
HETATM    9  C   UNL     1      -8.800   9.262  68.279  1.00  0.00    -0.129 C  
BRANCH   9  10
HETATM   10  O   UNL     1      -7.662   8.518  67.789  1.00  0.00    -0.100 OA 
BRANCH  10  11
HETATM   11  N   UNL     1      -7.257   7.571  68.761  1.00  0.00    -0.080 NA 
HETATM   12  H   UNL     1      -6.438   7.696  69.356  1.00  0.00     0.000 HD 
BRANCH  11  13
HETATM   13  C   UNL     1      -8.034   6.523  68.821  1.00  0.00    -0.111 C  
BRANCH  13  14
HETATM   14  C   UNL     1      -8.727   6.168  70.118  1.00  0.00    -0.141 A  
HETATM   15 CL   UNL     1     -11.228   6.585  69.011  1.00  0.00    -0.367 Cl 
HETATM   16  C   UNL     1      -7.943   5.773  71.220  1.00  0.00    -0.113 A  
HETATM   17  C   UNL     1     -10.127   6.156  70.273  1.00  0.00    -0.188 A  
HETATM   18  C   UNL     1      -8.526   5.331  72.415  1.00  0.00    -0.122 A  
HETATM   19 CL   UNL     1     -10.627   4.713  73.984  1.00  0.00    -0.318 Cl 
HETATM   20  C   UNL     1      -9.910   5.297  72.534  1.00  0.00    -0.162 A  
HETATM   21  C   UNL     1     -10.710   5.722  71.477  1.00  0.00    -0.319 A  
ENDBRANCH  13  14
BRANCH  13  22
HETATM   22  C   UNL     1      -8.343   5.636  67.616  1.00  0.00    -0.100 C  
BRANCH  22  23
HETATM   23  N   UNL     1      -7.179   4.966  67.052  1.00  0.00    -0.076 NA 
HETATM   24  C   UNL     1      -6.732   5.097  65.765  1.00  0.00    -0.053 A  
HETATM   25  N   UNL     1      -5.421   3.637  66.872  1.00  0.00    -0.016 NA 
HETATM   26  C   UNL     1      -6.343   4.098  67.691  1.00  0.00    -0.037 A  
HETATM   27  C   UNL     1      -5.652   4.252  65.673  1.00  0.00    -0.017 A  
ENDBRANCH  22  23
ENDBRANCH  13  22
ENDBRANCH  11  13
ENDBRANCH  10  11
ENDBRANCH   9  10
ENDBRANCH   6   9
TORSDOF 7
ENDMDL
MODEL      361
REMARK 921   NORMALIZED FREE ENERGY PREDICTED BY IDOCK:   -2.65 KCAL/MOL
REMARK 922        TOTAL FREE ENERGY PREDICTED BY IDOCK:   -4.86 KCAL/MOL
REMARK 923 INTER-LIGAND FREE ENERGY PREDICTED BY IDOCK:   -4.38 KCAL/MOL
REMARK 924 INTRA-LIGAND FREE ENERGY PREDICTED BY IDOCK:   -0.47 KCAL/MOL
REMARK 927      BINDING AFFINITY PREDICTED BY RF-SCORE:    0.00 PKD
ROOT
HETATM    1 CL   UNL     1     -12.694  12.104  63.100  1.00  0.00    -0.448 Cl 
HETATM    2  C   UNL     1     -11.522  12.382  64.327  1.00  0.00    -0.363 A  
HETATM    3  C   UNL     1     -11.299  13.677  64.787  1.00  0.00    -0.365 A  
HETATM    4  C   UNL     1     -10.290  13.908  65.732  1.00  0.00    -0.316 A  
HETATM    5 CL   UNL     1     -10.073  15.544  66.257  1.00  0.00    -0.291 Cl 
HETATM    6  C   UNL     1      -9.480  12.861  66.221  1.00  0.00    -0.205 A  
HETATM    7  C   UNL     1      -9.769  11.559  65.781  1.00  0.00    -0.263 A  
HETATM    8  C   UNL     1     -10.781  11.323  64.840  1.00  0.00    -0.337 A  
ENDROOT
BRANCH   6   9
HETATM    9  C   UNL     1      -8.267  13.160  67.092  1.00  0.00    -0.120 C  
BRANCH   9  10
HETATM   10  O   UNL     1      -7.025  12.578  66.635  1.00  0.00     0.191 OA 
BRANCH  10  11
HETATM   11  N   UNL     1      -7.107  11.166  66.703  1.00  0.00    -0.141 NA 
HETATM   12  H   UNL     1      -7.542  10.595  65.978  1.00  0.00     0.000 HD 
BRANCH  11  13
HETATM   13  C   UNL     1      -6.571  10.666  67.784  1.00  0.00    -0.060 C  
BRANCH  13  14
HETATM   14  C   UNL     1      -7.183   9.444  68.436  1.00  0.00    -0.076 A  
HETATM   15 CL   UNL     1      -9.368  10.889  69.324  1.00  0.00    -0.096 Cl 
HETATM   16  C   UNL     1      -6.519   8.207  68.315  1.00  0.00    -0.055 A  
HETATM   17  C   UNL     1      -8.416   9.461  69.114  1.00  0.00    -0.134 A  
HETATM   18  C   UNL     1      -7.083   7.021  68.802  1.00  0.00    -0.089 A  
HETATM   19 CL   UNL     1      -9.029   5.596  70.000  1.00  0.00    -0.141 Cl 
HETATM   20  C   UNL     1      -8.316   7.057  69.440  1.00  0.00    -0.133 A  
HETATM   21  C   UNL     1      -8.976   8.270  69.612  1.00  0.00    -0.149 A  
ENDBRANCH  13  14
BRANCH  13  22
HETATM   22  C   UNL     1      -5.297  11.215  68.422  1.00  0.00    -0.043 C  
BRANCH  22  23
HETATM   23  N   UNL     1      -5.524  12.009  69.622  1.00  0.00    -0.072 NA 
HETATM   24  C   UNL     1      -5.994  13.294  69.648  1.00  0.00    -0.117 A  
HETATM   25  N   UNL     1      -5.568  12.606  71.751  1.00  0.00    -0.350 NA 
HETATM   26  C   UNL     1      -5.307  11.625  70.913  1.00  0.00    -0.127 A  
HETATM   27  C   UNL     1      -5.997  13.648  70.976  1.00  0.00    -0.084 A  
ENDBRANCH  22  23
ENDBRANCH  13  22
ENDBRANCH  11  13
ENDBRANCH  10  11
ENDBRANCH   9  10
ENDBRANCH   6   9
TORSDOF 7
ENDMDL
MODEL      362
REMARK 921   NORMALIZED FREE ENERGY PREDICTED BY IDOCK:   -2.64 KCAL/MOL
REMARK 922        TOTAL FREE ENERGY PREDICTED BY IDOCK:   -4.84 KCAL/MOL
REMARK 923 INTER-LIGAND FREE ENERGY PREDICTED BY IDOCK:   -3.99 KCAL/MOL
REMARK 924 INTRA-LIGAND FREE ENERGY PREDICTED BY IDOCK:   -0.84 KCAL/MOL
REMARK 927      BINDING AFFINITY PREDICTED BY RF-SCORE:    0.00 PKD
ROOT
HETATM    1 CL   UNL     1     -10.282   5.029  67.303  1.00  0.00    -0.227 Cl 
HETATM    2  C   UNL     1      -9.320   6.400  66.912  1.00  0.00    -0.134 A  
HETATM    3  C   UNL     1      -9.935   7.573  66.482  1.00  0.00    -0.209 A  
HETATM    4  C   UNL     1      -9.142   8.661  66.091  1.00  0.00    -0.201 A  
HETATM    5 CL   UNL     1      -9.977  10.086  65.568  1.00  0.00    -0.373 Cl 
HETATM    6  C   UNL     1      -7.733   8.595  66.109  1.00  0.00    -0.097 A  
HETATM    7  C   UNL     1      -7.146   7.419  66.604  1.00  0.00    -0.075 A  
HETATM    8  C   UNL     1      -7.935   6.330  67.000  1.00  0.00    -0.109 A  
ENDROOT
BRANCH   6   9
HETATM    9  C   UNL     1      -6.896   9.711  65.497  1.00  0.00    -0.089 C  
BRANCH   9  10
HETATM   10  O   UNL     1      -6.635  10.833  66.371  1.00  0.00    -0.109 OA 
BRANCH  10  11
HETATM   11  N   UNL     1      -6.384  10.367  67.684  1.00  0.00    -0.057 NA 
HETATM   12  H   UNL     1      -5.792   9.562  67.888  1.00  0.00     0.000 HD 
BRANCH  11  13
HETATM   13  C   UNL     1      -6.985  11.067  68.608  1.00  0.00    -0.075 C  
BRANCH  13  14
HETATM   14  C   UNL     1      -8.311  11.734  68.310  1.00  0.00    -0.159 A  
HETATM   15 CL   UNL     1      -9.695   9.892  69.842  1.00  0.00    -0.268 Cl 
HETATM   16  C   UNL     1      -8.321  12.898  67.517  1.00  0.00    -0.183 A  
HETATM   17  C   UNL     1      -9.540  11.285  68.830  1.00  0.00    -0.105 A  
HETATM   18  C   UNL     1      -9.499  13.622  67.292  1.00  0.00    -0.230 A  
HETATM   19 CL   UNL     1     -12.134  14.091  67.603  1.00  0.00    -0.398 Cl 
HETATM   20  C   UNL     1     -10.695  13.179  67.842  1.00  0.00    -0.235 A  
HETATM   21  C   UNL     1     -10.724  12.008  68.594  1.00  0.00    -0.266 A  
ENDBRANCH  13  14
BRANCH  13  22
HETATM   22  C   UNL     1      -6.450  11.216  70.031  1.00  0.00    -0.133 C  
BRANCH  22  23
HETATM   23  N   UNL     1      -6.111   9.956  70.677  1.00  0.00    -0.085 NA 
HETATM   24  C   UNL     1      -6.552   8.719  70.289  1.00  0.00    -0.040 A  
HETATM   25  N   UNL     1      -5.258   8.516  72.123  1.00  0.00    -0.037 NA 
HETATM   26  C   UNL     1      -5.312   9.783  71.769  1.00  0.00    -0.065 A  
HETATM   27  C   UNL     1      -6.023   7.845  71.209  1.00  0.00    -0.034 A  
ENDBRANCH  22  23
ENDBRANCH  13  22
ENDBRANCH  11  13
ENDBRANCH  10  11
ENDBRANCH   9  10
ENDBRANCH   6   9
TORSDOF 7
ENDMDL
MODEL      363
REMARK 921   NORMALIZED FREE ENERGY PREDICTED BY IDOCK:   -2.62 KCAL/MOL
REMARK 922        TOTAL FREE ENERGY PREDICTED BY IDOCK:   -4.82 KCAL/MOL
REMARK 923 INTER-LIGAND FREE ENERGY PREDICTED BY IDOCK:   -5.12 KCAL/MOL
REMARK 924 INTRA-LIGAND FREE ENERGY PREDICTED BY IDOCK:    0.30 KCAL/MOL
REMARK 927      BINDING AFFINITY PREDICTED BY RF-SCORE:    0.00 PKD
ROOT
HETATM    1 CL   UNL     1      -6.830  14.255  67.506  1.00  0.00    -0.199 Cl 
HETATM    2  C   UNL     1      -7.976  12.974  67.510  1.00  0.00    -0.177 A  
HETATM    3  C   UNL     1      -9.336  13.266  67.574  1.00  0.00    -0.218 A  
HETATM    4  C   UNL     1     -10.262  12.216  67.655  1.00  0.00    -0.197 A  
HETATM    5 CL   UNL     1     -11.935  12.657  67.731  1.00  0.00    -0.374 Cl 
HETATM    6  C   UNL     1      -9.851  10.867  67.687  1.00  0.00    -0.192 A  
HETATM    7  C   UNL     1      -8.477  10.605  67.562  1.00  0.00    -0.121 A  
HETATM    8  C   UNL     1      -7.547  11.652  67.476  1.00  0.00    -0.128 A  
ENDROOT
BRANCH   6   9
HETATM    9  C   UNL     1     -10.854   9.757  67.973  1.00  0.00    -0.223 C  
BRANCH   9  10
HETATM   10  O   UNL     1     -10.479   8.850  69.035  1.00  0.00    -0.220 OA 
BRANCH  10  11
HETATM   11  N   UNL     1     -10.938   7.545  68.732  1.00  0.00    -0.426 NA 
HETATM   12  H   UNL     1     -11.835   7.357  68.286  1.00  0.00     0.000 HD 
BRANCH  11  13
HETATM   13  C   UNL     1     -10.100   6.606  69.080  1.00  0.00    -0.169 C  
BRANCH  13  14
HETATM   14  C   UNL     1     -10.252   5.914  70.418  1.00  0.00    -0.273 A  
HETATM   15 CL   UNL     1     -12.288   7.624  71.182  1.00  0.00    -0.319 Cl 
HETATM   16  C   UNL     1      -9.443   4.795  70.698  1.00  0.00    -0.238 A  
HETATM   17  C   UNL     1     -11.202   6.294  71.385  1.00  0.00    -0.293 A  
HETATM   18  C   UNL     1      -9.607   4.047  71.871  1.00  0.00    -0.217 A  
HETATM   19 CL   UNL     1     -10.805   3.478  74.216  1.00  0.00    -0.213 Cl 
HETATM   20  C   UNL     1     -10.573   4.421  72.797  1.00  0.00    -0.182 A  
HETATM   21  C   UNL     1     -11.358   5.547  72.567  1.00  0.00    -0.323 A  
ENDBRANCH  13  14
BRANCH  13  22
HETATM   22  C   UNL     1      -8.976   6.105  68.176  1.00  0.00    -0.114 C  
BRANCH  22  23
HETATM   23  N   UNL     1      -7.666   6.659  68.486  1.00  0.00    -0.104 NA 
HETATM   24  C   UNL     1      -7.244   7.924  68.177  1.00  0.00    -0.090 A  
HETATM   25  N   UNL     1      -5.576   6.803  69.196  1.00  0.00    -0.017 NA 
HETATM   26  C   UNL     1      -6.638   6.028  69.124  1.00  0.00    -0.051 A  
HETATM   27  C   UNL     1      -5.942   7.984  68.612  1.00  0.00    -0.040 A  
ENDBRANCH  22  23
ENDBRANCH  13  22
ENDBRANCH  11  13
ENDBRANCH  10  11
ENDBRANCH   9  10
ENDBRANCH   6   9
TORSDOF 7
ENDMDL
MODEL      364
REMARK 921   NORMALIZED FREE ENERGY PREDICTED BY IDOCK:   -2.61 KCAL/MOL
REMARK 922        TOTAL FREE ENERGY PREDICTED BY IDOCK:   -4.80 KCAL/MOL
REMARK 923 INTER-LIGAND FREE ENERGY PREDICTED BY IDOCK:   -3.96 KCAL/MOL
REMARK 924 INTRA-LIGAND FREE ENERGY PREDICTED BY IDOCK:   -0.84 KCAL/MOL
REMARK 927      BINDING AFFINITY PREDICTED BY RF-SCORE:    0.00 PKD
ROOT
HETATM    1 CL   UNL     1      -9.726  12.197  68.213  1.00  0.00    -0.214 Cl 
HETATM    2  C   UNL     1     -10.256  10.656  68.760  1.00  0.00    -0.190 A  
HETATM    3  C   UNL     1     -10.873  10.540  70.004  1.00  0.00    -0.320 A  
HETATM    4  C   UNL     1     -11.234   9.271  70.478  1.00  0.00    -0.265 A  
HETATM    5 CL   UNL     1     -11.996   9.208  72.032  1.00  0.00    -0.438 Cl 
HETATM    6  C   UNL     1     -10.977   8.102  69.731  1.00  0.00    -0.133 A  
HETATM    7  C   UNL     1     -10.408   8.258  68.457  1.00  0.00    -0.230 A  
HETATM    8  C   UNL     1     -10.050   9.526  67.977  1.00  0.00    -0.226 A  
ENDROOT
BRANCH   6   9
HETATM    9  C   UNL     1     -11.196   6.725  70.347  1.00  0.00    -0.328 C  
BRANCH   9  10
HETATM   10  O   UNL     1     -10.287   5.698  69.890  1.00  0.00    -0.226 OA 
BRANCH  10  11
HETATM   11  N   UNL     1      -9.422   5.322  70.946  1.00  0.00    -0.159 NA 
HETATM   12  H   UNL     1      -9.391   5.806  71.843  1.00  0.00     0.000 HD 
BRANCH  11  13
HETATM   13  C   UNL     1      -8.669   4.294  70.660  1.00  0.00    -0.083 C  
BRANCH  13  14
HETATM   14  C   UNL     1      -8.096   4.139  69.268  1.00  0.00    -0.063 A  
HETATM   15 CL   UNL     1      -5.989   5.839  69.839  1.00  0.00    -0.024 Cl 
HETATM   16  C   UNL     1      -8.742   3.275  68.361  1.00  0.00    -0.139 A  
HETATM   17  C   UNL     1      -6.914   4.773  68.839  1.00  0.00    -0.052 A  
HETATM   18  C   UNL     1      -8.205   3.007  67.095  1.00  0.00    -0.084 A  
HETATM   19 CL   UNL     1      -6.338   3.255  65.170  1.00  0.00    -0.030 Cl 
HETATM   20  C   UNL     1      -7.020   3.618  66.706  1.00  0.00    -0.055 A  
HETATM   21  C   UNL     1      -6.382   4.509  67.564  1.00  0.00    -0.041 A  
ENDBRANCH  13  14
BRANCH  13  22
HETATM   22  C   UNL     1      -8.269   3.235  71.684  1.00  0.00    -0.061 C  
BRANCH  22  23
HETATM   23  N   UNL     1      -9.342   2.840  72.587  1.00  0.00    -0.091 NA 
HETATM   24  C   UNL     1      -9.456   3.214  73.898  1.00  0.00    -0.091 A  
HETATM   25  N   UNL     1     -11.158   1.841  73.356  1.00  0.00    -0.152 NA 
HETATM   26  C   UNL     1     -10.404   2.035  72.295  1.00  0.00    -0.129 A  
HETATM   27  C   UNL     1     -10.580   2.570  74.358  1.00  0.00    -0.137 A  
ENDBRANCH  22  23
ENDBRANCH  13  22
ENDBRANCH  11  13
ENDBRANCH  10  11
ENDBRANCH   9  10
ENDBRANCH   6   9
TORSDOF 7
ENDMDL
MODEL      365
REMARK 921   NORMALIZED FREE ENERGY PREDICTED BY IDOCK:   -2.44 KCAL/MOL
REMARK 922        TOTAL FREE ENERGY PREDICTED BY IDOCK:   -4.56 KCAL/MOL
REMARK 923 INTER-LIGAND FREE ENERGY PREDICTED BY IDOCK:   -2.94 KCAL/MOL
REMARK 924 INTRA-LIGAND FREE ENERGY PREDICTED BY IDOCK:   -1.62 KCAL/MOL
REMARK 927      BINDING AFFINITY PREDICTED BY RF-SCORE:    0.00 PKD
ROOT
HETATM    1 CL   UNL     1     -11.080  10.278  67.884  1.00  0.00    -0.354 Cl 
HETATM    2  C   UNL     1     -10.635   8.673  68.311  1.00  0.00    -0.128 A  
HETATM    3  C   UNL     1     -10.709   7.659  67.359  1.00  0.00    -0.318 A  
HETATM    4  C   UNL     1     -10.419   6.340  67.733  1.00  0.00    -0.232 A  
HETATM    5 CL   UNL     1     -10.533   5.136  66.494  1.00  0.00    -0.330 Cl 
HETATM    6  C   UNL     1     -10.065   6.008  69.058  1.00  0.00    -0.223 A  
HETATM    7  C   UNL     1      -9.942   7.060  69.980  1.00  0.00    -0.188 A  
HETATM    8  C   UNL     1     -10.227   8.382  69.608  1.00  0.00    -0.209 A  
ENDROOT
BRANCH   6   9
HETATM    9  C   UNL     1      -9.947   4.551  69.487  1.00  0.00    -0.165 C  
BRANCH   9  10
HETATM   10  O   UNL     1      -8.878   4.270  70.419  1.00  0.00    -0.079 OA 
BRANCH  10  11
HETATM   11  N   UNL     1      -7.936   3.401  69.816  1.00  0.00    -0.049 NA 
HETATM   12  H   UNL     1      -8.115   2.411  69.649  1.00  0.00     0.000 HD 
BRANCH  11  13
HETATM   13  C   UNL     1      -6.816   3.992  69.496  1.00  0.00    -0.042 C  
BRANCH  13  14
HETATM   14  C   UNL     1      -6.380   5.239  70.234  1.00  0.00    -0.030 A  
HETATM   15 CL   UNL     1      -6.819   6.826  68.010  1.00  0.00    -0.075 Cl 
HETATM   16  C   UNL     1      -6.016   5.133  71.590  1.00  0.00    -0.024 A  
HETATM   17  C   UNL     1      -6.372   6.522  69.652  1.00  0.00    -0.038 A  
HETATM   18  C   UNL     1      -5.705   6.263  72.357  1.00  0.00    -0.037 A  
HETATM   19 CL   UNL     1      -5.397   8.914  72.723  1.00  0.00    -0.065 Cl 
HETATM   20  C   UNL     1      -5.735   7.522  71.771  1.00  0.00    -0.036 A  
HETATM   21  C   UNL     1      -6.050   7.655  70.422  1.00  0.00    -0.030 A  
ENDBRANCH  13  14
BRANCH  13  22
HETATM   22  C   UNL     1      -5.859   3.458  68.433  1.00  0.00    -0.023 C  
BRANCH  22  23
HETATM   23  N   UNL     1      -6.511   3.028  67.203  1.00  0.00    -0.036 NA 
HETATM   24  C   UNL     1      -6.536   1.747  66.722  1.00  0.00    -0.031 A  
HETATM   25  N   UNL     1      -7.614   3.111  65.288  1.00  0.00    -0.079 NA 
HETATM   26  C   UNL     1      -7.196   3.812  66.321  1.00  0.00    -0.064 A  
HETATM   27  C   UNL     1      -7.211   1.826  65.527  1.00  0.00    -0.052 A  
ENDBRANCH  22  23
ENDBRANCH  13  22
ENDBRANCH  11  13
ENDBRANCH  10  11
ENDBRANCH   9  10
ENDBRANCH   6   9
TORSDOF 7
ENDMDL
MODEL      366
REMARK 921   NORMALIZED FREE ENERGY PREDICTED BY IDOCK:   -2.35 KCAL/MOL
REMARK 922        TOTAL FREE ENERGY PREDICTED BY IDOCK:   -4.43 KCAL/MOL
REMARK 923 INTER-LIGAND FREE ENERGY PREDICTED BY IDOCK:   -4.44 KCAL/MOL
REMARK 924 INTRA-LIGAND FREE ENERGY PREDICTED BY IDOCK:    0.01 KCAL/MOL
REMARK 927      BINDING AFFINITY PREDICTED BY RF-SCORE:    0.00 PKD
ROOT
HETATM    1 CL   UNL     1      -8.321   9.947  63.519  1.00  0.00    -0.153 Cl 
HETATM    2  C   UNL     1      -8.689   9.751  65.187  1.00  0.00    -0.168 A  
HETATM    3  C   UNL     1      -7.704   9.302  66.063  1.00  0.00    -0.096 A  
HETATM    4  C   UNL     1      -8.032   9.071  67.406  1.00  0.00    -0.100 A  
HETATM    5 CL   UNL     1      -6.755   8.513  68.435  1.00  0.00    -0.063 Cl 
HETATM    6  C   UNL     1      -9.341   9.271  67.895  1.00  0.00    -0.143 A  
HETATM    7  C   UNL     1     -10.295   9.781  67.000  1.00  0.00    -0.305 A  
HETATM    8  C   UNL     1      -9.971  10.017  65.656  1.00  0.00    -0.355 A  
ENDROOT
BRANCH   6   9
HETATM    9  C   UNL     1      -9.720   8.828  69.302  1.00  0.00    -0.172 C  
BRANCH   9  10
HETATM   10  O   UNL     1     -11.002   8.171  69.414  1.00  0.00    -0.146 OA 
BRANCH  10  11
HETATM   11  N   UNL     1     -10.849   6.938  70.093  1.00  0.00    -0.250 NA 
HETATM   12  H   UNL     1     -11.513   6.595  70.787  1.00  0.00     0.000 HD 
BRANCH  11  13
HETATM   13  C   UNL     1      -9.774   6.283  69.745  1.00  0.00    -0.160 C  
BRANCH  13  14
HETATM   14  C   UNL     1      -9.731   5.548  68.423  1.00  0.00    -0.168 A  
HETATM   15 CL   UNL     1      -7.656   3.929  69.278  1.00  0.00    -0.053 Cl 
HETATM   16  C   UNL     1     -10.664   5.892  67.425  1.00  0.00    -0.370 A  
HETATM   17  C   UNL     1      -8.841   4.491  68.151  1.00  0.00    -0.107 A  
HETATM   18  C   UNL     1     -10.747   5.180  66.222  1.00  0.00    -0.272 A  
HETATM   19 CL   UNL     1     -10.009   3.218  64.529  1.00  0.00    -0.146 Cl 
HETATM   20  C   UNL     1      -9.879   4.121  65.987  1.00  0.00    -0.196 A  
HETATM   21  C   UNL     1      -8.919   3.784  66.937  1.00  0.00    -0.154 A  
ENDBRANCH  13  14
BRANCH  13  22
HETATM   22  C   UNL     1      -8.498   6.255  70.584  1.00  0.00    -0.134 C  
BRANCH  22  23
HETATM   23  N   UNL     1      -8.715   6.466  72.009  1.00  0.00    -0.134 NA 
HETATM   24  C   UNL     1      -8.397   7.603  72.702  1.00  0.00    -0.121 A  
HETATM   25  N   UNL     1      -9.260   6.075  74.116  1.00  0.00    -0.129 NA 
HETATM   26  C   UNL     1      -9.257   5.583  72.896  1.00  0.00    -0.134 A  
HETATM   27  C   UNL     1      -8.729   7.331  74.008  1.00  0.00    -0.207 A  
ENDBRANCH  22  23
ENDBRANCH  13  22
ENDBRANCH  11  13
ENDBRANCH  10  11
ENDBRANCH   9  10
ENDBRANCH   6   9
TORSDOF 7
ENDMDL
MODEL      367
REMARK 921   NORMALIZED FREE ENERGY PREDICTED BY IDOCK:   -2.34 KCAL/MOL
REMARK 922        TOTAL FREE ENERGY PREDICTED BY IDOCK:   -4.41 KCAL/MOL
REMARK 923 INTER-LIGAND FREE ENERGY PREDICTED BY IDOCK:   -3.57 KCAL/MOL
REMARK 924 INTRA-LIGAND FREE ENERGY PREDICTED BY IDOCK:   -0.84 KCAL/MOL
REMARK 927      BINDING AFFINITY PREDICTED BY RF-SCORE:    0.00 PKD
ROOT
HETATM    1 CL   UNL     1     -13.034  13.209  64.890  1.00  0.00    -0.333 Cl 
HETATM    2  C   UNL     1     -11.735  13.132  66.013  1.00  0.00    -0.379 A  
HETATM    3  C   UNL     1     -10.841  14.197  66.107  1.00  0.00    -0.296 A  
HETATM    4  C   UNL     1      -9.740  14.096  66.970  1.00  0.00    -0.258 A  
HETATM    5 CL   UNL     1      -8.674  15.459  67.033  1.00  0.00    -0.234 Cl 
HETATM    6  C   UNL     1      -9.505  12.936  67.738  1.00  0.00    -0.202 A  
HETATM    7  C   UNL     1     -10.456  11.906  67.664  1.00  0.00    -0.232 A  
HETATM    8  C   UNL     1     -11.561  12.004  66.807  1.00  0.00    -0.391 A  
ENDROOT
BRANCH   6   9
HETATM    9  C   UNL     1      -8.204  12.770  68.514  1.00  0.00    -0.068 C  
BRANCH   9  10
HETATM   10  O   UNL     1      -7.998  11.462  69.092  1.00  0.00    -0.071 OA 
BRANCH  10  11
HETATM   11  N   UNL     1      -6.830  10.878  68.546  1.00  0.00    -0.057 NA 
HETATM   12  H   UNL     1      -6.182  11.383  67.941  1.00  0.00     0.000 HD 
BRANCH  11  13
HETATM   13  C   UNL     1      -6.662   9.629  68.892  1.00  0.00    -0.046 C  
BRANCH  13  14
HETATM   14  C   UNL     1      -7.376   8.532  68.134  1.00  0.00    -0.092 A  
HETATM   15 CL   UNL     1      -5.159   8.044  66.553  1.00  0.00    -0.024 Cl 
HETATM   16  C   UNL     1      -8.693   8.198  68.506  1.00  0.00    -0.134 A  
HETATM   17  C   UNL     1      -6.776   7.779  67.106  1.00  0.00    -0.068 A  
HETATM   18  C   UNL     1      -9.372   7.123  67.917  1.00  0.00    -0.128 A  
HETATM   19 CL   UNL     1      -9.563   5.027  66.235  1.00  0.00    -0.159 Cl 
HETATM   20  C   UNL     1      -8.748   6.374  66.927  1.00  0.00    -0.115 A  
HETATM   21  C   UNL     1      -7.463   6.707  66.509  1.00  0.00    -0.078 A  
ENDBRANCH  13  14
BRANCH  13  22
HETATM   22  C   UNL     1      -5.719   9.187  70.009  1.00  0.00    -0.031 C  
BRANCH  22  23
HETATM   23  N   UNL     1      -6.395   8.719  71.211  1.00  0.00    -0.052 NA 
HETATM   24  C   UNL     1      -7.652   9.085  71.610  1.00  0.00     0.066 A  
HETATM   25  N   UNL     1      -6.757   7.684  73.132  1.00  0.00    -0.067 NA 
HETATM   26  C   UNL     1      -5.904   7.852  72.144  1.00  0.00    -0.036 A  
HETATM   27  C   UNL     1      -7.848   8.443  72.810  1.00  0.00    -0.080 A  
ENDBRANCH  22  23
ENDBRANCH  13  22
ENDBRANCH  11  13
ENDBRANCH  10  11
ENDBRANCH   9  10
ENDBRANCH   6   9
TORSDOF 7
ENDMDL
MODEL      368
REMARK 921   NORMALIZED FREE ENERGY PREDICTED BY IDOCK:   -2.31 KCAL/MOL
REMARK 922        TOTAL FREE ENERGY PREDICTED BY IDOCK:   -4.38 KCAL/MOL
REMARK 923 INTER-LIGAND FREE ENERGY PREDICTED BY IDOCK:   -5.33 KCAL/MOL
REMARK 924 INTRA-LIGAND FREE ENERGY PREDICTED BY IDOCK:    0.95 KCAL/MOL
REMARK 927      BINDING AFFINITY PREDICTED BY RF-SCORE:    0.00 PKD
ROOT
HETATM    1 CL   UNL     1      -8.599  19.803  67.763  1.00  0.00    -0.361 Cl 
HETATM    2  C   UNL     1      -8.596  18.100  67.525  1.00  0.00    -0.249 A  
HETATM    3  C   UNL     1      -9.476  17.530  66.608  1.00  0.00    -0.285 A  
HETATM    4  C   UNL     1      -9.523  16.136  66.475  1.00  0.00    -0.264 A  
HETATM    5 CL   UNL     1     -10.641  15.501  65.314  1.00  0.00    -0.418 Cl 
HETATM    6  C   UNL     1      -8.708  15.290  67.256  1.00  0.00    -0.216 A  
HETATM    7  C   UNL     1      -7.791  15.898  68.129  1.00  0.00    -0.134 A  
HETATM    8  C   UNL     1      -7.738  17.292  68.262  1.00  0.00    -0.234 A  
ENDROOT
BRANCH   6   9
HETATM    9  C   UNL     1      -8.914  13.780  67.238  1.00  0.00    -0.224 C  
BRANCH   9  10
HETATM   10  O   UNL     1      -9.004  13.157  68.539  1.00  0.00    -0.149 OA 
BRANCH  10  11
HETATM   11  N   UNL     1     -10.344  12.775  68.793  1.00  0.00    -0.398 NA 
HETATM   12  H   UNL     1     -11.068  13.433  69.083  1.00  0.00     0.000 HD 
BRANCH  11  13
HETATM   13  C   UNL     1     -10.562  11.499  68.621  1.00  0.00    -0.208 C  
BRANCH  13  14
HETATM   14  C   UNL     1      -9.539  10.646  67.903  1.00  0.00    -0.174 A  
HETATM   15 CL   UNL     1      -7.962  10.455  70.169  1.00  0.00     0.069 Cl 
HETATM   16  C   UNL     1      -9.774  10.291  66.560  1.00  0.00    -0.243 A  
HETATM   17  C   UNL     1      -8.381  10.136  68.521  1.00  0.00    -0.116 A  
HETATM   18  C   UNL     1      -8.921   9.419  65.871  1.00  0.00    -0.217 A  
HETATM   19 CL   UNL     1      -6.779   7.797  65.682  1.00  0.00    -0.045 Cl 
HETATM   20  C   UNL     1      -7.802   8.903  66.512  1.00  0.00    -0.100 A  
HETATM   21  C   UNL     1      -7.520   9.269  67.824  1.00  0.00    -0.088 A  
ENDBRANCH  13  14
BRANCH  13  22
HETATM   22  C   UNL     1     -11.794  10.777  69.162  1.00  0.00    -0.275 C  
BRANCH  22  23
HETATM   23  N   UNL     1     -11.506   9.502  69.804  1.00  0.00    -0.088 NA 
HETATM   24  C   UNL     1     -10.755   8.492  69.265  1.00  0.00    -0.133 A  
HETATM   25  N   UNL     1     -11.529   7.858  71.284  1.00  0.00    -0.261 NA 
HETATM   26  C   UNL     1     -11.929   9.087  71.033  1.00  0.00    -0.269 A  
HETATM   27  C   UNL     1     -10.797   7.479  70.193  1.00  0.00    -0.249 A  
ENDBRANCH  22  23
ENDBRANCH  13  22
ENDBRANCH  11  13
ENDBRANCH  10  11
ENDBRANCH   9  10
ENDBRANCH   6   9
TORSDOF 7
ENDMDL
MODEL      369
REMARK 921   NORMALIZED FREE ENERGY PREDICTED BY IDOCK:   -2.26 KCAL/MOL
REMARK 922        TOTAL FREE ENERGY PREDICTED BY IDOCK:   -4.31 KCAL/MOL
REMARK 923 INTER-LIGAND FREE ENERGY PREDICTED BY IDOCK:   -2.94 KCAL/MOL
REMARK 924 INTRA-LIGAND FREE ENERGY PREDICTED BY IDOCK:   -1.37 KCAL/MOL
REMARK 927      BINDING AFFINITY PREDICTED BY RF-SCORE:    0.00 PKD
ROOT
HETATM    1 CL   UNL     1     -10.236   8.655  66.676  1.00  0.00    -0.360 Cl 
HETATM    2  C   UNL     1      -9.029   8.522  67.893  1.00  0.00    -0.137 A  
HETATM    3  C   UNL     1      -7.749   8.093  67.552  1.00  0.00    -0.102 A  
HETATM    4  C   UNL     1      -6.792   7.913  68.560  1.00  0.00    -0.067 A  
HETATM    5 CL   UNL     1      -5.223   7.378  68.059  1.00  0.00    -0.024 Cl 
HETATM    6  C   UNL     1      -7.096   8.143  69.919  1.00  0.00    -0.059 A  
HETATM    7  C   UNL     1      -8.377   8.630  70.223  1.00  0.00    -0.129 A  
HETATM    8  C   UNL     1      -9.336   8.816  69.217  1.00  0.00    -0.149 A  
ENDROOT
BRANCH   6   9
HETATM    9  C   UNL     1      -6.108   7.753  71.011  1.00  0.00    -0.034 C  
BRANCH   9  10
HETATM   10  O   UNL     1      -5.503   6.449  70.855  1.00  0.00    -0.018 OA 
BRANCH  10  11
HETATM   11  N   UNL     1      -5.835   5.634  71.964  1.00  0.00    -0.028 NA 
HETATM   12  H   UNL     1      -5.411   5.744  72.886  1.00  0.00     0.000 HD 
BRANCH  11  13
HETATM   13  C   UNL     1      -6.736   4.729  71.693  1.00  0.00    -0.039 C  
BRANCH  13  14
HETATM   14  C   UNL     1      -8.206   5.082  71.757  1.00  0.00    -0.116 A  
HETATM   15 CL   UNL     1      -8.098   5.461  74.495  1.00  0.00    -0.104 Cl 
HETATM   16  C   UNL     1      -8.947   5.120  70.559  1.00  0.00    -0.165 A  
HETATM   17  C   UNL     1      -8.870   5.431  72.948  1.00  0.00    -0.121 A  
HETATM   18  C   UNL     1     -10.282   5.542  70.535  1.00  0.00    -0.311 A  
HETATM   19 CL   UNL     1     -12.534   6.473  71.685  1.00  0.00    -0.345 Cl 
HETATM   20  C   UNL     1     -10.908   5.913  71.719  1.00  0.00    -0.260 A  
HETATM   21  C   UNL     1     -10.215   5.844  72.924  1.00  0.00    -0.212 A  
ENDBRANCH  13  14
BRANCH  13  22
HETATM   22  C   UNL     1      -6.393   3.309  71.248  1.00  0.00    -0.018 C  
BRANCH  22  23
HETATM   23  N   UNL     1      -6.357   3.128  69.803  1.00  0.00    -0.028 NA 
HETATM   24  C   UNL     1      -6.932   2.092  69.117  1.00  0.00    -0.036 A  
HETATM   25  N   UNL     1      -5.868   3.453  67.671  1.00  0.00    -0.022 NA 
HETATM   26  C   UNL     1      -5.751   3.939  68.889  1.00  0.00    -0.022 A  
HETATM   27  C   UNL     1      -6.602   2.307  67.800  1.00  0.00    -0.035 A  
ENDBRANCH  22  23
ENDBRANCH  13  22
ENDBRANCH  11  13
ENDBRANCH  10  11
ENDBRANCH   9  10
ENDBRANCH   6   9
TORSDOF 7
ENDMDL
MODEL      370
REMARK 921   NORMALIZED FREE ENERGY PREDICTED BY IDOCK:   -2.24 KCAL/MOL
REMARK 922        TOTAL FREE ENERGY PREDICTED BY IDOCK:   -4.28 KCAL/MOL
REMARK 923 INTER-LIGAND FREE ENERGY PREDICTED BY IDOCK:   -3.49 KCAL/MOL
REMARK 924 INTRA-LIGAND FREE ENERGY PREDICTED BY IDOCK:   -0.79 KCAL/MOL
REMARK 927      BINDING AFFINITY PREDICTED BY RF-SCORE:    0.00 PKD
ROOT
HETATM    1 CL   UNL     1     -11.252  11.475  63.776  1.00  0.00    -0.483 Cl 
HETATM    2  C   UNL     1      -9.958  11.513  64.906  1.00  0.00    -0.259 A  
HETATM    3  C   UNL     1      -8.812  10.758  64.669  1.00  0.00    -0.155 A  
HETATM    4  C   UNL     1      -7.793  10.733  65.631  1.00  0.00    -0.076 A  
HETATM    5 CL   UNL     1      -6.399   9.772  65.265  1.00  0.00    -0.081 Cl 
HETATM    6  C   UNL     1      -7.902  11.445  66.844  1.00  0.00    -0.158 A  
HETATM    7  C   UNL     1      -9.043  12.243  67.026  1.00  0.00    -0.201 A  
HETATM    8  C   UNL     1     -10.063  12.275  66.065  1.00  0.00    -0.269 A  
ENDROOT
BRANCH   6   9
HETATM    9  C   UNL     1      -6.878  11.248  67.954  1.00  0.00    -0.068 C  
BRANCH   9  10
HETATM   10  O   UNL     1      -6.703   9.881  68.392  1.00  0.00    -0.055 OA 
BRANCH  10  11
HETATM   11  N   UNL     1      -7.625   9.591  69.426  1.00  0.00    -0.084 NA 
HETATM   12  H   UNL     1      -7.799  10.216  70.213  1.00  0.00     0.000 HD 
BRANCH  11  13
HETATM   13  C   UNL     1      -8.231   8.443  69.275  1.00  0.00    -0.116 C  
BRANCH  13  14
HETATM   14  C   UNL     1      -7.668   7.410  68.324  1.00  0.00    -0.120 A  
HETATM   15 CL   UNL     1      -9.699   7.841  66.495  1.00  0.00    -0.282 Cl 
HETATM   16  C   UNL     1      -6.470   6.753  68.669  1.00  0.00    -0.040 A  
HETATM   17  C   UNL     1      -8.247   7.103  67.078  1.00  0.00    -0.117 A  
HETATM   18  C   UNL     1      -5.841   5.865  67.787  1.00  0.00    -0.013 A  
HETATM   19 CL   UNL     1      -5.619   4.546  65.449  1.00  0.00    -0.013 Cl 
HETATM   20  C   UNL     1      -6.414   5.602  66.549  1.00  0.00    -0.050 A  
HETATM   21  C   UNL     1      -7.619   6.203  66.198  1.00  0.00    -0.090 A  
ENDBRANCH  13  14
BRANCH  13  22
HETATM   22  C   UNL     1      -9.478   8.042  70.060  1.00  0.00    -0.160 C  
BRANCH  22  23
HETATM   23  N   UNL     1      -9.699   6.605  70.138  1.00  0.00    -0.164 NA 
HETATM   24  C   UNL     1      -8.814   5.690  70.640  1.00  0.00    -0.138 A  
HETATM   25  N   UNL     1     -10.654   4.625  69.895  1.00  0.00     0.255 NA 
HETATM   26  C   UNL     1     -10.806   5.922  69.725  1.00  0.00    -0.377 A  
HETATM   27  C   UNL     1      -9.421   4.469  70.464  1.00  0.00    -0.176 A  
ENDBRANCH  22  23
ENDBRANCH  13  22
ENDBRANCH  11  13
ENDBRANCH  10  11
ENDBRANCH   9  10
ENDBRANCH   6   9
TORSDOF 7
ENDMDL
MODEL      371
REMARK 921   NORMALIZED FREE ENERGY PREDICTED BY IDOCK:   -2.22 KCAL/MOL
REMARK 922        TOTAL FREE ENERGY PREDICTED BY IDOCK:   -4.25 KCAL/MOL
REMARK 923 INTER-LIGAND FREE ENERGY PREDICTED BY IDOCK:   -3.45 KCAL/MOL
REMARK 924 INTRA-LIGAND FREE ENERGY PREDICTED BY IDOCK:   -0.80 KCAL/MOL
REMARK 927      BINDING AFFINITY PREDICTED BY RF-SCORE:    0.00 PKD
ROOT
HETATM    1 CL   UNL     1     -10.320  11.425  66.160  1.00  0.00    -0.283 Cl 
HETATM    2  C   UNL     1      -9.445  10.058  66.726  1.00  0.00    -0.168 A  
HETATM    3  C   UNL     1     -10.136   8.935  67.177  1.00  0.00    -0.316 A  
HETATM    4  C   UNL     1      -9.419   7.854  67.708  1.00  0.00    -0.144 A  
HETATM    5 CL   UNL     1     -10.347   6.494  68.248  1.00  0.00    -0.191 Cl 
HETATM    6  C   UNL     1      -8.012   7.877  67.811  1.00  0.00    -0.124 A  
HETATM    7  C   UNL     1      -7.343   8.998  67.294  1.00  0.00    -0.084 A  
HETATM    8  C   UNL     1      -8.055  10.080  66.758  1.00  0.00    -0.118 A  
ENDROOT
BRANCH   6   9
HETATM    9  C   UNL     1      -7.272   6.783  68.569  1.00  0.00    -0.085 C  
BRANCH   9  10
HETATM   10  O   UNL     1      -7.114   5.538  67.850  1.00  0.00    -0.067 OA 
BRANCH  10  11
HETATM   11  N   UNL     1      -6.611   4.544  68.723  1.00  0.00    -0.044 NA 
HETATM   12  H   UNL     1      -5.615   4.397  68.890  1.00  0.00     0.000 HD 
BRANCH  11  13
HETATM   13  C   UNL     1      -7.546   3.832  69.294  1.00  0.00    -0.053 C  
BRANCH  13  14
HETATM   14  C   UNL     1      -8.105   4.253  70.636  1.00  0.00    -0.063 A  
HETATM   15 CL   UNL     1      -5.572   4.557  71.707  1.00  0.00    -0.011 Cl 
HETATM   16  C   UNL     1      -9.501   4.357  70.786  1.00  0.00    -0.243 A  
HETATM   17  C   UNL     1      -7.300   4.604  71.737  1.00  0.00    -0.070 A  
HETATM   18  C   UNL     1     -10.078   4.843  71.967  1.00  0.00    -0.256 A  
HETATM   19 CL   UNL     1      -9.968   5.851  74.462  1.00  0.00    -0.264 Cl 
HETATM   20  C   UNL     1      -9.264   5.213  73.029  1.00  0.00    -0.123 A  
HETATM   21  C   UNL     1      -7.882   5.081  72.926  1.00  0.00    -0.098 A  
ENDBRANCH  13  14
BRANCH  13  22
HETATM   22  C   UNL     1      -8.170   2.596  68.651  1.00  0.00    -0.059 C  
BRANCH  22  23
HETATM   23  N   UNL     1      -8.445   2.736  67.228  1.00  0.00    -0.091 NA 
HETATM   24  C   UNL     1      -7.769   2.102  66.221  1.00  0.00    -0.071 A  
HETATM   25  N   UNL     1      -9.345   3.447  65.337  1.00  0.00    -0.155 NA 
HETATM   26  C   UNL     1      -9.404   3.515  66.651  1.00  0.00    -0.175 A  
HETATM   27  C   UNL     1      -8.334   2.570  65.059  1.00  0.00    -0.090 A  
ENDBRANCH  22  23
ENDBRANCH  13  22
ENDBRANCH  11  13
ENDBRANCH  10  11
ENDBRANCH   9  10
ENDBRANCH   6   9
TORSDOF 7
ENDMDL
MODEL      372
REMARK 921   NORMALIZED FREE ENERGY PREDICTED BY IDOCK:   -1.94 KCAL/MOL
REMARK 922        TOTAL FREE ENERGY PREDICTED BY IDOCK:   -3.85 KCAL/MOL
REMARK 923 INTER-LIGAND FREE ENERGY PREDICTED BY IDOCK:   -3.45 KCAL/MOL
REMARK 924 INTRA-LIGAND FREE ENERGY PREDICTED BY IDOCK:   -0.40 KCAL/MOL
REMARK 927      BINDING AFFINITY PREDICTED BY RF-SCORE:    0.00 PKD
ROOT
HETATM    1 CL   UNL     1      -8.748  10.654  64.313  1.00  0.00    -0.168 Cl 
HETATM    2  C   UNL     1      -9.254   9.587  65.562  1.00  0.00    -0.234 A  
HETATM    3  C   UNL     1      -9.362   8.223  65.303  1.00  0.00     0.334 A  
HETATM    4  C   UNL     1      -9.848   7.369  66.302  1.00  0.00     0.028 A  
HETATM    5 CL   UNL     1      -9.955   5.686  65.905  1.00  0.00    -0.022 Cl 
HETATM    6  C   UNL     1     -10.245   7.857  67.565  1.00  0.00    -0.308 A  
HETATM    7  C   UNL     1     -10.067   9.227  67.815  1.00  0.00    -0.253 A  
HETATM    8  C   UNL     1      -9.577  10.085  66.820  1.00  0.00    -0.228 A  
ENDROOT
BRANCH   6   9
HETATM    9  C   UNL     1     -10.951   6.947  68.562  1.00  0.00    -0.136 C  
BRANCH   9  10
HETATM   10  O   UNL     1     -10.714   7.259  69.953  1.00  0.00    -0.233 OA 
BRANCH  10  11
HETATM   11  N   UNL     1     -11.086   6.157  70.760  1.00  0.00    -0.303 NA 
HETATM   12  H   UNL     1     -12.056   5.884  70.921  1.00  0.00     0.000 HD 
BRANCH  11  13
HETATM   13  C   UNL     1     -10.068   5.523  71.276  1.00  0.00    -0.207 C  
BRANCH  13  14
HETATM   14  C   UNL     1      -9.045   6.277  72.099  1.00  0.00    -0.141 A  
HETATM   15 CL   UNL     1      -7.092   5.929  70.170  1.00  0.00    -0.068 Cl 
HETATM   16  C   UNL     1      -9.441   6.827  73.334  1.00  0.00    -0.177 A  
HETATM   17  C   UNL     1      -7.724   6.511  71.671  1.00  0.00    -0.099 A  
HETATM   18  C   UNL     1      -8.574   7.625  74.092  1.00  0.00    -0.296 A  
HETATM   19 CL   UNL     1      -6.236   8.884  74.544  1.00  0.00    -0.149 Cl 
HETATM   20  C   UNL     1      -7.286   7.869  73.635  1.00  0.00    -0.132 A  
HETATM   21  C   UNL     1      -6.853   7.304  72.440  1.00  0.00    -0.063 A  
ENDBRANCH  13  14
BRANCH  13  22
HETATM   22  C   UNL     1      -9.864   4.015  71.149  1.00  0.00    -0.166 C  
BRANCH  22  23
HETATM   23  N   UNL     1      -9.351   3.377  72.354  1.00  0.00    -0.107 NA 
HETATM   24  C   UNL     1     -10.077   2.594  73.210  1.00  0.00    -0.116 A  
HETATM   25  N   UNL     1      -7.968   2.795  73.978  1.00  0.00    -0.059 NA 
HETATM   26  C   UNL     1      -8.079   3.448  72.841  1.00  0.00    -0.080 A  
HETATM   27  C   UNL     1      -9.203   2.259  74.217  1.00  0.00    -0.073 A  
ENDBRANCH  22  23
ENDBRANCH  13  22
ENDBRANCH  11  13
ENDBRANCH  10  11
ENDBRANCH   9  10
ENDBRANCH   6   9
TORSDOF 7
ENDMDL
MODEL      373
REMARK 921   NORMALIZED FREE ENERGY PREDICTED BY IDOCK:   -1.75 KCAL/MOL
REMARK 922        TOTAL FREE ENERGY PREDICTED BY IDOCK:   -3.58 KCAL/MOL
REMARK 923 INTER-LIGAND FREE ENERGY PREDICTED BY IDOCK:   -3.82 KCAL/MOL
REMARK 924 INTRA-LIGAND FREE ENERGY PREDICTED BY IDOCK:    0.24 KCAL/MOL
REMARK 927      BINDING AFFINITY PREDICTED BY RF-SCORE:    0.00 PKD
ROOT
HETATM    1 CL   UNL     1      -9.137   9.513  63.953  1.00  0.00    -0.236 Cl 
HETATM    2  C   UNL     1      -8.699  10.035  65.531  1.00  0.00    -0.155 A  
HETATM    3  C   UNL     1      -7.354  10.088  65.892  1.00  0.00    -0.115 A  
HETATM    4  C   UNL     1      -7.007  10.441  67.203  1.00  0.00    -0.088 A  
HETATM    5 CL   UNL     1      -5.316  10.485  67.576  1.00  0.00    -0.040 Cl 
HETATM    6  C   UNL     1      -7.987  10.733  68.175  1.00  0.00    -0.114 A  
HETATM    7  C   UNL     1      -9.330  10.729  67.764  1.00  0.00    -0.158 A  
HETATM    8  C   UNL     1      -9.682  10.381  66.452  1.00  0.00    -0.250 A  
ENDROOT
BRANCH   6   9
HETATM    9  C   UNL     1      -7.598  10.920  69.636  1.00  0.00     0.023 C  
BRANCH   9  10
HETATM   10  O   UNL     1      -8.170   9.957  70.551  1.00  0.00    -0.206 OA 
BRANCH  10  11
HETATM   11  N   UNL     1      -8.874   8.968  69.823  1.00  0.00    -0.144 NA 
HETATM   12  H   UNL     1      -9.012   9.008  68.813  1.00  0.00     0.000 HD 
BRANCH  11  13
HETATM   13  C   UNL     1      -9.330   7.998  70.570  1.00  0.00    -0.155 C  
BRANCH  13  14
HETATM   14  C   UNL     1      -8.897   6.572  70.307  1.00  0.00    -0.151 A  
HETATM   15 CL   UNL     1      -6.841   6.752  72.151  1.00  0.00    -0.062 Cl 
HETATM   16  C   UNL     1      -9.632   5.798  69.388  1.00  0.00    -0.179 A  
HETATM   17  C   UNL     1      -7.824   5.950  70.975  1.00  0.00    -0.110 A  
HETATM   18  C   UNL     1      -9.350   4.443  69.178  1.00  0.00    -0.221 A  
HETATM   19 CL   UNL     1      -7.987   2.167  69.648  1.00  0.00    -0.050 Cl 
HETATM   20  C   UNL     1      -8.307   3.842  69.872  1.00  0.00    -0.055 A  
HETATM   21  C   UNL     1      -7.535   4.591  70.755  1.00  0.00    -0.052 A  
ENDBRANCH  13  14
BRANCH  13  22
HETATM   22  C   UNL     1     -10.256   8.221  71.764  1.00  0.00    -0.230 C  
BRANCH  22  23
HETATM   23  N   UNL     1     -10.772   6.996  72.358  1.00  0.00    -0.222 NA 
HETATM   24  C   UNL     1     -10.122   6.224  73.282  1.00  0.00    -0.195 A  
HETATM   25  N   UNL     1     -12.102   5.278  72.772  1.00  0.00    -0.047 NA 
HETATM   26  C   UNL     1     -11.974   6.403  72.100  1.00  0.00    -0.298 A  
HETATM   27  C   UNL     1     -10.958   5.158  73.511  1.00  0.00    -0.310 A  
ENDBRANCH  22  23
ENDBRANCH  13  22
ENDBRANCH  11  13
ENDBRANCH  10  11
ENDBRANCH   9  10
ENDBRANCH   6   9
TORSDOF 7
ENDMDL
MODEL      374
REMARK 921   NORMALIZED FREE ENERGY PREDICTED BY IDOCK:   -1.63 KCAL/MOL
REMARK 922        TOTAL FREE ENERGY PREDICTED BY IDOCK:   -3.42 KCAL/MOL
REMARK 923 INTER-LIGAND FREE ENERGY PREDICTED BY IDOCK:   -2.68 KCAL/MOL
REMARK 924 INTRA-LIGAND FREE ENERGY PREDICTED BY IDOCK:   -0.74 KCAL/MOL
REMARK 927      BINDING AFFINITY PREDICTED BY RF-SCORE:    0.00 PKD
ROOT
HETATM    1 CL   UNL     1      -8.970  11.924  68.566  1.00  0.00    -0.155 Cl 
HETATM    2  C   UNL     1      -9.221  10.257  68.902  1.00  0.00    -0.175 A  
HETATM    3  C   UNL     1      -9.869   9.879  70.075  1.00  0.00    -0.291 A  
HETATM    4  C   UNL     1     -10.003   8.518  70.380  1.00  0.00    -0.183 A  
HETATM    5 CL   UNL     1     -10.821   8.126  71.856  1.00  0.00    -0.312 Cl 
HETATM    6  C   UNL     1      -9.484   7.515  69.533  1.00  0.00    -0.156 A  
HETATM    7  C   UNL     1      -8.889   7.927  68.330  1.00  0.00    -0.130 A  
HETATM    8  C   UNL     1      -8.757   9.288  68.019  1.00  0.00    -0.125 A  
ENDROOT
BRANCH   6   9
HETATM    9  C   UNL     1      -9.465   6.058  69.978  1.00  0.00    -0.156 C  
BRANCH   9  10
HETATM   10  O   UNL     1      -8.498   5.223  69.301  1.00  0.00    -0.099 OA 
BRANCH  10  11
HETATM   11  N   UNL     1      -7.544   4.747  70.233  1.00  0.00    -0.057 NA 
HETATM   12  H   UNL     1      -7.202   5.303  71.016  1.00  0.00     0.000 HD 
BRANCH  11  13
HETATM   13  C   UNL     1      -7.145   3.527  69.991  1.00  0.00    -0.041 C  
BRANCH  13  14
HETATM   14  C   UNL     1      -7.086   3.018  68.567  1.00  0.00    -0.049 A  
HETATM   15 CL   UNL     1      -9.559   1.798  68.795  1.00  0.00    -0.195 Cl 
HETATM   16  C   UNL     1      -5.972   3.354  67.773  1.00  0.00    -0.027 A  
HETATM   17  C   UNL     1      -8.115   2.268  67.967  1.00  0.00    -0.058 A  
HETATM   18  C   UNL     1      -5.905   3.006  66.418  1.00  0.00    -0.023 A  
HETATM   19 CL   UNL     1      -6.886   1.903  64.165  1.00  0.00    -0.030 Cl 
HETATM   20  C   UNL     1      -6.947   2.293  65.838  1.00  0.00    -0.044 A  
HETATM   21  C   UNL     1      -8.041   1.910  66.608  1.00  0.00    -0.079 A  
ENDBRANCH  13  14
BRANCH  13  22
HETATM   22  C   UNL     1      -6.667   2.568  71.080  1.00  0.00    -0.031 C  
BRANCH  22  23
HETATM   23  N   UNL     1      -7.205   2.850  72.403  1.00  0.00    -0.038 NA 
HETATM   24  C   UNL     1      -8.522   2.756  72.763  1.00  0.00    -0.071 A  
HETATM   25  N   UNL     1      -7.311   3.471  74.523  1.00  0.00    -0.052 NA 
HETATM   26  C   UNL     1      -6.507   3.258  73.503  1.00  0.00    -0.028 A  
HETATM   27  C   UNL     1      -8.565   3.161  74.076  1.00  0.00    -0.073 A  
ENDBRANCH  22  23
ENDBRANCH  13  22
ENDBRANCH  11  13
ENDBRANCH  10  11
ENDBRANCH   9  10
ENDBRANCH   6   9
TORSDOF 7
ENDMDL
MODEL      375
REMARK 921   NORMALIZED FREE ENERGY PREDICTED BY IDOCK:   -1.53 KCAL/MOL
REMARK 922        TOTAL FREE ENERGY PREDICTED BY IDOCK:   -3.28 KCAL/MOL
REMARK 923 INTER-LIGAND FREE ENERGY PREDICTED BY IDOCK:   -2.07 KCAL/MOL
REMARK 924 INTRA-LIGAND FREE ENERGY PREDICTED BY IDOCK:   -1.21 KCAL/MOL
REMARK 927      BINDING AFFINITY PREDICTED BY RF-SCORE:    0.00 PKD
ROOT
HETATM    1 CL   UNL     1     -11.210   9.968  67.925  1.00  0.00    -0.262 Cl 
HETATM    2  C   UNL     1     -10.627   8.353  67.993  1.00  0.00    -0.130 A  
HETATM    3  C   UNL     1     -10.996   7.444  67.004  1.00  0.00    -0.172 A  
HETATM    4  C   UNL     1     -10.579   6.110  67.106  1.00  0.00    -0.305 A  
HETATM    5 CL   UNL     1     -11.077   5.039  65.838  1.00  0.00    -0.082 Cl 
HETATM    6  C   UNL     1      -9.804   5.657  68.194  1.00  0.00    -0.170 A  
HETATM    7  C   UNL     1      -9.399   6.610  69.142  1.00  0.00    -0.134 A  
HETATM    8  C   UNL     1      -9.810   7.947  69.042  1.00  0.00    -0.171 A  
ENDROOT
BRANCH   6   9
HETATM    9  C   UNL     1      -9.531   4.171  68.387  1.00  0.00    -0.151 C  
BRANCH   9  10
HETATM   10  O   UNL     1      -8.334   3.859  69.136  1.00  0.00    -0.071 OA 
BRANCH  10  11
HETATM   11  N   UNL     1      -7.194   4.074  68.325  1.00  0.00    -0.058 NA 
HETATM   12  H   UNL     1      -7.180   3.897  67.320  1.00  0.00     0.000 HD 
BRANCH  11  13
HETATM   13  C   UNL     1      -6.161   4.521  68.988  1.00  0.00    -0.031 C  
BRANCH  13  14
HETATM   14  C   UNL     1      -5.896   4.031  70.395  1.00  0.00    -0.017 A  
HETATM   15 CL   UNL     1      -6.993   6.317  71.503  1.00  0.00    -0.074 Cl 
HETATM   16  C   UNL     1      -5.316   2.760  70.572  1.00  0.00    -0.008 A  
HETATM   17  C   UNL     1      -6.248   4.756  71.549  1.00  0.00    -0.018 A  
HETATM   18  C   UNL     1      -5.142   2.204  71.846  1.00  0.00     0.000 A  
HETATM   19 CL   UNL     1      -5.354   2.225  74.532  1.00  0.00     0.000 Cl 
HETATM   20  C   UNL     1      -5.527   2.924  72.970  1.00  0.00     0.000 A  
HETATM   21  C   UNL     1      -6.063   4.201  72.828  1.00  0.00    -0.016 A  
ENDBRANCH  13  14
BRANCH  13  22
HETATM   22  C   UNL     1      -5.141   5.493  68.399  1.00  0.00    -0.003 C  
BRANCH  22  23
HETATM   23  N   UNL     1      -5.722   6.710  67.851  1.00  0.00    -0.012 NA 
HETATM   24  C   UNL     1      -5.999   6.935  66.529  1.00  0.00    -0.033 A  
HETATM   25  N   UNL     1      -6.529   8.766  67.730  1.00  0.00    -0.060 NA 
HETATM   26  C   UNL     1      -6.083   7.830  68.542  1.00  0.00    -0.036 A  
HETATM   27  C   UNL     1      -6.483   8.220  66.478  1.00  0.00    -0.055 A  
ENDBRANCH  22  23
ENDBRANCH  13  22
ENDBRANCH  11  13
ENDBRANCH  10  11
ENDBRANCH   9  10
ENDBRANCH   6   9
TORSDOF 7
ENDMDL
MODEL      376
REMARK 921   NORMALIZED FREE ENERGY PREDICTED BY IDOCK:   -1.44 KCAL/MOL
REMARK 922        TOTAL FREE ENERGY PREDICTED BY IDOCK:   -3.14 KCAL/MOL
REMARK 923 INTER-LIGAND FREE ENERGY PREDICTED BY IDOCK:   -3.05 KCAL/MOL
REMARK 924 INTRA-LIGAND FREE ENERGY PREDICTED BY IDOCK:   -0.09 KCAL/MOL
REMARK 927      BINDING AFFINITY PREDICTED BY RF-SCORE:    0.00 PKD
ROOT
HETATM    1 CL   UNL     1      -9.400   9.536  64.538  1.00  0.00    -0.245 Cl 
HETATM    2  C   UNL     1      -8.734  10.064  66.032  1.00  0.00    -0.138 A  
HETATM    3  C   UNL     1      -7.365   9.941  66.259  1.00  0.00    -0.102 A  
HETATM    4  C   UNL     1      -6.839  10.302  67.507  1.00  0.00    -0.072 A  
HETATM    5 CL   UNL     1      -5.129  10.123  67.713  1.00  0.00    -0.031 Cl 
HETATM    6  C   UNL     1      -7.664  10.776  68.549  1.00  0.00    -0.118 A  
HETATM    7  C   UNL     1      -9.030  10.943  68.269  1.00  0.00    -0.150 A  
HETATM    8  C   UNL     1      -9.560  10.587  67.021  1.00  0.00    -0.202 A  
ENDROOT
BRANCH   6   9
HETATM    9  C   UNL     1      -7.105  10.973  69.952  1.00  0.00     0.016 C  
BRANCH   9  10
HETATM   10  O   UNL     1      -7.468   9.950  70.907  1.00  0.00    -0.314 OA 
BRANCH  10  11
HETATM   11  N   UNL     1      -6.331   9.170  71.226  1.00  0.00    -0.075 NA 
HETATM   12  H   UNL     1      -5.374   9.485  71.066  1.00  0.00     0.000 HD 
BRANCH  11  13
HETATM   13  C   UNL     1      -6.626   8.007  71.743  1.00  0.00    -0.052 C  
BRANCH  13  14
HETATM   14  C   UNL     1      -7.445   7.012  70.951  1.00  0.00    -0.082 A  
HETATM   15 CL   UNL     1      -9.809   7.924  72.063  1.00  0.00    -0.232 Cl 
HETATM   16  C   UNL     1      -6.785   6.158  70.046  1.00  0.00    -0.056 A  
HETATM   17  C   UNL     1      -8.849   6.928  71.025  1.00  0.00    -0.140 A  
HETATM   18  C   UNL     1      -7.495   5.289  69.206  1.00  0.00    -0.062 A  
HETATM   19 CL   UNL     1      -9.755   4.213  68.213  1.00  0.00    -0.185 Cl 
HETATM   20  C   UNL     1      -8.881   5.246  69.274  1.00  0.00    -0.100 A  
HETATM   21  C   UNL     1      -9.559   6.047  70.188  1.00  0.00    -0.192 A  
ENDBRANCH  13  14
BRANCH  13  22
HETATM   22  C   UNL     1      -6.136   7.550  73.115  1.00  0.00    -0.059 C  
BRANCH  22  23
HETATM   23  N   UNL     1      -6.921   6.473  73.703  1.00  0.00    -0.077 NA 
HETATM   24  C   UNL     1      -6.484   5.194  73.914  1.00  0.00    -0.068 A  
HETATM   25  N   UNL     1      -8.634   5.371  74.564  1.00  0.00    -0.111 NA 
HETATM   26  C   UNL     1      -8.214   6.542  74.134  1.00  0.00    -0.124 A  
HETATM   27  C   UNL     1      -7.567   4.526  74.433  1.00  0.00    -0.081 A  
ENDBRANCH  22  23
ENDBRANCH  13  22
ENDBRANCH  11  13
ENDBRANCH  10  11
ENDBRANCH   9  10
ENDBRANCH   6   9
TORSDOF 7
ENDMDL
MODEL      377
REMARK 921   NORMALIZED FREE ENERGY PREDICTED BY IDOCK:   -0.95 KCAL/MOL
REMARK 922        TOTAL FREE ENERGY PREDICTED BY IDOCK:   -2.46 KCAL/MOL
REMARK 923 INTER-LIGAND FREE ENERGY PREDICTED BY IDOCK:   -5.14 KCAL/MOL
REMARK 924 INTRA-LIGAND FREE ENERGY PREDICTED BY IDOCK:    2.69 KCAL/MOL
REMARK 927      BINDING AFFINITY PREDICTED BY RF-SCORE:    0.00 PKD
ROOT
HETATM    1 CL   UNL     1      -9.403  19.617  66.935  1.00  0.00    -0.412 Cl 
HETATM    2  C   UNL     1      -9.136  17.919  66.961  1.00  0.00    -0.253 A  
HETATM    3  C   UNL     1      -9.729  17.113  65.993  1.00  0.00    -0.213 A  
HETATM    4  C   UNL     1      -9.570  15.722  66.064  1.00  0.00    -0.353 A  
HETATM    5 CL   UNL     1     -10.337  14.785  64.825  1.00  0.00    -0.355 Cl 
HETATM    6  C   UNL     1      -8.833  15.113  67.102  1.00  0.00    -0.236 A  
HETATM    7  C   UNL     1      -8.199  15.958  68.028  1.00  0.00    -0.150 A  
HETATM    8  C   UNL     1      -8.351  17.350  67.958  1.00  0.00    -0.231 A  
ENDROOT
BRANCH   6   9
HETATM    9  C   UNL     1      -8.838  13.600  67.273  1.00  0.00    -0.224 C  
BRANCH   9  10
HETATM   10  O   UNL     1      -9.176  13.133  68.598  1.00  0.00    -0.109 OA 
BRANCH  10  11
HETATM   11  N   UNL     1     -10.513  12.668  68.613  1.00  0.00    -0.315 NA 
HETATM   12  H   UNL     1     -11.257  13.119  69.146  1.00  0.00     0.000 HD 
BRANCH  11  13
HETATM   13  C   UNL     1     -10.702  11.604  67.878  1.00  0.00    -0.202 C  
BRANCH  13  14
HETATM   14  C   UNL     1      -9.868  11.386  66.635  1.00  0.00    -0.233 A  
HETATM   15 CL   UNL     1      -7.975   9.937  68.039  1.00  0.00    -0.100 Cl 
HETATM   16  C   UNL     1     -10.336  11.894  65.407  1.00  0.00    -0.306 A  
HETATM   17  C   UNL     1      -8.668  10.650  66.624  1.00  0.00    -0.140 A  
HETATM   18  C   UNL     1      -9.666  11.637  64.204  1.00  0.00    -0.207 A  
HETATM   19 CL   UNL     1      -7.703  10.526  62.731  1.00  0.00    -0.141 Cl 
HETATM   20  C   UNL     1      -8.501  10.881  64.212  1.00  0.00     0.108 A  
HETATM   21  C   UNL     1      -7.991  10.401  65.415  1.00  0.00    -0.147 A  
ENDBRANCH  13  14
BRANCH  13  22
HETATM   22  C   UNL     1     -11.701  10.505  68.233  1.00  0.00     0.031 C  
BRANCH  22  23
HETATM   23  N   UNL     1     -12.287  10.634  69.560  1.00  0.00    -0.247 NA 
HETATM   24  C   UNL     1     -12.423  11.803  70.258  1.00  0.00    -0.159 A  
HETATM   25  N   UNL     1     -13.198  10.091  71.500  1.00  0.00    -0.395 NA 
HETATM   26  C   UNL     1     -12.793   9.632  70.335  1.00  0.00     0.245 A  
HETATM   27  C   UNL     1     -12.975  11.439  71.463  1.00  0.00    -0.399 A  
ENDBRANCH  22  23
ENDBRANCH  13  22
ENDBRANCH  11  13
ENDBRANCH  10  11
ENDBRANCH   9  10
ENDBRANCH   6   9
TORSDOF 7
ENDMDL
MODEL      378
REMARK 921   NORMALIZED FREE ENERGY PREDICTED BY IDOCK:   -0.68 KCAL/MOL
REMARK 922        TOTAL FREE ENERGY PREDICTED BY IDOCK:   -2.08 KCAL/MOL
REMARK 923 INTER-LIGAND FREE ENERGY PREDICTED BY IDOCK:   -1.80 KCAL/MOL
REMARK 924 INTRA-LIGAND FREE ENERGY PREDICTED BY IDOCK:   -0.29 KCAL/MOL
REMARK 927      BINDING AFFINITY PREDICTED BY RF-SCORE:    0.00 PKD
ROOT
HETATM    1 CL   UNL     1     -10.989   7.720  66.631  1.00  0.00     0.191 Cl 
HETATM    2  C   UNL     1      -9.967   7.163  67.897  1.00  0.00    -0.154 A  
HETATM    3  C   UNL     1      -8.628   6.887  67.631  1.00  0.00    -0.121 A  
HETATM    4  C   UNL     1      -7.820   6.360  68.648  1.00  0.00    -0.102 A  
HETATM    5 CL   UNL     1      -6.166   6.043  68.242  1.00  0.00    -0.031 Cl 
HETATM    6  C   UNL     1      -8.330   6.089  69.935  1.00  0.00    -0.123 A  
HETATM    7  C   UNL     1      -9.668   6.433  70.186  1.00  0.00    -0.185 A  
HETATM    8  C   UNL     1     -10.480   6.965  69.174  1.00  0.00    -0.224 A  
ENDROOT
BRANCH   6   9
HETATM    9  C   UNL     1      -7.492   5.337  70.960  1.00  0.00    -0.087 C  
BRANCH   9  10
HETATM   10  O   UNL     1      -6.253   4.788  70.455  1.00  0.00    -0.020 OA 
BRANCH  10  11
HETATM   11  N   UNL     1      -5.879   3.664  71.231  1.00  0.00    -0.013 NA 
HETATM   12  H   UNL     1      -5.147   3.693  71.941  1.00  0.00     0.000 HD 
BRANCH  11  13
HETATM   13  C   UNL     1      -6.561   2.586  70.948  1.00  0.00    -0.031 C  
BRANCH  13  14
HETATM   14  C   UNL     1      -7.811   2.255  71.733  1.00  0.00    -0.045 A  
HETATM   15 CL   UNL     1      -6.353   1.729  74.024  1.00  0.00    -0.011 Cl 
HETATM   16  C   UNL     1      -9.063   2.370  71.096  1.00  0.00    -0.171 A  
HETATM   17  C   UNL     1      -7.801   1.887  73.092  1.00  0.00    -0.041 A  
HETATM   18  C   UNL     1     -10.262   2.182  71.795  1.00  0.00    -0.061 A  
HETATM   19 CL   UNL     1     -11.700   1.662  74.013  1.00  0.00    -0.177 Cl 
HETATM   20  C   UNL     1     -10.228   1.851  73.143  1.00  0.00    -0.107 A  
HETATM   21  C   UNL     1      -9.006   1.688  73.790  1.00  0.00    -0.058 A  
ENDBRANCH  13  14
BRANCH  13  22
HETATM   22  C   UNL     1      -6.200   1.639  69.805  1.00  0.00    -0.024 C  
BRANCH  22  23
HETATM   23  N   UNL     1      -6.440   2.186  68.477  1.00  0.00    -0.029 NA 
HETATM   24  C   UNL     1      -5.477   2.456  67.543  1.00  0.00    -0.017 A  
HETATM   25  N   UNL     1      -7.497   3.041  66.733  1.00  0.00    -0.073 NA 
HETATM   26  C   UNL     1      -7.645   2.528  67.936  1.00  0.00    -0.056 A  
HETATM   27  C   UNL     1      -6.155   3.000  66.477  1.00  0.00    -0.024 A  
ENDBRANCH  22  23
ENDBRANCH  13  22
ENDBRANCH  11  13
ENDBRANCH  10  11
ENDBRANCH   9  10
ENDBRANCH   6   9
TORSDOF 7
ENDMDL
MODEL      379
REMARK 921   NORMALIZED FREE ENERGY PREDICTED BY IDOCK:   -0.42 KCAL/MOL
REMARK 922        TOTAL FREE ENERGY PREDICTED BY IDOCK:   -1.72 KCAL/MOL
REMARK 923 INTER-LIGAND FREE ENERGY PREDICTED BY IDOCK:   -1.93 KCAL/MOL
REMARK 924 INTRA-LIGAND FREE ENERGY PREDICTED BY IDOCK:    0.21 KCAL/MOL
REMARK 927      BINDING AFFINITY PREDICTED BY RF-SCORE:    0.00 PKD
ROOT
HETATM    1 CL   UNL     1      -8.949  11.046  67.324  1.00  0.00    -0.138 Cl 
HETATM    2  C   UNL     1      -8.043   9.687  67.861  1.00  0.00    -0.106 A  
HETATM    3  C   UNL     1      -8.587   8.410  67.756  1.00  0.00    -0.130 A  
HETATM    4  C   UNL     1      -7.876   7.315  68.265  1.00  0.00    -0.122 A  
HETATM    5 CL   UNL     1      -8.617   5.758  68.098  1.00  0.00    -0.109 Cl 
HETATM    6  C   UNL     1      -6.623   7.473  68.895  1.00  0.00    -0.048 A  
HETATM    7  C   UNL     1      -6.076   8.766  68.932  1.00  0.00    -0.044 A  
HETATM    8  C   UNL     1      -6.782   9.864  68.420  1.00  0.00    -0.055 A  
ENDROOT
BRANCH   6   9
HETATM    9  C   UNL     1      -5.963   6.304  69.614  1.00  0.00    -0.018 C  
BRANCH   9  10
HETATM   10  O   UNL     1      -5.842   5.093  68.833  1.00  0.00    -0.018 OA 
BRANCH  10  11
HETATM   11  N   UNL     1      -5.774   3.974  69.697  1.00  0.00    -0.017 NA 
HETATM   12  H   UNL     1      -4.945   3.736  70.241  1.00  0.00     0.000 HD 
BRANCH  11  13
HETATM   13  C   UNL     1      -6.877   3.274  69.729  1.00  0.00    -0.034 C  
BRANCH  13  14
HETATM   14  C   UNL     1      -7.962   3.618  70.727  1.00  0.00    -0.055 A  
HETATM   15 CL   UNL     1      -9.736   1.846  69.559  1.00  0.00    -0.030 Cl 
HETATM   16  C   UNL     1      -7.674   4.544  71.749  1.00  0.00    -0.091 A  
HETATM   17  C   UNL     1      -9.236   3.020  70.726  1.00  0.00    -0.135 A  
HETATM   18  C   UNL     1      -8.597   4.826  72.765  1.00  0.00    -0.114 A  
HETATM   19 CL   UNL     1     -10.953   4.511  74.032  1.00  0.00    -0.321 Cl 
HETATM   20  C   UNL     1      -9.836   4.199  72.762  1.00  0.00    -0.145 A  
HETATM   21  C   UNL     1     -10.166   3.312  71.741  1.00  0.00    -0.020 A  
ENDBRANCH  13  14
BRANCH  13  22
HETATM   22  C   UNL     1      -7.177   2.133  68.760  1.00  0.00    -0.044 C  
BRANCH  22  23
HETATM   23  N   UNL     1      -6.558   2.282  67.451  1.00  0.00    -0.035 NA 
HETATM   24  C   UNL     1      -5.321   1.813  67.098  1.00  0.00    -0.016 A  
HETATM   25  N   UNL     1      -6.237   2.906  65.354  1.00  0.00    -0.023 NA 
HETATM   26  C   UNL     1      -7.085   2.910  66.361  1.00  0.00    -0.057 A  
HETATM   27  C   UNL     1      -5.138   2.225  65.799  1.00  0.00    -0.005 A  
ENDBRANCH  22  23
ENDBRANCH  13  22
ENDBRANCH  11  13
ENDBRANCH  10  11
ENDBRANCH   9  10
ENDBRANCH   6   9
TORSDOF 7
ENDMDL
MODEL      380
REMARK 921   NORMALIZED FREE ENERGY PREDICTED BY IDOCK:   -0.17 KCAL/MOL
REMARK 922        TOTAL FREE ENERGY PREDICTED BY IDOCK:   -1.36 KCAL/MOL
REMARK 923 INTER-LIGAND FREE ENERGY PREDICTED BY IDOCK:   -1.72 KCAL/MOL
REMARK 924 INTRA-LIGAND FREE ENERGY PREDICTED BY IDOCK:    0.36 KCAL/MOL
REMARK 927      BINDING AFFINITY PREDICTED BY RF-SCORE:    0.00 PKD
ROOT
HETATM    1 CL   UNL     1     -12.185  17.550  73.913  1.00  0.00     0.453 Cl 
HETATM    2  C   UNL     1     -12.387  16.191  72.880  1.00  0.00    -0.511 A  
HETATM    3  C   UNL     1     -12.420  16.373  71.499  1.00  0.00     0.366 A  
HETATM    4  C   UNL     1     -12.662  15.272  70.666  1.00  0.00    -0.416 A  
HETATM    5 CL   UNL     1     -12.689  15.576  68.961  1.00  0.00     0.327 Cl 
HETATM    6  C   UNL     1     -12.886  13.981  71.191  1.00  0.00    -0.427 A  
HETATM    7  C   UNL     1     -12.786  13.821  72.582  1.00  0.00    -0.311 A  
HETATM    8  C   UNL     1     -12.541  14.919  73.419  1.00  0.00    -0.606 A  
ENDROOT
BRANCH   6   9
HETATM    9  C   UNL     1     -13.340  12.844  70.285  1.00  0.00     1.182 C  
BRANCH   9  10
HETATM   10  O   UNL     1     -12.576  12.686  69.068  1.00  0.00     0.280 OA 
BRANCH  10  11
HETATM   11  N   UNL     1     -11.233  13.073  69.294  1.00  0.00    -0.398 NA 
HETATM   12  H   UNL     1     -10.933  13.600  70.115  1.00  0.00     0.000 HD 
BRANCH  11  13
HETATM   13  C   UNL     1     -10.415  12.690  68.351  1.00  0.00    -0.238 C  
BRANCH  13  14
HETATM   14  C   UNL     1      -9.322  11.688  68.657  1.00  0.00    -0.120 A  
HETATM   15 CL   UNL     1     -11.165   9.723  69.289  1.00  0.00    -0.175 Cl 
HETATM   16  C   UNL     1      -7.979  12.076  68.483  1.00  0.00    -0.132 A  
HETATM   17  C   UNL     1      -9.574  10.362  69.057  1.00  0.00    -0.204 A  
HETATM   18  C   UNL     1      -6.926  11.166  68.647  1.00  0.00    -0.081 A  
HETATM   19 CL   UNL     1      -5.912   8.726  69.169  1.00  0.00    -0.042 Cl 
HETATM   20  C   UNL     1      -7.200   9.854  69.010  1.00  0.00    -0.077 A  
HETATM   21  C   UNL     1      -8.515   9.453  69.232  1.00  0.00    -0.141 A  
ENDBRANCH  13  14
BRANCH  13  22
HETATM   22  C   UNL     1     -10.527  13.157  66.901  1.00  0.00    -0.256 C  
BRANCH  22  23
HETATM   23  N   UNL     1     -10.363  12.096  65.917  1.00  0.00    -0.247 NA 
HETATM   24  C   UNL     1     -11.001  10.885  65.939  1.00  0.00     0.016 A  
HETATM   25  N   UNL     1      -9.609  10.969  64.170  1.00  0.00    -0.248 NA 
HETATM   26  C   UNL     1      -9.555  12.114  64.818  1.00  0.00     0.049 A  
HETATM   27  C   UNL     1     -10.505  10.199  64.856  1.00  0.00     0.240 A  
ENDBRANCH  22  23
ENDBRANCH  13  22
ENDBRANCH  11  13
ENDBRANCH  10  11
ENDBRANCH   9  10
ENDBRANCH   6   9
TORSDOF 7
ENDMDL
MODEL      381
REMARK 921   NORMALIZED FREE ENERGY PREDICTED BY IDOCK:    0.59 KCAL/MOL
REMARK 922        TOTAL FREE ENERGY PREDICTED BY IDOCK:   -0.28 KCAL/MOL
REMARK 923 INTER-LIGAND FREE ENERGY PREDICTED BY IDOCK:   -2.27 KCAL/MOL
REMARK 924 INTRA-LIGAND FREE ENERGY PREDICTED BY IDOCK:    1.99 KCAL/MOL
REMARK 927      BINDING AFFINITY PREDICTED BY RF-SCORE:    0.00 PKD
ROOT
HETATM    1 CL   UNL     1     -12.783  11.596  64.383  1.00  0.00     0.110 Cl 
HETATM    2  C   UNL     1     -11.381  11.253  65.316  1.00  0.00     0.091 A  
HETATM    3  C   UNL     1     -10.549  12.294  65.720  1.00  0.00    -0.289 A  
HETATM    4  C   UNL     1      -9.368  12.001  66.415  1.00  0.00    -0.228 A  
HETATM    5 CL   UNL     1      -8.385  13.348  66.885  1.00  0.00    -0.083 Cl 
HETATM    6  C   UNL     1      -8.990  10.673  66.707  1.00  0.00    -0.149 A  
HETATM    7  C   UNL     1      -9.879   9.651  66.338  1.00  0.00    -0.309 A  
HETATM    8  C   UNL     1     -11.064   9.940  65.646  1.00  0.00     1.334 A  
ENDROOT
BRANCH   6   9
HETATM    9  C   UNL     1      -7.614  10.367  67.284  1.00  0.00    -0.095 C  
BRANCH   9  10
HETATM   10  O   UNL     1      -7.056   9.090  66.897  1.00  0.00    -0.077 OA 
BRANCH  10  11
HETATM   11  N   UNL     1      -7.836   8.043  67.446  1.00  0.00    -0.115 NA 
HETATM   12  H   UNL     1      -8.364   7.382  66.877  1.00  0.00     0.000 HD 
BRANCH  11  13
HETATM   13  C   UNL     1      -7.813   8.007  68.751  1.00  0.00    -0.114 C  
BRANCH  13  14
HETATM   14  C   UNL     1      -9.103   7.843  69.526  1.00  0.00    -0.149 A  
HETATM   15 CL   UNL     1      -9.502  10.579  69.634  1.00  0.00    -0.110 Cl 
HETATM   16  C   UNL     1      -9.561   6.542  69.813  1.00  0.00    -0.161 A  
HETATM   17  C   UNL     1      -9.908   8.924  69.933  1.00  0.00    -0.182 A  
HETATM   18  C   UNL     1     -10.797   6.319  70.432  1.00  0.00    -0.360 A  
HETATM   19 CL   UNL     1     -13.127   7.127  71.516  1.00  0.00    -0.435 Cl 
HETATM   20  C   UNL     1     -11.590   7.400  70.796  1.00  0.00    -0.290 A  
HETATM   21  C   UNL     1     -11.145   8.699  70.564  1.00  0.00    -0.268 A  
ENDBRANCH  13  14
BRANCH  13  22
HETATM   22  C   UNL     1      -6.526   8.065  69.571  1.00  0.00    -0.034 C  
BRANCH  22  23
HETATM   23  N   UNL     1      -6.294   9.342  70.231  1.00  0.00    -0.053 NA 
HETATM   24  C   UNL     1      -6.693  10.564  69.761  1.00  0.00    -0.126 A  
HETATM   25  N   UNL     1      -5.567  10.833  71.694  1.00  0.00    -0.329 NA 
HETATM   26  C   UNL     1      -5.644   9.549  71.412  1.00  0.00    -0.073 A  
HETATM   27  C   UNL     1      -6.218  11.473  70.676  1.00  0.00     0.222 A  
ENDBRANCH  22  23
ENDBRANCH  13  22
ENDBRANCH  11  13
ENDBRANCH  10  11
ENDBRANCH   9  10
ENDBRANCH   6   9
TORSDOF 7
ENDMDL
MODEL      382
REMARK 921   NORMALIZED FREE ENERGY PREDICTED BY IDOCK:    2.35 KCAL/MOL
REMARK 922        TOTAL FREE ENERGY PREDICTED BY IDOCK:    2.19 KCAL/MOL
REMARK 923 INTER-LIGAND FREE ENERGY PREDICTED BY IDOCK:    2.51 KCAL/MOL
REMARK 924 INTRA-LIGAND FREE ENERGY PREDICTED BY IDOCK:   -0.31 KCAL/MOL
REMARK 927      BINDING AFFINITY PREDICTED BY RF-SCORE:    0.00 PKD
ROOT
HETATM    1 CL   UNL     1      -9.331   5.787  72.229  1.00  0.00    -0.152 Cl 
HETATM    2  C   UNL     1      -9.359   7.156  71.189  1.00  0.00    -0.157 A  
HETATM    3  C   UNL     1     -10.435   8.039  71.239  1.00  0.00    -0.238 A  
HETATM    4  C   UNL     1     -10.488   9.110  70.337  1.00  0.00    -0.223 A  
HETATM    5 CL   UNL     1     -11.856  10.166  70.461  1.00  0.00    -0.380 Cl 
HETATM    6  C   UNL     1      -9.485   9.311  69.366  1.00  0.00    -0.169 A  
HETATM    7  C   UNL     1      -8.385   8.438  69.380  1.00  0.00    -0.120 A  
HETATM    8  C   UNL     1      -8.325   7.368  70.284  1.00  0.00    -0.134 A  
ENDROOT
BRANCH   6   9
HETATM    9  C   UNL     1      -9.661  10.358  68.273  1.00  0.00    -0.151 C  
BRANCH   9  10
HETATM   10  O   UNL     1      -8.875  11.559  68.440  1.00  0.00    -0.157 OA 
BRANCH  10  11
HETATM   11  N   UNL     1      -9.600  12.675  67.958  1.00  0.00    -0.207 NA 
HETATM   12  H   UNL     1     -10.561  12.615  67.622  1.00  0.00     0.000 HD 
BRANCH  11  13
HETATM   13  C   UNL     1      -8.919  13.789  67.986  1.00  0.00    -0.187 C  
BRANCH  13  14
HETATM   14  C   UNL     1      -8.137  14.167  69.225  1.00  0.00     0.229 A  
HETATM   15 CL   UNL     1     -10.393  15.191  70.457  1.00  0.00    -0.072 Cl 
HETATM   16  C   UNL     1      -6.764  13.854  69.282  1.00  0.00    -0.108 A  
HETATM   17  C   UNL     1      -8.718  14.770  70.357  1.00  0.00     1.420 A  
HETATM   18  C   UNL     1      -6.008  14.081  70.439  1.00  0.00    -0.165 A  
HETATM   19 CL   UNL     1      -5.693  14.884  72.991  1.00  0.00     0.243 Cl 
HETATM   20  C   UNL     1      -6.610  14.646  71.556  1.00  0.00     0.913 A  
HETATM   21  C   UNL     1      -7.954  15.006  71.515  1.00  0.00     3.782 A  
ENDBRANCH  13  14
BRANCH  13  22
HETATM   22  C   UNL     1      -8.811  14.738  66.794  1.00  0.00    -0.252 C  
BRANCH  22  23
HETATM   23  N   UNL     1      -8.936  16.147  67.138  1.00  0.00    -0.194 NA 
HETATM   24  C   UNL     1      -9.974  16.708  67.832  1.00  0.00    -0.254 A  
HETATM   25  N   UNL     1      -8.504  18.313  67.249  1.00  0.00    -0.247 NA 
HETATM   26  C   UNL     1      -8.060  17.147  66.831  1.00  0.00    -0.216 A  
HETATM   27  C   UNL     1      -9.692  18.053  67.874  1.00  0.00    -0.297 A  
ENDBRANCH  22  23
ENDBRANCH  13  22
ENDBRANCH  11  13
ENDBRANCH  10  11
ENDBRANCH   9  10
ENDBRANCH   6   9
TORSDOF 7
ENDMDL
MODEL      383
REMARK 921   NORMALIZED FREE ENERGY PREDICTED BY IDOCK:    5.02 KCAL/MOL
REMARK 922        TOTAL FREE ENERGY PREDICTED BY IDOCK:    5.96 KCAL/MOL
REMARK 923 INTER-LIGAND FREE ENERGY PREDICTED BY IDOCK:   -4.18 KCAL/MOL
REMARK 924 INTRA-LIGAND FREE ENERGY PREDICTED BY IDOCK:   10.13 KCAL/MOL
REMARK 927      BINDING AFFINITY PREDICTED BY RF-SCORE:    0.00 PKD
ROOT
HETATM    1 CL   UNL     1      -7.021   8.054  65.063  1.00  0.00    -0.062 Cl 
HETATM    2  C   UNL     1      -7.805   9.460  65.668  1.00  0.00    -0.099 A  
HETATM    3  C   UNL     1      -9.142   9.694  65.355  1.00  0.00    -0.265 A  
HETATM    4  C   UNL     1      -9.753  10.879  65.786  1.00  0.00    -0.224 A  
HETATM    5 CL   UNL     1     -11.417  11.098  65.358  1.00  0.00     0.116 Cl 
HETATM    6  C   UNL     1      -9.044  11.852  66.522  1.00  0.00    -0.211 A  
HETATM    7  C   UNL     1      -7.716  11.560  66.872  1.00  0.00    -0.157 A  
HETATM    8  C   UNL     1      -7.102  10.373  66.446  1.00  0.00    -0.118 A  
ENDROOT
BRANCH   6   9
HETATM    9  C   UNL     1      -9.666  13.213  66.809  1.00  0.00    -0.246 C  
BRANCH   9  10
HETATM   10  O   UNL     1      -9.836  14.065  65.654  1.00  0.00    -0.291 OA 
BRANCH  10  11
HETATM   11  N   UNL     1      -9.991  15.409  66.073  1.00  0.00    -0.299 NA 
HETATM   12  H   UNL     1     -10.460  16.120  65.510  1.00  0.00     0.000 HD 
BRANCH  11  13
HETATM   13  C   UNL     1      -9.476  15.650  67.249  1.00  0.00    -0.216 C  
BRANCH  13  14
HETATM   14  C   UNL     1      -8.470  14.690  67.845  1.00  0.00    -0.158 A  
HETATM   15 CL   UNL     1      -6.342  16.268  67.044  1.00  0.00    -0.192 Cl 
HETATM   16  C   UNL     1      -8.941  13.548  68.522  1.00  0.00    -0.086 A  
HETATM   17  C   UNL     1      -7.078  14.903  67.810  1.00  0.00    -0.174 A  
HETATM   18  C   UNL     1      -8.068  12.678  69.187  1.00  0.00     0.498 A  
HETATM   19 CL   UNL     1      -5.632  11.881  70.018  1.00  0.00    -0.108 Cl 
HETATM   20  C   UNL     1      -6.701  12.924  69.166  1.00  0.00    -0.086 A  
HETATM   21  C   UNL     1      -6.202  14.021  68.469  1.00  0.00    -0.093 A  
ENDBRANCH  13  14
BRANCH  13  22
HETATM   22  C   UNL     1      -9.789  16.904  68.062  1.00  0.00    -0.264 C  
BRANCH  22  23
HETATM   23  N   UNL     1      -9.353  18.146  67.438  1.00  0.00    -0.253 NA 
HETATM   24  C   UNL     1      -8.945  19.270  68.104  1.00  0.00    -0.325 A  
HETATM   25  N   UNL     1      -8.892  19.650  65.884  1.00  0.00    -0.399 NA 
HETATM   26  C   UNL     1      -9.278  18.411  66.102  1.00  0.00    -0.120 A  
HETATM   27  C   UNL     1      -8.680  20.193  67.121  1.00  0.00    -0.344 A  
ENDBRANCH  22  23
ENDBRANCH  13  22
ENDBRANCH  11  13
ENDBRANCH  10  11
ENDBRANCH   9  10
ENDBRANCH   6   9
TORSDOF 7
ENDMDL
MODEL      384
REMARK 921   NORMALIZED FREE ENERGY PREDICTED BY IDOCK:    8.64 KCAL/MOL
REMARK 922        TOTAL FREE ENERGY PREDICTED BY IDOCK:   11.05 KCAL/MOL
REMARK 923 INTER-LIGAND FREE ENERGY PREDICTED BY IDOCK:    8.93 KCAL/MOL
REMARK 924 INTRA-LIGAND FREE ENERGY PREDICTED BY IDOCK:    2.12 KCAL/MOL
REMARK 927      BINDING AFFINITY PREDICTED BY RF-SCORE:    0.00 PKD
ROOT
HETATM    1 CL   UNL     1     -11.890  20.580  65.505  1.00  0.00     2.128 Cl 
HETATM    2  C   UNL     1     -10.513  19.916  66.291  1.00  0.00    -0.479 A  
HETATM    3  C   UNL     1      -9.852  18.829  65.723  1.00  0.00     0.137 A  
HETATM    4  C   UNL     1      -8.777  18.244  66.407  1.00  0.00    -0.241 A  
HETATM    5 CL   UNL     1      -8.005  16.898  65.638  1.00  0.00     0.396 Cl 
HETATM    6  C   UNL     1      -8.354  18.719  67.666  1.00  0.00    -0.291 A  
HETATM    7  C   UNL     1      -9.003  19.852  68.183  1.00  0.00    -0.330 A  
HETATM    8  C   UNL     1     -10.076  20.443  67.501  1.00  0.00    -0.495 A  
ENDROOT
BRANCH   6   9
HETATM    9  C   UNL     1      -7.319  17.950  68.478  1.00  0.00    -0.268 C  
BRANCH   9  10
HETATM   10  O   UNL     1      -7.742  16.644  68.930  1.00  0.00    -0.222 OA 
BRANCH  10  11
HETATM   11  N   UNL     1      -8.836  16.200  68.148  1.00  0.00    -0.181 NA 
HETATM   12  H   UNL     1      -9.593  16.813  67.846  1.00  0.00     0.000 HD 
BRANCH  11  13
HETATM   13  C   UNL     1      -8.781  14.929  67.851  1.00  0.00    -0.164 C  
BRANCH  13  14
HETATM   14  C   UNL     1      -9.602  13.931  68.639  1.00  0.00    -0.142 A  
HETATM   15 CL   UNL     1     -10.946  13.095  66.369  1.00  0.00    -0.297 Cl 
HETATM   16  C   UNL     1      -9.366  13.800  70.022  1.00  0.00     2.242 A  
HETATM   17  C   UNL     1     -10.559  13.080  68.055  1.00  0.00    -0.235 A  
HETATM   18  C   UNL     1     -10.016  12.824  70.787  1.00  0.00     6.418 A  
HETATM   19 CL   UNL     1     -11.698  10.745  71.114  1.00  0.00    -0.281 Cl 
HETATM   20  C   UNL     1     -10.933  11.973  70.184  1.00  0.00     0.750 A  
HETATM   21  C   UNL     1     -11.219  12.107  68.828  1.00  0.00    -0.314 A  
ENDBRANCH  13  14
BRANCH  13  22
HETATM   22  C   UNL     1      -7.961  14.372  66.690  1.00  0.00     0.522 C  
BRANCH  22  23
HETATM   23  N   UNL     1      -7.496  13.006  66.886  1.00  0.00     0.167 NA 
HETATM   24  C   UNL     1      -7.871  11.923  66.138  1.00  0.00     0.408 A  
HETATM   25  N   UNL     1      -6.460  11.261  67.765  1.00  0.00    -0.058 NA 
HETATM   26  C   UNL     1      -6.624  12.565  67.838  1.00  0.00    -0.104 A  
HETATM   27  C   UNL     1      -7.229  10.851  66.712  1.00  0.00    -0.134 A  
ENDBRANCH  22  23
ENDBRANCH  13  22
ENDBRANCH  11  13
ENDBRANCH  10  11
ENDBRANCH   9  10
ENDBRANCH   6   9
TORSDOF 7
ENDMDL
MODEL      385
REMARK 921   NORMALIZED FREE ENERGY PREDICTED BY IDOCK:    9.83 KCAL/MOL
REMARK 922        TOTAL FREE ENERGY PREDICTED BY IDOCK:   12.73 KCAL/MOL
REMARK 923 INTER-LIGAND FREE ENERGY PREDICTED BY IDOCK:   -2.04 KCAL/MOL
REMARK 924 INTRA-LIGAND FREE ENERGY PREDICTED BY IDOCK:   14.77 KCAL/MOL
REMARK 927      BINDING AFFINITY PREDICTED BY RF-SCORE:    0.00 PKD
ROOT
HETATM    1 CL   UNL     1      -9.041  10.894  68.253  1.00  0.00    -0.151 Cl 
HETATM    2  C   UNL     1      -8.012   9.591  68.698  1.00  0.00    -0.092 A  
HETATM    3  C   UNL     1      -8.457   8.280  68.552  1.00  0.00    -0.126 A  
HETATM    4  C   UNL     1      -7.643   7.225  68.988  1.00  0.00    -0.099 A  
HETATM    5 CL   UNL     1      -8.264   5.622  68.773  1.00  0.00    -0.103 Cl 
HETATM    6  C   UNL     1      -6.386   7.457  69.585  1.00  0.00    -0.031 A  
HETATM    7  C   UNL     1      -5.942   8.787  69.663  1.00  0.00    -0.032 A  
HETATM    8  C   UNL     1      -6.750   9.845  69.225  1.00  0.00    -0.055 A  
ENDROOT
BRANCH   6   9
HETATM    9  C   UNL     1      -5.610   6.315  70.228  1.00  0.00    -0.014 C  
BRANCH   9  10
HETATM   10  O   UNL     1      -5.504   5.117  69.426  1.00  0.00    -0.007 OA 
BRANCH  10  11
HETATM   11  N   UNL     1      -6.089   4.028  70.116  1.00  0.00    -0.018 NA 
HETATM   12  H   UNL     1      -5.549   3.354  70.658  1.00  0.00     0.000 HD 
BRANCH  11  13
HETATM   13  C   UNL     1      -7.388   3.970  69.991  1.00  0.00    -0.045 C  
BRANCH  13  14
HETATM   14  C   UNL     1      -8.002   3.434  68.716  1.00  0.00    -0.067 A  
HETATM   15 CL   UNL     1      -9.355   5.802  68.254  1.00  0.00    -0.118 Cl 
HETATM   16  C   UNL     1      -7.660   2.134  68.293  1.00  0.00    -0.054 A  
HETATM   17  C   UNL     1      -8.861   4.185  67.891  1.00  0.00    -0.113 A  
HETATM   18  C   UNL     1      -8.109   1.619  67.070  1.00  0.00    -0.072 A  
HETATM   19 CL   UNL     1      -9.445   1.775  64.737  1.00  0.00    -0.099 Cl 
HETATM   20  C   UNL     1      -8.929   2.390  66.258  1.00  0.00    -0.114 A  
HETATM   21  C   UNL     1      -9.320   3.661  66.669  1.00  0.00    -0.206 A  
ENDBRANCH  13  14
BRANCH  13  22
HETATM   22  C   UNL     1      -8.358   4.368  71.101  1.00  0.00    -0.089 C  
BRANCH  22  23
HETATM   23  N   UNL     1      -7.962   3.921  72.430  1.00  0.00    -0.079 NA 
HETATM   24  C   UNL     1      -7.229   4.648  73.328  1.00  0.00    -0.080 A  
HETATM   25  N   UNL     1      -7.686   2.621  74.197  1.00  0.00    -0.053 NA 
HETATM   26  C   UNL     1      -8.239   2.716  73.006  1.00  0.00    -0.070 A  
HETATM   27  C   UNL     1      -7.057   3.816  74.408  1.00  0.00    -0.053 A  
ENDBRANCH  22  23
ENDBRANCH  13  22
ENDBRANCH  11  13
ENDBRANCH  10  11
ENDBRANCH   9  10
ENDBRANCH   6   9
TORSDOF 7
ENDMDL
MODEL      386
REMARK 921   NORMALIZED FREE ENERGY PREDICTED BY IDOCK:   18.95 KCAL/MOL
REMARK 922        TOTAL FREE ENERGY PREDICTED BY IDOCK:   25.59 KCAL/MOL
REMARK 923 INTER-LIGAND FREE ENERGY PREDICTED BY IDOCK:   13.70 KCAL/MOL
REMARK 924 INTRA-LIGAND FREE ENERGY PREDICTED BY IDOCK:   11.89 KCAL/MOL
REMARK 927      BINDING AFFINITY PREDICTED BY RF-SCORE:    0.00 PKD
ROOT
HETATM    1 CL   UNL     1      -6.279  15.918  71.468  1.00  0.00     1.247 Cl 
HETATM    2  C   UNL     1      -6.305  16.764  69.972  1.00  0.00     0.022 A  
HETATM    3  C   UNL     1      -7.278  17.734  69.745  1.00  0.00     0.551 A  
HETATM    4  C   UNL     1      -7.341  18.365  68.495  1.00  0.00    -0.287 A  
HETATM    5 CL   UNL     1      -8.578  19.561  68.288  1.00  0.00    -0.372 Cl 
HETATM    6  C   UNL     1      -6.451  18.034  67.452  1.00  0.00    -0.182 A  
HETATM    7  C   UNL     1      -5.445  17.095  67.733  1.00  0.00    -0.126 A  
HETATM    8  C   UNL     1      -5.375  16.464  68.983  1.00  0.00    -0.118 A  
ENDROOT
BRANCH   6   9
HETATM    9  C   UNL     1      -6.661  18.586  66.048  1.00  0.00    -0.249 C  
BRANCH   9  10
HETATM   10  O   UNL     1      -7.301  17.679  65.122  1.00  0.00     0.286 OA 
BRANCH  10  11
HETATM   11  N   UNL     1      -7.327  16.375  65.672  1.00  0.00     0.902 NA 
HETATM   12  H   UNL     1      -6.509  15.766  65.706  1.00  0.00     0.000 HD 
BRANCH  11  13
HETATM   13  C   UNL     1      -8.499  16.028  66.132  1.00  0.00    -0.212 C  
BRANCH  13  14
HETATM   14  C   UNL     1      -8.599  15.119  67.338  1.00  0.00    -0.201 A  
HETATM   15 CL   UNL     1      -9.522  13.013  65.799  1.00  0.00    -0.067 Cl 
HETATM   16  C   UNL     1      -8.197  15.613  68.595  1.00  0.00    -0.168 A  
HETATM   17  C   UNL     1      -9.023  13.778  67.268  1.00  0.00    -0.224 A  
HETATM   18  C   UNL     1      -8.164  14.792  69.730  1.00  0.00     0.231 A  
HETATM   19 CL   UNL     1      -8.475  12.443  71.012  1.00  0.00     9.251 Cl 
HETATM   20  C   UNL     1      -8.556  13.463  69.630  1.00  0.00     1.660 A  
HETATM   21  C   UNL     1      -8.999  12.958  68.411  1.00  0.00    -0.124 A  
ENDBRANCH  13  14
BRANCH  13  22
HETATM   22  C   UNL     1      -9.815  16.539  65.551  1.00  0.00    -0.024 C  
BRANCH  22  23
HETATM   23  N   UNL     1     -10.280  17.790  66.132  1.00  0.00    -0.462 NA 
HETATM   24  C   UNL     1     -11.588  18.176  66.249  1.00  0.00     2.075 A  
HETATM   25  N   UNL     1     -10.250  19.804  67.045  1.00  0.00    -0.421 NA 
HETATM   26  C   UNL     1      -9.510  18.790  66.650  1.00  0.00    -0.330 A  
HETATM   27  C   UNL     1     -11.543  19.433  66.803  1.00  0.00     1.037 A  
ENDBRANCH  22  23
ENDBRANCH  13  22
ENDBRANCH  11  13
ENDBRANCH  10  11
ENDBRANCH   9  10
ENDBRANCH   6   9
TORSDOF 7
ENDMDL
MODEL      387
REMARK 921   NORMALIZED FREE ENERGY PREDICTED BY IDOCK:   20.78 KCAL/MOL
REMARK 922        TOTAL FREE ENERGY PREDICTED BY IDOCK:   28.16 KCAL/MOL
REMARK 923 INTER-LIGAND FREE ENERGY PREDICTED BY IDOCK:   27.50 KCAL/MOL
REMARK 924 INTRA-LIGAND FREE ENERGY PREDICTED BY IDOCK:    0.66 KCAL/MOL
REMARK 927      BINDING AFFINITY PREDICTED BY RF-SCORE:    0.00 PKD
ROOT
HETATM    1 CL   UNL     1     -11.913  20.624  65.179  1.00  0.00     2.777 Cl 
HETATM    2  C   UNL     1     -10.450  19.762  65.448  1.00  0.00    -0.041 A  
HETATM    3  C   UNL     1     -10.097  18.720  64.594  1.00  0.00     4.093 A  
HETATM    4  C   UNL     1      -8.943  17.972  64.864  1.00  0.00     4.011 A  
HETATM    5 CL   UNL     1      -8.568  16.692  63.758  1.00  0.00    12.711 Cl 
HETATM    6  C   UNL     1      -8.132  18.239  65.988  1.00  0.00    -0.115 A  
HETATM    7  C   UNL     1      -8.483  19.333  66.794  1.00  0.00    -0.321 A  
HETATM    8  C   UNL     1      -9.635  20.087  66.526  1.00  0.00    -0.539 A  
ENDROOT
BRANCH   6   9
HETATM    9  C   UNL     1      -7.000  17.294  66.370  1.00  0.00    -0.275 C  
BRANCH   9  10
HETATM   10  O   UNL     1      -7.384  16.188  67.218  1.00  0.00    -0.153 OA 
BRANCH  10  11
HETATM   11  N   UNL     1      -8.678  15.739  66.859  1.00  0.00    -0.221 NA 
HETATM   12  H   UNL     1      -9.242  16.180  66.133  1.00  0.00     0.000 HD 
BRANCH  11  13
HETATM   13  C   UNL     1      -9.079  14.705  67.549  1.00  0.00    -0.190 C  
BRANCH  13  14
HETATM   14  C   UNL     1      -8.143  14.046  68.539  1.00  0.00    -0.139 A  
HETATM   15 CL   UNL     1      -9.944  14.379  70.613  1.00  0.00     1.430 Cl 
HETATM   16  C   UNL     1      -6.909  13.547  68.077  1.00  0.00    -0.136 A  
HETATM   17  C   UNL     1      -8.460  13.852  69.897  1.00  0.00     1.631 A  
HETATM   18  C   UNL     1      -6.045  12.834  68.918  1.00  0.00    -0.079 A  
HETATM   19 CL   UNL     1      -5.354  11.714  71.268  1.00  0.00    -0.067 Cl 
HETATM   20  C   UNL     1      -6.393  12.627  70.246  1.00  0.00     0.146 A  
HETATM   21  C   UNL     1      -7.586  13.144  70.742  1.00  0.00     4.346 A  
ENDBRANCH  13  14
BRANCH  13  22
HETATM   22  C   UNL     1     -10.493  14.133  67.461  1.00  0.00    -0.249 C  
BRANCH  22  23
HETATM   23  N   UNL     1     -10.574  12.699  67.702  1.00  0.00    -0.216 NA 
HETATM   24  C   UNL     1     -11.238  12.104  68.740  1.00  0.00    -0.264 A  
HETATM   25  N   UNL     1     -10.236  10.525  67.484  1.00  0.00    -0.195 NA 
HETATM   26  C   UNL     1     -10.008  11.708  66.955  1.00  0.00    -0.202 A  
HETATM   27  C   UNL     1     -11.001  10.758  68.592  1.00  0.00    -0.239 A  
ENDBRANCH  22  23
ENDBRANCH  13  22
ENDBRANCH  11  13
ENDBRANCH  10  11
ENDBRANCH   9  10
ENDBRANCH   6   9
TORSDOF 7
ENDMDL
MODEL      388
REMARK 921   NORMALIZED FREE ENERGY PREDICTED BY IDOCK:   21.44 KCAL/MOL
REMARK 922        TOTAL FREE ENERGY PREDICTED BY IDOCK:   29.09 KCAL/MOL
REMARK 923 INTER-LIGAND FREE ENERGY PREDICTED BY IDOCK:   29.01 KCAL/MOL
REMARK 924 INTRA-LIGAND FREE ENERGY PREDICTED BY IDOCK:    0.08 KCAL/MOL
REMARK 927      BINDING AFFINITY PREDICTED BY RF-SCORE:    0.00 PKD
ROOT
HETATM    1 CL   UNL     1      -8.511  16.920  72.869  1.00  0.00    16.898 Cl 
HETATM    2  C   UNL     1      -7.816  15.946  71.634  1.00  0.00     6.145 A  
HETATM    3  C   UNL     1      -7.583  14.593  71.872  1.00  0.00     3.950 A  
HETATM    4  C   UNL     1      -6.946  13.822  70.890  1.00  0.00     1.531 A  
HETATM    5 CL   UNL     1      -6.691  12.149  71.258  1.00  0.00     2.753 Cl 
HETATM    6  C   UNL     1      -6.521  14.384  69.667  1.00  0.00    -0.145 A  
HETATM    7  C   UNL     1      -6.824  15.735  69.435  1.00  0.00    -0.190 A  
HETATM    8  C   UNL     1      -7.465  16.510  70.413  1.00  0.00     2.008 A  
ENDROOT
BRANCH   6   9
HETATM    9  C   UNL     1      -5.660  13.580  68.702  1.00  0.00    -0.086 C  
BRANCH   9  10
HETATM   10  O   UNL     1      -6.380  12.634  67.879  1.00  0.00    -0.082 OA 
BRANCH  10  11
HETATM   11  N   UNL     1      -7.489  12.125  68.597  1.00  0.00    -0.125 NA 
HETATM   12  H   UNL     1      -7.563  12.162  69.613  1.00  0.00     0.000 HD 
BRANCH  11  13
HETATM   13  C   UNL     1      -8.409  11.603  67.830  1.00  0.00    -0.143 C  
BRANCH  13  14
HETATM   14  C   UNL     1      -9.194  10.399  68.303  1.00  0.00    -0.149 A  
HETATM   15 CL   UNL     1      -8.876   9.113  65.874  1.00  0.00    -0.190 Cl 
HETATM   16  C   UNL     1      -9.676  10.381  69.627  1.00  0.00    -0.158 A  
HETATM   17  C   UNL     1      -9.425   9.260  67.507  1.00  0.00    -0.132 A  
HETATM   18  C   UNL     1     -10.317   9.255  70.159  1.00  0.00    -0.258 A  
HETATM   19 CL   UNL     1     -11.252   6.732  70.031  1.00  0.00    -0.359 Cl 
HETATM   20  C   UNL     1     -10.506   8.131  69.366  1.00  0.00    -0.220 A  
HETATM   21  C   UNL     1     -10.078   8.134  68.041  1.00  0.00    -0.241 A  
ENDBRANCH  13  14
BRANCH  13  22
HETATM   22  C   UNL     1      -8.796  12.179  66.470  1.00  0.00    -0.151 C  
BRANCH  22  23
HETATM   23  N   UNL     1     -10.055  12.910  66.466  1.00  0.00    -0.255 NA 
HETATM   24  C   UNL     1     -10.271  14.126  67.058  1.00  0.00    -0.260 A  
HETATM   25  N   UNL     1     -12.185  13.396  66.120  1.00  0.00    -0.423 NA 
HETATM   26  C   UNL     1     -11.229  12.521  65.889  1.00  0.00    -0.320 A  
HETATM   27  C   UNL     1     -11.601  14.398  66.843  1.00  0.00    -0.388 A  
ENDBRANCH  22  23
ENDBRANCH  13  22
ENDBRANCH  11  13
ENDBRANCH  10  11
ENDBRANCH   9  10
ENDBRANCH   6   9
TORSDOF 7
ENDMDL
MODEL      389
REMARK 921   NORMALIZED FREE ENERGY PREDICTED BY IDOCK:   21.77 KCAL/MOL
REMARK 922        TOTAL FREE ENERGY PREDICTED BY IDOCK:   29.56 KCAL/MOL
REMARK 923 INTER-LIGAND FREE ENERGY PREDICTED BY IDOCK:   26.22 KCAL/MOL
REMARK 924 INTRA-LIGAND FREE ENERGY PREDICTED BY IDOCK:    3.34 KCAL/MOL
REMARK 927      BINDING AFFINITY PREDICTED BY RF-SCORE:    0.00 PKD
ROOT
HETATM    1 CL   UNL     1      -8.912   8.278  72.666  1.00  0.00    -0.294 Cl 
HETATM    2  C   UNL     1      -8.693   9.564  71.547  1.00  0.00     0.767 A  
HETATM    3  C   UNL     1      -9.696  10.517  71.386  1.00  0.00     3.925 A  
HETATM    4  C   UNL     1      -9.544  11.519  70.418  1.00  0.00     3.528 A  
HETATM    5 CL   UNL     1     -10.832  12.668  70.277  1.00  0.00     1.088 Cl 
HETATM    6  C   UNL     1      -8.403  11.582  69.590  1.00  0.00     0.991 A  
HETATM    7  C   UNL     1      -7.385  10.642  69.817  1.00  0.00    -0.115 A  
HETATM    8  C   UNL     1      -7.531   9.640  70.787  1.00  0.00    -0.043 A  
ENDROOT
BRANCH   6   9
HETATM    9  C   UNL     1      -8.348  12.553  68.418  1.00  0.00    -0.132 C  
BRANCH   9  10
HETATM   10  O   UNL     1      -7.425  13.654  68.576  1.00  0.00    -0.109 OA 
BRANCH  10  11
HETATM   11  N   UNL     1      -7.858  14.756  67.799  1.00  0.00    -0.137 NA 
HETATM   12  H   UNL     1      -8.838  14.933  67.576  1.00  0.00     0.000 HD 
BRANCH  11  13
HETATM   13  C   UNL     1      -6.881  15.523  67.394  1.00  0.00    -0.189 C  
BRANCH  13  14
HETATM   14  C   UNL     1      -6.634  16.853  68.072  1.00  0.00    -0.151 A  
HETATM   15 CL   UNL     1      -9.118  17.811  67.318  1.00  0.00    -0.243 Cl 
HETATM   16  C   UNL     1      -5.423  17.046  68.766  1.00  0.00    -0.137 A  
HETATM   17  C   UNL     1      -7.576  17.900  68.096  1.00  0.00    -0.260 A  
HETATM   18  C   UNL     1      -5.177  18.212  69.502  1.00  0.00    -0.186 A  
HETATM   19 CL   UNL     1      -5.852  20.631  70.477  1.00  0.00    -0.255 Cl 
HETATM   20  C   UNL     1      -6.134  19.218  69.538  1.00  0.00    -0.274 A  
HETATM   21  C   UNL     1      -7.322  19.075  68.827  1.00  0.00    -0.366 A  
ENDBRANCH  13  14
BRANCH  13  22
HETATM   22  C   UNL     1      -5.908  15.129  66.286  1.00  0.00     4.056 C  
BRANCH  22  23
HETATM   23  N   UNL     1      -5.828  13.695  66.042  1.00  0.00     4.771 NA 
HETATM   24  C   UNL     1      -6.424  12.725  66.801  1.00  0.00     0.836 A  
HETATM   25  N   UNL     1      -5.247  11.762  65.138  1.00  0.00     0.822 NA 
HETATM   26  C   UNL     1      -5.151  13.071  65.034  1.00  0.00     8.267 A  
HETATM   27  C   UNL     1      -6.036  11.535  66.231  1.00  0.00     0.063 A  
ENDBRANCH  22  23
ENDBRANCH  13  22
ENDBRANCH  11  13
ENDBRANCH  10  11
ENDBRANCH   9  10
ENDBRANCH   6   9
TORSDOF 7
ENDMDL
MODEL      390
REMARK 921   NORMALIZED FREE ENERGY PREDICTED BY IDOCK:   28.35 KCAL/MOL
REMARK 922        TOTAL FREE ENERGY PREDICTED BY IDOCK:   38.84 KCAL/MOL
REMARK 923 INTER-LIGAND FREE ENERGY PREDICTED BY IDOCK:   -1.12 KCAL/MOL
REMARK 924 INTRA-LIGAND FREE ENERGY PREDICTED BY IDOCK:   39.95 KCAL/MOL
REMARK 927      BINDING AFFINITY PREDICTED BY RF-SCORE:    0.00 PKD
ROOT
HETATM    1 CL   UNL     1      -8.805  10.415  69.087  1.00  0.00    -0.175 Cl 
HETATM    2  C   UNL     1      -7.844   9.034  69.441  1.00  0.00    -0.094 A  
HETATM    3  C   UNL     1      -8.385   7.759  69.289  1.00  0.00    -0.136 A  
HETATM    4  C   UNL     1      -7.623   6.640  69.652  1.00  0.00    -0.098 A  
HETATM    5 CL   UNL     1      -8.362   5.089  69.433  1.00  0.00    -0.085 Cl 
HETATM    6  C   UNL     1      -6.321   6.771  70.182  1.00  0.00    -0.039 A  
HETATM    7  C   UNL     1      -5.784   8.065  70.268  1.00  0.00    -0.022 A  
HETATM    8  C   UNL     1      -6.541   9.187  69.902  1.00  0.00    -0.047 A  
ENDROOT
BRANCH   6   9
HETATM    9  C   UNL     1      -5.591   5.562  70.752  1.00  0.00    -0.009 C  
BRANCH   9  10
HETATM   10  O   UNL     1      -5.783   4.329  70.022  1.00  0.00    -0.015 OA 
BRANCH  10  11
HETATM   11  N   UNL     1      -7.094   3.843  70.242  1.00  0.00    -0.041 NA 
HETATM   12  H   UNL     1      -7.293   2.897  70.567  1.00  0.00     0.000 HD 
BRANCH  11  13
HETATM   13  C   UNL     1      -8.025   4.724  69.989  1.00  0.00    -0.069 C  
BRANCH  13  14
HETATM   14  C   UNL     1      -8.597   4.840  68.593  1.00  0.00    -0.101 A  
HETATM   15 CL   UNL     1     -11.137   5.342  69.569  1.00  0.00     0.250 Cl 
HETATM   16  C   UNL     1      -7.728   4.712  67.491  1.00  0.00    -0.089 A  
HETATM   17  C   UNL     1      -9.950   5.127  68.330  1.00  0.00    -0.146 A  
HETATM   18  C   UNL     1      -8.174   4.914  66.179  1.00  0.00    -0.108 A  
HETATM   19 CL   UNL     1     -10.044   5.519  64.337  1.00  0.00     1.383 Cl 
HETATM   20  C   UNL     1      -9.506   5.228  65.944  1.00  0.00    -0.142 A  
HETATM   21  C   UNL     1     -10.397   5.319  67.010  1.00  0.00    -0.286 A  
ENDBRANCH  13  14
BRANCH  13  22
HETATM   22  C   UNL     1      -8.632   5.634  71.055  1.00  0.00    -0.127 C  
BRANCH  22  23
HETATM   23  N   UNL     1      -9.581   4.971  71.938  1.00  0.00    -0.148 NA 
HETATM   24  C   UNL     1      -9.415   3.733  72.498  1.00  0.00    -0.124 A  
HETATM   25  N   UNL     1     -11.416   4.572  73.106  1.00  0.00    -0.231 NA 
HETATM   26  C   UNL     1     -10.788   5.451  72.354  1.00  0.00    -0.241 A  
HETATM   27  C   UNL     1     -10.571   3.501  73.204  1.00  0.00    -0.179 A  
ENDBRANCH  22  23
ENDBRANCH  13  22
ENDBRANCH  11  13
ENDBRANCH  10  11
ENDBRANCH   9  10
ENDBRANCH   6   9
TORSDOF 7
ENDMDL
MODEL      391
REMARK 921   NORMALIZED FREE ENERGY PREDICTED BY IDOCK:   33.61 KCAL/MOL
REMARK 922        TOTAL FREE ENERGY PREDICTED BY IDOCK:   46.24 KCAL/MOL
REMARK 923 INTER-LIGAND FREE ENERGY PREDICTED BY IDOCK:   46.44 KCAL/MOL
REMARK 924 INTRA-LIGAND FREE ENERGY PREDICTED BY IDOCK:   -0.20 KCAL/MOL
REMARK 927      BINDING AFFINITY PREDICTED BY RF-SCORE:    0.00 PKD
ROOT
HETATM    1 CL   UNL     1     -11.934  20.625  65.119  1.00  0.00     2.777 Cl 
HETATM    2  C   UNL     1     -10.736  19.427  65.405  1.00  0.00     0.033 A  
HETATM    3  C   UNL     1     -10.567  18.388  64.493  1.00  0.00     3.708 A  
HETATM    4  C   UNL     1      -9.641  17.372  64.770  1.00  0.00     3.450 A  
HETATM    5 CL   UNL     1      -9.487  16.115  63.588  1.00  0.00     8.804 Cl 
HETATM    6  C   UNL     1      -8.882  17.367  65.959  1.00  0.00    -0.091 A  
HETATM    7  C   UNL     1      -9.033  18.458  66.829  1.00  0.00    -0.291 A  
HETATM    8  C   UNL     1      -9.954  19.479  66.554  1.00  0.00    -0.518 A  
ENDROOT
BRANCH   6   9
HETATM    9  C   UNL     1      -8.032  16.159  66.331  1.00  0.00    -0.217 C  
BRANCH   9  10
HETATM   10  O   UNL     1      -8.243  15.648  67.667  1.00  0.00    -0.140 OA 
BRANCH  10  11
HETATM   11  N   UNL     1      -9.617  15.730  67.997  1.00  0.00    -0.210 NA 
HETATM   12  H   UNL     1     -10.332  16.044  67.341  1.00  0.00     0.000 HD 
BRANCH  11  13
HETATM   13  C   UNL     1      -9.879  15.365  69.224  1.00  0.00    -0.262 C  
BRANCH  13  14
HETATM   14  C   UNL     1      -8.761  14.898  70.130  1.00  0.00     0.731 A  
HETATM   15 CL   UNL     1      -8.807  17.259  71.570  1.00  0.00     9.032 Cl 
HETATM   16  C   UNL     1      -8.234  13.604  69.945  1.00  0.00     1.753 A  
HETATM   17  C   UNL     1      -8.250  15.667  71.193  1.00  0.00     3.715 A  
HETATM   18  C   UNL     1      -7.274  13.072  70.814  1.00  0.00     3.180 A  
HETATM   19 CL   UNL     1      -5.660  13.169  72.969  1.00  0.00     0.445 Cl 
HETATM   20  C   UNL     1      -6.807  13.837  71.875  1.00  0.00     3.098 A  
HETATM   21  C   UNL     1      -7.277  15.134  72.059  1.00  0.00     3.455 A  
ENDBRANCH  13  14
BRANCH  13  22
HETATM   22  C   UNL     1     -11.275  15.435  69.840  1.00  0.00    -0.299 C  
BRANCH  22  23
HETATM   23  N   UNL     1     -11.539  14.408  70.839  1.00  0.00    -0.213 NA 
HETATM   24  C   UNL     1     -11.803  14.635  72.162  1.00  0.00    -0.114 A  
HETATM   25  N   UNL     1     -11.784  12.416  71.769  1.00  0.00     2.029 NA 
HETATM   26  C   UNL     1     -11.565  13.058  70.640  1.00  0.00     0.454 A  
HETATM   27  C   UNL     1     -11.935  13.386  72.721  1.00  0.00     2.129 A  
ENDBRANCH  22  23
ENDBRANCH  13  22
ENDBRANCH  11  13
ENDBRANCH  10  11
ENDBRANCH   9  10
ENDBRANCH   6   9
TORSDOF 7
ENDMDL
MODEL      392
REMARK 921   NORMALIZED FREE ENERGY PREDICTED BY IDOCK:   44.64 KCAL/MOL
REMARK 922        TOTAL FREE ENERGY PREDICTED BY IDOCK:   61.80 KCAL/MOL
REMARK 923 INTER-LIGAND FREE ENERGY PREDICTED BY IDOCK:   62.29 KCAL/MOL
REMARK 924 INTRA-LIGAND FREE ENERGY PREDICTED BY IDOCK:   -0.49 KCAL/MOL
REMARK 927      BINDING AFFINITY PREDICTED BY RF-SCORE:    0.00 PKD
ROOT
HETATM    1 CL   UNL     1      -8.601  17.029  73.096  1.00  0.00    16.911 Cl 
HETATM    2  C   UNL     1      -8.075  15.662  72.197  1.00  0.00     7.993 A  
HETATM    3  C   UNL     1      -8.171  14.390  72.756  1.00  0.00     8.135 A  
HETATM    4  C   UNL     1      -7.670  13.288  72.049  1.00  0.00     9.983 A  
HETATM    5 CL   UNL     1      -7.825  11.739  72.809  1.00  0.00    15.976 Cl 
HETATM    6  C   UNL     1      -7.058  13.434  70.786  1.00  0.00     2.193 A  
HETATM    7  C   UNL     1      -7.031  14.721  70.225  1.00  0.00     0.090 A  
HETATM    8  C   UNL     1      -7.534  15.825  70.926  1.00  0.00     2.349 A  
ENDROOT
BRANCH   6   9
HETATM    9  C   UNL     1      -6.348  12.258  70.128  1.00  0.00     0.043 C  
BRANCH   9  10
HETATM   10  O   UNL     1      -7.218  11.215  69.632  1.00  0.00    -0.110 OA 
BRANCH  10  11
HETATM   11  N   UNL     1      -6.604  10.564  68.535  1.00  0.00    -0.055 NA 
HETATM   12  H   UNL     1      -5.822  10.962  68.014  1.00  0.00     0.000 HD 
BRANCH  11  13
HETATM   13  C   UNL     1      -7.137   9.405  68.253  1.00  0.00    -0.076 C  
BRANCH  13  14
HETATM   14  C   UNL     1      -7.020   8.839  66.855  1.00  0.00    -0.074 A  
HETATM   15 CL   UNL     1      -9.685   8.095  66.828  1.00  0.00    -0.279 Cl 
HETATM   16  C   UNL     1      -5.785   8.936  66.184  1.00  0.00    -0.046 A  
HETATM   17  C   UNL     1      -8.100   8.264  66.158  1.00  0.00    -0.111 A  
HETATM   18  C   UNL     1      -5.640   8.528  64.852  1.00  0.00    -0.047 A  
HETATM   19 CL   UNL     1      -6.561   7.533  62.525  1.00  0.00    -0.070 Cl 
HETATM   20  C   UNL     1      -6.727   7.993  64.173  1.00  0.00    -0.065 A  
HETATM   21  C   UNL     1      -7.949   7.845  64.823  1.00  0.00    -0.140 A  
ENDBRANCH  13  14
BRANCH  13  22
HETATM   22  C   UNL     1      -7.842   8.532  69.288  1.00  0.00    -0.099 C  
BRANCH  22  23
HETATM   23  N   UNL     1      -7.047   7.409  69.765  1.00  0.00    -0.067 NA 
HETATM   24  C   UNL     1      -5.954   7.499  70.583  1.00  0.00    -0.031 A  
HETATM   25  N   UNL     1      -6.307   5.342  70.035  1.00  0.00    -0.029 NA 
HETATM   26  C   UNL     1      -7.240   6.088  69.482  1.00  0.00    -0.070 A  
HETATM   27  C   UNL     1      -5.503   6.207  70.723  1.00  0.00    -0.018 A  
ENDBRANCH  22  23
ENDBRANCH  13  22
ENDBRANCH  11  13
ENDBRANCH  10  11
ENDBRANCH   9  10
ENDBRANCH   6   9
TORSDOF 7
ENDMDL
MODEL      393
REMARK 921   NORMALIZED FREE ENERGY PREDICTED BY IDOCK:   48.35 KCAL/MOL
REMARK 922        TOTAL FREE ENERGY PREDICTED BY IDOCK:   67.02 KCAL/MOL
REMARK 923 INTER-LIGAND FREE ENERGY PREDICTED BY IDOCK:   65.09 KCAL/MOL
REMARK 924 INTRA-LIGAND FREE ENERGY PREDICTED BY IDOCK:    1.93 KCAL/MOL
REMARK 927      BINDING AFFINITY PREDICTED BY RF-SCORE:    0.00 PKD
ROOT
HETATM    1 CL   UNL     1      -8.601  17.029  73.096  1.00  0.00    16.911 Cl 
HETATM    2  C   UNL     1      -8.075  15.662  72.197  1.00  0.00     7.993 A  
HETATM    3  C   UNL     1      -8.171  14.390  72.756  1.00  0.00     8.135 A  
HETATM    4  C   UNL     1      -7.670  13.288  72.049  1.00  0.00     9.983 A  
HETATM    5 CL   UNL     1      -7.825  11.739  72.809  1.00  0.00    15.976 Cl 
HETATM    6  C   UNL     1      -7.058  13.434  70.786  1.00  0.00     2.193 A  
HETATM    7  C   UNL     1      -7.031  14.721  70.225  1.00  0.00     0.090 A  
HETATM    8  C   UNL     1      -7.534  15.825  70.926  1.00  0.00     2.349 A  
ENDROOT
BRANCH   6   9
HETATM    9  C   UNL     1      -6.348  12.258  70.128  1.00  0.00     0.043 C  
BRANCH   9  10
HETATM   10  O   UNL     1      -7.218  11.215  69.632  1.00  0.00    -0.110 OA 
BRANCH  10  11
HETATM   11  N   UNL     1      -6.604  10.564  68.535  1.00  0.00    -0.055 NA 
HETATM   12  H   UNL     1      -5.822  10.962  68.014  1.00  0.00     0.000 HD 
BRANCH  11  13
HETATM   13  C   UNL     1      -7.137   9.405  68.253  1.00  0.00    -0.076 C  
BRANCH  13  14
HETATM   14  C   UNL     1      -7.020   8.839  66.855  1.00  0.00    -0.074 A  
HETATM   15 CL   UNL     1      -9.685   8.095  66.828  1.00  0.00    -0.279 Cl 
HETATM   16  C   UNL     1      -5.785   8.936  66.184  1.00  0.00    -0.046 A  
HETATM   17  C   UNL     1      -8.100   8.264  66.158  1.00  0.00    -0.111 A  
HETATM   18  C   UNL     1      -5.640   8.528  64.852  1.00  0.00    -0.047 A  
HETATM   19 CL   UNL     1      -6.561   7.533  62.525  1.00  0.00    -0.070 Cl 
HETATM   20  C   UNL     1      -6.727   7.993  64.173  1.00  0.00    -0.065 A  
HETATM   21  C   UNL     1      -7.949   7.845  64.823  1.00  0.00    -0.140 A  
ENDBRANCH  13  14
BRANCH  13  22
HETATM   22  C   UNL     1      -7.842   8.532  69.288  1.00  0.00    -0.099 C  
BRANCH  22  23
HETATM   23  N   UNL     1      -8.881   9.219  70.043  1.00  0.00    -0.178 NA 
HETATM   24  C   UNL     1     -10.093   9.616  69.548  1.00  0.00    -0.209 A  
HETATM   25  N   UNL     1      -9.921  10.240  71.706  1.00  0.00     2.453 NA 
HETATM   26  C   UNL     1      -8.831   9.591  71.355  1.00  0.00     0.575 A  
HETATM   27  C   UNL     1     -10.714  10.260  70.592  1.00  0.00    -0.055 A  
ENDBRANCH  22  23
ENDBRANCH  13  22
ENDBRANCH  11  13
ENDBRANCH  10  11
ENDBRANCH   9  10
ENDBRANCH   6   9
TORSDOF 7
ENDMDL
