MODEL        1
REMARK 921   NORMALIZED FREE ENERGY PREDICTED BY IDOCK:   -5.25 KCAL/MOL
REMARK 922        TOTAL FREE ENERGY PREDICTED BY IDOCK:   -6.45 KCAL/MOL
REMARK 923 INTER-LIGAND FREE ENERGY PREDICTED BY IDOCK:   -6.16 KCAL/MOL
REMARK 924 INTRA-LIGAND FREE ENERGY PREDICTED BY IDOCK:   -0.28 KCAL/MOL
REMARK 927      BINDING AFFINITY PREDICTED BY RF-SCORE:    0.00 PKD
ROOT
HETATM    1  C   UNL     1     -11.827  11.990  68.363  1.00  0.00    -0.300 C  
HETATM    2  C   UNL     1     -11.891  12.351  69.855  1.00  0.00    -0.376 C  
ENDROOT
BRANCH   1   3
HETATM    3  C   UNL     1     -10.542  12.558  67.680  1.00  0.00    -0.217 C  
HETATM    4  O   UNL     1      -9.657  13.108  68.670  1.00  0.00    -0.371 OA 
HETATM    5  H   UNL     1      -8.876  13.453  68.254  1.00  0.00     0.000 HD 
BRANCH   3   6
HETATM    6  C   UNL     1     -10.784  13.565  66.566  1.00  0.00    -0.287 A  
HETATM    7  C   UNL     1      -9.967  14.703  66.463  1.00  0.00    -0.292 A  
HETATM    8  C   UNL     1     -10.230  15.687  65.505  1.00  0.00    -0.414 A  
HETATM    9  C   UNL     1     -11.305  15.528  64.636  1.00  0.00    -0.357 A  
HETATM   10  O   UNL     1     -11.623  16.482  63.716  1.00  0.00    -1.617 OA 
HETATM   11  C   UNL     1     -12.097  14.389  64.689  1.00  0.00    -0.485 A  
HETATM   12  C   UNL     1     -11.836  13.409  65.648  1.00  0.00    -0.403 A  
HETATM   13  H   UNL     1     -12.358  16.373  63.121  1.00  0.00     0.000 HD 
ENDBRANCH   3   6
ENDBRANCH   1   3
BRANCH   1  14
HETATM   14  N   UNL     1     -11.827  10.521  68.161  1.00  0.00    -0.774 NA 
HETATM   15  C   UNL     1     -10.697  10.015  67.403  1.00  0.00    -0.274 C  
HETATM   16  H   UNL     1     -12.704  10.222  67.733  1.00  0.00     0.000 HD 
ENDBRANCH   1  14
TORSDOF 3
ENDMDL
MODEL        2
REMARK 921   NORMALIZED FREE ENERGY PREDICTED BY IDOCK:   -5.23 KCAL/MOL
REMARK 922        TOTAL FREE ENERGY PREDICTED BY IDOCK:   -6.42 KCAL/MOL
REMARK 923 INTER-LIGAND FREE ENERGY PREDICTED BY IDOCK:   -6.14 KCAL/MOL
REMARK 924 INTRA-LIGAND FREE ENERGY PREDICTED BY IDOCK:   -0.28 KCAL/MOL
REMARK 927      BINDING AFFINITY PREDICTED BY RF-SCORE:    0.00 PKD
ROOT
HETATM    1  C   UNL     1     -11.776  11.739  68.324  1.00  0.00    -0.310 C  
HETATM    2  C   UNL     1     -11.867  11.973  69.839  1.00  0.00    -0.405 C  
ENDROOT
BRANCH   1   3
HETATM    3  C   UNL     1     -10.543  12.464  67.696  1.00  0.00    -0.216 C  
HETATM    4  O   UNL     1      -9.691  12.982  68.732  1.00  0.00    -0.404 OA 
HETATM    5  H   UNL     1      -8.942  13.423  68.350  1.00  0.00     0.000 HD 
BRANCH   3   6
HETATM    6  C   UNL     1     -10.868  13.552  66.684  1.00  0.00    -0.283 A  
HETATM    7  C   UNL     1     -11.965  13.398  65.821  1.00  0.00    -0.447 A  
HETATM    8  C   UNL     1     -12.226  14.342  64.822  1.00  0.00    -0.456 A  
HETATM    9  C   UNL     1     -11.397  15.450  64.692  1.00  0.00    -0.355 A  
HETATM   10  O   UNL     1     -11.588  16.371  63.706  1.00  0.00    -1.605 OA 
HETATM   11  C   UNL     1     -10.333  15.646  65.563  1.00  0.00    -0.421 A  
HETATM   12  C   UNL     1     -10.072  14.703  66.558  1.00  0.00    -0.286 A  
HETATM   13  H   UNL     1     -11.021  17.129  63.617  1.00  0.00     0.000 HD 
ENDBRANCH   3   6
ENDBRANCH   1   3
BRANCH   1  14
HETATM   14  N   UNL     1     -11.655  10.297  68.005  1.00  0.00    -0.698 NA 
HETATM   15  C   UNL     1     -10.485   9.946  67.220  1.00  0.00    -0.258 C  
HETATM   16  H   UNL     1     -12.502   9.963  67.546  1.00  0.00     0.000 HD 
ENDBRANCH   1  14
TORSDOF 3
ENDMDL
MODEL        3
REMARK 921   NORMALIZED FREE ENERGY PREDICTED BY IDOCK:   -5.11 KCAL/MOL
REMARK 922        TOTAL FREE ENERGY PREDICTED BY IDOCK:   -6.28 KCAL/MOL
REMARK 923 INTER-LIGAND FREE ENERGY PREDICTED BY IDOCK:   -6.20 KCAL/MOL
REMARK 924 INTRA-LIGAND FREE ENERGY PREDICTED BY IDOCK:   -0.09 KCAL/MOL
REMARK 927      BINDING AFFINITY PREDICTED BY RF-SCORE:    0.00 PKD
ROOT
HETATM    1  C   UNL     1     -12.125  11.507  69.439  1.00  0.00    -0.279 C  
HETATM    2  C   UNL     1     -11.195  10.639  70.299  1.00  0.00    -0.365 C  
ENDROOT
BRANCH   1   3
HETATM    3  C   UNL     1     -11.677  13.004  69.424  1.00  0.00    -0.326 C  
HETATM    4  O   UNL     1     -10.259  13.094  69.207  1.00  0.00    -0.407 OA 
HETATM    5  H   UNL     1      -9.987  14.004  69.198  1.00  0.00     0.000 HD 
BRANCH   3   6
HETATM    6  C   UNL     1     -12.081  13.820  70.642  1.00  0.00    -0.405 A  
HETATM    7  C   UNL     1     -12.977  13.281  71.579  1.00  0.00    -0.426 A  
HETATM    8  C   UNL     1     -13.433  14.050  72.655  1.00  0.00    -0.650 A  
HETATM    9  C   UNL     1     -12.983  15.357  72.804  1.00  0.00    -0.448 A  
HETATM   10  O   UNL     1     -13.435  16.156  73.812  1.00  0.00    -0.913 OA 
HETATM   11  C   UNL     1     -12.063  15.895  71.915  1.00  0.00    -0.578 A  
HETATM   12  C   UNL     1     -11.610  15.129  70.840  1.00  0.00    -0.380 A  
HETATM   13  H   UNL     1     -13.127  17.049  73.914  1.00  0.00     0.000 HD 
ENDBRANCH   3   6
ENDBRANCH   1   3
BRANCH   1  14
HETATM   14  N   UNL     1     -12.158  11.037  68.033  1.00  0.00    -0.727 NA 
HETATM   15  C   UNL     1     -11.020  10.227  67.639  1.00  0.00    -0.294 C  
HETATM   16  H   UNL     1     -12.268  11.828  67.398  1.00  0.00     0.000 HD 
ENDBRANCH   1  14
TORSDOF 3
ENDMDL
MODEL        4
REMARK 921   NORMALIZED FREE ENERGY PREDICTED BY IDOCK:   -5.11 KCAL/MOL
REMARK 922        TOTAL FREE ENERGY PREDICTED BY IDOCK:   -6.28 KCAL/MOL
REMARK 923 INTER-LIGAND FREE ENERGY PREDICTED BY IDOCK:   -5.99 KCAL/MOL
REMARK 924 INTRA-LIGAND FREE ENERGY PREDICTED BY IDOCK:   -0.29 KCAL/MOL
REMARK 927      BINDING AFFINITY PREDICTED BY RF-SCORE:    0.00 PKD
ROOT
HETATM    1  C   UNL     1     -10.728  12.507  68.900  1.00  0.00    -0.165 C  
HETATM    2  C   UNL     1      -9.790  11.291  68.906  1.00  0.00    -0.153 C  
ENDROOT
BRANCH   1   3
HETATM    3  C   UNL     1     -11.774  12.431  67.742  1.00  0.00    -0.350 C  
HETATM    4  O   UNL     1     -11.780  11.114  67.166  1.00  0.00    -0.501 OA 
HETATM    5  H   UNL     1     -12.416  11.068  66.462  1.00  0.00     0.000 HD 
BRANCH   3   6
HETATM    6  C   UNL     1     -11.627  13.486  66.656  1.00  0.00    -0.396 A  
HETATM    7  C   UNL     1     -10.854  14.633  66.897  1.00  0.00    -0.305 A  
HETATM    8  C   UNL     1     -10.782  15.658  65.947  1.00  0.00    -0.336 A  
HETATM    9  C   UNL     1     -11.473  15.530  64.747  1.00  0.00    -0.313 A  
HETATM   10  O   UNL     1     -11.466  16.522  63.812  1.00  0.00    -1.615 OA 
HETATM   11  C   UNL     1     -12.206  14.384  64.469  1.00  0.00    -0.483 A  
HETATM   12  C   UNL     1     -12.280  13.364  65.418  1.00  0.00    -0.492 A  
HETATM   13  H   UNL     1     -11.938  16.435  62.991  1.00  0.00     0.000 HD 
ENDBRANCH   3   6
ENDBRANCH   1   3
BRANCH   1  14
HETATM   14  N   UNL     1     -11.479  12.617  70.173  1.00  0.00    -0.526 NA 
HETATM   15  C   UNL     1     -12.255  13.836  70.315  1.00  0.00    -0.359 C  
HETATM   16  H   UNL     1     -10.849  12.504  70.968  1.00  0.00     0.000 HD 
ENDBRANCH   1  14
TORSDOF 3
ENDMDL
MODEL        5
REMARK 921   NORMALIZED FREE ENERGY PREDICTED BY IDOCK:   -5.07 KCAL/MOL
REMARK 922        TOTAL FREE ENERGY PREDICTED BY IDOCK:   -6.24 KCAL/MOL
REMARK 923 INTER-LIGAND FREE ENERGY PREDICTED BY IDOCK:   -6.05 KCAL/MOL
REMARK 924 INTRA-LIGAND FREE ENERGY PREDICTED BY IDOCK:   -0.19 KCAL/MOL
REMARK 927      BINDING AFFINITY PREDICTED BY RF-SCORE:    0.00 PKD
ROOT
HETATM    1  C   UNL     1     -11.934  15.416  69.312  1.00  0.00    -0.310 C  
HETATM    2  C   UNL     1     -10.940  16.196  70.184  1.00  0.00    -0.359 C  
ENDROOT
BRANCH   1   3
HETATM    3  C   UNL     1     -11.269  14.173  68.638  1.00  0.00    -0.266 C  
HETATM    4  O   UNL     1      -9.869  14.125  68.960  1.00  0.00    -0.386 OA 
HETATM    5  H   UNL     1      -9.465  13.370  68.550  1.00  0.00     0.000 HD 
BRANCH   3   6
HETATM    6  C   UNL     1     -11.474  14.055  67.136  1.00  0.00    -0.373 A  
HETATM    7  C   UNL     1     -11.154  15.137  66.300  1.00  0.00    -0.309 A  
HETATM    8  C   UNL     1     -11.421  15.083  64.928  1.00  0.00    -0.399 A  
HETATM    9  C   UNL     1     -11.997  13.939  64.386  1.00  0.00    -0.450 A  
HETATM   10  O   UNL     1     -12.315  13.860  63.063  1.00  0.00    -1.101 OA 
HETATM   11  C   UNL     1     -12.279  12.840  65.186  1.00  0.00    -0.530 A  
HETATM   12  C   UNL     1     -12.015  12.896  66.555  1.00  0.00    -0.447 A  
HETATM   13  H   UNL     1     -12.708  13.078  62.692  1.00  0.00     0.000 HD 
ENDBRANCH   3   6
ENDBRANCH   1   3
BRANCH   1  14
HETATM   14  N   UNL     1     -13.086  14.929  70.108  1.00  0.00    -0.607 NA 
HETATM   15  C   UNL     1     -13.221  15.543  71.416  1.00  0.00    -0.510 C  
HETATM   16  H   UNL     1     -13.053  13.913  70.195  1.00  0.00     0.000 HD 
ENDBRANCH   1  14
TORSDOF 3
ENDMDL
MODEL        6
REMARK 921   NORMALIZED FREE ENERGY PREDICTED BY IDOCK:   -5.05 KCAL/MOL
REMARK 922        TOTAL FREE ENERGY PREDICTED BY IDOCK:   -6.22 KCAL/MOL
REMARK 923 INTER-LIGAND FREE ENERGY PREDICTED BY IDOCK:   -5.99 KCAL/MOL
REMARK 924 INTRA-LIGAND FREE ENERGY PREDICTED BY IDOCK:   -0.23 KCAL/MOL
REMARK 927      BINDING AFFINITY PREDICTED BY RF-SCORE:    0.00 PKD
ROOT
HETATM    1  C   UNL     1     -12.402   9.670  71.779  1.00  0.00    -0.392 C  
HETATM    2  C   UNL     1     -11.617   8.577  71.039  1.00  0.00    -0.317 C  
ENDROOT
BRANCH   1   3
HETATM    3  C   UNL     1     -13.078  10.674  70.790  1.00  0.00    -0.219 C  
HETATM    4  O   UNL     1     -12.650  10.407  69.444  1.00  0.00    -0.687 OA 
HETATM    5  H   UNL     1     -13.061  11.017  68.843  1.00  0.00     0.000 HD 
BRANCH   3   6
HETATM    6  C   UNL     1     -12.894  12.146  71.124  1.00  0.00    -0.313 A  
HETATM    7  C   UNL     1     -13.522  12.690  72.256  1.00  0.00    -0.541 A  
HETATM    8  C   UNL     1     -13.443  14.059  72.529  1.00  0.00    -0.661 A  
HETATM    9  C   UNL     1     -12.722  14.887  71.676  1.00  0.00    -0.330 A  
HETATM   10  O   UNL     1     -12.654  16.234  71.879  1.00  0.00    -0.537 OA 
HETATM   11  C   UNL     1     -12.055  14.364  70.576  1.00  0.00    -0.404 A  
HETATM   12  C   UNL     1     -12.137  12.998  70.303  1.00  0.00    -0.388 A  
HETATM   13  H   UNL     1     -12.161  16.800  71.296  1.00  0.00     0.000 HD 
ENDBRANCH   3   6
ENDBRANCH   1   3
BRANCH   1  14
HETATM   14  N   UNL     1     -13.472   9.089  72.625  1.00  0.00    -0.733 NA 
HETATM   15  C   UNL     1     -14.354   8.164  71.936  1.00  0.00    -0.472 C  
HETATM   16  H   UNL     1     -14.014   9.831  73.070  1.00  0.00     0.000 HD 
ENDBRANCH   1  14
TORSDOF 3
ENDMDL
MODEL        7
REMARK 921   NORMALIZED FREE ENERGY PREDICTED BY IDOCK:   -4.98 KCAL/MOL
REMARK 922        TOTAL FREE ENERGY PREDICTED BY IDOCK:   -6.14 KCAL/MOL
REMARK 923 INTER-LIGAND FREE ENERGY PREDICTED BY IDOCK:   -6.05 KCAL/MOL
REMARK 924 INTRA-LIGAND FREE ENERGY PREDICTED BY IDOCK:   -0.09 KCAL/MOL
REMARK 927      BINDING AFFINITY PREDICTED BY RF-SCORE:    0.00 PKD
ROOT
HETATM    1  C   UNL     1     -11.808  13.317  63.486  1.00  0.00    -0.418 C  
HETATM    2  C   UNL     1     -12.679  12.059  63.625  1.00  0.00    -0.550 C  
ENDROOT
BRANCH   1   3
HETATM    3  C   UNL     1     -12.284  14.463  64.435  1.00  0.00    -0.458 C  
HETATM    4  O   UNL     1     -12.083  15.741  63.808  1.00  0.00    -1.125 OA 
HETATM    5  H   UNL     1     -12.372  16.438  64.386  1.00  0.00     0.000 HD 
BRANCH   3   6
HETATM    6  C   UNL     1     -11.676  14.454  65.829  1.00  0.00    -0.362 A  
HETATM    7  C   UNL     1     -12.144  13.543  66.789  1.00  0.00    -0.425 A  
HETATM    8  C   UNL     1     -11.665  13.580  68.103  1.00  0.00    -0.396 A  
HETATM    9  C   UNL     1     -10.704  14.522  68.456  1.00  0.00    -0.250 A  
HETATM   10  O   UNL     1     -10.241  14.622  69.734  1.00  0.00    -0.431 OA 
HETATM   11  C   UNL     1     -10.194  15.402  67.512  1.00  0.00    -0.244 A  
HETATM   12  C   UNL     1     -10.675  15.366  66.202  1.00  0.00    -0.316 A  
HETATM   13  H   UNL     1      -9.584  15.265  69.975  1.00  0.00     0.000 HD 
ENDBRANCH   3   6
ENDBRANCH   1   3
BRANCH   1  14
HETATM   14  N   UNL     1     -10.389  13.032  63.808  1.00  0.00    -0.648 NA 
HETATM   15  C   UNL     1      -9.917  11.734  63.363  1.00  0.00    -0.423 C  
HETATM   16  H   UNL     1     -10.223  13.146  64.808  1.00  0.00     0.000 HD 
ENDBRANCH   1  14
TORSDOF 3
ENDMDL
MODEL        8
REMARK 921   NORMALIZED FREE ENERGY PREDICTED BY IDOCK:   -4.97 KCAL/MOL
REMARK 922        TOTAL FREE ENERGY PREDICTED BY IDOCK:   -6.12 KCAL/MOL
REMARK 923 INTER-LIGAND FREE ENERGY PREDICTED BY IDOCK:   -5.85 KCAL/MOL
REMARK 924 INTRA-LIGAND FREE ENERGY PREDICTED BY IDOCK:   -0.27 KCAL/MOL
REMARK 927      BINDING AFFINITY PREDICTED BY RF-SCORE:    0.00 PKD
ROOT
HETATM    1  C   UNL     1     -11.230  10.602  67.707  1.00  0.00    -0.313 C  
HETATM    2  C   UNL     1     -10.072  10.069  66.851  1.00  0.00    -0.287 C  
ENDROOT
BRANCH   1   3
HETATM    3  C   UNL     1     -10.742  11.092  69.108  1.00  0.00    -0.234 C  
HETATM    4  O   UNL     1      -9.333  10.846  69.255  1.00  0.00    -0.377 OA 
HETATM    5  H   UNL     1      -9.036  11.144  70.107  1.00  0.00     0.000 HD 
BRANCH   3   6
HETATM    6  C   UNL     1     -11.505  10.535  70.300  1.00  0.00    -0.416 A  
HETATM    7  C   UNL     1     -11.230   9.238  70.762  1.00  0.00    -0.351 A  
HETATM    8  C   UNL     1     -11.984   8.672  71.795  1.00  0.00    -0.402 A  
HETATM    9  C   UNL     1     -13.009   9.410  72.379  1.00  0.00    -0.351 A  
HETATM   10  O   UNL     1     -13.797   8.883  73.359  1.00  0.00    -1.192 OA 
HETATM   11  C   UNL     1     -13.269  10.710  71.969  1.00  0.00    -0.473 A  
HETATM   12  C   UNL     1     -12.518  11.273  70.936  1.00  0.00    -0.493 A  
HETATM   13  H   UNL     1     -14.497   9.387  73.758  1.00  0.00     0.000 HD 
ENDBRANCH   3   6
ENDBRANCH   1   3
BRANCH   1  14
HETATM   14  N   UNL     1     -11.911  11.743  67.049  1.00  0.00    -0.607 NA 
HETATM   15  C   UNL     1     -11.653  13.035  67.658  1.00  0.00    -0.355 C  
HETATM   16  H   UNL     1     -12.915  11.572  66.992  1.00  0.00     0.000 HD 
ENDBRANCH   1  14
TORSDOF 3
ENDMDL
MODEL        9
REMARK 921   NORMALIZED FREE ENERGY PREDICTED BY IDOCK:   -4.97 KCAL/MOL
REMARK 922        TOTAL FREE ENERGY PREDICTED BY IDOCK:   -6.12 KCAL/MOL
REMARK 923 INTER-LIGAND FREE ENERGY PREDICTED BY IDOCK:   -5.90 KCAL/MOL
REMARK 924 INTRA-LIGAND FREE ENERGY PREDICTED BY IDOCK:   -0.22 KCAL/MOL
REMARK 927      BINDING AFFINITY PREDICTED BY RF-SCORE:    0.00 PKD
ROOT
HETATM    1  C   UNL     1     -12.152  13.530  68.148  1.00  0.00    -0.255 C  
HETATM    2  C   UNL     1     -11.451  12.185  67.908  1.00  0.00    -0.392 C  
ENDROOT
BRANCH   1   3
HETATM    3  C   UNL     1     -11.294  14.484  69.039  1.00  0.00    -0.272 C  
HETATM    4  O   UNL     1     -10.005  13.901  69.291  1.00  0.00    -0.423 OA 
HETATM    5  H   UNL     1      -9.484  14.481  69.833  1.00  0.00     0.000 HD 
BRANCH   3   6
HETATM    6  C   UNL     1     -11.943  14.922  70.343  1.00  0.00    -0.368 A  
HETATM    7  C   UNL     1     -13.196  14.404  70.709  1.00  0.00    -0.288 A  
HETATM    8  C   UNL     1     -13.852  14.863  71.856  1.00  0.00    -0.557 A  
HETATM    9  C   UNL     1     -13.248  15.833  72.649  1.00  0.00    -0.502 A  
HETATM   10  O   UNL     1     -13.870  16.340  73.750  1.00  0.00    -0.842 OA 
HETATM   11  C   UNL     1     -11.990  16.326  72.331  1.00  0.00    -0.630 A  
HETATM   12  C   UNL     1     -11.337  15.870  71.185  1.00  0.00    -0.435 A  
HETATM   13  H   UNL     1     -13.458  17.004  74.293  1.00  0.00     0.000 HD 
ENDBRANCH   3   6
ENDBRANCH   1   3
BRANCH   1  14
HETATM   14  N   UNL     1     -12.422  14.235  66.871  1.00  0.00    -0.543 NA 
HETATM   15  C   UNL     1     -12.563  13.365  65.718  1.00  0.00    -0.393 C  
HETATM   16  H   UNL     1     -11.706  14.941  66.698  1.00  0.00     0.000 HD 
ENDBRANCH   1  14
TORSDOF 3
ENDMDL
MODEL       10
REMARK 921   NORMALIZED FREE ENERGY PREDICTED BY IDOCK:   -4.96 KCAL/MOL
REMARK 922        TOTAL FREE ENERGY PREDICTED BY IDOCK:   -6.11 KCAL/MOL
REMARK 923 INTER-LIGAND FREE ENERGY PREDICTED BY IDOCK:   -5.95 KCAL/MOL
REMARK 924 INTRA-LIGAND FREE ENERGY PREDICTED BY IDOCK:   -0.16 KCAL/MOL
REMARK 927      BINDING AFFINITY PREDICTED BY RF-SCORE:    0.00 PKD
ROOT
HETATM    1  C   UNL     1     -12.155  13.271  68.180  1.00  0.00    -0.211 C  
HETATM    2  C   UNL     1     -11.644  12.308  67.098  1.00  0.00    -0.423 C  
ENDROOT
BRANCH   1   3
HETATM    3  C   UNL     1     -11.355  13.127  69.514  1.00  0.00    -0.160 C  
HETATM    4  O   UNL     1     -11.198  11.738  69.850  1.00  0.00    -0.466 OA 
HETATM    5  H   UNL     1     -10.712  11.651  70.661  1.00  0.00     0.000 HD 
BRANCH   3   6
HETATM    6  C   UNL     1     -11.914  13.900  70.699  1.00  0.00    -0.364 A  
HETATM    7  C   UNL     1     -12.949  13.346  71.470  1.00  0.00    -0.429 A  
HETATM    8  C   UNL     1     -13.539  14.078  72.505  1.00  0.00    -0.670 A  
HETATM    9  C   UNL     1     -13.086  15.364  72.781  1.00  0.00    -0.466 A  
HETATM   10  O   UNL     1     -13.661  16.129  73.751  1.00  0.00    -0.902 OA 
HETATM   11  C   UNL     1     -12.033  15.913  72.062  1.00  0.00    -0.602 A  
HETATM   12  C   UNL     1     -11.446  15.183  71.027  1.00  0.00    -0.372 A  
HETATM   13  H   UNL     1     -13.350  17.008  73.940  1.00  0.00     0.000 HD 
ENDBRANCH   3   6
ENDBRANCH   1   3
BRANCH   1  14
HETATM   14  N   UNL     1     -12.043  14.684  67.744  1.00  0.00    -0.587 NA 
HETATM   15  C   UNL     1     -10.767  15.034  67.148  1.00  0.00    -0.303 C  
HETATM   16  H   UNL     1     -12.257  15.312  68.519  1.00  0.00     0.000 HD 
ENDBRANCH   1  14
TORSDOF 3
ENDMDL
MODEL       11
REMARK 921   NORMALIZED FREE ENERGY PREDICTED BY IDOCK:   -4.95 KCAL/MOL
REMARK 922        TOTAL FREE ENERGY PREDICTED BY IDOCK:   -6.10 KCAL/MOL
REMARK 923 INTER-LIGAND FREE ENERGY PREDICTED BY IDOCK:   -5.89 KCAL/MOL
REMARK 924 INTRA-LIGAND FREE ENERGY PREDICTED BY IDOCK:   -0.21 KCAL/MOL
REMARK 927      BINDING AFFINITY PREDICTED BY RF-SCORE:    0.00 PKD
ROOT
HETATM    1  C   UNL     1     -11.217  12.953  68.897  1.00  0.00    -0.279 C  
HETATM    2  C   UNL     1      -9.951  13.556  68.270  1.00  0.00    -0.237 C  
ENDROOT
BRANCH   1   3
HETATM    3  C   UNL     1     -12.315  14.035  69.149  1.00  0.00    -0.134 C  
HETATM    4  O   UNL     1     -12.156  15.126  68.227  1.00  0.00    -0.543 OA 
HETATM    5  H   UNL     1     -12.824  15.784  68.381  1.00  0.00     0.000 HD 
BRANCH   3   6
HETATM    6  C   UNL     1     -12.406  14.555  70.576  1.00  0.00    -0.403 A  
HETATM    7  C   UNL     1     -13.172  13.859  71.525  1.00  0.00    -0.425 A  
HETATM    8  C   UNL     1     -13.345  14.369  72.816  1.00  0.00    -0.606 A  
HETATM    9  C   UNL     1     -12.740  15.572  73.165  1.00  0.00    -0.478 A  
HETATM   10  O   UNL     1     -12.917  16.128  74.397  1.00  0.00    -0.930 OA 
HETATM   11  C   UNL     1     -11.941  16.253  72.257  1.00  0.00    -0.605 A  
HETATM   12  C   UNL     1     -11.771  15.745  70.968  1.00  0.00    -0.462 A  
HETATM   13  H   UNL     1     -12.503  16.949  74.636  1.00  0.00     0.000 HD 
ENDBRANCH   3   6
ENDBRANCH   1   3
BRANCH   1  14
HETATM   14  N   UNL     1     -11.810  11.911  68.024  1.00  0.00    -0.526 NA 
HETATM   15  C   UNL     1     -11.396  10.555  68.334  1.00  0.00    -0.262 C  
HETATM   16  H   UNL     1     -11.624  12.123  67.043  1.00  0.00     0.000 HD 
ENDBRANCH   1  14
TORSDOF 3
ENDMDL
MODEL       12
REMARK 921   NORMALIZED FREE ENERGY PREDICTED BY IDOCK:   -4.94 KCAL/MOL
REMARK 922        TOTAL FREE ENERGY PREDICTED BY IDOCK:   -6.09 KCAL/MOL
REMARK 923 INTER-LIGAND FREE ENERGY PREDICTED BY IDOCK:   -5.80 KCAL/MOL
REMARK 924 INTRA-LIGAND FREE ENERGY PREDICTED BY IDOCK:   -0.29 KCAL/MOL
REMARK 927      BINDING AFFINITY PREDICTED BY RF-SCORE:    0.00 PKD
ROOT
HETATM    1  C   UNL     1     -12.972   7.451  71.686  1.00  0.00    -0.366 C  
HETATM    2  C   UNL     1     -14.409   6.908  71.660  1.00  0.00    -0.382 C  
ENDROOT
BRANCH   1   3
HETATM    3  C   UNL     1     -12.876   8.809  72.453  1.00  0.00    -0.371 C  
HETATM    4  O   UNL     1     -14.067   9.026  73.228  1.00  0.00    -1.218 OA 
HETATM    5  H   UNL     1     -14.008   9.851  73.694  1.00  0.00     0.000 HD 
BRANCH   3   6
HETATM    6  C   UNL     1     -12.572  10.026  71.594  1.00  0.00    -0.524 A  
HETATM    7  C   UNL     1     -11.663   9.921  70.529  1.00  0.00    -0.373 A  
HETATM    8  C   UNL     1     -11.299  11.048  69.786  1.00  0.00    -0.366 A  
HETATM    9  C   UNL     1     -11.855  12.284  70.098  1.00  0.00    -0.272 A  
HETATM   10  O   UNL     1     -11.497  13.416  69.429  1.00  0.00    -0.272 OA 
HETATM   11  C   UNL     1     -12.790  12.403  71.117  1.00  0.00    -0.299 A  
HETATM   12  C   UNL     1     -13.151  11.278  71.860  1.00  0.00    -0.510 A  
HETATM   13  H   UNL     1     -11.877  14.261  69.642  1.00  0.00     0.000 HD 
ENDBRANCH   3   6
ENDBRANCH   1   3
BRANCH   1  14
HETATM   14  N   UNL     1     -12.046   6.499  72.346  1.00  0.00    -0.521 NA 
HETATM   15  C   UNL     1     -10.871   7.112  72.940  1.00  0.00    -0.323 C  
HETATM   16  H   UNL     1     -11.771   5.764  71.695  1.00  0.00     0.000 HD 
ENDBRANCH   1  14
TORSDOF 3
ENDMDL
MODEL       13
REMARK 921   NORMALIZED FREE ENERGY PREDICTED BY IDOCK:   -4.94 KCAL/MOL
REMARK 922        TOTAL FREE ENERGY PREDICTED BY IDOCK:   -6.08 KCAL/MOL
REMARK 923 INTER-LIGAND FREE ENERGY PREDICTED BY IDOCK:   -5.77 KCAL/MOL
REMARK 924 INTRA-LIGAND FREE ENERGY PREDICTED BY IDOCK:   -0.31 KCAL/MOL
REMARK 927      BINDING AFFINITY PREDICTED BY RF-SCORE:    0.00 PKD
ROOT
HETATM    1  C   UNL     1     -12.033  12.905  68.656  1.00  0.00    -0.247 C  
HETATM    2  C   UNL     1     -11.550  11.706  69.486  1.00  0.00    -0.397 C  
ENDROOT
BRANCH   1   3
HETATM    3  C   UNL     1     -11.390  14.245  69.137  1.00  0.00    -0.276 C  
HETATM    4  O   UNL     1      -9.972  14.081  69.306  1.00  0.00    -0.428 OA 
HETATM    5  H   UNL     1      -9.581  14.895  69.599  1.00  0.00     0.000 HD 
BRANCH   3   6
HETATM    6  C   UNL     1     -12.006  14.855  70.386  1.00  0.00    -0.368 A  
HETATM    7  C   UNL     1     -11.178  15.421  71.369  1.00  0.00    -0.402 A  
HETATM    8  C   UNL     1     -11.717  15.903  72.567  1.00  0.00    -0.564 A  
HETATM    9  C   UNL     1     -13.090  15.832  72.778  1.00  0.00    -0.503 A  
HETATM   10  O   UNL     1     -13.653  16.250  73.947  1.00  0.00    -0.906 OA 
HETATM   11  C   UNL     1     -13.932  15.319  71.801  1.00  0.00    -0.638 A  
HETATM   12  C   UNL     1     -13.393  14.836  70.608  1.00  0.00    -0.216 A  
HETATM   13  H   UNL     1     -14.591  16.202  74.092  1.00  0.00     0.000 HD 
ENDBRANCH   3   6
ENDBRANCH   1   3
BRANCH   1  14
HETATM   14  N   UNL     1     -11.698  12.739  67.221  1.00  0.00    -0.369 NA 
HETATM   15  C   UNL     1     -12.064  13.865  66.380  1.00  0.00    -0.455 C  
HETATM   16  H   UNL     1     -12.107  11.878  66.858  1.00  0.00     0.000 HD 
ENDBRANCH   1  14
TORSDOF 3
ENDMDL
MODEL       14
REMARK 921   NORMALIZED FREE ENERGY PREDICTED BY IDOCK:   -4.92 KCAL/MOL
REMARK 922        TOTAL FREE ENERGY PREDICTED BY IDOCK:   -6.07 KCAL/MOL
REMARK 923 INTER-LIGAND FREE ENERGY PREDICTED BY IDOCK:   -5.87 KCAL/MOL
REMARK 924 INTRA-LIGAND FREE ENERGY PREDICTED BY IDOCK:   -0.20 KCAL/MOL
REMARK 927      BINDING AFFINITY PREDICTED BY RF-SCORE:    0.00 PKD
ROOT
HETATM    1  C   UNL     1     -12.016  14.571  65.176  1.00  0.00    -0.369 C  
HETATM    2  C   UNL     1     -12.052  13.312  66.055  1.00  0.00    -0.491 C  
ENDROOT
BRANCH   1   3
HETATM    3  C   UNL     1     -10.624  15.277  65.226  1.00  0.00    -0.417 C  
HETATM    4  O   UNL     1      -9.581  14.304  65.407  1.00  0.00    -0.544 OA 
HETATM    5  H   UNL     1      -8.734  14.734  65.438  1.00  0.00     0.000 HD 
BRANCH   3   6
HETATM    6  C   UNL     1     -10.492  16.394  66.250  1.00  0.00    -0.298 A  
HETATM    7  C   UNL     1     -10.344  16.080  67.611  1.00  0.00    -0.284 A  
HETATM    8  C   UNL     1     -10.316  17.090  68.578  1.00  0.00    -0.359 A  
HETATM    9  C   UNL     1     -10.421  18.420  68.184  1.00  0.00    -0.327 A  
HETATM   10  O   UNL     1     -10.441  19.434  69.095  1.00  0.00    -0.508 OA 
HETATM   11  C   UNL     1     -10.522  18.755  66.841  1.00  0.00    -0.472 A  
HETATM   12  C   UNL     1     -10.553  17.747  65.876  1.00  0.00    -0.205 A  
HETATM   13  H   UNL     1     -10.513  20.342  68.826  1.00  0.00     0.000 HD 
ENDBRANCH   3   6
ENDBRANCH   1   3
BRANCH   1  14
HETATM   14  N   UNL     1     -12.302  14.249  63.758  1.00  0.00    -1.063 NA 
HETATM   15  C   UNL     1     -12.065  12.864  63.391  1.00  0.00    -0.530 C  
HETATM   16  H   UNL     1     -11.782  14.873  63.141  1.00  0.00     0.000 HD 
ENDBRANCH   1  14
TORSDOF 3
ENDMDL
MODEL       15
REMARK 921   NORMALIZED FREE ENERGY PREDICTED BY IDOCK:   -4.90 KCAL/MOL
REMARK 922        TOTAL FREE ENERGY PREDICTED BY IDOCK:   -6.04 KCAL/MOL
REMARK 923 INTER-LIGAND FREE ENERGY PREDICTED BY IDOCK:   -5.72 KCAL/MOL
REMARK 924 INTRA-LIGAND FREE ENERGY PREDICTED BY IDOCK:   -0.31 KCAL/MOL
REMARK 927      BINDING AFFINITY PREDICTED BY RF-SCORE:    0.00 PKD
ROOT
HETATM    1  C   UNL     1     -11.833   9.809  71.552  1.00  0.00    -0.399 C  
HETATM    2  C   UNL     1     -10.492   9.530  70.857  1.00  0.00    -0.382 C  
ENDROOT
BRANCH   1   3
HETATM    3  C   UNL     1     -12.774  10.692  70.672  1.00  0.00    -0.359 C  
HETATM    4  O   UNL     1     -12.481  10.492  69.279  1.00  0.00    -0.714 OA 
HETATM    5  H   UNL     1     -13.053  11.029  68.744  1.00  0.00     0.000 HD 
BRANCH   3   6
HETATM    6  C   UNL     1     -12.780  12.176  71.005  1.00  0.00    -0.322 A  
HETATM    7  C   UNL     1     -12.060  13.075  70.203  1.00  0.00    -0.377 A  
HETATM    8  C   UNL     1     -11.976  14.429  70.546  1.00  0.00    -0.395 A  
HETATM    9  C   UNL     1     -12.626  14.889  71.686  1.00  0.00    -0.329 A  
HETATM   10  O   UNL     1     -12.536  16.191  72.081  1.00  0.00    -0.465 OA 
HETATM   11  C   UNL     1     -13.382  14.026  72.468  1.00  0.00    -0.639 A  
HETATM   12  C   UNL     1     -13.462  12.675  72.127  1.00  0.00    -0.561 A  
HETATM   13  H   UNL     1     -12.980  16.505  72.860  1.00  0.00     0.000 HD 
ENDBRANCH   3   6
ENDBRANCH   1   3
BRANCH   1  14
HETATM   14  N   UNL     1     -12.557   8.551  71.855  1.00  0.00    -0.334 NA 
HETATM   15  C   UNL     1     -13.989   8.705  72.033  1.00  0.00    -0.446 C  
HETATM   16  H   UNL     1     -12.146   8.092  72.669  1.00  0.00     0.000 HD 
ENDBRANCH   1  14
TORSDOF 3
ENDMDL
MODEL       16
REMARK 921   NORMALIZED FREE ENERGY PREDICTED BY IDOCK:   -4.87 KCAL/MOL
REMARK 922        TOTAL FREE ENERGY PREDICTED BY IDOCK:   -6.01 KCAL/MOL
REMARK 923 INTER-LIGAND FREE ENERGY PREDICTED BY IDOCK:   -5.77 KCAL/MOL
REMARK 924 INTRA-LIGAND FREE ENERGY PREDICTED BY IDOCK:   -0.24 KCAL/MOL
REMARK 927      BINDING AFFINITY PREDICTED BY RF-SCORE:    0.00 PKD
ROOT
HETATM    1  C   UNL     1      -9.700  11.231  67.512  1.00  0.00    -0.177 C  
HETATM    2  C   UNL     1     -10.069   9.866  66.913  1.00  0.00    -0.285 C  
ENDROOT
BRANCH   1   3
HETATM    3  C   UNL     1     -10.943  12.170  67.634  1.00  0.00    -0.243 C  
HETATM    4  O   UNL     1     -12.148  11.390  67.702  1.00  0.00    -0.630 OA 
HETATM    5  H   UNL     1     -12.904  11.961  67.775  1.00  0.00     0.000 HD 
BRANCH   3   6
HETATM    6  C   UNL     1     -11.063  13.239  66.559  1.00  0.00    -0.313 A  
HETATM    7  C   UNL     1     -10.028  14.173  66.383  1.00  0.00    -0.302 A  
HETATM    8  C   UNL     1     -10.159  15.220  65.465  1.00  0.00    -0.408 A  
HETATM    9  C   UNL     1     -11.322  15.328  64.710  1.00  0.00    -0.391 A  
HETATM   10  O   UNL     1     -11.510  16.357  63.836  1.00  0.00    -1.569 OA 
HETATM   11  C   UNL     1     -12.338  14.391  64.835  1.00  0.00    -0.414 A  
HETATM   12  C   UNL     1     -12.208  13.348  65.752  1.00  0.00    -0.507 A  
HETATM   13  H   UNL     1     -12.304  16.431  63.319  1.00  0.00     0.000 HD 
ENDBRANCH   3   6
ENDBRANCH   1   3
BRANCH   1  14
HETATM   14  N   UNL     1      -9.116  11.087  68.868  1.00  0.00    -0.303 NA 
HETATM   15  C   UNL     1      -9.627   9.962  69.630  1.00  0.00    -0.227 C  
HETATM   16  H   UNL     1      -9.228  11.953  69.396  1.00  0.00     0.000 HD 
ENDBRANCH   1  14
TORSDOF 3
ENDMDL
MODEL       17
REMARK 921   NORMALIZED FREE ENERGY PREDICTED BY IDOCK:   -4.86 KCAL/MOL
REMARK 922        TOTAL FREE ENERGY PREDICTED BY IDOCK:   -5.99 KCAL/MOL
REMARK 923 INTER-LIGAND FREE ENERGY PREDICTED BY IDOCK:   -5.76 KCAL/MOL
REMARK 924 INTRA-LIGAND FREE ENERGY PREDICTED BY IDOCK:   -0.23 KCAL/MOL
REMARK 927      BINDING AFFINITY PREDICTED BY RF-SCORE:    0.00 PKD
ROOT
HETATM    1  C   UNL     1     -11.100  10.661  67.712  1.00  0.00    -0.321 C  
HETATM    2  C   UNL     1      -9.842  10.270  66.922  1.00  0.00    -0.244 C  
ENDROOT
BRANCH   1   3
HETATM    3  C   UNL     1     -10.763  11.051  69.187  1.00  0.00    -0.234 C  
HETATM    4  O   UNL     1      -9.389  10.744  69.479  1.00  0.00    -0.406 OA 
HETATM    5  H   UNL     1      -9.185  10.980  70.376  1.00  0.00     0.000 HD 
BRANCH   3   6
HETATM    6  C   UNL     1     -11.677  10.456  70.247  1.00  0.00    -0.406 A  
HETATM    7  C   UNL     1     -12.605  11.275  70.910  1.00  0.00    -0.467 A  
HETATM    8  C   UNL     1     -13.389  10.768  71.952  1.00  0.00    -0.445 A  
HETATM    9  C   UNL     1     -13.256   9.435  72.324  1.00  0.00    -0.446 A  
HETATM   10  O   UNL     1     -13.968   8.911  73.362  1.00  0.00    -1.236 OA 
HETATM   11  C   UNL     1     -12.378   8.596  71.652  1.00  0.00    -0.384 A  
HETATM   12  C   UNL     1     -11.594   9.102  70.615  1.00  0.00    -0.282 A  
HETATM   13  H   UNL     1     -13.878   8.000  73.616  1.00  0.00     0.000 HD 
ENDBRANCH   3   6
ENDBRANCH   1   3
BRANCH   1  14
HETATM   14  N   UNL     1     -11.791  11.817  67.093  1.00  0.00    -0.620 NA 
HETATM   15  C   UNL     1     -10.921  12.924  66.740  1.00  0.00    -0.272 C  
HETATM   16  H   UNL     1     -12.550  12.140  67.694  1.00  0.00     0.000 HD 
ENDBRANCH   1  14
TORSDOF 3
ENDMDL
MODEL       18
REMARK 921   NORMALIZED FREE ENERGY PREDICTED BY IDOCK:   -4.84 KCAL/MOL
REMARK 922        TOTAL FREE ENERGY PREDICTED BY IDOCK:   -5.97 KCAL/MOL
REMARK 923 INTER-LIGAND FREE ENERGY PREDICTED BY IDOCK:   -5.71 KCAL/MOL
REMARK 924 INTRA-LIGAND FREE ENERGY PREDICTED BY IDOCK:   -0.25 KCAL/MOL
REMARK 927      BINDING AFFINITY PREDICTED BY RF-SCORE:    0.00 PKD
ROOT
HETATM    1  C   UNL     1     -10.142  14.757  68.775  1.00  0.00    -0.237 C  
HETATM    2  C   UNL     1     -10.069  15.666  67.539  1.00  0.00    -0.253 C  
ENDROOT
BRANCH   1   3
HETATM    3  C   UNL     1     -11.613  14.358  69.118  1.00  0.00    -0.307 C  
HETATM    4  O   UNL     1     -12.478  14.651  68.009  1.00  0.00    -0.595 OA 
HETATM    5  H   UNL     1     -13.372  14.408  68.218  1.00  0.00     0.000 HD 
BRANCH   3   6
HETATM    6  C   UNL     1     -12.171  14.956  70.400  1.00  0.00    -0.393 A  
HETATM    7  C   UNL     1     -11.311  15.602  71.303  1.00  0.00    -0.451 A  
HETATM    8  C   UNL     1     -11.788  16.076  72.529  1.00  0.00    -0.630 A  
HETATM    9  C   UNL     1     -13.132  15.918  72.850  1.00  0.00    -0.507 A  
HETATM   10  O   UNL     1     -13.630  16.326  74.051  1.00  0.00    -0.856 OA 
HETATM   11  C   UNL     1     -14.009  15.324  71.953  1.00  0.00    -0.644 A  
HETATM   12  C   UNL     1     -13.532  14.848  70.731  1.00  0.00    -0.279 A  
HETATM   13  H   UNL     1     -14.549  16.218  74.271  1.00  0.00     0.000 HD 
ENDBRANCH   3   6
ENDBRANCH   1   3
BRANCH   1  14
HETATM   14  N   UNL     1      -9.375  13.505  68.571  1.00  0.00    -0.334 NA 
HETATM   15  C   UNL     1      -9.230  13.102  67.184  1.00  0.00    -0.227 C  
HETATM   16  H   UNL     1      -9.783  12.746  69.119  1.00  0.00     0.000 HD 
ENDBRANCH   1  14
TORSDOF 3
ENDMDL
MODEL       19
REMARK 921   NORMALIZED FREE ENERGY PREDICTED BY IDOCK:   -4.83 KCAL/MOL
REMARK 922        TOTAL FREE ENERGY PREDICTED BY IDOCK:   -5.95 KCAL/MOL
REMARK 923 INTER-LIGAND FREE ENERGY PREDICTED BY IDOCK:   -5.65 KCAL/MOL
REMARK 924 INTRA-LIGAND FREE ENERGY PREDICTED BY IDOCK:   -0.30 KCAL/MOL
REMARK 927      BINDING AFFINITY PREDICTED BY RF-SCORE:    0.00 PKD
ROOT
HETATM    1  C   UNL     1     -12.334  13.677  64.440  1.00  0.00    -0.338 C  
HETATM    2  C   UNL     1     -12.275  12.455  63.511  1.00  0.00    -0.661 C  
ENDROOT
BRANCH   1   3
HETATM    3  C   UNL     1     -11.137  13.707  65.443  1.00  0.00    -0.298 C  
HETATM    4  O   UNL     1     -10.029  12.960  64.914  1.00  0.00    -0.470 OA 
HETATM    5  H   UNL     1      -9.301  12.977  65.524  1.00  0.00     0.000 HD 
BRANCH   3   6
HETATM    6  C   UNL     1     -11.457  13.251  66.858  1.00  0.00    -0.376 A  
HETATM    7  C   UNL     1     -11.753  14.201  67.849  1.00  0.00    -0.402 A  
HETATM    8  C   UNL     1     -11.958  13.810  69.176  1.00  0.00    -0.403 A  
HETATM    9  C   UNL     1     -11.882  12.463  69.513  1.00  0.00    -0.303 A  
HETATM   10  O   UNL     1     -12.032  12.041  70.801  1.00  0.00    -0.452 OA 
HETATM   11  C   UNL     1     -11.637  11.502  68.542  1.00  0.00    -0.377 A  
HETATM   12  C   UNL     1     -11.429  11.893  67.218  1.00  0.00    -0.385 A  
HETATM   13  H   UNL     1     -11.980  11.120  71.031  1.00  0.00     0.000 HD 
ENDBRANCH   3   6
ENDBRANCH   1   3
BRANCH   1  14
HETATM   14  N   UNL     1     -12.302  14.944  63.670  1.00  0.00    -1.053 NA 
HETATM   15  C   UNL     1     -11.708  16.065  64.374  1.00  0.00    -0.134 C  
HETATM   16  H   UNL     1     -13.238  15.186  63.345  1.00  0.00     0.000 HD 
ENDBRANCH   1  14
TORSDOF 3
ENDMDL
MODEL       20
REMARK 921   NORMALIZED FREE ENERGY PREDICTED BY IDOCK:   -4.82 KCAL/MOL
REMARK 922        TOTAL FREE ENERGY PREDICTED BY IDOCK:   -5.95 KCAL/MOL
REMARK 923 INTER-LIGAND FREE ENERGY PREDICTED BY IDOCK:   -5.74 KCAL/MOL
REMARK 924 INTRA-LIGAND FREE ENERGY PREDICTED BY IDOCK:   -0.21 KCAL/MOL
REMARK 927      BINDING AFFINITY PREDICTED BY RF-SCORE:    0.00 PKD
ROOT
HETATM    1  C   UNL     1     -10.314  15.280  65.767  1.00  0.00    -0.344 C  
HETATM    2  C   UNL     1     -10.703  14.240  64.707  1.00  0.00    -0.435 C  
ENDROOT
BRANCH   1   3
HETATM    3  C   UNL     1     -10.941  16.680  65.469  1.00  0.00    -0.059 C  
HETATM    4  O   UNL     1     -11.213  16.811  64.064  1.00  0.00    -1.438 OA 
HETATM    5  H   UNL     1     -11.594  17.663  63.882  1.00  0.00     0.000 HD 
BRANCH   3   6
HETATM    6  C   UNL     1     -10.143  17.875  65.968  1.00  0.00    -0.258 A  
HETATM    7  C   UNL     1     -10.771  19.122  66.118  1.00  0.00    -0.442 A  
HETATM    8  C   UNL     1     -10.036  20.253  66.486  1.00  0.00    -0.528 A  
HETATM    9  C   UNL     1      -8.670  20.136  66.720  1.00  0.00    -0.307 A  
HETATM   10  O   UNL     1      -7.906  21.220  67.038  1.00  0.00    -0.717 OA 
HETATM   11  C   UNL     1      -8.037  18.905  66.623  1.00  0.00    -0.290 A  
HETATM   12  C   UNL     1      -8.770  17.777  66.253  1.00  0.00    -0.206 A  
HETATM   13  H   UNL     1      -6.973  21.140  67.198  1.00  0.00     0.000 HD 
ENDBRANCH   3   6
ENDBRANCH   1   3
BRANCH   1  14
HETATM   14  N   UNL     1     -10.765  14.870  67.119  1.00  0.00    -0.290 NA 
HETATM   15  C   UNL     1     -11.975  14.069  67.136  1.00  0.00    -0.430 C  
HETATM   16  H   UNL     1     -10.872  15.687  67.721  1.00  0.00     0.000 HD 
ENDBRANCH   1  14
TORSDOF 3
ENDMDL
MODEL       21
REMARK 921   NORMALIZED FREE ENERGY PREDICTED BY IDOCK:   -4.80 KCAL/MOL
REMARK 922        TOTAL FREE ENERGY PREDICTED BY IDOCK:   -5.92 KCAL/MOL
REMARK 923 INTER-LIGAND FREE ENERGY PREDICTED BY IDOCK:   -5.72 KCAL/MOL
REMARK 924 INTRA-LIGAND FREE ENERGY PREDICTED BY IDOCK:   -0.20 KCAL/MOL
REMARK 927      BINDING AFFINITY PREDICTED BY RF-SCORE:    0.00 PKD
ROOT
HETATM    1  C   UNL     1     -12.559  15.494  70.433  1.00  0.00    -0.378 C  
HETATM    2  C   UNL     1     -11.605  15.738  71.611  1.00  0.00    -0.537 C  
ENDROOT
BRANCH   1   3
HETATM    3  C   UNL     1     -12.280  14.127  69.730  1.00  0.00    -0.344 C  
HETATM    4  O   UNL     1     -11.425  13.314  70.550  1.00  0.00    -0.491 OA 
HETATM    5  H   UNL     1     -11.255  12.483  70.123  1.00  0.00     0.000 HD 
BRANCH   3   6
HETATM    6  C   UNL     1     -11.730  14.218  68.315  1.00  0.00    -0.377 A  
HETATM    7  C   UNL     1     -12.158  13.306  67.338  1.00  0.00    -0.327 A  
HETATM    8  C   UNL     1     -11.595  13.313  66.058  1.00  0.00    -0.384 A  
HETATM    9  C   UNL     1     -10.610  14.245  65.747  1.00  0.00    -0.309 A  
HETATM   10  O   UNL     1     -10.004  14.260  64.526  1.00  0.00    -0.640 OA 
HETATM   11  C   UNL     1     -10.204  15.186  66.683  1.00  0.00    -0.270 A  
HETATM   12  C   UNL     1     -10.764  15.176  67.962  1.00  0.00    -0.264 A  
HETATM   13  H   UNL     1      -9.331  14.897  64.314  1.00  0.00     0.000 HD 
ENDBRANCH   3   6
ENDBRANCH   1   3
BRANCH   1  14
HETATM   14  N   UNL     1     -13.975  15.488  70.875  1.00  0.00    -0.853 NA 
HETATM   15  C   UNL     1     -14.260  14.589  71.979  1.00  0.00    -0.544 C  
HETATM   16  H   UNL     1     -14.591  15.288  70.087  1.00  0.00     0.000 HD 
ENDBRANCH   1  14
TORSDOF 3
ENDMDL
MODEL       22
REMARK 921   NORMALIZED FREE ENERGY PREDICTED BY IDOCK:   -4.79 KCAL/MOL
REMARK 922        TOTAL FREE ENERGY PREDICTED BY IDOCK:   -5.91 KCAL/MOL
REMARK 923 INTER-LIGAND FREE ENERGY PREDICTED BY IDOCK:   -5.66 KCAL/MOL
REMARK 924 INTRA-LIGAND FREE ENERGY PREDICTED BY IDOCK:   -0.26 KCAL/MOL
REMARK 927      BINDING AFFINITY PREDICTED BY RF-SCORE:    0.00 PKD
ROOT
HETATM    1  C   UNL     1     -11.798  10.876  68.852  1.00  0.00    -0.270 C  
HETATM    2  C   UNL     1     -11.934  11.223  70.342  1.00  0.00    -0.471 C  
ENDROOT
BRANCH   1   3
HETATM    3  C   UNL     1     -10.832  11.855  68.111  1.00  0.00    -0.221 C  
HETATM    4  O   UNL     1     -10.452  12.931  68.985  1.00  0.00    -0.417 OA 
HETATM    5  H   UNL     1      -9.865  13.527  68.535  1.00  0.00     0.000 HD 
BRANCH   3   6
HETATM    6  C   UNL     1     -11.343  12.402  66.787  1.00  0.00    -0.391 A  
HETATM    7  C   UNL     1     -10.926  11.816  65.581  1.00  0.00    -0.348 A  
HETATM    8  C   UNL     1     -11.309  12.361  64.352  1.00  0.00    -0.396 A  
HETATM    9  C   UNL     1     -12.124  13.487  64.325  1.00  0.00    -0.431 A  
HETATM   10  O   UNL     1     -12.486  14.077  63.151  1.00  0.00    -1.137 OA 
HETATM   11  C   UNL     1     -12.586  14.056  65.504  1.00  0.00    -0.543 A  
HETATM   12  C   UNL     1     -12.200  13.514  66.731  1.00  0.00    -0.392 A  
HETATM   13  H   UNL     1     -13.043  14.847  63.133  1.00  0.00     0.000 HD 
ENDBRANCH   3   6
ENDBRANCH   1   3
BRANCH   1  14
HETATM   14  N   UNL     1     -11.272   9.503  68.662  1.00  0.00    -0.472 NA 
HETATM   15  C   UNL     1      -9.888   9.324  69.062  1.00  0.00    -0.166 C  
HETATM   16  H   UNL     1     -11.403   9.204  67.695  1.00  0.00     0.000 HD 
ENDBRANCH   1  14
TORSDOF 3
ENDMDL
MODEL       23
REMARK 921   NORMALIZED FREE ENERGY PREDICTED BY IDOCK:   -4.79 KCAL/MOL
REMARK 922        TOTAL FREE ENERGY PREDICTED BY IDOCK:   -5.91 KCAL/MOL
REMARK 923 INTER-LIGAND FREE ENERGY PREDICTED BY IDOCK:   -5.69 KCAL/MOL
REMARK 924 INTRA-LIGAND FREE ENERGY PREDICTED BY IDOCK:   -0.22 KCAL/MOL
REMARK 927      BINDING AFFINITY PREDICTED BY RF-SCORE:    0.00 PKD
ROOT
HETATM    1  C   UNL     1     -10.784  12.132  68.741  1.00  0.00    -0.219 C  
HETATM    2  C   UNL     1     -11.592  12.411  67.465  1.00  0.00    -0.431 C  
ENDROOT
BRANCH   1   3
HETATM    3  C   UNL     1     -10.734  10.607  69.078  1.00  0.00    -0.221 C  
HETATM    4  O   UNL     1     -11.078   9.832  67.917  1.00  0.00    -0.471 OA 
HETATM    5  H   UNL     1     -11.048   8.905  68.122  1.00  0.00     0.000 HD 
BRANCH   3   6
HETATM    6  C   UNL     1     -11.566  10.172  70.273  1.00  0.00    -0.379 A  
HETATM    7  C   UNL     1     -11.426   8.873  70.788  1.00  0.00    -0.319 A  
HETATM    8  C   UNL     1     -12.248   8.423  71.826  1.00  0.00    -0.377 A  
HETATM    9  C   UNL     1     -13.205   9.278  72.363  1.00  0.00    -0.426 A  
HETATM   10  O   UNL     1     -14.056   8.867  73.345  1.00  0.00    -1.256 OA 
HETATM   11  C   UNL     1     -13.330  10.581  71.901  1.00  0.00    -0.461 A  
HETATM   12  C   UNL     1     -12.512  11.029  70.863  1.00  0.00    -0.509 A  
HETATM   13  H   UNL     1     -14.710   9.451  73.712  1.00  0.00     0.000 HD 
ENDBRANCH   3   6
ENDBRANCH   1   3
BRANCH   1  14
HETATM   14  N   UNL     1      -9.386  12.607  68.611  1.00  0.00    -0.402 NA 
HETATM   15  C   UNL     1      -9.163  13.543  67.524  1.00  0.00    -0.219 C  
HETATM   16  H   UNL     1      -8.748  11.814  68.533  1.00  0.00     0.000 HD 
ENDBRANCH   1  14
TORSDOF 3
ENDMDL
MODEL       24
REMARK 921   NORMALIZED FREE ENERGY PREDICTED BY IDOCK:   -4.78 KCAL/MOL
REMARK 922        TOTAL FREE ENERGY PREDICTED BY IDOCK:   -5.90 KCAL/MOL
REMARK 923 INTER-LIGAND FREE ENERGY PREDICTED BY IDOCK:   -5.62 KCAL/MOL
REMARK 924 INTRA-LIGAND FREE ENERGY PREDICTED BY IDOCK:   -0.28 KCAL/MOL
REMARK 927      BINDING AFFINITY PREDICTED BY RF-SCORE:    0.00 PKD
ROOT
HETATM    1  C   UNL     1      -9.864  17.189  66.055  1.00  0.00    -0.219 C  
HETATM    2  C   UNL     1     -10.599  18.527  65.884  1.00  0.00    -0.336 C  
ENDROOT
BRANCH   1   3
HETATM    3  C   UNL     1     -10.447  16.080  65.120  1.00  0.00    -0.303 C  
HETATM    4  O   UNL     1     -11.456  16.637  64.262  1.00  0.00    -1.230 OA 
HETATM    5  H   UNL     1     -11.810  15.963  63.694  1.00  0.00     0.000 HD 
BRANCH   3   6
HETATM    6  C   UNL     1     -10.973  14.840  65.825  1.00  0.00    -0.334 A  
HETATM    7  C   UNL     1     -10.870  14.732  67.221  1.00  0.00    -0.309 A  
HETATM    8  C   UNL     1     -11.262  13.561  67.878  1.00  0.00    -0.302 A  
HETATM    9  C   UNL     1     -11.774  12.499  67.140  1.00  0.00    -0.355 A  
HETATM   10  O   UNL     1     -12.128  11.324  67.734  1.00  0.00    -0.631 OA 
HETATM   11  C   UNL     1     -11.928  12.601  65.764  1.00  0.00    -0.503 A  
HETATM   12  C   UNL     1     -11.533  13.768  65.109  1.00  0.00    -0.329 A  
HETATM   13  H   UNL     1     -12.477  10.598  67.230  1.00  0.00     0.000 HD 
ENDBRANCH   3   6
ENDBRANCH   1   3
BRANCH   1  14
HETATM   14  N   UNL     1      -8.420  17.320  65.745  1.00  0.00    -0.494 NA 
HETATM   15  C   UNL     1      -7.539  16.619  66.661  1.00  0.00    -0.279 C  
HETATM   16  H   UNL     1      -8.159  18.304  65.685  1.00  0.00     0.000 HD 
ENDBRANCH   1  14
TORSDOF 3
ENDMDL
MODEL       25
REMARK 921   NORMALIZED FREE ENERGY PREDICTED BY IDOCK:   -4.78 KCAL/MOL
REMARK 922        TOTAL FREE ENERGY PREDICTED BY IDOCK:   -5.90 KCAL/MOL
REMARK 923 INTER-LIGAND FREE ENERGY PREDICTED BY IDOCK:   -5.68 KCAL/MOL
REMARK 924 INTRA-LIGAND FREE ENERGY PREDICTED BY IDOCK:   -0.22 KCAL/MOL
REMARK 927      BINDING AFFINITY PREDICTED BY RF-SCORE:    0.00 PKD
ROOT
HETATM    1  C   UNL     1     -11.801  11.159  68.965  1.00  0.00    -0.348 C  
HETATM    2  C   UNL     1     -12.088  11.988  70.225  1.00  0.00    -0.395 C  
ENDROOT
BRANCH   1   3
HETATM    3  C   UNL     1     -10.662  11.787  68.100  1.00  0.00    -0.214 C  
HETATM    4  O   UNL     1      -9.952  12.778  68.861  1.00  0.00    -0.415 OA 
HETATM    5  H   UNL     1      -9.259  13.161  68.334  1.00  0.00     0.000 HD 
BRANCH   3   6
HETATM    6  C   UNL     1     -11.096  12.357  66.759  1.00  0.00    -0.333 A  
HETATM    7  C   UNL     1     -12.015  13.418  66.715  1.00  0.00    -0.447 A  
HETATM    8  C   UNL     1     -12.499  13.895  65.492  1.00  0.00    -0.541 A  
HETATM    9  C   UNL     1     -12.052  13.319  64.307  1.00  0.00    -0.416 A  
HETATM   10  O   UNL     1     -12.529  13.723  63.095  1.00  0.00    -1.089 OA 
HETATM   11  C   UNL     1     -11.110  12.300  64.325  1.00  0.00    -0.401 A  
HETATM   12  C   UNL     1     -10.630  11.823  65.545  1.00  0.00    -0.323 A  
HETATM   13  H   UNL     1     -12.224  13.330  62.285  1.00  0.00     0.000 HD 
ENDBRANCH   3   6
ENDBRANCH   1   3
BRANCH   1  14
HETATM   14  N   UNL     1     -11.389   9.776  69.308  1.00  0.00    -0.441 NA 
HETATM   15  C   UNL     1     -11.180   9.542  70.726  1.00  0.00    -0.317 C  
HETATM   16  H   UNL     1     -10.558   9.512  68.779  1.00  0.00     0.000 HD 
ENDBRANCH   1  14
TORSDOF 3
ENDMDL
MODEL       26
REMARK 921   NORMALIZED FREE ENERGY PREDICTED BY IDOCK:   -4.78 KCAL/MOL
REMARK 922        TOTAL FREE ENERGY PREDICTED BY IDOCK:   -5.89 KCAL/MOL
REMARK 923 INTER-LIGAND FREE ENERGY PREDICTED BY IDOCK:   -5.68 KCAL/MOL
REMARK 924 INTRA-LIGAND FREE ENERGY PREDICTED BY IDOCK:   -0.21 KCAL/MOL
REMARK 927      BINDING AFFINITY PREDICTED BY RF-SCORE:    0.00 PKD
ROOT
HETATM    1  C   UNL     1     -10.577  18.000  67.191  1.00  0.00    -0.325 C  
HETATM    2  C   UNL     1     -10.467  19.219  66.263  1.00  0.00    -0.567 C  
ENDROOT
BRANCH   1   3
HETATM    3  C   UNL     1      -9.787  16.772  66.635  1.00  0.00    -0.277 C  
HETATM    4  O   UNL     1      -8.869  17.194  65.614  1.00  0.00    -0.482 OA 
HETATM    5  H   UNL     1      -8.389  16.447  65.276  1.00  0.00     0.000 HD 
BRANCH   3   6
HETATM    6  C   UNL     1     -10.640  15.615  66.137  1.00  0.00    -0.325 A  
HETATM    7  C   UNL     1     -11.131  15.625  64.821  1.00  0.00    -0.426 A  
HETATM    8  C   UNL     1     -11.993  14.619  64.372  1.00  0.00    -0.454 A  
HETATM    9  C   UNL     1     -12.356  13.592  65.236  1.00  0.00    -0.467 A  
HETATM   10  O   UNL     1     -13.228  12.615  64.855  1.00  0.00    -0.819 OA 
HETATM   11  C   UNL     1     -11.847  13.538  66.526  1.00  0.00    -0.441 A  
HETATM   12  C   UNL     1     -10.990  14.543  66.974  1.00  0.00    -0.312 A  
HETATM   13  H   UNL     1     -13.476  11.913  65.445  1.00  0.00     0.000 HD 
ENDBRANCH   3   6
ENDBRANCH   1   3
BRANCH   1  14
HETATM   14  N   UNL     1     -10.046  18.297  68.542  1.00  0.00    -0.388 NA 
HETATM   15  C   UNL     1     -10.114  19.696  68.925  1.00  0.00    -0.401 C  
HETATM   16  H   UNL     1      -9.090  17.952  68.631  1.00  0.00     0.000 HD 
ENDBRANCH   1  14
TORSDOF 3
ENDMDL
MODEL       27
REMARK 921   NORMALIZED FREE ENERGY PREDICTED BY IDOCK:   -4.75 KCAL/MOL
REMARK 922        TOTAL FREE ENERGY PREDICTED BY IDOCK:   -5.87 KCAL/MOL
REMARK 923 INTER-LIGAND FREE ENERGY PREDICTED BY IDOCK:   -5.59 KCAL/MOL
REMARK 924 INTRA-LIGAND FREE ENERGY PREDICTED BY IDOCK:   -0.28 KCAL/MOL
REMARK 927      BINDING AFFINITY PREDICTED BY RF-SCORE:    0.00 PKD
ROOT
HETATM    1  C   UNL     1      -9.826   9.857  67.170  1.00  0.00    -0.186 C  
HETATM    2  C   UNL     1     -10.526   8.492  67.246  1.00  0.00    -0.366 C  
ENDROOT
BRANCH   1   3
HETATM    3  C   UNL     1     -10.819  11.036  67.428  1.00  0.00    -0.274 C  
HETATM    4  O   UNL     1     -12.004  10.552  68.081  1.00  0.00    -0.788 OA 
HETATM    5  H   UNL     1     -12.608  11.268  68.237  1.00  0.00     0.000 HD 
BRANCH   3   6
HETATM    6  C   UNL     1     -11.185  11.863  66.206  1.00  0.00    -0.392 A  
HETATM    7  C   UNL     1     -11.966  13.020  66.353  1.00  0.00    -0.466 A  
HETATM    8  C   UNL     1     -12.392  13.742  65.234  1.00  0.00    -0.491 A  
HETATM    9  C   UNL     1     -12.026  13.315  63.962  1.00  0.00    -0.465 A  
HETATM   10  O   UNL     1     -12.454  13.963  62.842  1.00  0.00    -1.034 OA 
HETATM   11  C   UNL     1     -11.216  12.200  63.795  1.00  0.00    -0.509 A  
HETATM   12  C   UNL     1     -10.794  11.478  64.912  1.00  0.00    -0.345 A  
HETATM   13  H   UNL     1     -12.204  13.671  61.972  1.00  0.00     0.000 HD 
ENDBRANCH   3   6
ENDBRANCH   1   3
BRANCH   1  14
HETATM   14  N   UNL     1      -8.738   9.963  68.172  1.00  0.00    -0.121 NA 
HETATM   15  C   UNL     1      -8.242  11.311  68.386  1.00  0.00    -0.149 C  
HETATM   16  H   UNL     1      -7.970   9.338  67.928  1.00  0.00     0.000 HD 
ENDBRANCH   1  14
TORSDOF 3
ENDMDL
MODEL       28
REMARK 921   NORMALIZED FREE ENERGY PREDICTED BY IDOCK:   -4.73 KCAL/MOL
REMARK 922        TOTAL FREE ENERGY PREDICTED BY IDOCK:   -5.84 KCAL/MOL
REMARK 923 INTER-LIGAND FREE ENERGY PREDICTED BY IDOCK:   -5.78 KCAL/MOL
REMARK 924 INTRA-LIGAND FREE ENERGY PREDICTED BY IDOCK:   -0.06 KCAL/MOL
REMARK 927      BINDING AFFINITY PREDICTED BY RF-SCORE:    0.00 PKD
ROOT
HETATM    1  C   UNL     1     -11.454  11.872  64.247  1.00  0.00    -0.346 C  
HETATM    2  C   UNL     1     -10.518  11.565  65.425  1.00  0.00    -0.333 C  
ENDROOT
BRANCH   1   3
HETATM    3  C   UNL     1     -12.202  13.230  64.436  1.00  0.00    -0.390 C  
HETATM    4  O   UNL     1     -12.359  13.889  63.168  1.00  0.00    -1.122 OA 
HETATM    5  H   UNL     1     -12.814  14.715  63.283  1.00  0.00     0.000 HD 
BRANCH   3   6
HETATM    6  C   UNL     1     -11.591  14.179  65.455  1.00  0.00    -0.337 A  
HETATM    7  C   UNL     1     -11.995  14.116  66.799  1.00  0.00    -0.475 A  
HETATM    8  C   UNL     1     -11.516  15.039  67.733  1.00  0.00    -0.347 A  
HETATM    9  C   UNL     1     -10.618  16.022  67.328  1.00  0.00    -0.313 A  
HETATM   10  O   UNL     1     -10.159  16.968  68.195  1.00  0.00    -0.279 OA 
HETATM   11  C   UNL     1     -10.170  16.074  66.015  1.00  0.00    -0.360 A  
HETATM   12  C   UNL     1     -10.651  15.154  65.083  1.00  0.00    -0.447 A  
HETATM   13  H   UNL     1      -9.545  17.639  67.918  1.00  0.00     0.000 HD 
ENDBRANCH   3   6
ENDBRANCH   1   3
BRANCH   1  14
HETATM   14  N   UNL     1     -10.707  11.948  62.968  1.00  0.00    -0.675 NA 
HETATM   15  C   UNL     1      -9.496  11.149  62.926  1.00  0.00    -0.359 C  
HETATM   16  H   UNL     1     -10.498  12.920  62.737  1.00  0.00     0.000 HD 
ENDBRANCH   1  14
TORSDOF 3
ENDMDL
MODEL       29
REMARK 921   NORMALIZED FREE ENERGY PREDICTED BY IDOCK:   -4.72 KCAL/MOL
REMARK 922        TOTAL FREE ENERGY PREDICTED BY IDOCK:   -5.82 KCAL/MOL
REMARK 923 INTER-LIGAND FREE ENERGY PREDICTED BY IDOCK:   -5.59 KCAL/MOL
REMARK 924 INTRA-LIGAND FREE ENERGY PREDICTED BY IDOCK:   -0.23 KCAL/MOL
REMARK 927      BINDING AFFINITY PREDICTED BY RF-SCORE:    0.00 PKD
ROOT
HETATM    1  C   UNL     1     -11.701  12.615  65.709  1.00  0.00    -0.419 C  
HETATM    2  C   UNL     1     -10.617  11.627  65.251  1.00  0.00    -0.333 C  
ENDROOT
BRANCH   1   3
HETATM    3  C   UNL     1     -11.135  14.060  65.885  1.00  0.00    -0.301 C  
HETATM    4  O   UNL     1      -9.768  14.114  65.442  1.00  0.00    -0.538 OA 
HETATM    5  H   UNL     1      -9.424  14.993  65.549  1.00  0.00     0.000 HD 
BRANCH   3   6
HETATM    6  C   UNL     1     -11.264  14.649  67.281  1.00  0.00    -0.344 A  
HETATM    7  C   UNL     1     -11.848  13.889  68.308  1.00  0.00    -0.412 A  
HETATM    8  C   UNL     1     -12.062  14.444  69.574  1.00  0.00    -0.366 A  
HETATM    9  C   UNL     1     -11.678  15.759  69.820  1.00  0.00    -0.348 A  
HETATM   10  O   UNL     1     -11.907  16.353  71.025  1.00  0.00    -0.589 OA 
HETATM   11  C   UNL     1     -11.058  16.512  68.833  1.00  0.00    -0.300 A  
HETATM   12  C   UNL     1     -10.848  15.959  67.569  1.00  0.00    -0.305 A  
HETATM   13  H   UNL     1     -11.645  17.251  71.193  1.00  0.00     0.000 HD 
ENDBRANCH   3   6
ENDBRANCH   1   3
BRANCH   1  14
HETATM   14  N   UNL     1     -12.814  12.688  64.732  1.00  0.00    -0.830 NA 
HETATM   15  C   UNL     1     -12.575  11.980  63.487  1.00  0.00    -0.507 C  
HETATM   16  H   UNL     1     -13.059  13.660  64.545  1.00  0.00     0.000 HD 
ENDBRANCH   1  14
TORSDOF 3
ENDMDL
MODEL       30
REMARK 921   NORMALIZED FREE ENERGY PREDICTED BY IDOCK:   -4.71 KCAL/MOL
REMARK 922        TOTAL FREE ENERGY PREDICTED BY IDOCK:   -5.81 KCAL/MOL
REMARK 923 INTER-LIGAND FREE ENERGY PREDICTED BY IDOCK:   -5.52 KCAL/MOL
REMARK 924 INTRA-LIGAND FREE ENERGY PREDICTED BY IDOCK:   -0.29 KCAL/MOL
REMARK 927      BINDING AFFINITY PREDICTED BY RF-SCORE:    0.00 PKD
ROOT
HETATM    1  C   UNL     1      -9.658  11.866  67.893  1.00  0.00    -0.193 C  
HETATM    2  C   UNL     1      -9.436  10.852  66.761  1.00  0.00    -0.200 C  
ENDROOT
BRANCH   1   3
HETATM    3  C   UNL     1     -11.088  12.493  67.841  1.00  0.00    -0.245 C  
HETATM    4  O   UNL     1     -12.079  11.459  67.717  1.00  0.00    -0.637 OA 
HETATM    5  H   UNL     1     -12.948  11.840  67.685  1.00  0.00     0.000 HD 
BRANCH   3   6
HETATM    6  C   UNL     1     -11.298  13.559  66.776  1.00  0.00    -0.351 A  
HETATM    7  C   UNL     1     -12.302  13.392  65.808  1.00  0.00    -0.513 A  
HETATM    8  C   UNL     1     -12.450  14.313  64.766  1.00  0.00    -0.390 A  
HETATM    9  C   UNL     1     -11.602  15.413  64.697  1.00  0.00    -0.311 A  
HETATM   10  O   UNL     1     -11.682  16.311  63.676  1.00  0.00    -1.447 OA 
HETATM   11  C   UNL     1     -10.632  15.622  65.669  1.00  0.00    -0.393 A  
HETATM   12  C   UNL     1     -10.483  14.701  66.707  1.00  0.00    -0.277 A  
HETATM   13  H   UNL     1     -11.102  17.063  63.629  1.00  0.00     0.000 HD 
ENDBRANCH   3   6
ENDBRANCH   1   3
BRANCH   1  14
HETATM   14  N   UNL     1      -9.496  11.236  69.225  1.00  0.00    -0.402 NA 
HETATM   15  C   UNL     1      -8.892   9.916  69.200  1.00  0.00    -0.164 C  
HETATM   16  H   UNL     1     -10.391  11.207  69.715  1.00  0.00     0.000 HD 
ENDBRANCH   1  14
TORSDOF 3
ENDMDL
MODEL       31
REMARK 921   NORMALIZED FREE ENERGY PREDICTED BY IDOCK:   -4.58 KCAL/MOL
REMARK 922        TOTAL FREE ENERGY PREDICTED BY IDOCK:   -5.67 KCAL/MOL
REMARK 923 INTER-LIGAND FREE ENERGY PREDICTED BY IDOCK:   -5.46 KCAL/MOL
REMARK 924 INTRA-LIGAND FREE ENERGY PREDICTED BY IDOCK:   -0.20 KCAL/MOL
REMARK 927      BINDING AFFINITY PREDICTED BY RF-SCORE:    0.00 PKD
ROOT
HETATM    1  C   UNL     1     -11.603  13.405  67.451  1.00  0.00    -0.354 C  
HETATM    2  C   UNL     1     -10.233  13.589  66.783  1.00  0.00    -0.264 C  
ENDROOT
BRANCH   1   3
HETATM    3  C   UNL     1     -11.595  13.879  68.939  1.00  0.00    -0.316 C  
HETATM    4  O   UNL     1     -10.290  14.365  69.297  1.00  0.00    -0.362 OA 
HETATM    5  H   UNL     1     -10.285  14.653  70.202  1.00  0.00     0.000 HD 
BRANCH   3   6
HETATM    6  C   UNL     1     -12.077  12.856  69.955  1.00  0.00    -0.357 A  
HETATM    7  C   UNL     1     -11.968  11.485  69.672  1.00  0.00    -0.407 A  
HETATM    8  C   UNL     1     -12.490  10.530  70.551  1.00  0.00    -0.433 A  
HETATM    9  C   UNL     1     -13.111  10.944  71.724  1.00  0.00    -0.459 A  
HETATM   10  O   UNL     1     -13.671  10.051  72.587  1.00  0.00    -0.628 OA 
HETATM   11  C   UNL     1     -13.189  12.292  72.046  1.00  0.00    -0.508 A  
HETATM   12  C   UNL     1     -12.671  13.245  71.168  1.00  0.00    -0.404 A  
HETATM   13  H   UNL     1     -14.096  10.334  73.389  1.00  0.00     0.000 HD 
ENDBRANCH   3   6
ENDBRANCH   1   3
BRANCH   1  14
HETATM   14  N   UNL     1     -12.657  14.173  66.745  1.00  0.00    -0.503 NA 
HETATM   15  C   UNL     1     -12.611  14.073  65.297  1.00  0.00    -0.470 C  
HETATM   16  H   UNL     1     -12.636  15.152  67.033  1.00  0.00     0.000 HD 
ENDBRANCH   1  14
TORSDOF 3
ENDMDL
MODEL       32
REMARK 921   NORMALIZED FREE ENERGY PREDICTED BY IDOCK:   -4.58 KCAL/MOL
REMARK 922        TOTAL FREE ENERGY PREDICTED BY IDOCK:   -5.66 KCAL/MOL
REMARK 923 INTER-LIGAND FREE ENERGY PREDICTED BY IDOCK:   -5.41 KCAL/MOL
REMARK 924 INTRA-LIGAND FREE ENERGY PREDICTED BY IDOCK:   -0.25 KCAL/MOL
REMARK 927      BINDING AFFINITY PREDICTED BY RF-SCORE:    0.00 PKD
ROOT
HETATM    1  C   UNL     1     -11.137  12.947  63.990  1.00  0.00    -0.414 C  
HETATM    2  C   UNL     1     -12.382  12.200  63.491  1.00  0.00    -0.682 C  
ENDROOT
BRANCH   1   3
HETATM    3  C   UNL     1     -11.064  12.983  65.550  1.00  0.00    -0.275 C  
HETATM    4  O   UNL     1     -12.184  12.280  66.115  1.00  0.00    -0.647 OA 
HETATM    5  H   UNL     1     -12.140  12.302  67.063  1.00  0.00     0.000 HD 
BRANCH   3   6
HETATM    6  C   UNL     1     -10.940  14.367  66.169  1.00  0.00    -0.320 A  
HETATM    7  C   UNL     1     -10.455  15.436  65.398  1.00  0.00    -0.426 A  
HETATM    8  C   UNL     1     -10.245  16.694  65.973  1.00  0.00    -0.366 A  
HETATM    9  C   UNL     1     -10.533  16.889  67.319  1.00  0.00    -0.301 A  
HETATM   10  O   UNL     1     -10.303  18.086  67.930  1.00  0.00    -0.356 OA 
HETATM   11  C   UNL     1     -11.057  15.859  68.088  1.00  0.00    -0.338 A  
HETATM   12  C   UNL     1     -11.264  14.604  67.515  1.00  0.00    -0.343 A  
HETATM   13  H   UNL     1     -10.501  18.219  68.851  1.00  0.00     0.000 HD 
ENDBRANCH   3   6
ENDBRANCH   1   3
BRANCH   1  14
HETATM   14  N   UNL     1      -9.891  12.311  63.500  1.00  0.00    -0.633 NA 
HETATM   15  C   UNL     1      -9.767  10.899  63.817  1.00  0.00    -0.307 C  
HETATM   16  H   UNL     1      -9.075  12.822  63.837  1.00  0.00     0.000 HD 
ENDBRANCH   1  14
TORSDOF 3
ENDMDL
MODEL       33
REMARK 921   NORMALIZED FREE ENERGY PREDICTED BY IDOCK:   -4.58 KCAL/MOL
REMARK 922        TOTAL FREE ENERGY PREDICTED BY IDOCK:   -5.66 KCAL/MOL
REMARK 923 INTER-LIGAND FREE ENERGY PREDICTED BY IDOCK:   -5.38 KCAL/MOL
REMARK 924 INTRA-LIGAND FREE ENERGY PREDICTED BY IDOCK:   -0.28 KCAL/MOL
REMARK 927      BINDING AFFINITY PREDICTED BY RF-SCORE:    0.00 PKD
ROOT
HETATM    1  C   UNL     1     -10.554  13.836  65.055  1.00  0.00    -0.389 C  
HETATM    2  C   UNL     1     -10.864  15.319  64.802  1.00  0.00    -0.379 C  
ENDROOT
BRANCH   1   3
HETATM    3  C   UNL     1     -11.787  13.074  65.639  1.00  0.00    -0.399 C  
HETATM    4  O   UNL     1     -12.982  13.850  65.452  1.00  0.00    -0.722 OA 
HETATM    5  H   UNL     1     -13.732  13.387  65.808  1.00  0.00     0.000 HD 
BRANCH   3   6
HETATM    6  C   UNL     1     -11.659  12.637  67.090  1.00  0.00    -0.434 A  
HETATM    7  C   UNL     1     -11.306  11.311  67.392  1.00  0.00    -0.349 A  
HETATM    8  C   UNL     1     -11.274  10.864  68.716  1.00  0.00    -0.329 A  
HETATM    9  C   UNL     1     -11.582  11.747  69.746  1.00  0.00    -0.299 A  
HETATM   10  O   UNL     1     -11.606  11.344  71.047  1.00  0.00    -0.199 OA 
HETATM   11  C   UNL     1     -11.889  13.074  69.474  1.00  0.00    -0.385 A  
HETATM   12  C   UNL     1     -11.923  13.518  68.151  1.00  0.00    -0.376 A  
HETATM   13  H   UNL     1     -11.816  11.947  71.751  1.00  0.00     0.000 HD 
ENDBRANCH   3   6
ENDBRANCH   1   3
BRANCH   1  14
HETATM   14  N   UNL     1     -10.154  13.146  63.806  1.00  0.00    -0.710 NA 
HETATM   15  C   UNL     1     -10.580  11.760  63.717  1.00  0.00    -0.415 C  
HETATM   16  H   UNL     1      -9.145  13.215  63.669  1.00  0.00     0.000 HD 
ENDBRANCH   1  14
TORSDOF 3
ENDMDL
MODEL       34
REMARK 921   NORMALIZED FREE ENERGY PREDICTED BY IDOCK:   -4.57 KCAL/MOL
REMARK 922        TOTAL FREE ENERGY PREDICTED BY IDOCK:   -5.66 KCAL/MOL
REMARK 923 INTER-LIGAND FREE ENERGY PREDICTED BY IDOCK:   -5.42 KCAL/MOL
REMARK 924 INTRA-LIGAND FREE ENERGY PREDICTED BY IDOCK:   -0.23 KCAL/MOL
REMARK 927      BINDING AFFINITY PREDICTED BY RF-SCORE:    0.00 PKD
ROOT
HETATM    1  C   UNL     1     -12.059  13.237  65.508  1.00  0.00    -0.435 C  
HETATM    2  C   UNL     1     -11.362  11.929  65.912  1.00  0.00    -0.365 C  
ENDROOT
BRANCH   1   3
HETATM    3  C   UNL     1     -11.031  14.369  65.185  1.00  0.00    -0.373 C  
HETATM    4  O   UNL     1      -9.746  13.800  64.884  1.00  0.00    -0.589 OA 
HETATM    5  H   UNL     1      -9.122  14.488  64.688  1.00  0.00     0.000 HD 
BRANCH   3   6
HETATM    6  C   UNL     1     -10.897  15.453  66.243  1.00  0.00    -0.301 A  
HETATM    7  C   UNL     1     -10.330  16.693  65.906  1.00  0.00    -0.355 A  
HETATM    8  C   UNL     1     -10.112  17.668  66.884  1.00  0.00    -0.331 A  
HETATM    9  C   UNL     1     -10.475  17.412  68.202  1.00  0.00    -0.389 A  
HETATM   10  O   UNL     1     -10.241  18.316  69.194  1.00  0.00    -0.433 OA 
HETATM   11  C   UNL     1     -11.079  16.211  68.549  1.00  0.00    -0.357 A  
HETATM   12  C   UNL     1     -11.294  15.236  67.574  1.00  0.00    -0.300 A  
HETATM   13  H   UNL     1     -10.489  18.141  70.095  1.00  0.00     0.000 HD 
ENDBRANCH   3   6
ENDBRANCH   1   3
BRANCH   1  14
HETATM   14  N   UNL     1     -12.908  13.050  64.308  1.00  0.00    -0.688 NA 
HETATM   15  C   UNL     1     -12.440  12.029  63.388  1.00  0.00    -0.509 C  
HETATM   16  H   UNL     1     -13.032  13.937  63.819  1.00  0.00     0.000 HD 
ENDBRANCH   1  14
TORSDOF 3
ENDMDL
MODEL       35
REMARK 921   NORMALIZED FREE ENERGY PREDICTED BY IDOCK:   -4.57 KCAL/MOL
REMARK 922        TOTAL FREE ENERGY PREDICTED BY IDOCK:   -5.65 KCAL/MOL
REMARK 923 INTER-LIGAND FREE ENERGY PREDICTED BY IDOCK:   -5.40 KCAL/MOL
REMARK 924 INTRA-LIGAND FREE ENERGY PREDICTED BY IDOCK:   -0.25 KCAL/MOL
REMARK 927      BINDING AFFINITY PREDICTED BY RF-SCORE:    0.00 PKD
ROOT
HETATM    1  C   UNL     1     -10.762  11.995  63.514  1.00  0.00    -0.455 C  
HETATM    2  C   UNL     1     -12.294  12.099  63.535  1.00  0.00    -0.682 C  
ENDROOT
BRANCH   1   3
HETATM    3  C   UNL     1     -10.170  11.812  64.948  1.00  0.00    -0.273 C  
HETATM    4  O   UNL     1     -10.374  10.463  65.399  1.00  0.00    -0.275 OA 
HETATM    5  H   UNL     1     -10.014  10.351  66.271  1.00  0.00     0.000 HD 
BRANCH   3   6
HETATM    6  C   UNL     1     -10.663  12.802  65.991  1.00  0.00    -0.295 A  
HETATM    7  C   UNL     1     -11.443  12.351  67.069  1.00  0.00    -0.423 A  
HETATM    8  C   UNL     1     -11.984  13.256  67.987  1.00  0.00    -0.351 A  
HETATM    9  C   UNL     1     -11.735  14.617  67.838  1.00  0.00    -0.351 A  
HETATM   10  O   UNL     1     -12.277  15.537  68.684  1.00  0.00    -0.567 OA 
HETATM   11  C   UNL     1     -10.929  15.080  66.807  1.00  0.00    -0.323 A  
HETATM   12  C   UNL     1     -10.391  14.176  65.889  1.00  0.00    -0.326 A  
HETATM   13  H   UNL     1     -12.106  16.467  68.582  1.00  0.00     0.000 HD 
ENDBRANCH   3   6
ENDBRANCH   1   3
BRANCH   1  14
HETATM   14  N   UNL     1     -10.308  10.846  62.694  1.00  0.00    -0.766 NA 
HETATM   15  C   UNL     1      -8.897  10.864  62.356  1.00  0.00    -0.313 C  
HETATM   16  H   UNL     1     -10.874  10.769  61.848  1.00  0.00     0.000 HD 
ENDBRANCH   1  14
TORSDOF 3
ENDMDL
MODEL       36
REMARK 921   NORMALIZED FREE ENERGY PREDICTED BY IDOCK:   -4.55 KCAL/MOL
REMARK 922        TOTAL FREE ENERGY PREDICTED BY IDOCK:   -5.63 KCAL/MOL
REMARK 923 INTER-LIGAND FREE ENERGY PREDICTED BY IDOCK:   -5.34 KCAL/MOL
REMARK 924 INTRA-LIGAND FREE ENERGY PREDICTED BY IDOCK:   -0.29 KCAL/MOL
REMARK 927      BINDING AFFINITY PREDICTED BY RF-SCORE:    0.00 PKD
ROOT
HETATM    1  C   UNL     1     -12.159  13.424  64.561  1.00  0.00    -0.409 C  
HETATM    2  C   UNL     1     -12.659  12.396  63.534  1.00  0.00    -0.535 C  
ENDROOT
BRANCH   1   3
HETATM    3  C   UNL     1     -10.829  12.967  65.242  1.00  0.00    -0.291 C  
HETATM    4  O   UNL     1      -9.905  12.486  64.251  1.00  0.00    -0.549 OA 
HETATM    5  H   UNL     1      -9.096  12.209  64.665  1.00  0.00     0.000 HD 
BRANCH   3   6
HETATM    6  C   UNL     1     -10.982  11.951  66.363  1.00  0.00    -0.337 A  
HETATM    7  C   UNL     1     -11.657  12.307  67.541  1.00  0.00    -0.422 A  
HETATM    8  C   UNL     1     -11.728  11.420  68.620  1.00  0.00    -0.394 A  
HETATM    9  C   UNL     1     -11.134  10.167  68.517  1.00  0.00    -0.214 A  
HETATM   10  O   UNL     1     -11.141   9.287  69.559  1.00  0.00    -0.378 OA 
HETATM   11  C   UNL     1     -10.500   9.777  67.345  1.00  0.00    -0.319 A  
HETATM   12  C   UNL     1     -10.427  10.663  66.270  1.00  0.00    -0.268 A  
HETATM   13  H   UNL     1     -10.735   8.431  69.489  1.00  0.00     0.000 HD 
ENDBRANCH   3   6
ENDBRANCH   1   3
BRANCH   1  14
HETATM   14  N   UNL     1     -11.908  14.741  63.930  1.00  0.00    -0.817 NA 
HETATM   15  C   UNL     1     -11.153  15.671  64.750  1.00  0.00    -0.412 C  
HETATM   16  H   UNL     1     -12.786  15.165  63.632  1.00  0.00     0.000 HD 
ENDBRANCH   1  14
TORSDOF 3
ENDMDL
MODEL       37
REMARK 921   NORMALIZED FREE ENERGY PREDICTED BY IDOCK:   -4.53 KCAL/MOL
REMARK 922        TOTAL FREE ENERGY PREDICTED BY IDOCK:   -5.60 KCAL/MOL
REMARK 923 INTER-LIGAND FREE ENERGY PREDICTED BY IDOCK:   -5.35 KCAL/MOL
REMARK 924 INTRA-LIGAND FREE ENERGY PREDICTED BY IDOCK:   -0.25 KCAL/MOL
REMARK 927      BINDING AFFINITY PREDICTED BY RF-SCORE:    0.00 PKD
ROOT
HETATM    1  C   UNL     1     -10.841  13.997  65.506  1.00  0.00    -0.309 C  
HETATM    2  C   UNL     1     -12.170  14.180  64.759  1.00  0.00    -0.457 C  
ENDROOT
BRANCH   1   3
HETATM    3  C   UNL     1     -11.034  13.250  66.865  1.00  0.00    -0.283 C  
HETATM    4  O   UNL     1     -11.977  12.176  66.711  1.00  0.00    -0.606 OA 
HETATM    5  H   UNL     1     -12.094  11.723  67.537  1.00  0.00     0.000 HD 
BRANCH   3   6
HETATM    6  C   UNL     1     -11.418  14.128  68.045  1.00  0.00    -0.342 A  
HETATM    7  C   UNL     1     -11.008  15.471  68.081  1.00  0.00    -0.312 A  
HETATM    8  C   UNL     1     -11.270  16.269  69.199  1.00  0.00    -0.309 A  
HETATM    9  C   UNL     1     -11.957  15.729  70.281  1.00  0.00    -0.361 A  
HETATM   10  O   UNL     1     -12.196  16.457  71.408  1.00  0.00    -0.575 OA 
HETATM   11  C   UNL     1     -12.412  14.418  70.249  1.00  0.00    -0.413 A  
HETATM   12  C   UNL     1     -12.148  13.621  69.134  1.00  0.00    -0.361 A  
HETATM   13  H   UNL     1     -12.666  16.088  72.148  1.00  0.00     0.000 HD 
ENDBRANCH   3   6
ENDBRANCH   1   3
BRANCH   1  14
HETATM   14  N   UNL     1      -9.871  13.215  64.702  1.00  0.00    -0.595 NA 
HETATM   15  C   UNL     1     -10.461  12.448  63.620  1.00  0.00    -0.426 C  
HETATM   16  H   UNL     1      -9.318  12.607  65.306  1.00  0.00     0.000 HD 
ENDBRANCH   1  14
TORSDOF 3
ENDMDL
MODEL       38
REMARK 921   NORMALIZED FREE ENERGY PREDICTED BY IDOCK:   -4.51 KCAL/MOL
REMARK 922        TOTAL FREE ENERGY PREDICTED BY IDOCK:   -5.58 KCAL/MOL
REMARK 923 INTER-LIGAND FREE ENERGY PREDICTED BY IDOCK:   -5.34 KCAL/MOL
REMARK 924 INTRA-LIGAND FREE ENERGY PREDICTED BY IDOCK:   -0.24 KCAL/MOL
REMARK 927      BINDING AFFINITY PREDICTED BY RF-SCORE:    0.00 PKD
ROOT
HETATM    1  C   UNL     1     -11.202  14.080  65.601  1.00  0.00    -0.310 C  
HETATM    2  C   UNL     1     -12.582  14.041  64.928  1.00  0.00    -0.369 C  
ENDROOT
BRANCH   1   3
HETATM    3  C   UNL     1     -11.173  13.245  66.921  1.00  0.00    -0.305 C  
HETATM    4  O   UNL     1     -12.148  12.190  66.861  1.00  0.00    -0.600 OA 
HETATM    5  H   UNL     1     -12.131  11.683  67.664  1.00  0.00     0.000 HD 
BRANCH   3   6
HETATM    6  C   UNL     1     -11.333  14.043  68.205  1.00  0.00    -0.317 A  
HETATM    7  C   UNL     1     -11.892  13.436  69.341  1.00  0.00    -0.390 A  
HETATM    8  C   UNL     1     -12.134  14.177  70.502  1.00  0.00    -0.420 A  
HETATM    9  C   UNL     1     -11.804  15.528  70.535  1.00  0.00    -0.356 A  
HETATM   10  O   UNL     1     -12.062  16.298  71.629  1.00  0.00    -0.602 OA 
HETATM   11  C   UNL     1     -11.208  16.138  69.439  1.00  0.00    -0.335 A  
HETATM   12  C   UNL     1     -10.970  15.399  68.280  1.00  0.00    -0.288 A  
HETATM   13  H   UNL     1     -11.836  17.221  71.651  1.00  0.00     0.000 HD 
ENDBRANCH   3   6
ENDBRANCH   1   3
BRANCH   1  14
HETATM   14  N   UNL     1     -10.148  13.541  64.709  1.00  0.00    -0.609 NA 
HETATM   15  C   UNL     1     -10.596  12.496  63.806  1.00  0.00    -0.436 C  
HETATM   16  H   UNL     1      -9.351  13.217  65.257  1.00  0.00     0.000 HD 
ENDBRANCH   1  14
TORSDOF 3
ENDMDL
MODEL       39
REMARK 921   NORMALIZED FREE ENERGY PREDICTED BY IDOCK:   -4.48 KCAL/MOL
REMARK 922        TOTAL FREE ENERGY PREDICTED BY IDOCK:   -5.55 KCAL/MOL
REMARK 923 INTER-LIGAND FREE ENERGY PREDICTED BY IDOCK:   -5.36 KCAL/MOL
REMARK 924 INTRA-LIGAND FREE ENERGY PREDICTED BY IDOCK:   -0.19 KCAL/MOL
REMARK 927      BINDING AFFINITY PREDICTED BY RF-SCORE:    0.00 PKD
ROOT
HETATM    1  C   UNL     1     -11.737  14.788  67.355  1.00  0.00    -0.350 C  
HETATM    2  C   UNL     1     -10.204  14.864  67.306  1.00  0.00    -0.241 C  
ENDROOT
BRANCH   1   3
HETATM    3  C   UNL     1     -12.260  13.352  67.030  1.00  0.00    -0.268 C  
HETATM    4  O   UNL     1     -12.099  12.496  68.173  1.00  0.00    -0.307 OA 
HETATM    5  H   UNL     1     -12.417  11.623  67.975  1.00  0.00     0.000 HD 
BRANCH   3   6
HETATM    6  C   UNL     1     -11.663  12.703  65.791  1.00  0.00    -0.466 A  
HETATM    7  C   UNL     1     -12.129  13.067  64.517  1.00  0.00    -0.468 A  
HETATM    8  C   UNL     1     -11.660  12.416  63.372  1.00  0.00    -0.541 A  
HETATM    9  C   UNL     1     -10.713  11.405  63.497  1.00  0.00    -0.381 A  
HETATM   10  O   UNL     1     -10.261  10.715  62.412  1.00  0.00    -0.743 OA 
HETATM   11  C   UNL     1     -10.205  11.060  64.742  1.00  0.00    -0.381 A  
HETATM   12  C   UNL     1     -10.675  11.708  65.885  1.00  0.00    -0.328 A  
HETATM   13  H   UNL     1      -9.613  10.024  62.497  1.00  0.00     0.000 HD 
ENDBRANCH   3   6
ENDBRANCH   1   3
BRANCH   1  14
HETATM   14  N   UNL     1     -12.255  15.159  68.693  1.00  0.00    -0.597 NA 
HETATM   15  C   UNL     1     -11.231  15.442  69.682  1.00  0.00    -0.283 C  
HETATM   16  H   UNL     1     -12.892  14.440  69.039  1.00  0.00     0.000 HD 
ENDBRANCH   1  14
TORSDOF 3
ENDMDL
MODEL       40
REMARK 921   NORMALIZED FREE ENERGY PREDICTED BY IDOCK:   -4.48 KCAL/MOL
REMARK 922        TOTAL FREE ENERGY PREDICTED BY IDOCK:   -5.55 KCAL/MOL
REMARK 923 INTER-LIGAND FREE ENERGY PREDICTED BY IDOCK:   -5.34 KCAL/MOL
REMARK 924 INTRA-LIGAND FREE ENERGY PREDICTED BY IDOCK:   -0.20 KCAL/MOL
REMARK 927      BINDING AFFINITY PREDICTED BY RF-SCORE:    0.00 PKD
ROOT
HETATM    1  C   UNL     1     -11.778   8.488  71.224  1.00  0.00    -0.284 C  
HETATM    2  C   UNL     1     -12.245   7.034  71.069  1.00  0.00    -0.419 C  
ENDROOT
BRANCH   1   3
HETATM    3  C   UNL     1     -12.966   9.451  71.545  1.00  0.00    -0.371 C  
HETATM    4  O   UNL     1     -14.179   8.956  70.952  1.00  0.00    -0.581 OA 
HETATM    5  H   UNL     1     -14.901   9.542  71.146  1.00  0.00     0.000 HD 
BRANCH   3   6
HETATM    6  C   UNL     1     -12.748  10.908  71.169  1.00  0.00    -0.530 A  
HETATM    7  C   UNL     1     -13.276  11.926  71.980  1.00  0.00    -0.461 A  
HETATM    8  C   UNL     1     -13.167  13.269  71.604  1.00  0.00    -0.446 A  
HETATM    9  C   UNL     1     -12.516  13.598  70.420  1.00  0.00    -0.294 A  
HETATM   10  O   UNL     1     -12.425  14.890  69.993  1.00  0.00    -0.437 OA 
HETATM   11  C   UNL     1     -11.947  12.612  69.626  1.00  0.00    -0.352 A  
HETATM   12  C   UNL     1     -12.058  11.272  70.000  1.00  0.00    -0.425 A  
HETATM   13  H   UNL     1     -11.980  15.115  69.183  1.00  0.00     0.000 HD 
ENDBRANCH   3   6
ENDBRANCH   1   3
BRANCH   1  14
HETATM   14  N   UNL     1     -10.787   8.625  72.318  1.00  0.00    -0.357 NA 
HETATM   15  C   UNL     1     -10.783   7.531  73.272  1.00  0.00    -0.382 C  
HETATM   16  H   UNL     1     -10.911   9.516  72.800  1.00  0.00     0.000 HD 
ENDBRANCH   1  14
TORSDOF 3
ENDMDL
MODEL       41
REMARK 921   NORMALIZED FREE ENERGY PREDICTED BY IDOCK:   -4.46 KCAL/MOL
REMARK 922        TOTAL FREE ENERGY PREDICTED BY IDOCK:   -5.52 KCAL/MOL
REMARK 923 INTER-LIGAND FREE ENERGY PREDICTED BY IDOCK:   -5.22 KCAL/MOL
REMARK 924 INTRA-LIGAND FREE ENERGY PREDICTED BY IDOCK:   -0.30 KCAL/MOL
REMARK 927      BINDING AFFINITY PREDICTED BY RF-SCORE:    0.00 PKD
ROOT
HETATM    1  C   UNL     1     -10.806  13.522  68.944  1.00  0.00    -0.224 C  
HETATM    2  C   UNL     1     -11.933  12.687  69.569  1.00  0.00    -0.332 C  
ENDROOT
BRANCH   1   3
HETATM    3  C   UNL     1     -11.267  14.236  67.633  1.00  0.00    -0.304 C  
HETATM    4  O   UNL     1     -12.528  14.894  67.844  1.00  0.00    -0.494 OA 
HETATM    5  H   UNL     1     -12.808  15.327  67.046  1.00  0.00     0.000 HD 
BRANCH   3   6
HETATM    6  C   UNL     1     -11.328  13.355  66.395  1.00  0.00    -0.338 A  
HETATM    7  C   UNL     1     -10.185  12.653  65.979  1.00  0.00    -0.287 A  
HETATM    8  C   UNL     1     -10.194  11.912  64.793  1.00  0.00    -0.314 A  
HETATM    9  C   UNL     1     -11.352  11.860  64.025  1.00  0.00    -0.397 A  
HETATM   10  O   UNL     1     -11.392  11.187  62.840  1.00  0.00    -0.798 OA 
HETATM   11  C   UNL     1     -12.507  12.509  64.440  1.00  0.00    -0.530 A  
HETATM   12  C   UNL     1     -12.497  13.251  65.622  1.00  0.00    -0.510 A  
HETATM   13  H   UNL     1     -12.184  11.152  62.315  1.00  0.00     0.000 HD 
ENDBRANCH   3   6
ENDBRANCH   1   3
BRANCH   1  14
HETATM   14  N   UNL     1     -10.328  14.571  69.877  1.00  0.00    -0.426 NA 
HETATM   15  C   UNL     1      -9.405  15.526  69.292  1.00  0.00    -0.266 C  
HETATM   16  H   UNL     1      -9.917  14.145  70.708  1.00  0.00     0.000 HD 
ENDBRANCH   1  14
TORSDOF 3
ENDMDL
MODEL       42
REMARK 921   NORMALIZED FREE ENERGY PREDICTED BY IDOCK:   -4.44 KCAL/MOL
REMARK 922        TOTAL FREE ENERGY PREDICTED BY IDOCK:   -5.49 KCAL/MOL
REMARK 923 INTER-LIGAND FREE ENERGY PREDICTED BY IDOCK:   -5.31 KCAL/MOL
REMARK 924 INTRA-LIGAND FREE ENERGY PREDICTED BY IDOCK:   -0.19 KCAL/MOL
REMARK 927      BINDING AFFINITY PREDICTED BY RF-SCORE:    0.00 PKD
ROOT
HETATM    1  C   UNL     1     -10.937  12.404  67.783  1.00  0.00    -0.228 C  
HETATM    2  C   UNL     1     -10.185  13.640  67.266  1.00  0.00    -0.246 C  
ENDROOT
BRANCH   1   3
HETATM    3  C   UNL     1     -11.654  12.685  69.143  1.00  0.00    -0.320 C  
HETATM    4  O   UNL     1     -10.950  13.704  69.873  1.00  0.00    -0.456 OA 
HETATM    5  H   UNL     1     -11.385  13.874  70.699  1.00  0.00     0.000 HD 
BRANCH   3   6
HETATM    6  C   UNL     1     -11.889  11.468  70.023  1.00  0.00    -0.435 A  
HETATM    7  C   UNL     1     -12.894  11.497  71.003  1.00  0.00    -0.358 A  
HETATM    8  C   UNL     1     -13.065  10.424  71.884  1.00  0.00    -0.563 A  
HETATM    9  C   UNL     1     -12.238   9.311  71.777  1.00  0.00    -0.385 A  
HETATM   10  O   UNL     1     -12.340   8.262  72.642  1.00  0.00    -0.561 OA 
HETATM   11  C   UNL     1     -11.268   9.241  70.786  1.00  0.00    -0.351 A  
HETATM   12  C   UNL     1     -11.096  10.313  69.910  1.00  0.00    -0.362 A  
HETATM   13  H   UNL     1     -11.775   7.501  72.569  1.00  0.00     0.000 HD 
ENDBRANCH   3   6
ENDBRANCH   1   3
BRANCH   1  14
HETATM   14  N   UNL     1     -11.970  11.956  66.819  1.00  0.00    -0.583 NA 
HETATM   15  C   UNL     1     -12.111  12.800  65.647  1.00  0.00    -0.459 C  
HETATM   16  H   UNL     1     -12.869  11.847  67.288  1.00  0.00     0.000 HD 
ENDBRANCH   1  14
TORSDOF 3
ENDMDL
MODEL       43
REMARK 921   NORMALIZED FREE ENERGY PREDICTED BY IDOCK:   -4.43 KCAL/MOL
REMARK 922        TOTAL FREE ENERGY PREDICTED BY IDOCK:   -5.49 KCAL/MOL
REMARK 923 INTER-LIGAND FREE ENERGY PREDICTED BY IDOCK:   -5.22 KCAL/MOL
REMARK 924 INTRA-LIGAND FREE ENERGY PREDICTED BY IDOCK:   -0.27 KCAL/MOL
REMARK 927      BINDING AFFINITY PREDICTED BY RF-SCORE:    0.00 PKD
ROOT
HETATM    1  C   UNL     1     -10.184  15.560  67.585  1.00  0.00    -0.255 C  
HETATM    2  C   UNL     1      -9.832  15.095  69.005  1.00  0.00    -0.238 C  
ENDROOT
BRANCH   1   3
HETATM    3  C   UNL     1     -11.647  15.176  67.192  1.00  0.00    -0.199 C  
HETATM    4  O   UNL     1     -12.378  14.754  68.355  1.00  0.00    -0.594 OA 
HETATM    5  H   UNL     1     -13.267  14.521  68.116  1.00  0.00     0.000 HD 
BRANCH   3   6
HETATM    6  C   UNL     1     -11.778  14.147  66.080  1.00  0.00    -0.402 A  
HETATM    7  C   UNL     1     -11.388  12.818  66.309  1.00  0.00    -0.365 A  
HETATM    8  C   UNL     1     -11.412  11.877  65.274  1.00  0.00    -0.313 A  
HETATM    9  C   UNL     1     -11.841  12.262  64.008  1.00  0.00    -0.444 A  
HETATM   10  O   UNL     1     -11.840  11.391  62.960  1.00  0.00    -0.903 OA 
HETATM   11  C   UNL     1     -12.274  13.560  63.770  1.00  0.00    -0.449 A  
HETATM   12  C   UNL     1     -12.247  14.498  64.803  1.00  0.00    -0.441 A  
HETATM   13  H   UNL     1     -12.133  11.654  62.094  1.00  0.00     0.000 HD 
ENDBRANCH   3   6
ENDBRANCH   1   3
BRANCH   1  14
HETATM   14  N   UNL     1     -10.058  17.031  67.449  1.00  0.00    -0.283 NA 
HETATM   15  C   UNL     1     -10.235  17.532  66.098  1.00  0.00    -0.335 C  
HETATM   16  H   UNL     1      -9.165  17.347  67.829  1.00  0.00     0.000 HD 
ENDBRANCH   1  14
TORSDOF 3
ENDMDL
MODEL       44
REMARK 921   NORMALIZED FREE ENERGY PREDICTED BY IDOCK:   -4.43 KCAL/MOL
REMARK 922        TOTAL FREE ENERGY PREDICTED BY IDOCK:   -5.48 KCAL/MOL
REMARK 923 INTER-LIGAND FREE ENERGY PREDICTED BY IDOCK:   -5.22 KCAL/MOL
REMARK 924 INTRA-LIGAND FREE ENERGY PREDICTED BY IDOCK:   -0.27 KCAL/MOL
REMARK 927      BINDING AFFINITY PREDICTED BY RF-SCORE:    0.00 PKD
ROOT
HETATM    1  C   UNL     1      -9.861  15.918  66.264  1.00  0.00    -0.302 C  
HETATM    2  C   UNL     1      -8.462  16.548  66.185  1.00  0.00    -0.320 C  
ENDROOT
BRANCH   1   3
HETATM    3  C   UNL     1      -9.792  14.370  66.466  1.00  0.00    -0.287 C  
HETATM    4  O   UNL     1      -8.424  13.947  66.595  1.00  0.00    -0.435 OA 
HETATM    5  H   UNL     1      -8.383  13.006  66.717  1.00  0.00     0.000 HD 
BRANCH   3   6
HETATM    6  C   UNL     1     -10.507  13.540  65.411  1.00  0.00    -0.322 A  
HETATM    7  C   UNL     1     -11.447  14.147  64.563  1.00  0.00    -0.380 A  
HETATM    8  C   UNL     1     -12.183  13.384  63.650  1.00  0.00    -0.480 A  
HETATM    9  C   UNL     1     -11.970  12.012  63.574  1.00  0.00    -0.507 A  
HETATM   10  O   UNL     1     -12.695  11.224  62.730  1.00  0.00    -0.876 OA 
HETATM   11  C   UNL     1     -11.014  11.398  64.371  1.00  0.00    -0.371 A  
HETATM   12  C   UNL     1     -10.282  12.159  65.284  1.00  0.00    -0.304 A  
HETATM   13  H   UNL     1     -12.550  10.286  62.678  1.00  0.00     0.000 HD 
ENDBRANCH   3   6
ENDBRANCH   1   3
BRANCH   1  14
HETATM   14  N   UNL     1     -10.645  16.480  67.390  1.00  0.00    -0.317 NA 
HETATM   15  C   UNL     1     -11.058  15.507  68.385  1.00  0.00    -0.315 C  
HETATM   16  H   UNL     1     -11.454  16.992  67.038  1.00  0.00     0.000 HD 
ENDBRANCH   1  14
TORSDOF 3
ENDMDL
MODEL       45
REMARK 921   NORMALIZED FREE ENERGY PREDICTED BY IDOCK:   -4.42 KCAL/MOL
REMARK 922        TOTAL FREE ENERGY PREDICTED BY IDOCK:   -5.47 KCAL/MOL
REMARK 923 INTER-LIGAND FREE ENERGY PREDICTED BY IDOCK:   -5.26 KCAL/MOL
REMARK 924 INTRA-LIGAND FREE ENERGY PREDICTED BY IDOCK:   -0.21 KCAL/MOL
REMARK 927      BINDING AFFINITY PREDICTED BY RF-SCORE:    0.00 PKD
ROOT
HETATM    1  C   UNL     1     -10.442  15.316  66.368  1.00  0.00    -0.303 C  
HETATM    2  C   UNL     1     -10.317  14.242  65.277  1.00  0.00    -0.417 C  
ENDROOT
BRANCH   1   3
HETATM    3  C   UNL     1     -10.908  16.688  65.785  1.00  0.00    -0.104 C  
HETATM    4  O   UNL     1     -11.052  16.597  64.357  1.00  0.00    -1.133 OA 
HETATM    5  H   UNL     1     -11.334  17.432  64.003  1.00  0.00     0.000 HD 
BRANCH   3   6
HETATM    6  C   UNL     1     -10.045  17.884  66.156  1.00  0.00    -0.322 A  
HETATM    7  C   UNL     1      -8.802  17.683  66.778  1.00  0.00    -0.275 A  
HETATM    8  C   UNL     1      -8.036  18.770  67.212  1.00  0.00    -0.251 A  
HETATM    9  C   UNL     1      -8.505  20.063  67.010  1.00  0.00    -0.333 A  
HETATM   10  O   UNL     1      -7.812  21.150  67.455  1.00  0.00    -0.524 OA 
HETATM   11  C   UNL     1      -9.709  20.287  66.356  1.00  0.00    -0.488 A  
HETATM   12  C   UNL     1     -10.474  19.202  65.926  1.00  0.00    -0.500 A  
HETATM   13  H   UNL     1      -8.132  22.034  67.317  1.00  0.00     0.000 HD 
ENDBRANCH   3   6
ENDBRANCH   1   3
BRANCH   1  14
HETATM   14  N   UNL     1     -11.421  14.918  67.408  1.00  0.00    -0.348 NA 
HETATM   15  C   UNL     1     -11.147  13.640  68.040  1.00  0.00    -0.262 C  
HETATM   16  H   UNL     1     -12.368  14.929  67.027  1.00  0.00     0.000 HD 
ENDBRANCH   1  14
TORSDOF 3
ENDMDL
MODEL       46
REMARK 921   NORMALIZED FREE ENERGY PREDICTED BY IDOCK:   -4.40 KCAL/MOL
REMARK 922        TOTAL FREE ENERGY PREDICTED BY IDOCK:   -5.45 KCAL/MOL
REMARK 923 INTER-LIGAND FREE ENERGY PREDICTED BY IDOCK:   -5.19 KCAL/MOL
REMARK 924 INTRA-LIGAND FREE ENERGY PREDICTED BY IDOCK:   -0.26 KCAL/MOL
REMARK 927      BINDING AFFINITY PREDICTED BY RF-SCORE:    0.00 PKD
ROOT
HETATM    1  C   UNL     1      -9.432  10.779  63.921  1.00  0.00    -0.274 C  
HETATM    2  C   UNL     1      -9.027  10.872  62.442  1.00  0.00    -0.353 C  
ENDROOT
BRANCH   1   3
HETATM    3  C   UNL     1     -10.895  11.274  64.157  1.00  0.00    -0.337 C  
HETATM    4  O   UNL     1     -11.565  11.459  62.899  1.00  0.00    -0.840 OA 
HETATM    5  H   UNL     1     -12.454  11.761  63.043  1.00  0.00     0.000 HD 
BRANCH   3   6
HETATM    6  C   UNL     1     -11.033  12.518  65.021  1.00  0.00    -0.329 A  
HETATM    7  C   UNL     1     -10.419  13.717  64.623  1.00  0.00    -0.442 A  
HETATM    8  C   UNL     1     -10.456  14.846  65.448  1.00  0.00    -0.406 A  
HETATM    9  C   UNL     1     -11.120  14.783  66.668  1.00  0.00    -0.333 A  
HETATM   10  O   UNL     1     -11.144  15.845  67.522  1.00  0.00    -0.312 OA 
HETATM   11  C   UNL     1     -11.773  13.623  67.060  1.00  0.00    -0.419 A  
HETATM   12  C   UNL     1     -11.734  12.495  66.238  1.00  0.00    -0.462 A  
HETATM   13  H   UNL     1     -11.598  15.802  68.356  1.00  0.00     0.000 HD 
ENDBRANCH   3   6
ENDBRANCH   1   3
BRANCH   1  14
HETATM   14  N   UNL     1      -9.347   9.385  64.418  1.00  0.00    -0.427 NA 
HETATM   15  C   UNL     1      -9.536   9.241  65.850  1.00  0.00    -0.259 C  
HETATM   16  H   UNL     1      -8.465   8.959  64.133  1.00  0.00     0.000 HD 
ENDBRANCH   1  14
TORSDOF 3
ENDMDL
MODEL       47
REMARK 921   NORMALIZED FREE ENERGY PREDICTED BY IDOCK:   -4.39 KCAL/MOL
REMARK 922        TOTAL FREE ENERGY PREDICTED BY IDOCK:   -5.44 KCAL/MOL
REMARK 923 INTER-LIGAND FREE ENERGY PREDICTED BY IDOCK:   -5.24 KCAL/MOL
REMARK 924 INTRA-LIGAND FREE ENERGY PREDICTED BY IDOCK:   -0.20 KCAL/MOL
REMARK 927      BINDING AFFINITY PREDICTED BY RF-SCORE:    0.00 PKD
ROOT
HETATM    1  C   UNL     1     -10.978  14.309  65.048  1.00  0.00    -0.387 C  
HETATM    2  C   UNL     1     -11.954  13.734  64.011  1.00  0.00    -0.451 C  
ENDROOT
BRANCH   1   3
HETATM    3  C   UNL     1     -11.206  15.837  65.280  1.00  0.00    -0.190 C  
HETATM    4  O   UNL     1     -11.286  16.523  64.020  1.00  0.00    -1.475 OA 
HETATM    5  H   UNL     1     -11.425  17.452  64.161  1.00  0.00     0.000 HD 
BRANCH   3   6
HETATM    6  C   UNL     1     -10.199  16.519  66.193  1.00  0.00    -0.360 A  
HETATM    7  C   UNL     1     -10.648  17.313  67.261  1.00  0.00    -0.283 A  
HETATM    8  C   UNL     1      -9.741  18.023  68.054  1.00  0.00    -0.309 A  
HETATM    9  C   UNL     1      -8.379  17.930  67.789  1.00  0.00    -0.241 A  
HETATM   10  O   UNL     1      -7.463  18.638  68.509  1.00  0.00    -0.282 OA 
HETATM   11  C   UNL     1      -7.910  17.115  66.768  1.00  0.00    -0.277 A  
HETATM   12  C   UNL     1      -8.815  16.409  65.975  1.00  0.00    -0.296 A  
HETATM   13  H   UNL     1      -6.532  18.574  68.328  1.00  0.00     0.000 HD 
ENDBRANCH   3   6
ENDBRANCH   1   3
BRANCH   1  14
HETATM   14  N   UNL     1     -11.121  13.633  66.360  1.00  0.00    -0.301 NA 
HETATM   15  C   UNL     1     -11.580  12.258  66.285  1.00  0.00    -0.385 C  
HETATM   16  H   UNL     1     -11.728  14.176  66.974  1.00  0.00     0.000 HD 
ENDBRANCH   1  14
TORSDOF 3
ENDMDL
MODEL       48
REMARK 921   NORMALIZED FREE ENERGY PREDICTED BY IDOCK:   -4.39 KCAL/MOL
REMARK 922        TOTAL FREE ENERGY PREDICTED BY IDOCK:   -5.44 KCAL/MOL
REMARK 923 INTER-LIGAND FREE ENERGY PREDICTED BY IDOCK:   -5.23 KCAL/MOL
REMARK 924 INTRA-LIGAND FREE ENERGY PREDICTED BY IDOCK:   -0.21 KCAL/MOL
REMARK 927      BINDING AFFINITY PREDICTED BY RF-SCORE:    0.00 PKD
ROOT
HETATM    1  C   UNL     1     -11.150  12.032  68.734  1.00  0.00    -0.249 C  
HETATM    2  C   UNL     1     -10.860  13.471  68.280  1.00  0.00    -0.277 C  
ENDROOT
BRANCH   1   3
HETATM    3  C   UNL     1     -12.087  11.992  69.983  1.00  0.00    -0.280 C  
HETATM    4  O   UNL     1     -11.893  13.169  70.786  1.00  0.00    -0.511 OA 
HETATM    5  H   UNL     1     -12.462  13.144  71.546  1.00  0.00     0.000 HD 
BRANCH   3   6
HETATM    6  C   UNL     1     -11.981  10.741  70.841  1.00  0.00    -0.438 A  
HETATM    7  C   UNL     1     -10.832   9.936  70.765  1.00  0.00    -0.387 A  
HETATM    8  C   UNL     1     -10.754   8.733  71.474  1.00  0.00    -0.371 A  
HETATM    9  C   UNL     1     -11.821   8.339  72.274  1.00  0.00    -0.388 A  
HETATM   10  O   UNL     1     -11.806   7.154  72.948  1.00  0.00    -0.528 OA 
HETATM   11  C   UNL     1     -12.947   9.141  72.400  1.00  0.00    -0.468 A  
HETATM   12  C   UNL     1     -13.026  10.340  71.690  1.00  0.00    -0.570 A  
HETATM   13  H   UNL     1     -12.535   6.884  73.495  1.00  0.00     0.000 HD 
ENDBRANCH   3   6
ENDBRANCH   1   3
BRANCH   1  14
HETATM   14  N   UNL     1     -11.805  11.248  67.660  1.00  0.00    -0.627 NA 
HETATM   15  C   UNL     1     -10.998  10.170  67.119  1.00  0.00    -0.134 C  
HETATM   16  H   UNL     1     -12.119  11.865  66.911  1.00  0.00     0.000 HD 
ENDBRANCH   1  14
TORSDOF 3
ENDMDL
MODEL       49
REMARK 921   NORMALIZED FREE ENERGY PREDICTED BY IDOCK:   -4.39 KCAL/MOL
REMARK 922        TOTAL FREE ENERGY PREDICTED BY IDOCK:   -5.43 KCAL/MOL
REMARK 923 INTER-LIGAND FREE ENERGY PREDICTED BY IDOCK:   -5.16 KCAL/MOL
REMARK 924 INTRA-LIGAND FREE ENERGY PREDICTED BY IDOCK:   -0.27 KCAL/MOL
REMARK 927      BINDING AFFINITY PREDICTED BY RF-SCORE:    0.00 PKD
ROOT
HETATM    1  C   UNL     1     -11.303  10.266  70.451  1.00  0.00    -0.332 C  
HETATM    2  C   UNL     1      -9.928  10.135  69.780  1.00  0.00    -0.258 C  
ENDROOT
BRANCH   1   3
HETATM    3  C   UNL     1     -12.278  11.156  69.614  1.00  0.00    -0.290 C  
HETATM    4  O   UNL     1     -12.174  10.827  68.218  1.00  0.00    -0.815 OA 
HETATM    5  H   UNL     1     -12.766  11.368  67.710  1.00  0.00     0.000 HD 
BRANCH   3   6
HETATM    6  C   UNL     1     -12.134  12.656  69.819  1.00  0.00    -0.301 A  
HETATM    7  C   UNL     1     -11.644  13.460  68.777  1.00  0.00    -0.363 A  
HETATM    8  C   UNL     1     -11.416  14.825  68.975  1.00  0.00    -0.316 A  
HETATM    9  C   UNL     1     -11.692  15.394  70.214  1.00  0.00    -0.327 A  
HETATM   10  O   UNL     1     -11.445  16.711  70.464  1.00  0.00    -0.501 OA 
HETATM   11  C   UNL     1     -12.220  14.628  71.243  1.00  0.00    -0.410 A  
HETATM   12  C   UNL     1     -12.445  13.264  71.046  1.00  0.00    -0.422 A  
HETATM   13  H   UNL     1     -11.634  17.100  71.310  1.00  0.00     0.000 HD 
ENDBRANCH   3   6
ENDBRANCH   1   3
BRANCH   1  14
HETATM   14  N   UNL     1     -11.948   8.943  70.627  1.00  0.00    -0.471 NA 
HETATM   15  C   UNL     1     -12.920   8.881  71.704  1.00  0.00    -0.354 C  
HETATM   16  H   UNL     1     -11.241   8.217  70.746  1.00  0.00     0.000 HD 
ENDBRANCH   1  14
TORSDOF 3
ENDMDL
MODEL       50
REMARK 921   NORMALIZED FREE ENERGY PREDICTED BY IDOCK:   -4.38 KCAL/MOL
REMARK 922        TOTAL FREE ENERGY PREDICTED BY IDOCK:   -5.43 KCAL/MOL
REMARK 923 INTER-LIGAND FREE ENERGY PREDICTED BY IDOCK:   -5.24 KCAL/MOL
REMARK 924 INTRA-LIGAND FREE ENERGY PREDICTED BY IDOCK:   -0.19 KCAL/MOL
REMARK 927      BINDING AFFINITY PREDICTED BY RF-SCORE:    0.00 PKD
ROOT
HETATM    1  C   UNL     1     -11.971  13.278  67.623  1.00  0.00    -0.322 C  
HETATM    2  C   UNL     1     -11.249  12.057  67.034  1.00  0.00    -0.377 C  
ENDROOT
BRANCH   1   3
HETATM    3  C   UNL     1     -11.033  14.121  68.546  1.00  0.00    -0.254 C  
HETATM    4  O   UNL     1      -9.752  13.482  68.667  1.00  0.00    -0.340 OA 
HETATM    5  H   UNL     1      -9.182  13.994  69.228  1.00  0.00     0.000 HD 
BRANCH   3   6
HETATM    6  C   UNL     1     -11.593  14.454  69.920  1.00  0.00    -0.341 A  
HETATM    7  C   UNL     1     -11.439  15.747  70.444  1.00  0.00    -0.380 A  
HETATM    8  C   UNL     1     -11.863  16.048  71.742  1.00  0.00    -0.599 A  
HETATM    9  C   UNL     1     -12.457  15.057  72.516  1.00  0.00    -0.358 A  
HETATM   10  O   UNL     1     -12.846  15.294  73.801  1.00  0.00    -0.525 OA 
HETATM   11  C   UNL     1     -12.661  13.784  72.002  1.00  0.00    -0.321 A  
HETATM   12  C   UNL     1     -12.235  13.483  70.708  1.00  0.00    -0.417 A  
HETATM   13  H   UNL     1     -13.252  14.617  74.330  1.00  0.00     0.000 HD 
ENDBRANCH   3   6
ENDBRANCH   1   3
BRANCH   1  14
HETATM   14  N   UNL     1     -12.473  14.177  66.556  1.00  0.00    -0.534 NA 
HETATM   15  C   UNL     1     -12.583  13.560  65.247  1.00  0.00    -0.468 C  
HETATM   16  H   UNL     1     -11.900  15.020  66.504  1.00  0.00     0.000 HD 
ENDBRANCH   1  14
TORSDOF 3
ENDMDL
MODEL       51
REMARK 921   NORMALIZED FREE ENERGY PREDICTED BY IDOCK:   -4.38 KCAL/MOL
REMARK 922        TOTAL FREE ENERGY PREDICTED BY IDOCK:   -5.42 KCAL/MOL
REMARK 923 INTER-LIGAND FREE ENERGY PREDICTED BY IDOCK:   -5.16 KCAL/MOL
REMARK 924 INTRA-LIGAND FREE ENERGY PREDICTED BY IDOCK:   -0.26 KCAL/MOL
REMARK 927      BINDING AFFINITY PREDICTED BY RF-SCORE:    0.00 PKD
ROOT
HETATM    1  C   UNL     1     -10.770  10.986  64.480  1.00  0.00    -0.264 C  
HETATM    2  C   UNL     1      -9.393  10.366  64.204  1.00  0.00    -0.323 C  
ENDROOT
BRANCH   1   3
HETATM    3  C   UNL     1     -10.663  12.283  65.344  1.00  0.00    -0.284 C  
HETATM    4  O   UNL     1      -9.337  12.832  65.253  1.00  0.00    -0.438 OA 
HETATM    5  H   UNL     1      -9.272  13.620  65.778  1.00  0.00     0.000 HD 
BRANCH   3   6
HETATM    6  C   UNL     1     -11.077  12.137  66.800  1.00  0.00    -0.349 A  
HETATM    7  C   UNL     1     -11.432  13.274  67.544  1.00  0.00    -0.361 A  
HETATM    8  C   UNL     1     -11.725  13.172  68.908  1.00  0.00    -0.368 A  
HETATM    9  C   UNL     1     -11.678  11.929  69.529  1.00  0.00    -0.345 A  
HETATM   10  O   UNL     1     -11.915  11.790  70.864  1.00  0.00    -0.402 OA 
HETATM   11  C   UNL     1     -11.375  10.785  68.803  1.00  0.00    -0.352 A  
HETATM   12  C   UNL     1     -11.080  10.887  67.443  1.00  0.00    -0.373 A  
HETATM   13  H   UNL     1     -11.883  10.940  71.289  1.00  0.00     0.000 HD 
ENDBRANCH   3   6
ENDBRANCH   1   3
BRANCH   1  14
HETATM   14  N   UNL     1     -11.464  11.346  63.220  1.00  0.00    -0.852 NA 
HETATM   15  C   UNL     1     -12.501  12.351  63.366  1.00  0.00    -0.446 C  
HETATM   16  H   UNL     1     -11.841  10.510  62.772  1.00  0.00     0.000 HD 
ENDBRANCH   1  14
TORSDOF 3
ENDMDL
MODEL       52
REMARK 921   NORMALIZED FREE ENERGY PREDICTED BY IDOCK:   -4.37 KCAL/MOL
REMARK 922        TOTAL FREE ENERGY PREDICTED BY IDOCK:   -5.42 KCAL/MOL
REMARK 923 INTER-LIGAND FREE ENERGY PREDICTED BY IDOCK:   -5.39 KCAL/MOL
REMARK 924 INTRA-LIGAND FREE ENERGY PREDICTED BY IDOCK:   -0.03 KCAL/MOL
REMARK 927      BINDING AFFINITY PREDICTED BY RF-SCORE:    0.00 PKD
ROOT
HETATM    1  C   UNL     1     -10.321  15.642  67.315  1.00  0.00    -0.277 C  
HETATM    2  C   UNL     1     -11.208  14.446  67.693  1.00  0.00    -0.328 C  
ENDROOT
BRANCH   1   3
HETATM    3  C   UNL     1     -10.127  15.759  65.769  1.00  0.00    -0.371 C  
HETATM    4  O   UNL     1     -10.611  17.029  65.303  1.00  0.00    -0.647 OA 
HETATM    5  H   UNL     1     -10.494  17.099  64.363  1.00  0.00     0.000 HD 
BRANCH   3   6
HETATM    6  C   UNL     1     -10.725  14.628  64.947  1.00  0.00    -0.447 A  
HETATM    7  C   UNL     1     -12.046  14.726  64.481  1.00  0.00    -0.460 A  
HETATM    8  C   UNL     1     -12.646  13.659  63.804  1.00  0.00    -0.106 A  
HETATM    9  C   UNL     1     -11.919  12.494  63.579  1.00  0.00    -0.543 A  
HETATM   10  O   UNL     1     -12.478  11.415  62.962  1.00  0.00    -0.935 OA 
HETATM   11  C   UNL     1     -10.598  12.393  63.991  1.00  0.00    -0.444 A  
HETATM   12  C   UNL     1     -10.000  13.456  64.669  1.00  0.00    -0.132 A  
HETATM   13  H   UNL     1     -11.981  10.619  62.808  1.00  0.00     0.000 HD 
ENDBRANCH   3   6
ENDBRANCH   1   3
BRANCH   1  14
HETATM   14  N   UNL     1     -10.905  16.920  67.788  1.00  0.00    -0.323 NA 
HETATM   15  C   UNL     1     -10.124  17.604  68.803  1.00  0.00    -0.377 C  
HETATM   16  H   UNL     1     -11.860  16.774  68.116  1.00  0.00     0.000 HD 
ENDBRANCH   1  14
TORSDOF 3
ENDMDL
MODEL       53
REMARK 921   NORMALIZED FREE ENERGY PREDICTED BY IDOCK:   -4.37 KCAL/MOL
REMARK 922        TOTAL FREE ENERGY PREDICTED BY IDOCK:   -5.42 KCAL/MOL
REMARK 923 INTER-LIGAND FREE ENERGY PREDICTED BY IDOCK:   -5.22 KCAL/MOL
REMARK 924 INTRA-LIGAND FREE ENERGY PREDICTED BY IDOCK:   -0.20 KCAL/MOL
REMARK 927      BINDING AFFINITY PREDICTED BY RF-SCORE:    0.00 PKD
ROOT
HETATM    1  C   UNL     1     -10.454  15.081  69.882  1.00  0.00    -0.154 C  
HETATM    2  C   UNL     1     -10.752  16.548  69.541  1.00  0.00    -0.321 C  
ENDROOT
BRANCH   1   3
HETATM    3  C   UNL     1     -11.405  14.101  69.122  1.00  0.00    -0.279 C  
HETATM    4  O   UNL     1     -12.428  14.838  68.432  1.00  0.00    -0.584 OA 
HETATM    5  H   UNL     1     -13.006  14.243  67.970  1.00  0.00     0.000 HD 
BRANCH   3   6
HETATM    6  C   UNL     1     -12.024  13.000  69.969  1.00  0.00    -0.383 A  
HETATM    7  C   UNL     1     -12.736  13.330  71.133  1.00  0.00    -0.404 A  
HETATM    8  C   UNL     1     -13.232  12.330  71.975  1.00  0.00    -0.508 A  
HETATM    9  C   UNL     1     -13.029  10.994  71.647  1.00  0.00    -0.456 A  
HETATM   10  O   UNL     1     -13.458   9.987  72.460  1.00  0.00    -0.621 OA 
HETATM   11  C   UNL     1     -12.368  10.644  70.477  1.00  0.00    -0.448 A  
HETATM   12  C   UNL     1     -11.870  11.643  69.639  1.00  0.00    -0.419 A  
HETATM   13  H   UNL     1     -13.319   9.074  72.236  1.00  0.00     0.000 HD 
ENDBRANCH   3   6
ENDBRANCH   1   3
BRANCH   1  14
HETATM   14  N   UNL     1      -9.062  14.714  69.529  1.00  0.00    -0.398 NA 
HETATM   15  C   UNL     1      -8.216  15.835  69.160  1.00  0.00    -0.247 C  
HETATM   16  H   UNL     1      -9.057  14.009  68.792  1.00  0.00     0.000 HD 
ENDBRANCH   1  14
TORSDOF 3
ENDMDL
MODEL       54
REMARK 921   NORMALIZED FREE ENERGY PREDICTED BY IDOCK:   -4.36 KCAL/MOL
REMARK 922        TOTAL FREE ENERGY PREDICTED BY IDOCK:   -5.40 KCAL/MOL
REMARK 923 INTER-LIGAND FREE ENERGY PREDICTED BY IDOCK:   -5.14 KCAL/MOL
REMARK 924 INTRA-LIGAND FREE ENERGY PREDICTED BY IDOCK:   -0.27 KCAL/MOL
REMARK 927      BINDING AFFINITY PREDICTED BY RF-SCORE:    0.00 PKD
ROOT
HETATM    1  C   UNL     1     -11.040  11.726  66.790  1.00  0.00    -0.306 C  
HETATM    2  C   UNL     1     -10.385  10.970  65.625  1.00  0.00    -0.311 C  
ENDROOT
BRANCH   1   3
HETATM    3  C   UNL     1     -12.088  12.772  66.291  1.00  0.00    -0.332 C  
HETATM    4  O   UNL     1     -12.684  12.328  65.062  1.00  0.00    -0.581 OA 
HETATM    5  H   UNL     1     -13.321  12.965  64.758  1.00  0.00     0.000 HD 
BRANCH   3   6
HETATM    6  C   UNL     1     -11.573  14.196  66.148  1.00  0.00    -0.377 A  
HETATM    7  C   UNL     1     -11.416  14.758  64.871  1.00  0.00    -0.412 A  
HETATM    8  C   UNL     1     -10.858  16.030  64.713  1.00  0.00    -0.315 A  
HETATM    9  C   UNL     1     -10.467  16.751  65.836  1.00  0.00    -0.301 A  
HETATM   10  O   UNL     1      -9.878  17.976  65.727  1.00  0.00    -0.539 OA 
HETATM   11  C   UNL     1     -10.655  16.235  67.111  1.00  0.00    -0.291 A  
HETATM   12  C   UNL     1     -11.210  14.964  67.267  1.00  0.00    -0.348 A  
HETATM   13  H   UNL     1      -9.611  18.469  66.494  1.00  0.00     0.000 HD 
ENDBRANCH   3   6
ENDBRANCH   1   3
BRANCH   1  14
HETATM   14  N   UNL     1     -11.740  10.798  67.711  1.00  0.00    -0.684 NA 
HETATM   15  C   UNL     1     -11.762  11.225  69.099  1.00  0.00    -0.341 C  
HETATM   16  H   UNL     1     -11.348   9.860  67.635  1.00  0.00     0.000 HD 
ENDBRANCH   1  14
TORSDOF 3
ENDMDL
MODEL       55
REMARK 921   NORMALIZED FREE ENERGY PREDICTED BY IDOCK:   -4.35 KCAL/MOL
REMARK 922        TOTAL FREE ENERGY PREDICTED BY IDOCK:   -5.39 KCAL/MOL
REMARK 923 INTER-LIGAND FREE ENERGY PREDICTED BY IDOCK:   -5.18 KCAL/MOL
REMARK 924 INTRA-LIGAND FREE ENERGY PREDICTED BY IDOCK:   -0.21 KCAL/MOL
REMARK 927      BINDING AFFINITY PREDICTED BY RF-SCORE:    0.00 PKD
ROOT
HETATM    1  C   UNL     1     -11.340   7.145  71.810  1.00  0.00    -0.252 C  
HETATM    2  C   UNL     1     -11.230   6.113  70.678  1.00  0.00    -0.387 C  
ENDROOT
BRANCH   1   3
HETATM    3  C   UNL     1     -12.684   7.940  71.745  1.00  0.00    -0.329 C  
HETATM    4  O   UNL     1     -13.608   7.280  70.864  1.00  0.00    -0.597 OA 
HETATM    5  H   UNL     1     -14.425   7.764  70.825  1.00  0.00     0.000 HD 
BRANCH   3   6
HETATM    6  C   UNL     1     -12.558   9.411  71.378  1.00  0.00    -0.430 A  
HETATM    7  C   UNL     1     -11.670   9.804  70.364  1.00  0.00    -0.301 A  
HETATM    8  C   UNL     1     -11.470  11.158  70.075  1.00  0.00    -0.376 A  
HETATM    9  C   UNL     1     -12.170  12.123  70.792  1.00  0.00    -0.271 A  
HETATM   10  O   UNL     1     -11.974  13.454  70.574  1.00  0.00    -0.452 OA 
HETATM   11  C   UNL     1     -13.086  11.755  71.768  1.00  0.00    -0.480 A  
HETATM   12  C   UNL     1     -13.283  10.404  72.058  1.00  0.00    -0.497 A  
HETATM   13  H   UNL     1     -12.452  14.113  71.064  1.00  0.00     0.000 HD 
ENDBRANCH   3   6
ENDBRANCH   1   3
BRANCH   1  14
HETATM   14  N   UNL     1     -11.269   6.498  73.142  1.00  0.00    -0.473 NA 
HETATM   15  C   UNL     1     -11.216   5.048  73.108  1.00  0.00    -0.335 C  
HETATM   16  H   UNL     1     -12.042   6.811  73.730  1.00  0.00     0.000 HD 
ENDBRANCH   1  14
TORSDOF 3
ENDMDL
MODEL       56
REMARK 921   NORMALIZED FREE ENERGY PREDICTED BY IDOCK:   -4.35 KCAL/MOL
REMARK 922        TOTAL FREE ENERGY PREDICTED BY IDOCK:   -5.39 KCAL/MOL
REMARK 923 INTER-LIGAND FREE ENERGY PREDICTED BY IDOCK:   -5.20 KCAL/MOL
REMARK 924 INTRA-LIGAND FREE ENERGY PREDICTED BY IDOCK:   -0.19 KCAL/MOL
REMARK 927      BINDING AFFINITY PREDICTED BY RF-SCORE:    0.00 PKD
ROOT
HETATM    1  C   UNL     1     -10.726  14.573  64.731  1.00  0.00    -0.393 C  
HETATM    2  C   UNL     1     -12.199  14.326  65.087  1.00  0.00    -0.422 C  
ENDROOT
BRANCH   1   3
HETATM    3  C   UNL     1      -9.871  14.920  65.992  1.00  0.00    -0.318 C  
HETATM    4  O   UNL     1     -10.523  14.441  67.179  1.00  0.00    -0.261 OA 
HETATM    5  H   UNL     1     -10.004  14.652  67.946  1.00  0.00     0.000 HD 
BRANCH   3   6
HETATM    6  C   UNL     1      -9.496  16.385  66.146  1.00  0.00    -0.363 A  
HETATM    7  C   UNL     1     -10.500  17.367  66.149  1.00  0.00    -0.284 A  
HETATM    8  C   UNL     1     -10.170  18.726  66.195  1.00  0.00    -0.462 A  
HETATM    9  C   UNL     1      -8.834  19.106  66.254  1.00  0.00    -0.299 A  
HETATM   10  O   UNL     1      -8.466  20.418  66.257  1.00  0.00    -0.533 OA 
HETATM   11  C   UNL     1      -7.827  18.151  66.298  1.00  0.00    -0.280 A  
HETATM   12  C   UNL     1      -8.156  16.796  66.249  1.00  0.00    -0.365 A  
HETATM   13  H   UNL     1      -7.552  20.678  66.297  1.00  0.00     0.000 HD 
ENDBRANCH   3   6
ENDBRANCH   1   3
BRANCH   1  14
HETATM   14  N   UNL     1     -10.116  13.382  64.092  1.00  0.00    -0.779 NA 
HETATM   15  C   UNL     1     -11.062  12.347  63.714  1.00  0.00    -0.445 C  
HETATM   16  H   UNL     1      -9.387  12.993  64.691  1.00  0.00     0.000 HD 
ENDBRANCH   1  14
TORSDOF 3
ENDMDL
MODEL       57
REMARK 921   NORMALIZED FREE ENERGY PREDICTED BY IDOCK:   -4.35 KCAL/MOL
REMARK 922        TOTAL FREE ENERGY PREDICTED BY IDOCK:   -5.39 KCAL/MOL
REMARK 923 INTER-LIGAND FREE ENERGY PREDICTED BY IDOCK:   -5.17 KCAL/MOL
REMARK 924 INTRA-LIGAND FREE ENERGY PREDICTED BY IDOCK:   -0.22 KCAL/MOL
REMARK 927      BINDING AFFINITY PREDICTED BY RF-SCORE:    0.00 PKD
ROOT
HETATM    1  C   UNL     1      -9.784  18.289  66.375  1.00  0.00    -0.334 C  
HETATM    2  C   UNL     1     -10.604  19.479  65.855  1.00  0.00    -0.572 C  
ENDROOT
BRANCH   1   3
HETATM    3  C   UNL     1     -10.229  16.943  65.719  1.00  0.00    -0.268 C  
HETATM    4  O   UNL     1     -11.120  17.198  64.620  1.00  0.00    -1.036 OA 
HETATM    5  H   UNL     1     -11.391  16.380  64.222  1.00  0.00     0.000 HD 
BRANCH   3   6
HETATM    6  C   UNL     1     -10.836  15.922  66.668  1.00  0.00    -0.213 A  
HETATM    7  C   UNL     1     -11.082  16.270  68.006  1.00  0.00    -0.299 A  
HETATM    8  C   UNL     1     -11.552  15.319  68.917  1.00  0.00    -0.365 A  
HETATM    9  C   UNL     1     -11.790  14.018  68.489  1.00  0.00    -0.364 A  
HETATM   10  O   UNL     1     -12.207  13.049  69.352  1.00  0.00    -0.237 OA 
HETATM   11  C   UNL     1     -11.597  13.662  67.161  1.00  0.00    -0.392 A  
HETATM   12  C   UNL     1     -11.126  14.611  66.252  1.00  0.00    -0.336 A  
HETATM   13  H   UNL     1     -12.370  12.159  69.059  1.00  0.00     0.000 HD 
ENDBRANCH   3   6
ENDBRANCH   1   3
BRANCH   1  14
HETATM   14  N   UNL     1      -8.338  18.465  66.094  1.00  0.00    -0.476 NA 
HETATM   15  C   UNL     1      -7.929  19.839  65.863  1.00  0.00    -0.280 C  
HETATM   16  H   UNL     1      -8.055  17.875  65.312  1.00  0.00     0.000 HD 
ENDBRANCH   1  14
TORSDOF 3
ENDMDL
MODEL       58
REMARK 921   NORMALIZED FREE ENERGY PREDICTED BY IDOCK:   -4.33 KCAL/MOL
REMARK 922        TOTAL FREE ENERGY PREDICTED BY IDOCK:   -5.36 KCAL/MOL
REMARK 923 INTER-LIGAND FREE ENERGY PREDICTED BY IDOCK:   -5.09 KCAL/MOL
REMARK 924 INTRA-LIGAND FREE ENERGY PREDICTED BY IDOCK:   -0.28 KCAL/MOL
REMARK 927      BINDING AFFINITY PREDICTED BY RF-SCORE:    0.00 PKD
ROOT
HETATM    1  C   UNL     1     -10.425  10.347  67.791  1.00  0.00    -0.226 C  
HETATM    2  C   UNL     1      -9.316  10.490  68.843  1.00  0.00    -0.192 C  
ENDROOT
BRANCH   1   3
HETATM    3  C   UNL     1      -9.870  10.481  66.336  1.00  0.00    -0.210 C  
HETATM    4  O   UNL     1      -8.479  10.843  66.368  1.00  0.00    -0.151 OA 
HETATM    5  H   UNL     1      -8.142  10.925  65.484  1.00  0.00     0.000 HD 
BRANCH   3   6
HETATM    6  C   UNL     1     -10.643  11.421  65.424  1.00  0.00    -0.333 A  
HETATM    7  C   UNL     1     -10.318  11.495  64.060  1.00  0.00    -0.406 A  
HETATM    8  C   UNL     1     -10.952  12.419  63.224  1.00  0.00    -0.325 A  
HETATM    9  C   UNL     1     -11.925  13.264  63.748  1.00  0.00    -0.491 A  
HETATM   10  O   UNL     1     -12.537  14.209  62.980  1.00  0.00    -1.002 OA 
HETATM   11  C   UNL     1     -12.294  13.176  65.083  1.00  0.00    -0.525 A  
HETATM   12  C   UNL     1     -11.659  12.256  65.918  1.00  0.00    -0.450 A  
HETATM   13  H   UNL     1     -13.202  14.786  63.338  1.00  0.00     0.000 HD 
ENDBRANCH   3   6
ENDBRANCH   1   3
BRANCH   1  14
HETATM   14  N   UNL     1     -11.100   9.031  67.891  1.00  0.00    -0.480 NA 
HETATM   15  C   UNL     1     -10.537   7.996  67.043  1.00  0.00    -0.294 C  
HETATM   16  H   UNL     1     -12.100   9.130  67.712  1.00  0.00     0.000 HD 
ENDBRANCH   1  14
TORSDOF 3
ENDMDL
MODEL       59
REMARK 921   NORMALIZED FREE ENERGY PREDICTED BY IDOCK:   -4.32 KCAL/MOL
REMARK 922        TOTAL FREE ENERGY PREDICTED BY IDOCK:   -5.36 KCAL/MOL
REMARK 923 INTER-LIGAND FREE ENERGY PREDICTED BY IDOCK:   -5.13 KCAL/MOL
REMARK 924 INTRA-LIGAND FREE ENERGY PREDICTED BY IDOCK:   -0.23 KCAL/MOL
REMARK 927      BINDING AFFINITY PREDICTED BY RF-SCORE:    0.00 PKD
ROOT
HETATM    1  C   UNL     1     -12.578  10.407  71.127  1.00  0.00    -0.410 C  
HETATM    2  C   UNL     1     -13.238  11.602  71.832  1.00  0.00    -0.475 C  
ENDROOT
BRANCH   1   3
HETATM    3  C   UNL     1     -13.170   9.045  71.612  1.00  0.00    -0.371 C  
HETATM    4  O   UNL     1     -13.838   9.216  72.873  1.00  0.00    -0.867 OA 
HETATM    5  H   UNL     1     -14.198   8.387  73.167  1.00  0.00     0.000 HD 
BRANCH   3   6
HETATM    6  C   UNL     1     -12.183   7.891  71.685  1.00  0.00    -0.339 A  
HETATM    7  C   UNL     1     -11.367   7.740  72.818  1.00  0.00    -0.446 A  
HETATM    8  C   UNL     1     -10.388   6.743  72.867  1.00  0.00    -0.245 A  
HETATM    9  C   UNL     1     -10.232   5.882  71.785  1.00  0.00    -0.203 A  
HETATM   10  O   UNL     1      -9.263   4.924  71.771  1.00  0.00    -0.137 OA 
HETATM   11  C   UNL     1     -11.058   5.984  70.674  1.00  0.00    -0.371 A  
HETATM   12  C   UNL     1     -12.033   6.981  70.625  1.00  0.00    -0.361 A  
HETATM   13  H   UNL     1      -9.156   4.336  71.032  1.00  0.00     0.000 HD 
ENDBRANCH   3   6
ENDBRANCH   1   3
BRANCH   1  14
HETATM   14  N   UNL     1     -12.762  10.476  69.658  1.00  0.00    -0.616 NA 
HETATM   15  C   UNL     1     -11.558  10.797  68.912  1.00  0.00    -0.291 C  
HETATM   16  H   UNL     1     -13.508  11.131  69.424  1.00  0.00     0.000 HD 
ENDBRANCH   1  14
TORSDOF 3
ENDMDL
MODEL       60
REMARK 921   NORMALIZED FREE ENERGY PREDICTED BY IDOCK:   -4.30 KCAL/MOL
REMARK 922        TOTAL FREE ENERGY PREDICTED BY IDOCK:   -5.33 KCAL/MOL
REMARK 923 INTER-LIGAND FREE ENERGY PREDICTED BY IDOCK:   -5.14 KCAL/MOL
REMARK 924 INTRA-LIGAND FREE ENERGY PREDICTED BY IDOCK:   -0.19 KCAL/MOL
REMARK 927      BINDING AFFINITY PREDICTED BY RF-SCORE:    0.00 PKD
ROOT
HETATM    1  C   UNL     1     -10.427  16.359  67.328  1.00  0.00    -0.303 C  
HETATM    2  C   UNL     1     -10.786  17.797  67.730  1.00  0.00    -0.332 C  
ENDROOT
BRANCH   1   3
HETATM    3  C   UNL     1     -10.192  16.225  65.790  1.00  0.00    -0.367 C  
HETATM    4  O   UNL     1     -10.624  17.419  65.117  1.00  0.00    -0.681 OA 
HETATM    5  H   UNL     1     -10.482  17.338  64.181  1.00  0.00     0.000 HD 
BRANCH   3   6
HETATM    6  C   UNL     1     -10.808  14.996  65.138  1.00  0.00    -0.422 A  
HETATM    7  C   UNL     1     -10.135  13.765  65.192  1.00  0.00    -0.314 A  
HETATM    8  C   UNL     1     -10.637  12.646  64.520  1.00  0.00    -0.369 A  
HETATM    9  C   UNL     1     -11.824  12.753  63.802  1.00  0.00    -0.499 A  
HETATM   10  O   UNL     1     -12.327  11.700  63.097  1.00  0.00    -0.937 OA 
HETATM   11  C   UNL     1     -12.529  13.948  63.773  1.00  0.00    -0.150 A  
HETATM   12  C   UNL     1     -12.026  15.065  64.441  1.00  0.00    -0.366 A  
HETATM   13  H   UNL     1     -13.138  11.773  62.607  1.00  0.00     0.000 HD 
ENDBRANCH   3   6
ENDBRANCH   1   3
BRANCH   1  14
HETATM   14  N   UNL     1      -9.194  15.898  68.009  1.00  0.00    -0.192 NA 
HETATM   15  C   UNL     1      -8.565  16.891  68.861  1.00  0.00    -0.206 C  
HETATM   16  H   UNL     1      -8.524  15.541  67.327  1.00  0.00     0.000 HD 
ENDBRANCH   1  14
TORSDOF 3
ENDMDL
MODEL       61
REMARK 921   NORMALIZED FREE ENERGY PREDICTED BY IDOCK:   -4.29 KCAL/MOL
REMARK 922        TOTAL FREE ENERGY PREDICTED BY IDOCK:   -5.32 KCAL/MOL
REMARK 923 INTER-LIGAND FREE ENERGY PREDICTED BY IDOCK:   -5.04 KCAL/MOL
REMARK 924 INTRA-LIGAND FREE ENERGY PREDICTED BY IDOCK:   -0.28 KCAL/MOL
REMARK 927      BINDING AFFINITY PREDICTED BY RF-SCORE:    0.00 PKD
ROOT
HETATM    1  C   UNL     1     -11.758  15.456  69.256  1.00  0.00    -0.349 C  
HETATM    2  C   UNL     1     -11.813  15.350  70.787  1.00  0.00    -0.394 C  
ENDROOT
BRANCH   1   3
HETATM    3  C   UNL     1     -10.338  15.870  68.751  1.00  0.00    -0.228 C  
HETATM    4  O   UNL     1      -9.360  15.638  69.778  1.00  0.00    -0.270 OA 
HETATM    5  H   UNL     1      -8.497  15.890  69.471  1.00  0.00     0.000 HD 
BRANCH   3   6
HETATM    6  C   UNL     1     -10.221  17.289  68.217  1.00  0.00    -0.348 A  
HETATM    7  C   UNL     1     -10.168  17.513  66.832  1.00  0.00    -0.329 A  
HETATM    8  C   UNL     1      -9.967  18.800  66.323  1.00  0.00    -0.418 A  
HETATM    9  C   UNL     1      -9.832  19.871  67.200  1.00  0.00    -0.406 A  
HETATM   10  O   UNL     1      -9.592  21.135  66.750  1.00  0.00    -0.538 OA 
HETATM   11  C   UNL     1      -9.928  19.679  68.572  1.00  0.00    -0.542 A  
HETATM   12  C   UNL     1     -10.125  18.394  69.079  1.00  0.00    -0.274 A  
HETATM   13  H   UNL     1      -9.500  21.867  67.349  1.00  0.00     0.000 HD 
ENDBRANCH   3   6
ENDBRANCH   1   3
BRANCH   1  14
HETATM   14  N   UNL     1     -12.101  14.165  68.611  1.00  0.00    -0.514 NA 
HETATM   15  C   UNL     1     -11.947  14.150  67.168  1.00  0.00    -0.426 C  
HETATM   16  H   UNL     1     -13.045  13.880  68.870  1.00  0.00     0.000 HD 
ENDBRANCH   1  14
TORSDOF 3
ENDMDL
MODEL       62
REMARK 921   NORMALIZED FREE ENERGY PREDICTED BY IDOCK:   -4.28 KCAL/MOL
REMARK 922        TOTAL FREE ENERGY PREDICTED BY IDOCK:   -5.31 KCAL/MOL
REMARK 923 INTER-LIGAND FREE ENERGY PREDICTED BY IDOCK:   -5.09 KCAL/MOL
REMARK 924 INTRA-LIGAND FREE ENERGY PREDICTED BY IDOCK:   -0.22 KCAL/MOL
REMARK 927      BINDING AFFINITY PREDICTED BY RF-SCORE:    0.00 PKD
ROOT
HETATM    1  C   UNL     1     -10.878  15.688  65.501  1.00  0.00    -0.346 C  
HETATM    2  C   UNL     1     -11.700  15.812  64.209  1.00  0.00    -0.162 C  
ENDROOT
BRANCH   1   3
HETATM    3  C   UNL     1     -10.084  14.344  65.560  1.00  0.00    -0.356 C  
HETATM    4  O   UNL     1      -9.976  13.775  64.245  1.00  0.00    -0.742 OA 
HETATM    5  H   UNL     1      -9.493  12.957  64.281  1.00  0.00     0.000 HD 
BRANCH   3   6
HETATM    6  C   UNL     1     -10.614  13.313  66.544  1.00  0.00    -0.289 A  
HETATM    7  C   UNL     1     -10.474  11.944  66.264  1.00  0.00    -0.274 A  
HETATM    8  C   UNL     1     -11.037  10.981  67.109  1.00  0.00    -0.333 A  
HETATM    9  C   UNL     1     -11.730  11.386  68.244  1.00  0.00    -0.288 A  
HETATM   10  O   UNL     1     -12.331  10.484  69.071  1.00  0.00    -0.759 OA 
HETATM   11  C   UNL     1     -11.842  12.732  68.564  1.00  0.00    -0.345 A  
HETATM   12  C   UNL     1     -11.283  13.692  67.720  1.00  0.00    -0.310 A  
HETATM   13  H   UNL     1     -12.805  10.761  69.848  1.00  0.00     0.000 HD 
ENDBRANCH   3   6
ENDBRANCH   1   3
BRANCH   1  14
HETATM   14  N   UNL     1      -9.897  16.792  65.627  1.00  0.00    -0.572 NA 
HETATM   15  C   UNL     1     -10.467  18.067  66.025  1.00  0.00    -0.313 C  
HETATM   16  H   UNL     1      -9.367  16.896  64.761  1.00  0.00     0.000 HD 
ENDBRANCH   1  14
TORSDOF 3
ENDMDL
MODEL       63
REMARK 921   NORMALIZED FREE ENERGY PREDICTED BY IDOCK:   -4.26 KCAL/MOL
REMARK 922        TOTAL FREE ENERGY PREDICTED BY IDOCK:   -5.28 KCAL/MOL
REMARK 923 INTER-LIGAND FREE ENERGY PREDICTED BY IDOCK:   -5.18 KCAL/MOL
REMARK 924 INTRA-LIGAND FREE ENERGY PREDICTED BY IDOCK:   -0.11 KCAL/MOL
REMARK 927      BINDING AFFINITY PREDICTED BY RF-SCORE:    0.00 PKD
ROOT
HETATM    1  C   UNL     1     -10.481  15.065  69.139  1.00  0.00    -0.247 C  
HETATM    2  C   UNL     1     -11.818  15.341  69.843  1.00  0.00    -0.363 C  
ENDROOT
BRANCH   1   3
HETATM    3  C   UNL     1     -10.473  13.674  68.428  1.00  0.00    -0.246 C  
HETATM    4  O   UNL     1      -9.163  13.087  68.500  1.00  0.00    -0.330 OA 
HETATM    5  H   UNL     1      -9.158  12.242  68.067  1.00  0.00     0.000 HD 
BRANCH   3   6
HETATM    6  C   UNL     1     -10.978  13.670  66.993  1.00  0.00    -0.298 A  
HETATM    7  C   UNL     1     -10.067  13.549  65.931  1.00  0.00    -0.311 A  
HETATM    8  C   UNL     1     -10.500  13.636  64.604  1.00  0.00    -0.442 A  
HETATM    9  C   UNL     1     -11.850  13.832  64.335  1.00  0.00    -0.427 A  
HETATM   10  O   UNL     1     -12.310  13.966  63.059  1.00  0.00    -1.101 OA 
HETATM   11  C   UNL     1     -12.775  13.908  65.368  1.00  0.00    -0.525 A  
HETATM   12  C   UNL     1     -12.342  13.824  66.692  1.00  0.00    -0.403 A  
HETATM   13  H   UNL     1     -13.233  14.100  62.875  1.00  0.00     0.000 HD 
ENDBRANCH   3   6
ENDBRANCH   1   3
BRANCH   1  14
HETATM   14  N   UNL     1     -10.187  16.093  68.112  1.00  0.00    -0.241 NA 
HETATM   15  C   UNL     1      -9.011  16.899  68.382  1.00  0.00    -0.244 C  
HETATM   16  H   UNL     1     -11.001  16.691  67.966  1.00  0.00     0.000 HD 
ENDBRANCH   1  14
TORSDOF 3
ENDMDL
MODEL       64
REMARK 921   NORMALIZED FREE ENERGY PREDICTED BY IDOCK:   -4.25 KCAL/MOL
REMARK 922        TOTAL FREE ENERGY PREDICTED BY IDOCK:   -5.28 KCAL/MOL
REMARK 923 INTER-LIGAND FREE ENERGY PREDICTED BY IDOCK:   -5.07 KCAL/MOL
REMARK 924 INTRA-LIGAND FREE ENERGY PREDICTED BY IDOCK:   -0.21 KCAL/MOL
REMARK 927      BINDING AFFINITY PREDICTED BY RF-SCORE:    0.00 PKD
ROOT
HETATM    1  C   UNL     1     -10.191   9.106  68.258  1.00  0.00    -0.206 C  
HETATM    2  C   UNL     1      -8.761   8.587  68.050  1.00  0.00    -0.142 C  
ENDROOT
BRANCH   1   3
HETATM    3  C   UNL     1     -10.262  10.183  69.388  1.00  0.00    -0.227 C  
HETATM    4  O   UNL     1      -8.956  10.398  69.950  1.00  0.00    -0.394 OA 
HETATM    5  H   UNL     1      -8.999  11.052  70.637  1.00  0.00     0.000 HD 
BRANCH   3   6
HETATM    6  C   UNL     1     -11.275   9.911  70.489  1.00  0.00    -0.399 A  
HETATM    7  C   UNL     1     -11.043   8.880  71.414  1.00  0.00    -0.376 A  
HETATM    8  C   UNL     1     -12.005   8.553  72.376  1.00  0.00    -0.434 A  
HETATM    9  C   UNL     1     -13.197   9.267  72.424  1.00  0.00    -0.426 A  
HETATM   10  O   UNL     1     -14.179   8.954  73.315  1.00  0.00    -1.197 OA 
HETATM   11  C   UNL     1     -13.428  10.320  71.549  1.00  0.00    -0.336 A  
HETATM   12  C   UNL     1     -12.470  10.644  70.587  1.00  0.00    -0.462 A  
HETATM   13  H   UNL     1     -14.995   9.442  73.348  1.00  0.00     0.000 HD 
ENDBRANCH   3   6
ENDBRANCH   1   3
BRANCH   1  14
HETATM   14  N   UNL     1     -10.730   9.722  67.022  1.00  0.00    -0.207 NA 
HETATM   15  C   UNL     1      -9.761   9.876  65.951  1.00  0.00    -0.262 C  
HETATM   16  H   UNL     1     -11.169  10.618  67.234  1.00  0.00     0.000 HD 
ENDBRANCH   1  14
TORSDOF 3
ENDMDL
MODEL       65
REMARK 921   NORMALIZED FREE ENERGY PREDICTED BY IDOCK:   -4.24 KCAL/MOL
REMARK 922        TOTAL FREE ENERGY PREDICTED BY IDOCK:   -5.26 KCAL/MOL
REMARK 923 INTER-LIGAND FREE ENERGY PREDICTED BY IDOCK:   -5.10 KCAL/MOL
REMARK 924 INTRA-LIGAND FREE ENERGY PREDICTED BY IDOCK:   -0.16 KCAL/MOL
REMARK 927      BINDING AFFINITY PREDICTED BY RF-SCORE:    0.00 PKD
ROOT
HETATM    1  C   UNL     1     -12.265   8.263  71.376  1.00  0.00    -0.299 C  
HETATM    2  C   UNL     1     -11.384   7.800  72.546  1.00  0.00    -0.429 C  
ENDROOT
BRANCH   1   3
HETATM    3  C   UNL     1     -11.607   9.434  70.579  1.00  0.00    -0.235 C  
HETATM    4  O   UNL     1     -10.187   9.449  70.801  1.00  0.00    -0.259 OA 
HETATM    5  H   UNL     1      -9.787  10.162  70.317  1.00  0.00     0.000 HD 
BRANCH   3   6
HETATM    6  C   UNL     1     -12.199  10.812  70.833  1.00  0.00    -0.487 A  
HETATM    7  C   UNL     1     -11.858  11.885  69.993  1.00  0.00    -0.407 A  
HETATM    8  C   UNL     1     -12.316  13.178  70.264  1.00  0.00    -0.319 A  
HETATM    9  C   UNL     1     -13.130  13.400  71.370  1.00  0.00    -0.291 A  
HETATM   10  O   UNL     1     -13.563  14.650  71.697  1.00  0.00    -0.345 OA 
HETATM   11  C   UNL     1     -13.517  12.346  72.187  1.00  0.00    -0.481 A  
HETATM   12  C   UNL     1     -13.057  11.057  71.918  1.00  0.00    -0.525 A  
HETATM   13  H   UNL     1     -14.120  14.801  72.452  1.00  0.00     0.000 HD 
ENDBRANCH   3   6
ENDBRANCH   1   3
BRANCH   1  14
HETATM   14  N   UNL     1     -12.517   7.159  70.419  1.00  0.00    -0.596 NA 
HETATM   15  C   UNL     1     -11.328   6.444  69.992  1.00  0.00    -0.430 C  
HETATM   16  H   UNL     1     -13.034   7.503  69.608  1.00  0.00     0.000 HD 
ENDBRANCH   1  14
TORSDOF 3
ENDMDL
MODEL       66
REMARK 921   NORMALIZED FREE ENERGY PREDICTED BY IDOCK:   -4.23 KCAL/MOL
REMARK 922        TOTAL FREE ENERGY PREDICTED BY IDOCK:   -5.26 KCAL/MOL
REMARK 923 INTER-LIGAND FREE ENERGY PREDICTED BY IDOCK:   -4.99 KCAL/MOL
REMARK 924 INTRA-LIGAND FREE ENERGY PREDICTED BY IDOCK:   -0.26 KCAL/MOL
REMARK 927      BINDING AFFINITY PREDICTED BY RF-SCORE:    0.00 PKD
ROOT
HETATM    1  C   UNL     1      -8.831   9.645  65.479  1.00  0.00    -0.172 C  
HETATM    2  C   UNL     1      -7.309   9.488  65.342  1.00  0.00    -0.099 C  
ENDROOT
BRANCH   1   3
HETATM    3  C   UNL     1      -9.454  10.376  64.247  1.00  0.00    -0.294 C  
HETATM    4  O   UNL     1      -8.417  10.951  63.435  1.00  0.00    -0.342 OA 
HETATM    5  H   UNL     1      -8.796  11.395  62.686  1.00  0.00     0.000 HD 
BRANCH   3   6
HETATM    6  C   UNL     1     -10.514  11.417  64.571  1.00  0.00    -0.381 A  
HETATM    7  C   UNL     1     -10.792  11.739  65.909  1.00  0.00    -0.339 A  
HETATM    8  C   UNL     1     -11.825  12.625  66.231  1.00  0.00    -0.471 A  
HETATM    9  C   UNL     1     -12.576  13.202  65.213  1.00  0.00    -0.472 A  
HETATM   10  O   UNL     1     -13.620  14.036  65.483  1.00  0.00    -0.673 OA 
HETATM   11  C   UNL     1     -12.290  12.933  63.882  1.00  0.00    -0.476 A  
HETATM   12  C   UNL     1     -11.260  12.048  63.561  1.00  0.00    -0.526 A  
HETATM   13  H   UNL     1     -14.134  14.430  64.787  1.00  0.00     0.000 HD 
ENDBRANCH   3   6
ENDBRANCH   1   3
BRANCH   1  14
HETATM   14  N   UNL     1      -9.502   8.328  65.602  1.00  0.00    -0.430 NA 
HETATM   15  C   UNL     1     -10.229   8.134  66.844  1.00  0.00    -0.316 C  
HETATM   16  H   UNL     1      -8.829   7.573  65.464  1.00  0.00     0.000 HD 
ENDBRANCH   1  14
TORSDOF 3
ENDMDL
MODEL       67
REMARK 921   NORMALIZED FREE ENERGY PREDICTED BY IDOCK:   -4.23 KCAL/MOL
REMARK 922        TOTAL FREE ENERGY PREDICTED BY IDOCK:   -5.25 KCAL/MOL
REMARK 923 INTER-LIGAND FREE ENERGY PREDICTED BY IDOCK:   -5.10 KCAL/MOL
REMARK 924 INTRA-LIGAND FREE ENERGY PREDICTED BY IDOCK:   -0.15 KCAL/MOL
REMARK 927      BINDING AFFINITY PREDICTED BY RF-SCORE:    0.00 PKD
ROOT
HETATM    1  C   UNL     1      -9.126   9.913  69.143  1.00  0.00    -0.173 C  
HETATM    2  C   UNL     1      -8.514   9.504  70.491  1.00  0.00    -0.213 C  
ENDROOT
BRANCH   1   3
HETATM    3  C   UNL     1     -10.531   9.267  68.921  1.00  0.00    -0.215 C  
HETATM    4  O   UNL     1     -11.215   9.927  67.843  1.00  0.00    -0.497 OA 
HETATM    5  H   UNL     1     -12.070   9.535  67.708  1.00  0.00     0.000 HD 
BRANCH   3   6
HETATM    6  C   UNL     1     -11.422   9.199  70.152  1.00  0.00    -0.110 A  
HETATM    7  C   UNL     1     -11.650   7.965  70.783  1.00  0.00    -0.258 A  
HETATM    8  C   UNL     1     -12.539   7.866  71.858  1.00  0.00    -0.348 A  
HETATM    9  C   UNL     1     -13.193   9.005  72.315  1.00  0.00    -0.460 A  
HETATM   10  O   UNL     1     -14.100   8.946  73.331  1.00  0.00    -1.256 OA 
HETATM   11  C   UNL     1     -12.949  10.242  71.736  1.00  0.00    -0.574 A  
HETATM   12  C   UNL     1     -12.064  10.341  70.661  1.00  0.00    -0.433 A  
HETATM   13  H   UNL     1     -14.547   9.725  73.643  1.00  0.00     0.000 HD 
ENDBRANCH   3   6
ENDBRANCH   1   3
BRANCH   1  14
HETATM   14  N   UNL     1      -9.291  11.383  69.047  1.00  0.00    -0.407 NA 
HETATM   15  C   UNL     1      -8.243  12.062  68.306  1.00  0.00    -0.161 C  
HETATM   16  H   UNL     1      -9.387  11.790  69.978  1.00  0.00     0.000 HD 
ENDBRANCH   1  14
TORSDOF 3
ENDMDL
MODEL       68
REMARK 921   NORMALIZED FREE ENERGY PREDICTED BY IDOCK:   -4.22 KCAL/MOL
REMARK 922        TOTAL FREE ENERGY PREDICTED BY IDOCK:   -5.24 KCAL/MOL
REMARK 923 INTER-LIGAND FREE ENERGY PREDICTED BY IDOCK:   -4.96 KCAL/MOL
REMARK 924 INTRA-LIGAND FREE ENERGY PREDICTED BY IDOCK:   -0.28 KCAL/MOL
REMARK 927      BINDING AFFINITY PREDICTED BY RF-SCORE:    0.00 PKD
ROOT
HETATM    1  C   UNL     1     -10.955   6.361  68.264  1.00  0.00    -0.312 C  
HETATM    2  C   UNL     1     -10.029   5.182  67.931  1.00  0.00    -0.202 C  
ENDROOT
BRANCH   1   3
HETATM    3  C   UNL     1     -10.348   7.285  69.368  1.00  0.00    -0.208 C  
HETATM    4  O   UNL     1      -9.235   6.634  70.003  1.00  0.00    -0.156 OA 
HETATM    5  H   UNL     1      -8.866   7.196  70.674  1.00  0.00     0.000 HD 
BRANCH   3   6
HETATM    6  C   UNL     1     -11.331   7.794  70.410  1.00  0.00    -0.219 A  
HETATM    7  C   UNL     1     -12.252   6.908  70.993  1.00  0.00    -0.427 A  
HETATM    8  C   UNL     1     -13.225   7.373  71.884  1.00  0.00    -0.292 A  
HETATM    9  C   UNL     1     -13.271   8.725  72.205  1.00  0.00    -0.414 A  
HETATM   10  O   UNL     1     -14.229   9.229  73.034  1.00  0.00    -1.025 OA 
HETATM   11  C   UNL     1     -12.342   9.611  71.676  1.00  0.00    -0.489 A  
HETATM   12  C   UNL     1     -11.373   9.147  70.785  1.00  0.00    -0.337 A  
HETATM   13  H   UNL     1     -14.260  10.153  73.253  1.00  0.00     0.000 HD 
ENDBRANCH   3   6
ENDBRANCH   1   3
BRANCH   1  14
HETATM   14  N   UNL     1     -11.213   7.201  67.071  1.00  0.00    -0.565 NA 
HETATM   15  C   UNL     1     -10.283   8.302  66.893  1.00  0.00    -0.318 C  
HETATM   16  H   UNL     1     -12.173   7.547  67.080  1.00  0.00     0.000 HD 
ENDBRANCH   1  14
TORSDOF 3
ENDMDL
MODEL       69
REMARK 921   NORMALIZED FREE ENERGY PREDICTED BY IDOCK:   -4.20 KCAL/MOL
REMARK 922        TOTAL FREE ENERGY PREDICTED BY IDOCK:   -5.22 KCAL/MOL
REMARK 923 INTER-LIGAND FREE ENERGY PREDICTED BY IDOCK:   -4.99 KCAL/MOL
REMARK 924 INTRA-LIGAND FREE ENERGY PREDICTED BY IDOCK:   -0.22 KCAL/MOL
REMARK 927      BINDING AFFINITY PREDICTED BY RF-SCORE:    0.00 PKD
ROOT
HETATM    1  C   UNL     1     -10.469   5.746  71.120  1.00  0.00    -0.239 C  
HETATM    2  C   UNL     1      -9.818   4.690  70.214  1.00  0.00    -0.314 C  
ENDROOT
BRANCH   1   3
HETATM    3  C   UNL     1     -11.754   6.356  70.474  1.00  0.00    -0.317 C  
HETATM    4  O   UNL     1     -11.605   6.427  69.047  1.00  0.00    -0.597 OA 
HETATM    5  H   UNL     1     -12.386   6.798  68.654  1.00  0.00     0.000 HD 
BRANCH   3   6
HETATM    6  C   UNL     1     -12.189   7.703  71.030  1.00  0.00    -0.261 A  
HETATM    7  C   UNL     1     -13.428   7.824  71.680  1.00  0.00    -0.401 A  
HETATM    8  C   UNL     1     -13.888   9.072  72.115  1.00  0.00    -0.526 A  
HETATM    9  C   UNL     1     -13.102  10.201  71.913  1.00  0.00    -0.466 A  
HETATM   10  O   UNL     1     -13.530  11.442  72.281  1.00  0.00    -0.601 OA 
HETATM   11  C   UNL     1     -11.854  10.098  71.314  1.00  0.00    -0.448 A  
HETATM   12  C   UNL     1     -11.397   8.854  70.877  1.00  0.00    -0.336 A  
HETATM   13  H   UNL     1     -12.992  12.214  72.143  1.00  0.00     0.000 HD 
ENDBRANCH   3   6
ENDBRANCH   1   3
BRANCH   1  14
HETATM   14  N   UNL     1     -10.859   5.170  72.429  1.00  0.00    -0.221 NA 
HETATM   15  C   UNL     1     -10.426   5.939  73.582  1.00  0.00    -0.265 C  
HETATM   16  H   UNL     1     -10.532   4.206  72.504  1.00  0.00     0.000 HD 
ENDBRANCH   1  14
TORSDOF 3
ENDMDL
MODEL       70
REMARK 921   NORMALIZED FREE ENERGY PREDICTED BY IDOCK:   -4.19 KCAL/MOL
REMARK 922        TOTAL FREE ENERGY PREDICTED BY IDOCK:   -5.21 KCAL/MOL
REMARK 923 INTER-LIGAND FREE ENERGY PREDICTED BY IDOCK:   -4.96 KCAL/MOL
REMARK 924 INTRA-LIGAND FREE ENERGY PREDICTED BY IDOCK:   -0.25 KCAL/MOL
REMARK 927      BINDING AFFINITY PREDICTED BY RF-SCORE:    0.00 PKD
ROOT
HETATM    1  C   UNL     1      -9.944  14.822  68.095  1.00  0.00    -0.221 C  
HETATM    2  C   UNL     1      -9.008  15.060  66.901  1.00  0.00    -0.276 C  
ENDROOT
BRANCH   1   3
HETATM    3  C   UNL     1     -10.501  13.362  68.118  1.00  0.00    -0.245 C  
HETATM    4  O   UNL     1      -9.538  12.474  68.709  1.00  0.00    -0.398 OA 
HETATM    5  H   UNL     1      -9.876  11.586  68.722  1.00  0.00     0.000 HD 
BRANCH   3   6
HETATM    6  C   UNL     1     -10.970  12.820  66.777  1.00  0.00    -0.301 A  
HETATM    7  C   UNL     1     -10.224  11.825  66.125  1.00  0.00    -0.255 A  
HETATM    8  C   UNL     1     -10.587  11.379  64.850  1.00  0.00    -0.368 A  
HETATM    9  C   UNL     1     -11.707  11.919  64.228  1.00  0.00    -0.303 A  
HETATM   10  O   UNL     1     -12.072  11.546  62.969  1.00  0.00    -0.939 OA 
HETATM   11  C   UNL     1     -12.486  12.871  64.873  1.00  0.00    -0.540 A  
HETATM   12  C   UNL     1     -12.122  13.317  66.144  1.00  0.00    -0.477 A  
HETATM   13  H   UNL     1     -12.838  11.915  62.544  1.00  0.00     0.000 HD 
ENDBRANCH   3   6
ENDBRANCH   1   3
BRANCH   1  14
HETATM   14  N   UNL     1      -9.248  15.053  69.383  1.00  0.00    -0.396 NA 
HETATM   15  C   UNL     1      -7.966  15.725  69.267  1.00  0.00    -0.239 C  
HETATM   16  H   UNL     1      -9.143  14.175  69.893  1.00  0.00     0.000 HD 
ENDBRANCH   1  14
TORSDOF 3
ENDMDL
MODEL       71
REMARK 921   NORMALIZED FREE ENERGY PREDICTED BY IDOCK:   -4.19 KCAL/MOL
REMARK 922        TOTAL FREE ENERGY PREDICTED BY IDOCK:   -5.20 KCAL/MOL
REMARK 923 INTER-LIGAND FREE ENERGY PREDICTED BY IDOCK:   -4.90 KCAL/MOL
REMARK 924 INTRA-LIGAND FREE ENERGY PREDICTED BY IDOCK:   -0.30 KCAL/MOL
REMARK 927      BINDING AFFINITY PREDICTED BY RF-SCORE:    0.00 PKD
ROOT
HETATM    1  C   UNL     1     -11.399  14.813  66.781  1.00  0.00    -0.346 C  
HETATM    2  C   UNL     1     -10.932  13.919  67.940  1.00  0.00    -0.265 C  
ENDROOT
BRANCH   1   3
HETATM    3  C   UNL     1     -10.217  15.217  65.844  1.00  0.00    -0.332 C  
HETATM    4  O   UNL     1      -9.114  14.311  66.018  1.00  0.00    -0.504 OA 
HETATM    5  H   UNL     1      -8.395  14.557  65.448  1.00  0.00     0.000 HD 
BRANCH   3   6
HETATM    6  C   UNL     1      -9.745  16.657  65.968  1.00  0.00    -0.306 A  
HETATM    7  C   UNL     1      -8.390  16.930  66.216  1.00  0.00    -0.331 A  
HETATM    8  C   UNL     1      -7.952  18.242  66.427  1.00  0.00    -0.290 A  
HETATM    9  C   UNL     1      -8.868  19.287  66.377  1.00  0.00    -0.348 A  
HETATM   10  O   UNL     1      -8.493  20.575  66.619  1.00  0.00    -0.521 OA 
HETATM   11  C   UNL     1     -10.204  19.045  66.088  1.00  0.00    -0.508 A  
HETATM   12  C   UNL     1     -10.641  17.736  65.880  1.00  0.00    -0.205 A  
HETATM   13  H   UNL     1      -9.119  21.290  66.584  1.00  0.00     0.000 HD 
ENDBRANCH   3   6
ENDBRANCH   1   3
BRANCH   1  14
HETATM   14  N   UNL     1     -12.416  14.130  65.947  1.00  0.00    -0.478 NA 
HETATM   15  C   UNL     1     -12.280  14.358  64.519  1.00  0.00    -0.463 C  
HETATM   16  H   UNL     1     -13.356  14.380  66.257  1.00  0.00     0.000 HD 
ENDBRANCH   1  14
TORSDOF 3
ENDMDL
MODEL       72
REMARK 921   NORMALIZED FREE ENERGY PREDICTED BY IDOCK:   -4.18 KCAL/MOL
REMARK 922        TOTAL FREE ENERGY PREDICTED BY IDOCK:   -5.19 KCAL/MOL
REMARK 923 INTER-LIGAND FREE ENERGY PREDICTED BY IDOCK:   -4.95 KCAL/MOL
REMARK 924 INTRA-LIGAND FREE ENERGY PREDICTED BY IDOCK:   -0.25 KCAL/MOL
REMARK 927      BINDING AFFINITY PREDICTED BY RF-SCORE:    0.00 PKD
ROOT
HETATM    1  C   UNL     1     -11.296  10.568  67.999  1.00  0.00    -0.246 C  
HETATM    2  C   UNL     1     -10.214  10.136  66.998  1.00  0.00    -0.290 C  
ENDROOT
BRANCH   1   3
HETATM    3  C   UNL     1     -10.689  10.941  69.389  1.00  0.00    -0.225 C  
HETATM    4  O   UNL     1      -9.309  11.316  69.242  1.00  0.00    -0.405 OA 
HETATM    5  H   UNL     1      -8.940  11.543  70.088  1.00  0.00     0.000 HD 
BRANCH   3   6
HETATM    6  C   UNL     1     -10.839   9.885  70.473  1.00  0.00    -0.391 A  
HETATM    7  C   UNL     1     -12.119   9.523  70.924  1.00  0.00    -0.357 A  
HETATM    8  C   UNL     1     -12.276   8.624  71.984  1.00  0.00    -0.439 A  
HETATM    9  C   UNL     1     -11.151   8.074  72.588  1.00  0.00    -0.387 A  
HETATM   10  O   UNL     1     -11.256   7.228  73.652  1.00  0.00    -0.570 OA 
HETATM   11  C   UNL     1      -9.877   8.382  72.129  1.00  0.00    -0.372 A  
HETATM   12  C   UNL     1      -9.721   9.282  71.074  1.00  0.00    -0.341 A  
HETATM   13  H   UNL     1     -10.487   6.851  74.065  1.00  0.00     0.000 HD 
ENDBRANCH   3   6
ENDBRANCH   1   3
BRANCH   1  14
HETATM   14  N   UNL     1     -12.046  11.749  67.509  1.00  0.00    -0.550 NA 
HETATM   15  C   UNL     1     -11.412  12.457  66.411  1.00  0.00    -0.373 C  
HETATM   16  H   UNL     1     -12.240  12.390  68.278  1.00  0.00     0.000 HD 
ENDBRANCH   1  14
TORSDOF 3
ENDMDL
MODEL       73
REMARK 921   NORMALIZED FREE ENERGY PREDICTED BY IDOCK:   -4.13 KCAL/MOL
REMARK 922        TOTAL FREE ENERGY PREDICTED BY IDOCK:   -5.13 KCAL/MOL
REMARK 923 INTER-LIGAND FREE ENERGY PREDICTED BY IDOCK:   -4.98 KCAL/MOL
REMARK 924 INTRA-LIGAND FREE ENERGY PREDICTED BY IDOCK:   -0.15 KCAL/MOL
REMARK 927      BINDING AFFINITY PREDICTED BY RF-SCORE:    0.00 PKD
ROOT
HETATM    1  C   UNL     1     -11.252  14.146  64.844  1.00  0.00    -0.373 C  
HETATM    2  C   UNL     1     -12.462  13.240  65.113  1.00  0.00    -0.525 C  
ENDROOT
BRANCH   1   3
HETATM    3  C   UNL     1     -10.531  14.563  66.166  1.00  0.00    -0.298 C  
HETATM    4  O   UNL     1      -9.116  14.682  65.942  1.00  0.00    -0.503 OA 
HETATM    5  H   UNL     1      -8.678  14.935  66.746  1.00  0.00     0.000 HD 
BRANCH   3   6
HETATM    6  C   UNL     1     -10.806  13.676  67.370  1.00  0.00    -0.282 A  
HETATM    7  C   UNL     1     -10.227  12.398  67.443  1.00  0.00    -0.215 A  
HETATM    8  C   UNL     1     -10.540  11.531  68.495  1.00  0.00    -0.236 A  
HETATM    9  C   UNL     1     -11.425  11.945  69.485  1.00  0.00    -0.288 A  
HETATM   10  O   UNL     1     -11.792  11.118  70.504  1.00  0.00    -0.337 OA 
HETATM   11  C   UNL     1     -11.973  13.220  69.457  1.00  0.00    -0.366 A  
HETATM   12  C   UNL     1     -11.662  14.084  68.406  1.00  0.00    -0.389 A  
HETATM   13  H   UNL     1     -12.397  11.401  71.180  1.00  0.00     0.000 HD 
ENDBRANCH   3   6
ENDBRANCH   1   3
BRANCH   1  14
HETATM   14  N   UNL     1     -10.250  13.471  63.984  1.00  0.00    -0.713 NA 
HETATM   15  C   UNL     1     -10.611  12.125  63.578  1.00  0.00    -0.458 C  
HETATM   16  H   UNL     1      -9.336  13.471  64.437  1.00  0.00     0.000 HD 
ENDBRANCH   1  14
TORSDOF 3
ENDMDL
MODEL       74
REMARK 921   NORMALIZED FREE ENERGY PREDICTED BY IDOCK:   -4.10 KCAL/MOL
REMARK 922        TOTAL FREE ENERGY PREDICTED BY IDOCK:   -5.10 KCAL/MOL
REMARK 923 INTER-LIGAND FREE ENERGY PREDICTED BY IDOCK:   -4.88 KCAL/MOL
REMARK 924 INTRA-LIGAND FREE ENERGY PREDICTED BY IDOCK:   -0.22 KCAL/MOL
REMARK 927      BINDING AFFINITY PREDICTED BY RF-SCORE:    0.00 PKD
ROOT
HETATM    1  C   UNL     1     -11.850  13.188  65.893  1.00  0.00    -0.406 C  
HETATM    2  C   UNL     1     -11.570  12.092  66.932  1.00  0.00    -0.408 C  
ENDROOT
BRANCH   1   3
HETATM    3  C   UNL     1     -10.534  13.718  65.237  1.00  0.00    -0.363 C  
HETATM    4  O   UNL     1      -9.522  12.698  65.262  1.00  0.00    -0.459 OA 
HETATM    5  H   UNL     1      -8.722  13.020  64.864  1.00  0.00     0.000 HD 
BRANCH   3   6
HETATM    6  C   UNL     1      -9.993  15.018  65.812  1.00  0.00    -0.376 A  
HETATM    7  C   UNL     1     -10.603  16.238  65.477  1.00  0.00    -0.369 A  
HETATM    8  C   UNL     1     -10.065  17.451  65.919  1.00  0.00    -0.219 A  
HETATM    9  C   UNL     1      -8.921  17.445  66.711  1.00  0.00    -0.254 A  
HETATM   10  O   UNL     1      -8.338  18.605  67.128  1.00  0.00    -0.256 OA 
HETATM   11  C   UNL     1      -8.329  16.249  67.092  1.00  0.00    -0.219 A  
HETATM   12  C   UNL     1      -8.864  15.039  66.648  1.00  0.00    -0.307 A  
HETATM   13  H   UNL     1      -7.557  18.601  67.669  1.00  0.00     0.000 HD 
ENDBRANCH   3   6
ENDBRANCH   1   3
BRANCH   1  14
HETATM   14  N   UNL     1     -12.723  12.690  64.803  1.00  0.00    -0.748 NA 
HETATM   15  C   UNL     1     -12.278  13.038  63.465  1.00  0.00    -0.501 C  
HETATM   16  H   UNL     1     -13.684  13.000  64.949  1.00  0.00     0.000 HD 
ENDBRANCH   1  14
TORSDOF 3
ENDMDL
MODEL       75
REMARK 921   NORMALIZED FREE ENERGY PREDICTED BY IDOCK:   -4.10 KCAL/MOL
REMARK 922        TOTAL FREE ENERGY PREDICTED BY IDOCK:   -5.10 KCAL/MOL
REMARK 923 INTER-LIGAND FREE ENERGY PREDICTED BY IDOCK:   -5.04 KCAL/MOL
REMARK 924 INTRA-LIGAND FREE ENERGY PREDICTED BY IDOCK:   -0.06 KCAL/MOL
REMARK 927      BINDING AFFINITY PREDICTED BY RF-SCORE:    0.00 PKD
ROOT
HETATM    1  C   UNL     1     -10.955  14.623  67.199  1.00  0.00    -0.316 C  
HETATM    2  C   UNL     1     -10.849  16.140  67.412  1.00  0.00    -0.265 C  
ENDROOT
BRANCH   1   3
HETATM    3  C   UNL     1     -10.415  13.823  68.427  1.00  0.00    -0.252 C  
HETATM    4  O   UNL     1      -9.843  12.577  67.995  1.00  0.00    -0.201 OA 
HETATM    5  H   UNL     1      -9.515  12.091  68.742  1.00  0.00     0.000 HD 
BRANCH   3   6
HETATM    6  C   UNL     1     -11.417  13.587  69.547  1.00  0.00    -0.318 A  
HETATM    7  C   UNL     1     -11.889  14.672  70.303  1.00  0.00    -0.363 A  
HETATM    8  C   UNL     1     -12.738  14.467  71.395  1.00  0.00    -0.413 A  
HETATM    9  C   UNL     1     -13.128  13.174  71.726  1.00  0.00    -0.383 A  
HETATM   10  O   UNL     1     -13.919  12.923  72.808  1.00  0.00    -0.730 OA 
HETATM   11  C   UNL     1     -12.711  12.091  70.965  1.00  0.00    -0.337 A  
HETATM   12  C   UNL     1     -11.862  12.296  69.877  1.00  0.00    -0.383 A  
HETATM   13  H   UNL     1     -14.186  12.040  73.034  1.00  0.00     0.000 HD 
ENDBRANCH   3   6
ENDBRANCH   1   3
BRANCH   1  14
HETATM   14  N   UNL     1     -12.359  14.204  66.976  1.00  0.00    -0.571 NA 
HETATM   15  C   UNL     1     -12.657  13.781  65.620  1.00  0.00    -0.509 C  
HETATM   16  H   UNL     1     -13.000  14.943  67.266  1.00  0.00     0.000 HD 
ENDBRANCH   1  14
TORSDOF 3
ENDMDL
MODEL       76
REMARK 921   NORMALIZED FREE ENERGY PREDICTED BY IDOCK:   -4.10 KCAL/MOL
REMARK 922        TOTAL FREE ENERGY PREDICTED BY IDOCK:   -5.10 KCAL/MOL
REMARK 923 INTER-LIGAND FREE ENERGY PREDICTED BY IDOCK:   -4.81 KCAL/MOL
REMARK 924 INTRA-LIGAND FREE ENERGY PREDICTED BY IDOCK:   -0.29 KCAL/MOL
REMARK 927      BINDING AFFINITY PREDICTED BY RF-SCORE:    0.00 PKD
ROOT
HETATM    1  C   UNL     1     -10.861   9.543  71.405  1.00  0.00    -0.312 C  
HETATM    2  C   UNL     1      -9.452   9.014  71.100  1.00  0.00    -0.348 C  
ENDROOT
BRANCH   1   3
HETATM    3  C   UNL     1     -11.711   9.721  70.106  1.00  0.00    -0.130 C  
HETATM    4  O   UNL     1     -11.277   8.792  69.099  1.00  0.00    -0.433 OA 
HETATM    5  H   UNL     1     -11.793   8.900  68.309  1.00  0.00     0.000 HD 
BRANCH   3   6
HETATM    6  C   UNL     1     -11.758  11.132  69.542  1.00  0.00    -0.405 A  
HETATM    7  C   UNL     1     -11.955  12.223  70.403  1.00  0.00    -0.349 A  
HETATM    8  C   UNL     1     -12.094  13.519  69.895  1.00  0.00    -0.408 A  
HETATM    9  C   UNL     1     -12.022  13.728  68.522  1.00  0.00    -0.367 A  
HETATM   10  O   UNL     1     -12.195  14.967  67.981  1.00  0.00    -0.536 OA 
HETATM   11  C   UNL     1     -11.782  12.671  67.656  1.00  0.00    -0.420 A  
HETATM   12  C   UNL     1     -11.646  11.378  68.163  1.00  0.00    -0.364 A  
HETATM   13  H   UNL     1     -12.146  15.110  67.042  1.00  0.00     0.000 HD 
ENDBRANCH   3   6
ENDBRANCH   1   3
BRANCH   1  14
HETATM   14  N   UNL     1     -11.603   8.623  72.301  1.00  0.00    -0.368 NA 
HETATM   15  C   UNL     1     -13.032   8.558  72.053  1.00  0.00    -0.371 C  
HETATM   16  H   UNL     1     -11.424   8.858  73.277  1.00  0.00     0.000 HD 
ENDBRANCH   1  14
TORSDOF 3
ENDMDL
MODEL       77
REMARK 921   NORMALIZED FREE ENERGY PREDICTED BY IDOCK:   -4.10 KCAL/MOL
REMARK 922        TOTAL FREE ENERGY PREDICTED BY IDOCK:   -5.10 KCAL/MOL
REMARK 923 INTER-LIGAND FREE ENERGY PREDICTED BY IDOCK:   -4.85 KCAL/MOL
REMARK 924 INTRA-LIGAND FREE ENERGY PREDICTED BY IDOCK:   -0.25 KCAL/MOL
REMARK 927      BINDING AFFINITY PREDICTED BY RF-SCORE:    0.00 PKD
ROOT
HETATM    1  C   UNL     1     -10.633  10.981  68.256  1.00  0.00    -0.187 C  
HETATM    2  C   UNL     1      -9.489  11.303  67.283  1.00  0.00    -0.184 C  
ENDROOT
BRANCH   1   3
HETATM    3  C   UNL     1     -11.867  11.913  68.033  1.00  0.00    -0.253 C  
HETATM    4  O   UNL     1     -11.985  12.254  66.642  1.00  0.00    -0.598 OA 
HETATM    5  H   UNL     1     -12.735  12.821  66.507  1.00  0.00     0.000 HD 
BRANCH   3   6
HETATM    6  C   UNL     1     -11.905  13.167  68.893  1.00  0.00    -0.361 A  
HETATM    7  C   UNL     1     -11.517  14.401  68.347  1.00  0.00    -0.329 A  
HETATM    8  C   UNL     1     -11.455  15.548  69.145  1.00  0.00    -0.356 A  
HETATM    9  C   UNL     1     -11.795  15.466  70.491  1.00  0.00    -0.339 A  
HETATM   10  O   UNL     1     -11.708  16.548  71.315  1.00  0.00    -0.637 OA 
HETATM   11  C   UNL     1     -12.225  14.266  71.041  1.00  0.00    -0.428 A  
HETATM   12  C   UNL     1     -12.284  13.121  70.245  1.00  0.00    -0.376 A  
HETATM   13  H   UNL     1     -11.940  16.492  72.235  1.00  0.00     0.000 HD 
ENDBRANCH   3   6
ENDBRANCH   1   3
BRANCH   1  14
HETATM   14  N   UNL     1     -11.097   9.582  68.103  1.00  0.00    -0.503 NA 
HETATM   15  C   UNL     1     -10.397   8.820  67.085  1.00  0.00    -0.293 C  
HETATM   16  H   UNL     1     -12.103   9.558  67.933  1.00  0.00     0.000 HD 
ENDBRANCH   1  14
TORSDOF 3
ENDMDL
MODEL       78
REMARK 921   NORMALIZED FREE ENERGY PREDICTED BY IDOCK:   -4.05 KCAL/MOL
REMARK 922        TOTAL FREE ENERGY PREDICTED BY IDOCK:   -5.04 KCAL/MOL
REMARK 923 INTER-LIGAND FREE ENERGY PREDICTED BY IDOCK:   -4.78 KCAL/MOL
REMARK 924 INTRA-LIGAND FREE ENERGY PREDICTED BY IDOCK:   -0.26 KCAL/MOL
REMARK 927      BINDING AFFINITY PREDICTED BY RF-SCORE:    0.00 PKD
ROOT
HETATM    1  C   UNL     1     -12.143   7.978  71.897  1.00  0.00    -0.317 C  
HETATM    2  C   UNL     1     -13.594   7.563  71.613  1.00  0.00    -0.442 C  
ENDROOT
BRANCH   1   3
HETATM    3  C   UNL     1     -11.913   9.503  71.646  1.00  0.00    -0.401 C  
HETATM    4  O   UNL     1     -13.086  10.248  72.015  1.00  0.00    -0.447 OA 
HETATM    5  H   UNL     1     -12.946  11.175  71.862  1.00  0.00     0.000 HD 
BRANCH   3   6
HETATM    6  C   UNL     1     -11.469   9.875  70.240  1.00  0.00    -0.349 A  
HETATM    7  C   UNL     1     -11.913  11.075  69.661  1.00  0.00    -0.424 A  
HETATM    8  C   UNL     1     -11.593  11.391  68.336  1.00  0.00    -0.385 A  
HETATM    9  C   UNL     1     -10.813  10.512  67.591  1.00  0.00    -0.300 A  
HETATM   10  O   UNL     1     -10.513  10.759  66.285  1.00  0.00    -0.250 OA 
HETATM   11  C   UNL     1     -10.325   9.343  68.158  1.00  0.00    -0.255 A  
HETATM   12  C   UNL     1     -10.647   9.027  69.478  1.00  0.00    -0.231 A  
HETATM   13  H   UNL     1      -9.980  10.159  65.776  1.00  0.00     0.000 HD 
ENDBRANCH   3   6
ENDBRANCH   1   3
BRANCH   1  14
HETATM   14  N   UNL     1     -11.764   7.696  73.303  1.00  0.00    -0.601 NA 
HETATM   15  C   UNL     1     -10.412   7.196  73.477  1.00  0.00    -0.380 C  
HETATM   16  H   UNL     1     -12.436   7.058  73.730  1.00  0.00     0.000 HD 
ENDBRANCH   1  14
TORSDOF 3
ENDMDL
MODEL       79
REMARK 921   NORMALIZED FREE ENERGY PREDICTED BY IDOCK:   -4.04 KCAL/MOL
REMARK 922        TOTAL FREE ENERGY PREDICTED BY IDOCK:   -5.03 KCAL/MOL
REMARK 923 INTER-LIGAND FREE ENERGY PREDICTED BY IDOCK:   -4.85 KCAL/MOL
REMARK 924 INTRA-LIGAND FREE ENERGY PREDICTED BY IDOCK:   -0.18 KCAL/MOL
REMARK 927      BINDING AFFINITY PREDICTED BY RF-SCORE:    0.00 PKD
ROOT
HETATM    1  C   UNL     1      -9.211  17.774  67.449  1.00  0.00    -0.248 C  
HETATM    2  C   UNL     1      -8.213  18.471  68.386  1.00  0.00    -0.351 C  
ENDROOT
BRANCH   1   3
HETATM    3  C   UNL     1      -9.360  16.255  67.782  1.00  0.00    -0.216 C  
HETATM    4  O   UNL     1      -8.085  15.598  67.680  1.00  0.00    -0.136 OA 
HETATM    5  H   UNL     1      -8.176  14.674  67.882  1.00  0.00     0.000 HD 
BRANCH   3   6
HETATM    6  C   UNL     1     -10.409  15.507  66.974  1.00  0.00    -0.279 A  
HETATM    7  C   UNL     1     -11.357  14.706  67.631  1.00  0.00    -0.350 A  
HETATM    8  C   UNL     1     -12.271  13.938  66.902  1.00  0.00    -0.415 A  
HETATM    9  C   UNL     1     -12.247  13.979  65.512  1.00  0.00    -0.439 A  
HETATM   10  O   UNL     1     -13.090  13.214  64.763  1.00  0.00    -0.728 OA 
HETATM   11  C   UNL     1     -11.349  14.799  64.843  1.00  0.00    -0.411 A  
HETATM   12  C   UNL     1     -10.435  15.564  65.570  1.00  0.00    -0.407 A  
HETATM   13  H   UNL     1     -13.074  13.243  63.813  1.00  0.00     0.000 HD 
ENDBRANCH   3   6
ENDBRANCH   1   3
BRANCH   1  14
HETATM   14  N   UNL     1     -10.558  18.385  67.541  1.00  0.00    -0.424 NA 
HETATM   15  C   UNL     1     -10.758  19.542  66.688  1.00  0.00    -0.445 C  
HETATM   16  H   UNL     1     -10.777  18.618  68.510  1.00  0.00     0.000 HD 
ENDBRANCH   1  14
TORSDOF 3
ENDMDL
MODEL       80
REMARK 921   NORMALIZED FREE ENERGY PREDICTED BY IDOCK:   -4.03 KCAL/MOL
REMARK 922        TOTAL FREE ENERGY PREDICTED BY IDOCK:   -5.02 KCAL/MOL
REMARK 923 INTER-LIGAND FREE ENERGY PREDICTED BY IDOCK:   -4.79 KCAL/MOL
REMARK 924 INTRA-LIGAND FREE ENERGY PREDICTED BY IDOCK:   -0.23 KCAL/MOL
REMARK 927      BINDING AFFINITY PREDICTED BY RF-SCORE:    0.00 PKD
ROOT
HETATM    1  C   UNL     1     -11.346  13.912  65.177  1.00  0.00    -0.318 C  
HETATM    2  C   UNL     1     -12.859  13.801  65.415  1.00  0.00    -0.455 C  
ENDROOT
BRANCH   1   3
HETATM    3  C   UNL     1     -10.902  13.152  63.886  1.00  0.00    -0.235 C  
HETATM    4  O   UNL     1     -12.014  13.013  62.986  1.00  0.00    -0.827 OA 
HETATM    5  H   UNL     1     -11.743  12.550  62.201  1.00  0.00     0.000 HD 
BRANCH   3   6
HETATM    6  C   UNL     1     -10.232  11.806  64.116  1.00  0.00    -0.363 A  
HETATM    7  C   UNL     1      -9.659  11.117  63.035  1.00  0.00    -0.389 A  
HETATM    8  C   UNL     1      -9.122   9.837  63.208  1.00  0.00    -0.267 A  
HETATM    9  C   UNL     1      -9.144   9.248  64.467  1.00  0.00    -0.089 A  
HETATM   10  O   UNL     1      -8.672   7.986  64.672  1.00  0.00    -0.388 OA 
HETATM   11  C   UNL     1      -9.664   9.930  65.559  1.00  0.00    -0.370 A  
HETATM   12  C   UNL     1     -10.203  11.206  65.386  1.00  0.00    -0.327 A  
HETATM   13  H   UNL     1      -8.687   7.584  65.533  1.00  0.00     0.000 HD 
ENDBRANCH   3   6
ENDBRANCH   1   3
BRANCH   1  14
HETATM   14  N   UNL     1     -10.923  15.325  65.031  1.00  0.00    -0.416 NA 
HETATM   15  C   UNL     1      -9.709  15.671  65.748  1.00  0.00    -0.345 C  
HETATM   16  H   UNL     1     -11.682  15.952  65.297  1.00  0.00     0.000 HD 
ENDBRANCH   1  14
TORSDOF 3
ENDMDL
MODEL       81
REMARK 921   NORMALIZED FREE ENERGY PREDICTED BY IDOCK:   -4.01 KCAL/MOL
REMARK 922        TOTAL FREE ENERGY PREDICTED BY IDOCK:   -5.00 KCAL/MOL
REMARK 923 INTER-LIGAND FREE ENERGY PREDICTED BY IDOCK:   -4.75 KCAL/MOL
REMARK 924 INTRA-LIGAND FREE ENERGY PREDICTED BY IDOCK:   -0.25 KCAL/MOL
REMARK 927      BINDING AFFINITY PREDICTED BY RF-SCORE:    0.00 PKD
ROOT
HETATM    1  C   UNL     1      -9.429  10.364  69.275  1.00  0.00    -0.198 C  
HETATM    2  C   UNL     1      -9.415  11.371  68.116  1.00  0.00    -0.181 C  
ENDROOT
BRANCH   1   3
HETATM    3  C   UNL     1     -10.524   9.267  69.081  1.00  0.00    -0.217 C  
HETATM    4  O   UNL     1     -11.197   9.455  67.824  1.00  0.00    -0.492 OA 
HETATM    5  H   UNL     1     -11.863   8.789  67.707  1.00  0.00     0.000 HD 
BRANCH   3   6
HETATM    6  C   UNL     1     -11.535   9.144  70.211  1.00  0.00    -0.174 A  
HETATM    7  C   UNL     1     -12.218  10.284  70.665  1.00  0.00    -0.422 A  
HETATM    8  C   UNL     1     -13.081  10.210  71.763  1.00  0.00    -0.568 A  
HETATM    9  C   UNL     1     -13.274   8.991  72.402  1.00  0.00    -0.447 A  
HETATM   10  O   UNL     1     -14.072   8.881  73.502  1.00  0.00    -1.189 OA 
HETATM   11  C   UNL     1     -12.645   7.842  71.942  1.00  0.00    -0.339 A  
HETATM   12  C   UNL     1     -11.782   7.917  70.848  1.00  0.00    -0.271 A  
HETATM   13  H   UNL     1     -14.204   8.048  73.939  1.00  0.00     0.000 HD 
ENDBRANCH   3   6
ENDBRANCH   1   3
BRANCH   1  14
HETATM   14  N   UNL     1      -8.124   9.672  69.406  1.00  0.00    -0.107 NA 
HETATM   15  C   UNL     1      -7.825   9.191  70.742  1.00  0.00    -0.149 C  
HETATM   16  H   UNL     1      -7.370  10.270  69.068  1.00  0.00     0.000 HD 
ENDBRANCH   1  14
TORSDOF 3
ENDMDL
MODEL       82
REMARK 921   NORMALIZED FREE ENERGY PREDICTED BY IDOCK:   -4.00 KCAL/MOL
REMARK 922        TOTAL FREE ENERGY PREDICTED BY IDOCK:   -4.99 KCAL/MOL
REMARK 923 INTER-LIGAND FREE ENERGY PREDICTED BY IDOCK:   -4.71 KCAL/MOL
REMARK 924 INTRA-LIGAND FREE ENERGY PREDICTED BY IDOCK:   -0.28 KCAL/MOL
REMARK 927      BINDING AFFINITY PREDICTED BY RF-SCORE:    0.00 PKD
ROOT
HETATM    1  C   UNL     1     -10.669  13.092  66.313  1.00  0.00    -0.276 C  
HETATM    2  C   UNL     1     -10.445  13.910  65.033  1.00  0.00    -0.428 C  
ENDROOT
BRANCH   1   3
HETATM    3  C   UNL     1     -12.015  13.462  67.014  1.00  0.00    -0.379 C  
HETATM    4  O   UNL     1     -12.880  14.148  66.094  1.00  0.00    -0.502 OA 
HETATM    5  H   UNL     1     -13.699  14.374  66.520  1.00  0.00     0.000 HD 
BRANCH   3   6
HETATM    6  C   UNL     1     -11.885  14.250  68.308  1.00  0.00    -0.370 A  
HETATM    7  C   UNL     1     -12.339  13.694  69.515  1.00  0.00    -0.232 A  
HETATM    8  C   UNL     1     -12.314  14.437  70.699  1.00  0.00    -0.422 A  
HETATM    9  C   UNL     1     -11.821  15.738  70.682  1.00  0.00    -0.385 A  
HETATM   10  O   UNL     1     -11.818  16.513  71.803  1.00  0.00    -0.664 OA 
HETATM   11  C   UNL     1     -11.324  16.292  69.510  1.00  0.00    -0.276 A  
HETATM   12  C   UNL     1     -11.352  15.550  68.328  1.00  0.00    -0.360 A  
HETATM   13  H   UNL     1     -11.480  17.402  71.791  1.00  0.00     0.000 HD 
ENDBRANCH   3   6
ENDBRANCH   1   3
BRANCH   1  14
HETATM   14  N   UNL     1     -10.700  11.637  66.027  1.00  0.00    -0.272 NA 
HETATM   15  C   UNL     1     -11.241  10.821  67.099  1.00  0.00    -0.147 C  
HETATM   16  H   UNL     1      -9.771  11.307  65.765  1.00  0.00     0.000 HD 
ENDBRANCH   1  14
TORSDOF 3
ENDMDL
MODEL       83
REMARK 921   NORMALIZED FREE ENERGY PREDICTED BY IDOCK:   -4.00 KCAL/MOL
REMARK 922        TOTAL FREE ENERGY PREDICTED BY IDOCK:   -4.98 KCAL/MOL
REMARK 923 INTER-LIGAND FREE ENERGY PREDICTED BY IDOCK:   -4.73 KCAL/MOL
REMARK 924 INTRA-LIGAND FREE ENERGY PREDICTED BY IDOCK:   -0.26 KCAL/MOL
REMARK 927      BINDING AFFINITY PREDICTED BY RF-SCORE:    0.00 PKD
ROOT
HETATM    1  C   UNL     1      -9.563  11.011  67.861  1.00  0.00    -0.172 C  
HETATM    2  C   UNL     1      -8.486  11.828  67.132  1.00  0.00    -0.170 C  
ENDROOT
BRANCH   1   3
HETATM    3  C   UNL     1     -10.670  10.501  66.884  1.00  0.00    -0.219 C  
HETATM    4  O   UNL     1     -10.193   9.364  66.145  1.00  0.00    -0.279 OA 
HETATM    5  H   UNL     1     -10.866   9.054  65.551  1.00  0.00     0.000 HD 
BRANCH   3   6
HETATM    6  C   UNL     1     -11.241  11.547  65.938  1.00  0.00    -0.239 A  
HETATM    7  C   UNL     1     -11.026  11.430  64.555  1.00  0.00    -0.346 A  
HETATM    8  C   UNL     1     -11.462  12.429  63.678  1.00  0.00    -0.568 A  
HETATM    9  C   UNL     1     -12.126  13.542  64.182  1.00  0.00    -0.435 A  
HETATM   10  O   UNL     1     -12.529  14.559  63.369  1.00  0.00    -1.080 OA 
HETATM   11  C   UNL     1     -12.389  13.656  65.540  1.00  0.00    -0.519 A  
HETATM   12  C   UNL     1     -11.952  12.660  66.415  1.00  0.00    -0.425 A  
HETATM   13  H   UNL     1     -12.984  15.320  63.713  1.00  0.00     0.000 HD 
ENDBRANCH   3   6
ENDBRANCH   1   3
BRANCH   1  14
HETATM   14  N   UNL     1      -8.980   9.824  68.532  1.00  0.00    -0.123 NA 
HETATM   15  C   UNL     1      -7.823  10.105  69.362  1.00  0.00    -0.150 C  
HETATM   16  H   UNL     1      -8.757   9.103  67.846  1.00  0.00     0.000 HD 
ENDBRANCH   1  14
TORSDOF 3
ENDMDL
MODEL       84
REMARK 921   NORMALIZED FREE ENERGY PREDICTED BY IDOCK:   -4.00 KCAL/MOL
REMARK 922        TOTAL FREE ENERGY PREDICTED BY IDOCK:   -4.98 KCAL/MOL
REMARK 923 INTER-LIGAND FREE ENERGY PREDICTED BY IDOCK:   -4.81 KCAL/MOL
REMARK 924 INTRA-LIGAND FREE ENERGY PREDICTED BY IDOCK:   -0.17 KCAL/MOL
REMARK 927      BINDING AFFINITY PREDICTED BY RF-SCORE:    0.00 PKD
ROOT
HETATM    1  C   UNL     1      -9.833  10.562  68.174  1.00  0.00    -0.153 C  
HETATM    2  C   UNL     1      -9.224  10.306  69.561  1.00  0.00    -0.191 C  
ENDROOT
BRANCH   1   3
HETATM    3  C   UNL     1     -11.386  10.725  68.241  1.00  0.00    -0.309 C  
HETATM    4  O   UNL     1     -11.854  11.474  67.106  1.00  0.00    -0.595 OA 
HETATM    5  H   UNL     1     -12.798  11.573  67.147  1.00  0.00     0.000 HD 
BRANCH   3   6
HETATM    6  C   UNL     1     -11.927  11.321  69.531  1.00  0.00    -0.421 A  
HETATM    7  C   UNL     1     -12.487  10.481  70.507  1.00  0.00    -0.433 A  
HETATM    8  C   UNL     1     -13.075  11.017  71.658  1.00  0.00    -0.543 A  
HETATM    9  C   UNL     1     -13.091  12.395  71.842  1.00  0.00    -0.366 A  
HETATM   10  O   UNL     1     -13.691  12.962  72.927  1.00  0.00    -0.684 OA 
HETATM   11  C   UNL     1     -12.503  13.241  70.911  1.00  0.00    -0.424 A  
HETATM   12  C   UNL     1     -11.919  12.707  69.762  1.00  0.00    -0.365 A  
HETATM   13  H   UNL     1     -13.702  13.905  73.052  1.00  0.00     0.000 HD 
ENDBRANCH   3   6
ENDBRANCH   1   3
BRANCH   1  14
HETATM   14  N   UNL     1      -9.282  11.794  67.560  1.00  0.00    -0.171 NA 
HETATM   15  C   UNL     1      -8.017  12.235  68.119  1.00  0.00    -0.155 C  
HETATM   16  H   UNL     1      -9.968  12.548  67.599  1.00  0.00     0.000 HD 
ENDBRANCH   1  14
TORSDOF 3
ENDMDL
MODEL       85
REMARK 921   NORMALIZED FREE ENERGY PREDICTED BY IDOCK:   -3.99 KCAL/MOL
REMARK 922        TOTAL FREE ENERGY PREDICTED BY IDOCK:   -4.97 KCAL/MOL
REMARK 923 INTER-LIGAND FREE ENERGY PREDICTED BY IDOCK:   -4.72 KCAL/MOL
REMARK 924 INTRA-LIGAND FREE ENERGY PREDICTED BY IDOCK:   -0.25 KCAL/MOL
REMARK 927      BINDING AFFINITY PREDICTED BY RF-SCORE:    0.00 PKD
ROOT
HETATM    1  C   UNL     1     -12.098  12.699  64.754  1.00  0.00    -0.436 C  
HETATM    2  C   UNL     1     -12.304  12.146  63.337  1.00  0.00    -0.648 C  
ENDROOT
BRANCH   1   3
HETATM    3  C   UNL     1     -10.604  13.067  65.025  1.00  0.00    -0.319 C  
HETATM    4  O   UNL     1      -9.811  12.817  63.852  1.00  0.00    -0.670 OA 
HETATM    5  H   UNL     1      -8.903  13.041  64.017  1.00  0.00     0.000 HD 
BRANCH   3   6
HETATM    6  C   UNL     1      -9.976  12.403  66.241  1.00  0.00    -0.259 A  
HETATM    7  C   UNL     1     -10.426  11.139  66.658  1.00  0.00    -0.298 A  
HETATM    8  C   UNL     1      -9.928  10.553  67.826  1.00  0.00    -0.198 A  
HETATM    9  C   UNL     1      -8.966  11.224  68.574  1.00  0.00    -0.166 A  
HETATM   10  O   UNL     1      -8.485  10.710  69.741  1.00  0.00    -0.385 OA 
HETATM   11  C   UNL     1      -8.474  12.453  68.156  1.00  0.00    -0.180 A  
HETATM   12  C   UNL     1      -8.973  13.039  66.992  1.00  0.00    -0.225 A  
HETATM   13  H   UNL     1      -7.828  11.169  70.252  1.00  0.00     0.000 HD 
ENDBRANCH   3   6
ENDBRANCH   1   3
BRANCH   1  14
HETATM   14  N   UNL     1     -12.906  13.921  64.982  1.00  0.00    -0.733 NA 
HETATM   15  C   UNL     1     -12.365  15.125  64.377  1.00  0.00    -0.209 C  
HETATM   16  H   UNL     1     -13.059  14.064  65.980  1.00  0.00     0.000 HD 
ENDBRANCH   1  14
TORSDOF 3
ENDMDL
MODEL       86
REMARK 921   NORMALIZED FREE ENERGY PREDICTED BY IDOCK:   -3.98 KCAL/MOL
REMARK 922        TOTAL FREE ENERGY PREDICTED BY IDOCK:   -4.95 KCAL/MOL
REMARK 923 INTER-LIGAND FREE ENERGY PREDICTED BY IDOCK:   -4.69 KCAL/MOL
REMARK 924 INTRA-LIGAND FREE ENERGY PREDICTED BY IDOCK:   -0.27 KCAL/MOL
REMARK 927      BINDING AFFINITY PREDICTED BY RF-SCORE:    0.00 PKD
ROOT
HETATM    1  C   UNL     1     -11.108  14.902  67.898  1.00  0.00    -0.298 C  
HETATM    2  C   UNL     1     -11.825  14.221  69.073  1.00  0.00    -0.370 C  
ENDROOT
BRANCH   1   3
HETATM    3  C   UNL     1      -9.758  15.554  68.339  1.00  0.00    -0.203 C  
HETATM    4  O   UNL     1      -9.478  15.233  69.712  1.00  0.00    -0.405 OA 
HETATM    5  H   UNL     1      -8.658  15.630  69.980  1.00  0.00     0.000 HD 
BRANCH   3   6
HETATM    6  C   UNL     1      -9.650  17.054  68.112  1.00  0.00    -0.266 A  
HETATM    7  C   UNL     1     -10.728  17.755  67.548  1.00  0.00    -0.315 A  
HETATM    8  C   UNL     1     -10.616  19.115  67.245  1.00  0.00    -0.573 A  
HETATM    9  C   UNL     1      -9.426  19.783  67.517  1.00  0.00    -0.344 A  
HETATM   10  O   UNL     1      -9.258  21.097  67.198  1.00  0.00    -0.624 OA 
HETATM   11  C   UNL     1      -8.363  19.120  68.116  1.00  0.00    -0.351 A  
HETATM   12  C   UNL     1      -8.475  17.762  68.416  1.00  0.00    -0.295 A  
HETATM   13  H   UNL     1      -8.445  21.553  67.384  1.00  0.00     0.000 HD 
ENDBRANCH   3   6
ENDBRANCH   1   3
BRANCH   1  14
HETATM   14  N   UNL     1     -10.803  13.936  66.816  1.00  0.00    -0.284 NA 
HETATM   15  C   UNL     1     -10.432  14.543  65.550  1.00  0.00    -0.356 C  
HETATM   16  H   UNL     1     -11.584  13.293  66.685  1.00  0.00     0.000 HD 
ENDBRANCH   1  14
TORSDOF 3
ENDMDL
MODEL       87
REMARK 921   NORMALIZED FREE ENERGY PREDICTED BY IDOCK:   -3.91 KCAL/MOL
REMARK 922        TOTAL FREE ENERGY PREDICTED BY IDOCK:   -4.87 KCAL/MOL
REMARK 923 INTER-LIGAND FREE ENERGY PREDICTED BY IDOCK:   -4.93 KCAL/MOL
REMARK 924 INTRA-LIGAND FREE ENERGY PREDICTED BY IDOCK:    0.06 KCAL/MOL
REMARK 927      BINDING AFFINITY PREDICTED BY RF-SCORE:    0.00 PKD
ROOT
HETATM    1  C   UNL     1     -10.914  10.092  69.833  1.00  0.00    -0.293 C  
HETATM    2  C   UNL     1     -11.042   9.575  71.273  1.00  0.00    -0.449 C  
ENDROOT
BRANCH   1   3
HETATM    3  C   UNL     1     -12.152  10.945  69.408  1.00  0.00    -0.290 C  
HETATM    4  O   UNL     1     -11.983  11.430  68.065  1.00  0.00    -0.613 OA 
HETATM    5  H   UNL     1     -12.735  11.949  67.808  1.00  0.00     0.000 HD 
BRANCH   3   6
HETATM    6  C   UNL     1     -12.511  12.089  70.344  1.00  0.00    -0.235 A  
HETATM    7  C   UNL     1     -12.047  13.387  70.072  1.00  0.00    -0.404 A  
HETATM    8  C   UNL     1     -12.287  14.433  70.968  1.00  0.00    -0.427 A  
HETATM    9  C   UNL     1     -13.005  14.188  72.134  1.00  0.00    -0.376 A  
HETATM   10  O   UNL     1     -13.225  15.168  73.055  1.00  0.00    -0.446 OA 
HETATM   11  C   UNL     1     -13.513  12.923  72.400  1.00  0.00    -0.573 A  
HETATM   12  C   UNL     1     -13.271  11.878  71.507  1.00  0.00    -0.283 A  
HETATM   13  H   UNL     1     -13.716  15.000  73.851  1.00  0.00     0.000 HD 
ENDBRANCH   3   6
ENDBRANCH   1   3
BRANCH   1  14
HETATM   14  N   UNL     1      -9.710  10.941  69.667  1.00  0.00    -0.403 NA 
HETATM   15  C   UNL     1      -8.762  10.460  68.679  1.00  0.00    -0.138 C  
HETATM   16  H   UNL     1      -9.246  11.078  70.566  1.00  0.00     0.000 HD 
ENDBRANCH   1  14
TORSDOF 3
ENDMDL
MODEL       88
REMARK 921   NORMALIZED FREE ENERGY PREDICTED BY IDOCK:   -3.89 KCAL/MOL
REMARK 922        TOTAL FREE ENERGY PREDICTED BY IDOCK:   -4.85 KCAL/MOL
REMARK 923 INTER-LIGAND FREE ENERGY PREDICTED BY IDOCK:   -4.64 KCAL/MOL
REMARK 924 INTRA-LIGAND FREE ENERGY PREDICTED BY IDOCK:   -0.21 KCAL/MOL
REMARK 927      BINDING AFFINITY PREDICTED BY RF-SCORE:    0.00 PKD
ROOT
HETATM    1  C   UNL     1      -9.597  17.226  66.886  1.00  0.00    -0.268 C  
HETATM    2  C   UNL     1      -8.251  16.678  67.382  1.00  0.00    -0.189 C  
ENDROOT
BRANCH   1   3
HETATM    3  C   UNL     1     -10.581  17.510  68.066  1.00  0.00    -0.384 C  
HETATM    4  O   UNL     1      -9.995  18.446  68.985  1.00  0.00    -0.365 OA 
HETATM    5  H   UNL     1     -10.593  18.618  69.703  1.00  0.00     0.000 HD 
BRANCH   3   6
HETATM    6  C   UNL     1     -11.086  16.282  68.808  1.00  0.00    -0.355 A  
HETATM    7  C   UNL     1     -11.080  16.262  70.212  1.00  0.00    -0.340 A  
HETATM    8  C   UNL     1     -11.451  15.109  70.912  1.00  0.00    -0.363 A  
HETATM    9  C   UNL     1     -11.843  13.976  70.207  1.00  0.00    -0.303 A  
HETATM   10  O   UNL     1     -12.172  12.818  70.847  1.00  0.00    -0.420 OA 
HETATM   11  C   UNL     1     -11.901  13.988  68.820  1.00  0.00    -0.396 A  
HETATM   12  C   UNL     1     -11.528  15.137  68.122  1.00  0.00    -0.356 A  
HETATM   13  H   UNL     1     -12.440  12.043  70.366  1.00  0.00     0.000 HD 
ENDBRANCH   3   6
ENDBRANCH   1   3
BRANCH   1  14
HETATM   14  N   UNL     1      -9.423  18.493  66.136  1.00  0.00    -0.493 NA 
HETATM   15  C   UNL     1     -10.655  19.217  65.876  1.00  0.00    -0.415 C  
HETATM   16  H   UNL     1      -8.922  18.323  65.264  1.00  0.00     0.000 HD 
ENDBRANCH   1  14
TORSDOF 3
ENDMDL
MODEL       89
REMARK 921   NORMALIZED FREE ENERGY PREDICTED BY IDOCK:   -3.89 KCAL/MOL
REMARK 922        TOTAL FREE ENERGY PREDICTED BY IDOCK:   -4.85 KCAL/MOL
REMARK 923 INTER-LIGAND FREE ENERGY PREDICTED BY IDOCK:   -4.64 KCAL/MOL
REMARK 924 INTRA-LIGAND FREE ENERGY PREDICTED BY IDOCK:   -0.21 KCAL/MOL
REMARK 927      BINDING AFFINITY PREDICTED BY RF-SCORE:    0.00 PKD
ROOT
HETATM    1  C   UNL     1     -12.002  14.989  69.964  1.00  0.00    -0.332 C  
HETATM    2  C   UNL     1     -12.171  13.478  70.181  1.00  0.00    -0.400 C  
ENDROOT
BRANCH   1   3
HETATM    3  C   UNL     1     -11.772  15.340  68.460  1.00  0.00    -0.332 C  
HETATM    4  O   UNL     1     -12.326  14.313  67.621  1.00  0.00    -0.598 OA 
HETATM    5  H   UNL     1     -12.185  14.527  66.706  1.00  0.00     0.000 HD 
BRANCH   3   6
HETATM    6  C   UNL     1     -10.330  15.626  68.068  1.00  0.00    -0.246 A  
HETATM    7  C   UNL     1     -10.030  16.033  66.757  1.00  0.00    -0.265 A  
HETATM    8  C   UNL     1      -8.703  16.211  66.351  1.00  0.00    -0.360 A  
HETATM    9  C   UNL     1      -7.673  15.995  67.259  1.00  0.00    -0.183 A  
HETATM   10  O   UNL     1      -6.365  16.114  66.895  1.00  0.00    -0.301 OA 
HETATM   11  C   UNL     1      -7.949  15.637  68.572  1.00  0.00    -0.138 A  
HETATM   12  C   UNL     1      -9.272  15.457  68.977  1.00  0.00    -0.235 A  
HETATM   13  H   UNL     1      -5.660  15.967  67.516  1.00  0.00     0.000 HD 
ENDBRANCH   3   6
ENDBRANCH   1   3
BRANCH   1  14
HETATM   14  N   UNL     1     -13.198  15.737  70.419  1.00  0.00    -0.740 NA 
HETATM   15  C   UNL     1     -13.678  15.368  71.738  1.00  0.00    -0.511 C  
HETATM   16  H   UNL     1     -13.950  15.656  69.733  1.00  0.00     0.000 HD 
ENDBRANCH   1  14
TORSDOF 3
ENDMDL
MODEL       90
REMARK 921   NORMALIZED FREE ENERGY PREDICTED BY IDOCK:   -3.88 KCAL/MOL
REMARK 922        TOTAL FREE ENERGY PREDICTED BY IDOCK:   -4.85 KCAL/MOL
REMARK 923 INTER-LIGAND FREE ENERGY PREDICTED BY IDOCK:   -4.71 KCAL/MOL
REMARK 924 INTRA-LIGAND FREE ENERGY PREDICTED BY IDOCK:   -0.14 KCAL/MOL
REMARK 927      BINDING AFFINITY PREDICTED BY RF-SCORE:    0.00 PKD
ROOT
HETATM    1  C   UNL     1      -8.807  13.976  68.517  1.00  0.00    -0.160 C  
HETATM    2  C   UNL     1      -8.006  14.511  67.320  1.00  0.00    -0.216 C  
ENDROOT
BRANCH   1   3
HETATM    3  C   UNL     1     -10.344  14.182  68.329  1.00  0.00    -0.245 C  
HETATM    4  O   UNL     1     -11.072  13.329  69.228  1.00  0.00    -0.360 OA 
HETATM    5  H   UNL     1     -12.007  13.454  69.113  1.00  0.00     0.000 HD 
BRANCH   3   6
HETATM    6  C   UNL     1     -10.858  14.016  66.907  1.00  0.00    -0.290 A  
HETATM    7  C   UNL     1     -10.956  15.134  66.064  1.00  0.00    -0.332 A  
HETATM    8  C   UNL     1     -11.513  15.019  64.786  1.00  0.00    -0.403 A  
HETATM    9  C   UNL     1     -11.961  13.780  64.342  1.00  0.00    -0.445 A  
HETATM   10  O   UNL     1     -12.549  13.630  63.122  1.00  0.00    -0.969 OA 
HETATM   11  C   UNL     1     -11.832  12.652  65.141  1.00  0.00    -0.437 A  
HETATM   12  C   UNL     1     -11.279  12.768  66.417  1.00  0.00    -0.339 A  
HETATM   13  H   UNL     1     -12.856  12.783  62.818  1.00  0.00     0.000 HD 
ENDBRANCH   3   6
ENDBRANCH   1   3
BRANCH   1  14
HETATM   14  N   UNL     1      -8.573  12.526  68.720  1.00  0.00    -0.373 NA 
HETATM   15  C   UNL     1      -7.778  11.890  67.685  1.00  0.00    -0.141 C  
HETATM   16  H   UNL     1      -9.461  12.037  68.836  1.00  0.00     0.000 HD 
ENDBRANCH   1  14
TORSDOF 3
ENDMDL
MODEL       91
REMARK 921   NORMALIZED FREE ENERGY PREDICTED BY IDOCK:   -3.88 KCAL/MOL
REMARK 922        TOTAL FREE ENERGY PREDICTED BY IDOCK:   -4.84 KCAL/MOL
REMARK 923 INTER-LIGAND FREE ENERGY PREDICTED BY IDOCK:   -4.65 KCAL/MOL
REMARK 924 INTRA-LIGAND FREE ENERGY PREDICTED BY IDOCK:   -0.19 KCAL/MOL
REMARK 927      BINDING AFFINITY PREDICTED BY RF-SCORE:    0.00 PKD
ROOT
HETATM    1  C   UNL     1     -10.826   9.367  70.143  1.00  0.00    -0.249 C  
HETATM    2  C   UNL     1     -11.069   8.086  70.955  1.00  0.00    -0.271 C  
ENDROOT
BRANCH   1   3
HETATM    3  C   UNL     1     -11.867  10.480  70.485  1.00  0.00    -0.347 C  
HETATM    4  O   UNL     1     -13.187   9.916  70.565  1.00  0.00    -0.601 OA 
HETATM    5  H   UNL     1     -13.820  10.593  70.772  1.00  0.00     0.000 HD 
BRANCH   3   6
HETATM    6  C   UNL     1     -11.861  11.689  69.562  1.00  0.00    -0.414 A  
HETATM    7  C   UNL     1     -11.728  11.509  68.175  1.00  0.00    -0.357 A  
HETATM    8  C   UNL     1     -11.626  12.609  67.318  1.00  0.00    -0.428 A  
HETATM    9  C   UNL     1     -11.672  13.896  67.845  1.00  0.00    -0.361 A  
HETATM   10  O   UNL     1     -11.533  14.996  67.053  1.00  0.00    -0.344 OA 
HETATM   11  C   UNL     1     -11.849  14.097  69.207  1.00  0.00    -0.381 A  
HETATM   12  C   UNL     1     -11.948  12.999  70.063  1.00  0.00    -0.383 A  
HETATM   13  H   UNL     1     -11.565  15.875  67.413  1.00  0.00     0.000 HD 
ENDBRANCH   3   6
ENDBRANCH   1   3
BRANCH   1  14
HETATM   14  N   UNL     1      -9.476   9.925  70.403  1.00  0.00    -0.372 NA 
HETATM   15  C   UNL     1      -8.379   9.095  69.939  1.00  0.00    -0.144 C  
HETATM   16  H   UNL     1      -9.365  10.137  71.394  1.00  0.00     0.000 HD 
ENDBRANCH   1  14
TORSDOF 3
ENDMDL
MODEL       92
REMARK 921   NORMALIZED FREE ENERGY PREDICTED BY IDOCK:   -3.88 KCAL/MOL
REMARK 922        TOTAL FREE ENERGY PREDICTED BY IDOCK:   -4.84 KCAL/MOL
REMARK 923 INTER-LIGAND FREE ENERGY PREDICTED BY IDOCK:   -4.54 KCAL/MOL
REMARK 924 INTRA-LIGAND FREE ENERGY PREDICTED BY IDOCK:   -0.30 KCAL/MOL
REMARK 927      BINDING AFFINITY PREDICTED BY RF-SCORE:    0.00 PKD
ROOT
HETATM    1  C   UNL     1     -12.240  12.432  64.756  1.00  0.00    -0.423 C  
HETATM    2  C   UNL     1     -12.540  12.086  63.290  1.00  0.00    -0.512 C  
ENDROOT
BRANCH   1   3
HETATM    3  C   UNL     1     -10.705  12.480  65.042  1.00  0.00    -0.294 C  
HETATM    4  O   UNL     1      -9.983  12.748  63.828  1.00  0.00    -0.638 OA 
HETATM    5  H   UNL     1      -9.050  12.776  64.002  1.00  0.00     0.000 HD 
BRANCH   3   6
HETATM    6  C   UNL     1     -10.131  11.258  65.743  1.00  0.00    -0.294 A  
HETATM    7  C   UNL     1      -9.981  11.259  67.139  1.00  0.00    -0.219 A  
HETATM    8  C   UNL     1      -9.370  10.184  67.793  1.00  0.00    -0.153 A  
HETATM    9  C   UNL     1      -8.919   9.097  67.051  1.00  0.00    -0.123 A  
HETATM   10  O   UNL     1      -8.279   8.048  67.642  1.00  0.00    -0.121 OA 
HETATM   11  C   UNL     1      -9.098   9.055  65.675  1.00  0.00    -0.278 A  
HETATM   12  C   UNL     1      -9.705  10.129  65.023  1.00  0.00    -0.384 A  
HETATM   13  H   UNL     1      -7.971   7.306  67.135  1.00  0.00     0.000 HD 
ENDBRANCH   3   6
ENDBRANCH   1   3
BRANCH   1  14
HETATM   14  N   UNL     1     -12.804  13.752  65.127  1.00  0.00    -0.748 NA 
HETATM   15  C   UNL     1     -12.344  14.271  66.402  1.00  0.00    -0.350 C  
HETATM   16  H   UNL     1     -13.824  13.722  65.104  1.00  0.00     0.000 HD 
ENDBRANCH   1  14
TORSDOF 3
ENDMDL
MODEL       93
REMARK 921   NORMALIZED FREE ENERGY PREDICTED BY IDOCK:   -3.88 KCAL/MOL
REMARK 922        TOTAL FREE ENERGY PREDICTED BY IDOCK:   -4.84 KCAL/MOL
REMARK 923 INTER-LIGAND FREE ENERGY PREDICTED BY IDOCK:   -4.69 KCAL/MOL
REMARK 924 INTRA-LIGAND FREE ENERGY PREDICTED BY IDOCK:   -0.15 KCAL/MOL
REMARK 927      BINDING AFFINITY PREDICTED BY RF-SCORE:    0.00 PKD
ROOT
HETATM    1  C   UNL     1     -11.144  13.529  65.455  1.00  0.00    -0.293 C  
HETATM    2  C   UNL     1     -12.671  13.633  65.331  1.00  0.00    -0.500 C  
ENDROOT
BRANCH   1   3
HETATM    3  C   UNL     1     -10.607  12.161  64.925  1.00  0.00    -0.293 C  
HETATM    4  O   UNL     1     -11.379  11.732  63.791  1.00  0.00    -0.395 OA 
HETATM    5  H   UNL     1     -11.053  10.899  63.469  1.00  0.00     0.000 HD 
BRANCH   3   6
HETATM    6  C   UNL     1     -10.517  11.048  65.958  1.00  0.00    -0.304 A  
HETATM    7  C   UNL     1      -9.966   9.807  65.602  1.00  0.00    -0.352 A  
HETATM    8  C   UNL     1      -9.959   8.741  66.508  1.00  0.00    -0.360 A  
HETATM    9  C   UNL     1     -10.492   8.920  67.780  1.00  0.00    -0.239 A  
HETATM   10  O   UNL     1     -10.546   7.898  68.680  1.00  0.00    -0.298 OA 
HETATM   11  C   UNL     1     -11.001  10.152  68.169  1.00  0.00    -0.313 A  
HETATM   12  C   UNL     1     -11.010  11.214  67.263  1.00  0.00    -0.354 A  
HETATM   13  H   UNL     1     -10.910   8.020  69.550  1.00  0.00     0.000 HD 
ENDBRANCH   3   6
ENDBRANCH   1   3
BRANCH   1  14
HETATM   14  N   UNL     1     -10.464  14.601  64.689  1.00  0.00    -0.560 NA 
HETATM   15  C   UNL     1     -10.681  15.942  65.201  1.00  0.00    -0.429 C  
HETATM   16  H   UNL     1     -10.724  14.552  63.703  1.00  0.00     0.000 HD 
ENDBRANCH   1  14
TORSDOF 3
ENDMDL
MODEL       94
REMARK 921   NORMALIZED FREE ENERGY PREDICTED BY IDOCK:   -3.87 KCAL/MOL
REMARK 922        TOTAL FREE ENERGY PREDICTED BY IDOCK:   -4.83 KCAL/MOL
REMARK 923 INTER-LIGAND FREE ENERGY PREDICTED BY IDOCK:   -4.62 KCAL/MOL
REMARK 924 INTRA-LIGAND FREE ENERGY PREDICTED BY IDOCK:   -0.21 KCAL/MOL
REMARK 927      BINDING AFFINITY PREDICTED BY RF-SCORE:    0.00 PKD
ROOT
HETATM    1  C   UNL     1     -10.756  13.869  65.733  1.00  0.00    -0.289 C  
HETATM    2  C   UNL     1      -9.938  15.089  66.183  1.00  0.00    -0.313 C  
ENDROOT
BRANCH   1   3
HETATM    3  C   UNL     1     -11.848  13.481  66.780  1.00  0.00    -0.406 C  
HETATM    4  O   UNL     1     -12.150  14.607  67.621  1.00  0.00    -0.558 OA 
HETATM    5  H   UNL     1     -12.814  14.370  68.258  1.00  0.00     0.000 HD 
BRANCH   3   6
HETATM    6  C   UNL     1     -11.538  12.255  67.625  1.00  0.00    -0.421 A  
HETATM    7  C   UNL     1     -10.973  11.118  67.026  1.00  0.00    -0.348 A  
HETATM    8  C   UNL     1     -10.767   9.948  67.765  1.00  0.00    -0.332 A  
HETATM    9  C   UNL     1     -11.114   9.918  69.112  1.00  0.00    -0.159 A  
HETATM   10  O   UNL     1     -10.972   8.787  69.859  1.00  0.00    -0.286 OA 
HETATM   11  C   UNL     1     -11.632  11.045  69.735  1.00  0.00    -0.401 A  
HETATM   12  C   UNL     1     -11.840  12.210  68.997  1.00  0.00    -0.361 A  
HETATM   13  H   UNL     1     -11.209   8.766  70.779  1.00  0.00     0.000 HD 
ENDBRANCH   3   6
ENDBRANCH   1   3
BRANCH   1  14
HETATM   14  N   UNL     1     -11.444  14.124  64.445  1.00  0.00    -0.553 NA 
HETATM   15  C   UNL     1     -12.087  15.422  64.348  1.00  0.00    -0.196 C  
HETATM   16  H   UNL     1     -12.115  13.381  64.248  1.00  0.00     0.000 HD 
ENDBRANCH   1  14
TORSDOF 3
ENDMDL
MODEL       95
REMARK 921   NORMALIZED FREE ENERGY PREDICTED BY IDOCK:   -3.85 KCAL/MOL
REMARK 922        TOTAL FREE ENERGY PREDICTED BY IDOCK:   -4.80 KCAL/MOL
REMARK 923 INTER-LIGAND FREE ENERGY PREDICTED BY IDOCK:   -4.50 KCAL/MOL
REMARK 924 INTRA-LIGAND FREE ENERGY PREDICTED BY IDOCK:   -0.30 KCAL/MOL
REMARK 927      BINDING AFFINITY PREDICTED BY RF-SCORE:    0.00 PKD
ROOT
HETATM    1  C   UNL     1      -9.978  10.139  65.202  1.00  0.00    -0.309 C  
HETATM    2  C   UNL     1      -9.484   9.144  66.263  1.00  0.00    -0.299 C  
ENDROOT
BRANCH   1   3
HETATM    3  C   UNL     1      -9.433  11.581  65.457  1.00  0.00    -0.212 C  
HETATM    4  O   UNL     1      -8.082  11.522  65.943  1.00  0.00    -0.369 OA 
HETATM    5  H   UNL     1      -7.751  12.399  66.099  1.00  0.00     0.000 HD 
BRANCH   3   6
HETATM    6  C   UNL     1     -10.287  12.452  66.365  1.00  0.00    -0.255 A  
HETATM    7  C   UNL     1     -11.502  12.975  65.893  1.00  0.00    -0.374 A  
HETATM    8  C   UNL     1     -12.256  13.853  66.678  1.00  0.00    -0.465 A  
HETATM    9  C   UNL     1     -11.802  14.201  67.946  1.00  0.00    -0.370 A  
HETATM   10  O   UNL     1     -12.482  15.087  68.728  1.00  0.00    -0.586 OA 
HETATM   11  C   UNL     1     -10.627  13.661  68.451  1.00  0.00    -0.260 A  
HETATM   12  C   UNL     1      -9.874  12.787  67.666  1.00  0.00    -0.214 A  
HETATM   13  H   UNL     1     -12.172  15.324  69.594  1.00  0.00     0.000 HD 
ENDBRANCH   3   6
ENDBRANCH   1   3
BRANCH   1  14
HETATM   14  N   UNL     1      -9.551   9.735  63.841  1.00  0.00    -0.453 NA 
HETATM   15  C   UNL     1      -9.551  10.809  62.863  1.00  0.00    -0.338 C  
HETATM   16  H   UNL     1     -10.117   8.954  63.509  1.00  0.00     0.000 HD 
ENDBRANCH   1  14
TORSDOF 3
ENDMDL
MODEL       96
REMARK 921   NORMALIZED FREE ENERGY PREDICTED BY IDOCK:   -3.83 KCAL/MOL
REMARK 922        TOTAL FREE ENERGY PREDICTED BY IDOCK:   -4.79 KCAL/MOL
REMARK 923 INTER-LIGAND FREE ENERGY PREDICTED BY IDOCK:   -4.53 KCAL/MOL
REMARK 924 INTRA-LIGAND FREE ENERGY PREDICTED BY IDOCK:   -0.25 KCAL/MOL
REMARK 927      BINDING AFFINITY PREDICTED BY RF-SCORE:    0.00 PKD
ROOT
HETATM    1  C   UNL     1     -11.008   5.676  72.172  1.00  0.00    -0.250 C  
HETATM    2  C   UNL     1     -11.386   4.694  73.291  1.00  0.00    -0.393 C  
ENDROOT
BRANCH   1   3
HETATM    3  C   UNL     1     -10.543   7.055  72.738  1.00  0.00    -0.254 C  
HETATM    4  O   UNL     1     -10.909   7.171  74.123  1.00  0.00    -0.532 OA 
HETATM    5  H   UNL     1     -10.626   8.010  74.467  1.00  0.00     0.000 HD 
BRANCH   3   6
HETATM    6  C   UNL     1     -11.014   8.275  71.961  1.00  0.00    -0.374 A  
HETATM    7  C   UNL     1     -10.189   8.835  70.972  1.00  0.00    -0.301 A  
HETATM    8  C   UNL     1     -10.563  10.010  70.312  1.00  0.00    -0.354 A  
HETATM    9  C   UNL     1     -11.771  10.621  70.630  1.00  0.00    -0.356 A  
HETATM   10  O   UNL     1     -12.154  11.790  70.043  1.00  0.00    -0.319 OA 
HETATM   11  C   UNL     1     -12.623  10.060  71.571  1.00  0.00    -0.525 A  
HETATM   12  C   UNL     1     -12.249   8.889  72.232  1.00  0.00    -0.413 A  
HETATM   13  H   UNL     1     -12.980  12.208  70.260  1.00  0.00     0.000 HD 
ENDBRANCH   3   6
ENDBRANCH   1   3
BRANCH   1  14
HETATM   14  N   UNL     1      -9.907   5.143  71.334  1.00  0.00    -0.171 NA 
HETATM   15  C   UNL     1     -10.176   5.146  69.907  1.00  0.00    -0.291 C  
HETATM   16  H   UNL     1      -9.647   4.207  71.643  1.00  0.00     0.000 HD 
ENDBRANCH   1  14
TORSDOF 3
ENDMDL
MODEL       97
REMARK 921   NORMALIZED FREE ENERGY PREDICTED BY IDOCK:   -3.82 KCAL/MOL
REMARK 922        TOTAL FREE ENERGY PREDICTED BY IDOCK:   -4.77 KCAL/MOL
REMARK 923 INTER-LIGAND FREE ENERGY PREDICTED BY IDOCK:   -4.70 KCAL/MOL
REMARK 924 INTRA-LIGAND FREE ENERGY PREDICTED BY IDOCK:   -0.08 KCAL/MOL
REMARK 927      BINDING AFFINITY PREDICTED BY RF-SCORE:    0.00 PKD
ROOT
HETATM    1  C   UNL     1      -9.746  11.252  68.158  1.00  0.00    -0.185 C  
HETATM    2  C   UNL     1     -10.337   9.849  67.956  1.00  0.00    -0.244 C  
ENDROOT
BRANCH   1   3
HETATM    3  C   UNL     1      -9.123  11.818  66.842  1.00  0.00    -0.192 C  
HETATM    4  O   UNL     1      -8.059  12.733  67.151  1.00  0.00    -0.236 OA 
HETATM    5  H   UNL     1      -7.680  13.077  66.350  1.00  0.00     0.000 HD 
BRANCH   3   6
HETATM    6  C   UNL     1     -10.107  12.455  65.873  1.00  0.00    -0.272 A  
HETATM    7  C   UNL     1     -10.881  11.644  65.027  1.00  0.00    -0.346 A  
HETATM    8  C   UNL     1     -11.722  12.213  64.066  1.00  0.00    -0.515 A  
HETATM    9  C   UNL     1     -11.802  13.597  63.956  1.00  0.00    -0.400 A  
HETATM   10  O   UNL     1     -12.576  14.193  63.005  1.00  0.00    -1.002 OA 
HETATM   11  C   UNL     1     -11.082  14.418  64.812  1.00  0.00    -0.402 A  
HETATM   12  C   UNL     1     -10.240  13.850  65.770  1.00  0.00    -0.331 A  
HETATM   13  H   UNL     1     -12.631  15.139  62.931  1.00  0.00     0.000 HD 
ENDBRANCH   3   6
ENDBRANCH   1   3
BRANCH   1  14
HETATM   14  N   UNL     1     -10.779  12.214  68.612  1.00  0.00    -0.229 NA 
HETATM   15  C   UNL     1     -11.777  11.654  69.505  1.00  0.00    -0.344 C  
HETATM   16  H   UNL     1     -11.229  12.656  67.810  1.00  0.00     0.000 HD 
ENDBRANCH   1  14
TORSDOF 3
ENDMDL
MODEL       98
REMARK 921   NORMALIZED FREE ENERGY PREDICTED BY IDOCK:   -3.81 KCAL/MOL
REMARK 922        TOTAL FREE ENERGY PREDICTED BY IDOCK:   -4.76 KCAL/MOL
REMARK 923 INTER-LIGAND FREE ENERGY PREDICTED BY IDOCK:   -4.55 KCAL/MOL
REMARK 924 INTRA-LIGAND FREE ENERGY PREDICTED BY IDOCK:   -0.21 KCAL/MOL
REMARK 927      BINDING AFFINITY PREDICTED BY RF-SCORE:    0.00 PKD
ROOT
HETATM    1  C   UNL     1     -10.930   6.825  69.179  1.00  0.00    -0.244 C  
HETATM    2  C   UNL     1     -10.095   5.606  69.601  1.00  0.00    -0.289 C  
ENDROOT
BRANCH   1   3
HETATM    3  C   UNL     1     -10.290   8.166  69.663  1.00  0.00    -0.221 C  
HETATM    4  O   UNL     1      -9.185   7.898  70.542  1.00  0.00    -0.156 OA 
HETATM    5  H   UNL     1      -8.796   8.714  70.836  1.00  0.00     0.000 HD 
BRANCH   3   6
HETATM    6  C   UNL     1     -11.250   9.156  70.302  1.00  0.00    -0.249 A  
HETATM    7  C   UNL     1     -11.325  10.471  69.815  1.00  0.00    -0.367 A  
HETATM    8  C   UNL     1     -12.132  11.423  70.448  1.00  0.00    -0.473 A  
HETATM    9  C   UNL     1     -12.878  11.056  71.563  1.00  0.00    -0.450 A  
HETATM   10  O   UNL     1     -13.644  11.961  72.236  1.00  0.00    -0.550 OA 
HETATM   11  C   UNL     1     -12.855   9.751  72.034  1.00  0.00    -0.491 A  
HETATM   12  C   UNL     1     -12.047   8.802  71.404  1.00  0.00    -0.361 A  
HETATM   13  H   UNL     1     -14.154  11.711  72.998  1.00  0.00     0.000 HD 
ENDBRANCH   3   6
ENDBRANCH   1   3
BRANCH   1  14
HETATM   14  N   UNL     1     -11.067   6.902  67.705  1.00  0.00    -0.541 NA 
HETATM   15  C   UNL     1      -9.960   6.328  66.963  1.00  0.00    -0.159 C  
HETATM   16  H   UNL     1     -11.226   7.867  67.414  1.00  0.00     0.000 HD 
ENDBRANCH   1  14
TORSDOF 3
ENDMDL
MODEL       99
REMARK 921   NORMALIZED FREE ENERGY PREDICTED BY IDOCK:   -3.79 KCAL/MOL
REMARK 922        TOTAL FREE ENERGY PREDICTED BY IDOCK:   -4.73 KCAL/MOL
REMARK 923 INTER-LIGAND FREE ENERGY PREDICTED BY IDOCK:   -4.57 KCAL/MOL
REMARK 924 INTRA-LIGAND FREE ENERGY PREDICTED BY IDOCK:   -0.16 KCAL/MOL
REMARK 927      BINDING AFFINITY PREDICTED BY RF-SCORE:    0.00 PKD
ROOT
HETATM    1  C   UNL     1     -10.334   9.554  68.129  1.00  0.00    -0.208 C  
HETATM    2  C   UNL     1     -10.362   9.255  66.623  1.00  0.00    -0.292 C  
ENDROOT
BRANCH   1   3
HETATM    3  C   UNL     1     -11.087  10.878  68.475  1.00  0.00    -0.256 C  
HETATM    4  O   UNL     1     -12.475  10.606  68.735  1.00  0.00    -0.795 OA 
HETATM    5  H   UNL     1     -12.933  11.412  68.944  1.00  0.00     0.000 HD 
BRANCH   3   6
HETATM    6  C   UNL     1     -10.948  11.997  67.454  1.00  0.00    -0.311 A  
HETATM    7  C   UNL     1     -11.973  12.225  66.522  1.00  0.00    -0.274 A  
HETATM    8  C   UNL     1     -11.824  13.186  65.517  1.00  0.00    -0.420 A  
HETATM    9  C   UNL     1     -10.652  13.932  65.449  1.00  0.00    -0.335 A  
HETATM   10  O   UNL     1     -10.447  14.848  64.461  1.00  0.00    -0.548 OA 
HETATM   11  C   UNL     1      -9.645  13.755  66.388  1.00  0.00    -0.285 A  
HETATM   12  C   UNL     1      -9.793  12.794  67.389  1.00  0.00    -0.210 A  
HETATM   13  H   UNL     1      -9.646  15.358  64.415  1.00  0.00     0.000 HD 
ENDBRANCH   3   6
ENDBRANCH   1   3
BRANCH   1  14
HETATM   14  N   UNL     1     -10.969   8.464  68.909  1.00  0.00    -0.428 NA 
HETATM   15  C   UNL     1     -10.194   8.003  70.046  1.00  0.00    -0.205 C  
HETATM   16  H   UNL     1     -11.202   7.680  68.298  1.00  0.00     0.000 HD 
ENDBRANCH   1  14
TORSDOF 3
ENDMDL
MODEL      100
REMARK 921   NORMALIZED FREE ENERGY PREDICTED BY IDOCK:   -3.77 KCAL/MOL
REMARK 922        TOTAL FREE ENERGY PREDICTED BY IDOCK:   -4.71 KCAL/MOL
REMARK 923 INTER-LIGAND FREE ENERGY PREDICTED BY IDOCK:   -4.68 KCAL/MOL
REMARK 924 INTRA-LIGAND FREE ENERGY PREDICTED BY IDOCK:   -0.02 KCAL/MOL
REMARK 927      BINDING AFFINITY PREDICTED BY RF-SCORE:    0.00 PKD
ROOT
HETATM    1  C   UNL     1     -11.289  11.882  67.142  1.00  0.00    -0.331 C  
HETATM    2  C   UNL     1     -10.715  10.859  66.151  1.00  0.00    -0.225 C  
ENDROOT
BRANCH   1   3
HETATM    3  C   UNL     1     -10.788  11.628  68.599  1.00  0.00    -0.213 C  
HETATM    4  O   UNL     1     -10.442  10.243  68.769  1.00  0.00    -0.182 OA 
HETATM    5  H   UNL     1     -10.137  10.088  69.656  1.00  0.00     0.000 HD 
BRANCH   3   6
HETATM    6  C   UNL     1     -11.730  12.079  69.704  1.00  0.00    -0.405 A  
HETATM    7  C   UNL     1     -12.040  13.442  69.846  1.00  0.00    -0.389 A  
HETATM    8  C   UNL     1     -12.829  13.888  70.911  1.00  0.00    -0.370 A  
HETATM    9  C   UNL     1     -13.323  12.969  71.831  1.00  0.00    -0.446 A  
HETATM   10  O   UNL     1     -14.059  13.365  72.907  1.00  0.00    -0.596 OA 
HETATM   11  C   UNL     1     -13.067  11.613  71.684  1.00  0.00    -0.456 A  
HETATM   12  C   UNL     1     -12.277  11.168  70.623  1.00  0.00    -0.492 A  
HETATM   13  H   UNL     1     -14.397  12.737  73.536  1.00  0.00     0.000 HD 
ENDBRANCH   3   6
ENDBRANCH   1   3
BRANCH   1  14
HETATM   14  N   UNL     1     -10.905  13.266  66.773  1.00  0.00    -0.279 NA 
HETATM   15  C   UNL     1     -11.258  13.652  65.419  1.00  0.00    -0.298 C  
HETATM   16  H   UNL     1      -9.909  13.413  66.935  1.00  0.00     0.000 HD 
ENDBRANCH   1  14
TORSDOF 3
ENDMDL
MODEL      101
REMARK 921   NORMALIZED FREE ENERGY PREDICTED BY IDOCK:   -3.76 KCAL/MOL
REMARK 922        TOTAL FREE ENERGY PREDICTED BY IDOCK:   -4.70 KCAL/MOL
REMARK 923 INTER-LIGAND FREE ENERGY PREDICTED BY IDOCK:   -4.63 KCAL/MOL
REMARK 924 INTRA-LIGAND FREE ENERGY PREDICTED BY IDOCK:   -0.07 KCAL/MOL
REMARK 927      BINDING AFFINITY PREDICTED BY RF-SCORE:    0.00 PKD
ROOT
HETATM    1  C   UNL     1     -10.347  12.605  65.650  1.00  0.00    -0.273 C  
HETATM    2  C   UNL     1     -10.943  11.635  66.680  1.00  0.00    -0.349 C  
ENDROOT
BRANCH   1   3
HETATM    3  C   UNL     1     -11.288  13.824  65.384  1.00  0.00    -0.308 C  
HETATM    4  O   UNL     1     -11.346  14.108  63.976  1.00  0.00    -0.596 OA 
HETATM    5  H   UNL     1     -11.918  14.849  63.815  1.00  0.00     0.000 HD 
BRANCH   3   6
HETATM    6  C   UNL     1     -10.962  15.086  66.167  1.00  0.00    -0.334 A  
HETATM    7  C   UNL     1     -11.199  15.132  67.551  1.00  0.00    -0.331 A  
HETATM    8  C   UNL     1     -10.994  16.312  68.272  1.00  0.00    -0.348 A  
HETATM    9  C   UNL     1     -10.537  17.448  67.613  1.00  0.00    -0.350 A  
HETATM   10  O   UNL     1     -10.365  18.631  68.269  1.00  0.00    -0.374 OA 
HETATM   11  C   UNL     1     -10.252  17.413  66.255  1.00  0.00    -0.344 A  
HETATM   12  C   UNL     1     -10.460  16.236  65.535  1.00  0.00    -0.383 A  
HETATM   13  H   UNL     1     -10.052  19.408  67.818  1.00  0.00     0.000 HD 
ENDBRANCH   3   6
ENDBRANCH   1   3
BRANCH   1  14
HETATM   14  N   UNL     1      -9.041  13.141  66.102  1.00  0.00    -0.458 NA 
HETATM   15  C   UNL     1      -8.407  12.376  67.161  1.00  0.00    -0.181 C  
HETATM   16  H   UNL     1      -9.135  14.119  66.380  1.00  0.00     0.000 HD 
ENDBRANCH   1  14
TORSDOF 3
ENDMDL
MODEL      102
REMARK 921   NORMALIZED FREE ENERGY PREDICTED BY IDOCK:   -3.75 KCAL/MOL
REMARK 922        TOTAL FREE ENERGY PREDICTED BY IDOCK:   -4.69 KCAL/MOL
REMARK 923 INTER-LIGAND FREE ENERGY PREDICTED BY IDOCK:   -4.58 KCAL/MOL
REMARK 924 INTRA-LIGAND FREE ENERGY PREDICTED BY IDOCK:   -0.11 KCAL/MOL
REMARK 927      BINDING AFFINITY PREDICTED BY RF-SCORE:    0.00 PKD
ROOT
HETATM    1  C   UNL     1      -9.528  20.593  67.423  1.00  0.00    -0.376 C  
HETATM    2  C   UNL     1     -10.243  19.603  68.354  1.00  0.00    -0.553 C  
ENDROOT
BRANCH   1   3
HETATM    3  C   UNL     1      -7.975  20.522  67.580  1.00  0.00    -0.266 C  
HETATM    4  O   UNL     1      -7.340  21.380  66.617  1.00  0.00    -0.720 OA 
HETATM    5  H   UNL     1      -6.396  21.337  66.712  1.00  0.00     0.000 HD 
BRANCH   3   6
HETATM    6  C   UNL     1      -7.374  19.126  67.525  1.00  0.00    -0.248 A  
HETATM    7  C   UNL     1      -7.009  18.475  68.714  1.00  0.00    -0.295 A  
HETATM    8  C   UNL     1      -6.370  17.231  68.680  1.00  0.00    -0.173 A  
HETATM    9  C   UNL     1      -6.105  16.629  67.455  1.00  0.00    -0.161 A  
HETATM   10  O   UNL     1      -5.446  15.439  67.374  1.00  0.00    -0.331 OA 
HETATM   11  C   UNL     1      -6.498  17.234  66.269  1.00  0.00    -0.232 A  
HETATM   12  C   UNL     1      -7.133  18.476  66.303  1.00  0.00    -0.284 A  
HETATM   13  H   UNL     1      -5.265  15.027  66.536  1.00  0.00     0.000 HD 
ENDBRANCH   3   6
ENDBRANCH   1   3
BRANCH   1  14
HETATM   14  N   UNL     1      -9.845  20.323  66.000  1.00  0.00    -0.638 NA 
HETATM   15  C   UNL     1     -10.724  19.189  65.780  1.00  0.00    -0.307 C  
HETATM   16  H   UNL     1      -8.986  20.215  65.460  1.00  0.00     0.000 HD 
ENDBRANCH   1  14
TORSDOF 3
ENDMDL
MODEL      103
REMARK 921   NORMALIZED FREE ENERGY PREDICTED BY IDOCK:   -3.73 KCAL/MOL
REMARK 922        TOTAL FREE ENERGY PREDICTED BY IDOCK:   -4.66 KCAL/MOL
REMARK 923 INTER-LIGAND FREE ENERGY PREDICTED BY IDOCK:   -4.59 KCAL/MOL
REMARK 924 INTRA-LIGAND FREE ENERGY PREDICTED BY IDOCK:   -0.07 KCAL/MOL
REMARK 927      BINDING AFFINITY PREDICTED BY RF-SCORE:    0.00 PKD
ROOT
HETATM    1  C   UNL     1     -11.110   6.949  71.345  1.00  0.00    -0.250 C  
HETATM    2  C   UNL     1     -11.660   6.416  70.014  1.00  0.00    -0.446 C  
ENDROOT
BRANCH   1   3
HETATM    3  C   UNL     1     -10.121   8.139  71.132  1.00  0.00    -0.184 C  
HETATM    4  O   UNL     1      -9.834   8.776  72.388  1.00  0.00    -0.284 OA 
HETATM    5  H   UNL     1      -9.234   9.500  72.259  1.00  0.00     0.000 HD 
BRANCH   3   6
HETATM    6  C   UNL     1     -10.550   9.171  70.100  1.00  0.00    -0.258 A  
HETATM    7  C   UNL     1     -11.329  10.271  70.493  1.00  0.00    -0.422 A  
HETATM    8  C   UNL     1     -11.813  11.179  69.546  1.00  0.00    -0.423 A  
HETATM    9  C   UNL     1     -11.506  10.997  68.202  1.00  0.00    -0.302 A  
HETATM   10  O   UNL     1     -11.992  11.832  67.240  1.00  0.00    -0.618 OA 
HETATM   11  C   UNL     1     -10.700   9.942  67.796  1.00  0.00    -0.332 A  
HETATM   12  C   UNL     1     -10.220   9.034  68.741  1.00  0.00    -0.226 A  
HETATM   13  H   UNL     1     -11.782  11.707  66.322  1.00  0.00     0.000 HD 
ENDBRANCH   3   6
ENDBRANCH   1   3
BRANCH   1  14
HETATM   14  N   UNL     1     -12.200   7.427  72.229  1.00  0.00    -0.476 NA 
HETATM   15  C   UNL     1     -13.513   7.450  71.612  1.00  0.00    -0.366 C  
HETATM   16  H   UNL     1     -11.971   8.346  72.609  1.00  0.00     0.000 HD 
ENDBRANCH   1  14
TORSDOF 3
ENDMDL
MODEL      104
REMARK 921   NORMALIZED FREE ENERGY PREDICTED BY IDOCK:   -3.72 KCAL/MOL
REMARK 922        TOTAL FREE ENERGY PREDICTED BY IDOCK:   -4.65 KCAL/MOL
REMARK 923 INTER-LIGAND FREE ENERGY PREDICTED BY IDOCK:   -4.41 KCAL/MOL
REMARK 924 INTRA-LIGAND FREE ENERGY PREDICTED BY IDOCK:   -0.24 KCAL/MOL
REMARK 927      BINDING AFFINITY PREDICTED BY RF-SCORE:    0.00 PKD
ROOT
HETATM    1  C   UNL     1     -11.145   9.785  68.622  1.00  0.00    -0.093 C  
HETATM    2  C   UNL     1     -10.012   9.881  67.589  1.00  0.00    -0.212 C  
ENDROOT
BRANCH   1   3
HETATM    3  C   UNL     1     -10.618   9.953  70.083  1.00  0.00    -0.297 C  
HETATM    4  O   UNL     1      -9.206  10.219  70.073  1.00  0.00    -0.399 OA 
HETATM    5  H   UNL     1      -8.886  10.321  70.961  1.00  0.00     0.000 HD 
BRANCH   3   6
HETATM    6  C   UNL     1     -10.936   8.806  71.030  1.00  0.00    -0.328 A  
HETATM    7  C   UNL     1     -10.042   8.486  72.065  1.00  0.00    -0.386 A  
HETATM    8  C   UNL     1     -10.269   7.378  72.888  1.00  0.00    -0.310 A  
HETATM    9  C   UNL     1     -11.399   6.594  72.686  1.00  0.00    -0.225 A  
HETATM   10  O   UNL     1     -11.637   5.480  73.435  1.00  0.00    -0.484 OA 
HETATM   11  C   UNL     1     -12.320   6.918  71.698  1.00  0.00    -0.413 A  
HETATM   12  C   UNL     1     -12.092   8.022  70.876  1.00  0.00    -0.164 A  
HETATM   13  H   UNL     1     -12.410   4.944  73.297  1.00  0.00     0.000 HD 
ENDBRANCH   3   6
ENDBRANCH   1   3
BRANCH   1  14
HETATM   14  N   UNL     1     -12.174  10.828  68.396  1.00  0.00    -0.809 NA 
HETATM   15  C   UNL     1     -11.697  12.006  67.695  1.00  0.00    -0.294 C  
HETATM   16  H   UNL     1     -12.610  11.094  69.280  1.00  0.00     0.000 HD 
ENDBRANCH   1  14
TORSDOF 3
ENDMDL
MODEL      105
REMARK 921   NORMALIZED FREE ENERGY PREDICTED BY IDOCK:   -3.71 KCAL/MOL
REMARK 922        TOTAL FREE ENERGY PREDICTED BY IDOCK:   -4.64 KCAL/MOL
REMARK 923 INTER-LIGAND FREE ENERGY PREDICTED BY IDOCK:   -4.64 KCAL/MOL
REMARK 924 INTRA-LIGAND FREE ENERGY PREDICTED BY IDOCK:   -0.01 KCAL/MOL
REMARK 927      BINDING AFFINITY PREDICTED BY RF-SCORE:    0.00 PKD
ROOT
HETATM    1  C   UNL     1     -11.654  12.830  68.756  1.00  0.00    -0.312 C  
HETATM    2  C   UNL     1     -12.238  13.439  70.040  1.00  0.00    -0.367 C  
ENDROOT
BRANCH   1   3
HETATM    3  C   UNL     1     -12.145  13.584  67.478  1.00  0.00    -0.300 C  
HETATM    4  O   UNL     1     -12.241  12.671  66.371  1.00  0.00    -0.550 OA 
HETATM    5  H   UNL     1     -12.539  13.130  65.595  1.00  0.00     0.000 HD 
BRANCH   3   6
HETATM    6  C   UNL     1     -11.333  14.809  67.088  1.00  0.00    -0.363 A  
HETATM    7  C   UNL     1     -11.228  15.890  67.978  1.00  0.00    -0.319 A  
HETATM    8  C   UNL     1     -10.565  17.063  67.602  1.00  0.00    -0.333 A  
HETATM    9  C   UNL     1      -9.992  17.152  66.337  1.00  0.00    -0.306 A  
HETATM   10  O   UNL     1      -9.375  18.291  65.914  1.00  0.00    -0.506 OA 
HETATM   11  C   UNL     1     -10.045  16.078  65.459  1.00  0.00    -0.336 A  
HETATM   12  C   UNL     1     -10.709  14.909  65.833  1.00  0.00    -0.329 A  
HETATM   13  H   UNL     1      -8.984  18.351  65.049  1.00  0.00     0.000 HD 
ENDBRANCH   3   6
ENDBRANCH   1   3
BRANCH   1  14
HETATM   14  N   UNL     1     -10.172  12.877  68.759  1.00  0.00    -0.420 NA 
HETATM   15  C   UNL     1      -9.527  11.636  68.371  1.00  0.00    -0.193 C  
HETATM   16  H   UNL     1      -9.829  13.185  69.669  1.00  0.00     0.000 HD 
ENDBRANCH   1  14
TORSDOF 3
ENDMDL
MODEL      106
REMARK 921   NORMALIZED FREE ENERGY PREDICTED BY IDOCK:   -3.68 KCAL/MOL
REMARK 922        TOTAL FREE ENERGY PREDICTED BY IDOCK:   -4.61 KCAL/MOL
REMARK 923 INTER-LIGAND FREE ENERGY PREDICTED BY IDOCK:   -4.34 KCAL/MOL
REMARK 924 INTRA-LIGAND FREE ENERGY PREDICTED BY IDOCK:   -0.26 KCAL/MOL
REMARK 927      BINDING AFFINITY PREDICTED BY RF-SCORE:    0.00 PKD
ROOT
HETATM    1  C   UNL     1      -9.973  12.435  68.570  1.00  0.00    -0.170 C  
HETATM    2  C   UNL     1     -10.789  13.717  68.353  1.00  0.00    -0.268 C  
ENDROOT
BRANCH   1   3
HETATM    3  C   UNL     1     -10.816  11.151  68.282  1.00  0.00    -0.212 C  
HETATM    4  O   UNL     1     -11.930  11.471  67.433  1.00  0.00    -0.623 OA 
HETATM    5  H   UNL     1     -12.443  10.691  67.258  1.00  0.00     0.000 HD 
BRANCH   3   6
HETATM    6  C   UNL     1     -11.286  10.387  69.510  1.00  0.00    -0.325 A  
HETATM    7  C   UNL     1     -12.461  10.779  70.170  1.00  0.00    -0.357 A  
HETATM    8  C   UNL     1     -12.860  10.150  71.353  1.00  0.00    -0.530 A  
HETATM    9  C   UNL     1     -12.090   9.115  71.873  1.00  0.00    -0.378 A  
HETATM   10  O   UNL     1     -12.418   8.502  73.046  1.00  0.00    -0.604 OA 
HETATM   11  C   UNL     1     -10.949   8.680  71.212  1.00  0.00    -0.333 A  
HETATM   12  C   UNL     1     -10.550   9.310  70.033  1.00  0.00    -0.256 A  
HETATM   13  H   UNL     1     -11.892   7.795  73.401  1.00  0.00     0.000 HD 
ENDBRANCH   3   6
ENDBRANCH   1   3
BRANCH   1  14
HETATM   14  N   UNL     1      -8.783  12.394  67.687  1.00  0.00    -0.168 NA 
HETATM   15  C   UNL     1      -7.692  11.571  68.177  1.00  0.00    -0.120 C  
HETATM   16  H   UNL     1      -8.453  13.340  67.493  1.00  0.00     0.000 HD 
ENDBRANCH   1  14
TORSDOF 3
ENDMDL
MODEL      107
REMARK 921   NORMALIZED FREE ENERGY PREDICTED BY IDOCK:   -3.67 KCAL/MOL
REMARK 922        TOTAL FREE ENERGY PREDICTED BY IDOCK:   -4.59 KCAL/MOL
REMARK 923 INTER-LIGAND FREE ENERGY PREDICTED BY IDOCK:   -4.56 KCAL/MOL
REMARK 924 INTRA-LIGAND FREE ENERGY PREDICTED BY IDOCK:   -0.03 KCAL/MOL
REMARK 927      BINDING AFFINITY PREDICTED BY RF-SCORE:    0.00 PKD
ROOT
HETATM    1  C   UNL     1      -8.932  19.527  67.271  1.00  0.00    -0.306 C  
HETATM    2  C   UNL     1     -10.414  19.813  66.991  1.00  0.00    -0.595 C  
ENDROOT
BRANCH   1   3
HETATM    3  C   UNL     1      -8.746  18.408  68.345  1.00  0.00    -0.317 C  
HETATM    4  O   UNL     1      -7.371  17.992  68.394  1.00  0.00    -0.242 OA 
HETATM    5  H   UNL     1      -7.258  17.311  69.047  1.00  0.00     0.000 HD 
BRANCH   3   6
HETATM    6  C   UNL     1      -9.661  17.201  68.198  1.00  0.00    -0.270 A  
HETATM    7  C   UNL     1      -9.508  16.338  67.100  1.00  0.00    -0.231 A  
HETATM    8  C   UNL     1     -10.397  15.278  66.897  1.00  0.00    -0.278 A  
HETATM    9  C   UNL     1     -11.435  15.069  67.799  1.00  0.00    -0.334 A  
HETATM   10  O   UNL     1     -12.349  14.076  67.616  1.00  0.00    -0.526 OA 
HETATM   11  C   UNL     1     -11.577  15.883  68.915  1.00  0.00    -0.392 A  
HETATM   12  C   UNL     1     -10.691  16.942  69.117  1.00  0.00    -0.298 A  
HETATM   13  H   UNL     1     -13.058  13.933  68.233  1.00  0.00     0.000 HD 
ENDBRANCH   3   6
ENDBRANCH   1   3
BRANCH   1  14
HETATM   14  N   UNL     1      -8.223  19.090  66.044  1.00  0.00    -0.464 NA 
HETATM   15  C   UNL     1      -7.163  19.980  65.607  1.00  0.00    -0.308 C  
HETATM   16  H   UNL     1      -8.889  18.934  65.287  1.00  0.00     0.000 HD 
ENDBRANCH   1  14
TORSDOF 3
ENDMDL
MODEL      108
REMARK 921   NORMALIZED FREE ENERGY PREDICTED BY IDOCK:   -3.65 KCAL/MOL
REMARK 922        TOTAL FREE ENERGY PREDICTED BY IDOCK:   -4.57 KCAL/MOL
REMARK 923 INTER-LIGAND FREE ENERGY PREDICTED BY IDOCK:   -4.32 KCAL/MOL
REMARK 924 INTRA-LIGAND FREE ENERGY PREDICTED BY IDOCK:   -0.25 KCAL/MOL
REMARK 927      BINDING AFFINITY PREDICTED BY RF-SCORE:    0.00 PKD
ROOT
HETATM    1  C   UNL     1     -10.139  17.657  67.664  1.00  0.00    -0.339 C  
HETATM    2  C   UNL     1      -8.746  17.015  67.746  1.00  0.00    -0.222 C  
ENDROOT
BRANCH   1   3
HETATM    3  C   UNL     1     -11.189  16.885  68.525  1.00  0.00    -0.112 C  
HETATM    4  O   UNL     1     -10.821  16.931  69.914  1.00  0.00    -0.381 OA 
HETATM    5  H   UNL     1     -11.459  16.461  70.438  1.00  0.00     0.000 HD 
BRANCH   3   6
HETATM    6  C   UNL     1     -11.463  15.452  68.096  1.00  0.00    -0.352 A  
HETATM    7  C   UNL     1     -11.500  14.429  69.057  1.00  0.00    -0.314 A  
HETATM    8  C   UNL     1     -11.657  13.094  68.673  1.00  0.00    -0.356 A  
HETATM    9  C   UNL     1     -11.790  12.778  67.325  1.00  0.00    -0.350 A  
HETATM   10  O   UNL     1     -11.902  11.487  66.903  1.00  0.00    -0.542 OA 
HETATM   11  C   UNL     1     -11.802  13.778  66.361  1.00  0.00    -0.434 A  
HETATM   12  C   UNL     1     -11.643  15.110  66.745  1.00  0.00    -0.136 A  
HETATM   13  H   UNL     1     -11.993  11.272  65.981  1.00  0.00     0.000 HD 
ENDBRANCH   3   6
ENDBRANCH   1   3
BRANCH   1  14
HETATM   14  N   UNL     1     -10.117  19.061  68.141  1.00  0.00    -0.375 NA 
HETATM   15  C   UNL     1      -9.760  20.038  67.128  1.00  0.00    -0.411 C  
HETATM   16  H   UNL     1      -9.503  19.151  68.951  1.00  0.00     0.000 HD 
ENDBRANCH   1  14
TORSDOF 3
ENDMDL
MODEL      109
REMARK 921   NORMALIZED FREE ENERGY PREDICTED BY IDOCK:   -3.64 KCAL/MOL
REMARK 922        TOTAL FREE ENERGY PREDICTED BY IDOCK:   -4.55 KCAL/MOL
REMARK 923 INTER-LIGAND FREE ENERGY PREDICTED BY IDOCK:   -4.42 KCAL/MOL
REMARK 924 INTRA-LIGAND FREE ENERGY PREDICTED BY IDOCK:   -0.13 KCAL/MOL
REMARK 927      BINDING AFFINITY PREDICTED BY RF-SCORE:    0.00 PKD
ROOT
HETATM    1  C   UNL     1     -11.206  14.749  67.254  1.00  0.00    -0.346 C  
HETATM    2  C   UNL     1     -11.255  14.882  65.725  1.00  0.00    -0.334 C  
ENDROOT
BRANCH   1   3
HETATM    3  C   UNL     1     -10.838  13.299  67.702  1.00  0.00    -0.258 C  
HETATM    4  O   UNL     1     -11.116  12.368  66.643  1.00  0.00    -0.263 OA 
HETATM    5  H   UNL     1     -10.893  11.486  66.915  1.00  0.00     0.000 HD 
BRANCH   3   6
HETATM    6  C   UNL     1     -11.478  12.832  69.000  1.00  0.00    -0.360 A  
HETATM    7  C   UNL     1     -11.350  11.492  69.400  1.00  0.00    -0.355 A  
HETATM    8  C   UNL     1     -12.008  11.021  70.541  1.00  0.00    -0.474 A  
HETATM    9  C   UNL     1     -12.786  11.895  71.294  1.00  0.00    -0.298 A  
HETATM   10  O   UNL     1     -13.479  11.469  72.388  1.00  0.00    -0.596 OA 
HETATM   11  C   UNL     1     -12.889  13.234  70.943  1.00  0.00    -0.257 A  
HETATM   12  C   UNL     1     -12.234  13.702  69.803  1.00  0.00    -0.350 A  
HETATM   13  H   UNL     1     -14.010  12.066  72.902  1.00  0.00     0.000 HD 
ENDBRANCH   3   6
ENDBRANCH   1   3
BRANCH   1  14
HETATM   14  N   UNL     1     -10.201  15.666  67.845  1.00  0.00    -0.236 NA 
HETATM   15  C   UNL     1     -10.145  16.980  67.229  1.00  0.00    -0.295 C  
HETATM   16  H   UNL     1      -9.278  15.232  67.838  1.00  0.00     0.000 HD 
ENDBRANCH   1  14
TORSDOF 3
ENDMDL
MODEL      110
REMARK 921   NORMALIZED FREE ENERGY PREDICTED BY IDOCK:   -3.64 KCAL/MOL
REMARK 922        TOTAL FREE ENERGY PREDICTED BY IDOCK:   -4.55 KCAL/MOL
REMARK 923 INTER-LIGAND FREE ENERGY PREDICTED BY IDOCK:   -4.32 KCAL/MOL
REMARK 924 INTRA-LIGAND FREE ENERGY PREDICTED BY IDOCK:   -0.23 KCAL/MOL
REMARK 927      BINDING AFFINITY PREDICTED BY RF-SCORE:    0.00 PKD
ROOT
HETATM    1  C   UNL     1     -10.423  11.631  66.344  1.00  0.00    -0.244 C  
HETATM    2  C   UNL     1     -10.196  10.163  66.736  1.00  0.00    -0.289 C  
ENDROOT
BRANCH   1   3
HETATM    3  C   UNL     1      -9.739  12.615  67.346  1.00  0.00    -0.199 C  
HETATM    4  O   UNL     1      -8.859  11.894  68.225  1.00  0.00    -0.168 OA 
HETATM    5  H   UNL     1      -8.443  12.492  68.835  1.00  0.00     0.000 HD 
BRANCH   3   6
HETATM    6  C   UNL     1     -10.685  13.495  68.148  1.00  0.00    -0.265 A  
HETATM    7  C   UNL     1     -10.743  14.874  67.890  1.00  0.00    -0.265 A  
HETATM    8  C   UNL     1     -11.536  15.715  68.678  1.00  0.00    -0.391 A  
HETATM    9  C   UNL     1     -12.286  15.176  69.718  1.00  0.00    -0.289 A  
HETATM   10  O   UNL     1     -13.038  15.963  70.537  1.00  0.00    -0.714 OA 
HETATM   11  C   UNL     1     -12.279  13.809  69.961  1.00  0.00    -0.407 A  
HETATM   12  C   UNL     1     -11.485  12.971  69.177  1.00  0.00    -0.353 A  
HETATM   13  H   UNL     1     -13.550  15.595  71.248  1.00  0.00     0.000 HD 
ENDBRANCH   3   6
ENDBRANCH   1   3
BRANCH   1  14
HETATM   14  N   UNL     1      -9.880  11.920  64.995  1.00  0.00    -0.328 NA 
HETATM   15  C   UNL     1     -10.748  12.725  64.153  1.00  0.00    -0.412 C  
HETATM   16  H   UNL     1      -9.630  11.053  64.519  1.00  0.00     0.000 HD 
ENDBRANCH   1  14
TORSDOF 3
ENDMDL
MODEL      111
REMARK 921   NORMALIZED FREE ENERGY PREDICTED BY IDOCK:   -3.61 KCAL/MOL
REMARK 922        TOTAL FREE ENERGY PREDICTED BY IDOCK:   -4.52 KCAL/MOL
REMARK 923 INTER-LIGAND FREE ENERGY PREDICTED BY IDOCK:   -4.25 KCAL/MOL
REMARK 924 INTRA-LIGAND FREE ENERGY PREDICTED BY IDOCK:   -0.27 KCAL/MOL
REMARK 927      BINDING AFFINITY PREDICTED BY RF-SCORE:    0.00 PKD
ROOT
HETATM    1  C   UNL     1     -10.835  10.547  69.719  1.00  0.00    -0.281 C  
HETATM    2  C   UNL     1      -9.546   9.777  70.044  1.00  0.00    -0.282 C  
ENDROOT
BRANCH   1   3
HETATM    3  C   UNL     1     -11.442  10.114  68.347  1.00  0.00    -0.015 C  
HETATM    4  O   UNL     1     -11.041   8.771  68.028  1.00  0.00    -0.477 OA 
HETATM    5  H   UNL     1     -11.410   8.509  67.194  1.00  0.00     0.000 HD 
BRANCH   3   6
HETATM    6  C   UNL     1     -11.153  11.046  67.180  1.00  0.00    -0.333 A  
HETATM    7  C   UNL     1     -10.144  10.720  66.259  1.00  0.00    -0.285 A  
HETATM    8  C   UNL     1      -9.799  11.607  65.234  1.00  0.00    -0.279 A  
HETATM    9  C   UNL     1     -10.474  12.818  65.118  1.00  0.00    -0.300 A  
HETATM   10  O   UNL     1     -10.141  13.730  64.161  1.00  0.00    -0.729 OA 
HETATM   11  C   UNL     1     -11.506  13.140  65.989  1.00  0.00    -0.370 A  
HETATM   12  C   UNL     1     -11.847  12.256  67.014  1.00  0.00    -0.329 A  
HETATM   13  H   UNL     1     -10.603  14.557  64.082  1.00  0.00     0.000 HD 
ENDBRANCH   3   6
ENDBRANCH   1   3
BRANCH   1  14
HETATM   14  N   UNL     1     -11.872  10.327  70.755  1.00  0.00    -0.336 NA 
HETATM   15  C   UNL     1     -12.854  11.391  70.864  1.00  0.00    -0.232 C  
HETATM   16  H   UNL     1     -11.437  10.152  71.661  1.00  0.00     0.000 HD 
ENDBRANCH   1  14
TORSDOF 3
ENDMDL
MODEL      112
REMARK 921   NORMALIZED FREE ENERGY PREDICTED BY IDOCK:   -3.57 KCAL/MOL
REMARK 922        TOTAL FREE ENERGY PREDICTED BY IDOCK:   -4.48 KCAL/MOL
REMARK 923 INTER-LIGAND FREE ENERGY PREDICTED BY IDOCK:   -4.21 KCAL/MOL
REMARK 924 INTRA-LIGAND FREE ENERGY PREDICTED BY IDOCK:   -0.27 KCAL/MOL
REMARK 927      BINDING AFFINITY PREDICTED BY RF-SCORE:    0.00 PKD
ROOT
HETATM    1  C   UNL     1     -10.408   8.090  69.521  1.00  0.00    -0.221 C  
HETATM    2  C   UNL     1     -11.067   6.711  69.377  1.00  0.00    -0.365 C  
ENDROOT
BRANCH   1   3
HETATM    3  C   UNL     1     -11.233   9.036  70.451  1.00  0.00    -0.241 C  
HETATM    4  O   UNL     1     -12.501   8.437  70.767  1.00  0.00    -0.500 OA 
HETATM    5  H   UNL     1     -13.003   9.013  71.332  1.00  0.00     0.000 HD 
BRANCH   3   6
HETATM    6  C   UNL     1     -11.429  10.454  69.935  1.00  0.00    -0.368 A  
HETATM    7  C   UNL     1     -11.985  11.432  70.775  1.00  0.00    -0.355 A  
HETATM    8  C   UNL     1     -12.260  12.716  70.293  1.00  0.00    -0.347 A  
HETATM    9  C   UNL     1     -11.967  13.029  68.969  1.00  0.00    -0.267 A  
HETATM   10  O   UNL     1     -12.257  14.253  68.445  1.00  0.00    -0.562 OA 
HETATM   11  C   UNL     1     -11.375  12.090  68.134  1.00  0.00    -0.349 A  
HETATM   12  C   UNL     1     -11.104  10.809  68.616  1.00  0.00    -0.312 A  
HETATM   13  H   UNL     1     -12.057  14.466  67.541  1.00  0.00     0.000 HD 
ENDBRANCH   3   6
ENDBRANCH   1   3
BRANCH   1  14
HETATM   14  N   UNL     1      -9.044   7.982  70.092  1.00  0.00    -0.151 NA 
HETATM   15  C   UNL     1      -8.963   8.241  71.518  1.00  0.00    -0.173 C  
HETATM   16  H   UNL     1      -8.398   8.588  69.585  1.00  0.00     0.000 HD 
ENDBRANCH   1  14
TORSDOF 3
ENDMDL
MODEL      113
REMARK 921   NORMALIZED FREE ENERGY PREDICTED BY IDOCK:   -3.55 KCAL/MOL
REMARK 922        TOTAL FREE ENERGY PREDICTED BY IDOCK:   -4.46 KCAL/MOL
REMARK 923 INTER-LIGAND FREE ENERGY PREDICTED BY IDOCK:   -4.33 KCAL/MOL
REMARK 924 INTRA-LIGAND FREE ENERGY PREDICTED BY IDOCK:   -0.12 KCAL/MOL
REMARK 927      BINDING AFFINITY PREDICTED BY RF-SCORE:    0.00 PKD
ROOT
HETATM    1  C   UNL     1     -11.362  13.825  68.123  1.00  0.00    -0.284 C  
HETATM    2  C   UNL     1     -10.046  13.579  67.370  1.00  0.00    -0.237 C  
ENDROOT
BRANCH   1   3
HETATM    3  C   UNL     1     -11.247  15.020  69.122  1.00  0.00    -0.281 C  
HETATM    4  O   UNL     1     -12.552  15.550  69.412  1.00  0.00    -0.599 OA 
HETATM    5  H   UNL     1     -12.482  16.277  70.019  1.00  0.00     0.000 HD 
BRANCH   3   6
HETATM    6  C   UNL     1     -10.303  16.136  68.703  1.00  0.00    -0.252 A  
HETATM    7  C   UNL     1      -8.954  16.093  69.092  1.00  0.00    -0.237 A  
HETATM    8  C   UNL     1      -8.091  17.154  68.797  1.00  0.00    -0.252 A  
HETATM    9  C   UNL     1      -8.573  18.256  68.098  1.00  0.00    -0.278 A  
HETATM   10  O   UNL     1      -7.779  19.330  67.827  1.00  0.00    -0.262 OA 
HETATM   11  C   UNL     1      -9.891  18.299  67.664  1.00  0.00    -0.328 A  
HETATM   12  C   UNL     1     -10.752  17.242  67.961  1.00  0.00    -0.367 A  
HETATM   13  H   UNL     1      -8.108  20.083  67.349  1.00  0.00     0.000 HD 
ENDBRANCH   3   6
ENDBRANCH   1   3
BRANCH   1  14
HETATM   14  N   UNL     1     -12.471  14.129  67.188  1.00  0.00    -0.536 NA 
HETATM   15  C   UNL     1     -12.083  14.204  65.792  1.00  0.00    -0.420 C  
HETATM   16  H   UNL     1     -12.947  14.987  67.470  1.00  0.00     0.000 HD 
ENDBRANCH   1  14
TORSDOF 3
ENDMDL
MODEL      114
REMARK 921   NORMALIZED FREE ENERGY PREDICTED BY IDOCK:   -3.55 KCAL/MOL
REMARK 922        TOTAL FREE ENERGY PREDICTED BY IDOCK:   -4.45 KCAL/MOL
REMARK 923 INTER-LIGAND FREE ENERGY PREDICTED BY IDOCK:   -4.42 KCAL/MOL
REMARK 924 INTRA-LIGAND FREE ENERGY PREDICTED BY IDOCK:   -0.02 KCAL/MOL
REMARK 927      BINDING AFFINITY PREDICTED BY RF-SCORE:    0.00 PKD
ROOT
HETATM    1  C   UNL     1     -11.856  12.707  67.147  1.00  0.00    -0.330 C  
HETATM    2  C   UNL     1     -10.685  11.860  66.628  1.00  0.00    -0.291 C  
ENDROOT
BRANCH   1   3
HETATM    3  C   UNL     1     -11.368  13.888  68.046  1.00  0.00    -0.288 C  
HETATM    4  O   UNL     1     -12.492  14.552  68.646  1.00  0.00    -0.584 OA 
HETATM    5  H   UNL     1     -12.195  15.270  69.192  1.00  0.00     0.000 HD 
BRANCH   3   6
HETATM    6  C   UNL     1     -10.458  14.898  67.363  1.00  0.00    -0.255 A  
HETATM    7  C   UNL     1      -9.074  14.667  67.310  1.00  0.00    -0.215 A  
HETATM    8  C   UNL     1      -8.210  15.626  66.770  1.00  0.00    -0.300 A  
HETATM    9  C   UNL     1      -8.731  16.814  66.268  1.00  0.00    -0.307 A  
HETATM   10  O   UNL     1      -7.924  17.793  65.773  1.00  0.00    -0.544 OA 
HETATM   11  C   UNL     1     -10.101  17.043  66.268  1.00  0.00    -0.330 A  
HETATM   12  C   UNL     1     -10.962  16.087  66.810  1.00  0.00    -0.112 A  
HETATM   13  H   UNL     1      -8.280  18.605  65.429  1.00  0.00     0.000 HD 
ENDBRANCH   3   6
ENDBRANCH   1   3
BRANCH   1  14
HETATM   14  N   UNL     1     -12.639  13.290  66.031  1.00  0.00    -0.389 NA 
HETATM   15  C   UNL     1     -12.291  12.782  64.717  1.00  0.00    -0.478 C  
HETATM   16  H   UNL     1     -12.574  14.308  66.046  1.00  0.00     0.000 HD 
ENDBRANCH   1  14
TORSDOF 3
ENDMDL
MODEL      115
REMARK 921   NORMALIZED FREE ENERGY PREDICTED BY IDOCK:   -3.52 KCAL/MOL
REMARK 922        TOTAL FREE ENERGY PREDICTED BY IDOCK:   -4.41 KCAL/MOL
REMARK 923 INTER-LIGAND FREE ENERGY PREDICTED BY IDOCK:   -4.40 KCAL/MOL
REMARK 924 INTRA-LIGAND FREE ENERGY PREDICTED BY IDOCK:   -0.02 KCAL/MOL
REMARK 927      BINDING AFFINITY PREDICTED BY RF-SCORE:    0.00 PKD
ROOT
HETATM    1  C   UNL     1     -12.099   8.776  71.425  1.00  0.00    -0.307 C  
HETATM    2  C   UNL     1     -12.656  10.161  71.785  1.00  0.00    -0.500 C  
ENDROOT
BRANCH   1   3
HETATM    3  C   UNL     1     -10.714   8.872  70.708  1.00  0.00    -0.233 C  
HETATM    4  O   UNL     1     -10.365  10.249  70.488  1.00  0.00    -0.410 OA 
HETATM    5  H   UNL     1      -9.523  10.308  70.052  1.00  0.00     0.000 HD 
BRANCH   3   6
HETATM    6  C   UNL     1     -10.588   8.079  69.417  1.00  0.00    -0.210 A  
HETATM    7  C   UNL     1     -10.404   8.753  68.198  1.00  0.00    -0.266 A  
HETATM    8  C   UNL     1     -10.380   8.049  66.990  1.00  0.00    -0.414 A  
HETATM    9  C   UNL     1     -10.525   6.666  66.999  1.00  0.00    -0.298 A  
HETATM   10  O   UNL     1     -10.550   5.945  65.842  1.00  0.00    -0.411 OA 
HETATM   11  C   UNL     1     -10.661   5.975  68.195  1.00  0.00    -0.353 A  
HETATM   12  C   UNL     1     -10.689   6.678  69.400  1.00  0.00    -0.303 A  
HETATM   13  H   UNL     1     -10.649   4.999  65.848  1.00  0.00     0.000 HD 
ENDBRANCH   3   6
ENDBRANCH   1   3
BRANCH   1  14
HETATM   14  N   UNL     1     -11.919   7.934  72.632  1.00  0.00    -0.582 NA 
HETATM   15  C   UNL     1     -12.040   6.507  72.398  1.00  0.00    -0.111 C  
HETATM   16  H   UNL     1     -12.561   8.228  73.368  1.00  0.00     0.000 HD 
ENDBRANCH   1  14
TORSDOF 3
ENDMDL
MODEL      116
REMARK 921   NORMALIZED FREE ENERGY PREDICTED BY IDOCK:   -3.50 KCAL/MOL
REMARK 922        TOTAL FREE ENERGY PREDICTED BY IDOCK:   -4.40 KCAL/MOL
REMARK 923 INTER-LIGAND FREE ENERGY PREDICTED BY IDOCK:   -4.17 KCAL/MOL
REMARK 924 INTRA-LIGAND FREE ENERGY PREDICTED BY IDOCK:   -0.22 KCAL/MOL
REMARK 927      BINDING AFFINITY PREDICTED BY RF-SCORE:    0.00 PKD
ROOT
HETATM    1  C   UNL     1      -8.985   9.967  65.725  1.00  0.00    -0.156 C  
HETATM    2  C   UNL     1      -7.543  10.240  65.273  1.00  0.00    -0.143 C  
ENDROOT
BRANCH   1   3
HETATM    3  C   UNL     1     -10.002  10.948  65.057  1.00  0.00    -0.298 C  
HETATM    4  O   UNL     1      -9.407  11.569  63.906  1.00  0.00    -0.408 OA 
HETATM    5  H   UNL     1     -10.024  12.166  63.500  1.00  0.00     0.000 HD 
BRANCH   3   6
HETATM    6  C   UNL     1     -10.599  11.999  65.979  1.00  0.00    -0.303 A  
HETATM    7  C   UNL     1     -11.193  11.610  67.191  1.00  0.00    -0.371 A  
HETATM    8  C   UNL     1     -11.830  12.549  68.008  1.00  0.00    -0.382 A  
HETATM    9  C   UNL     1     -11.863  13.885  67.622  1.00  0.00    -0.386 A  
HETATM   10  O   UNL     1     -12.510  14.826  68.365  1.00  0.00    -0.584 OA 
HETATM   11  C   UNL     1     -11.243  14.299  66.451  1.00  0.00    -0.337 A  
HETATM   12  C   UNL     1     -10.610  13.361  65.634  1.00  0.00    -0.286 A  
HETATM   13  H   UNL     1     -12.533  15.739  68.101  1.00  0.00     0.000 HD 
ENDBRANCH   3   6
ENDBRANCH   1   3
BRANCH   1  14
HETATM   14  N   UNL     1      -9.407   8.587  65.383  1.00  0.00    -0.427 NA 
HETATM   15  C   UNL     1      -8.315   7.672  65.104  1.00  0.00    -0.093 C  
HETATM   16  H   UNL     1     -10.066   8.600  64.604  1.00  0.00     0.000 HD 
ENDBRANCH   1  14
TORSDOF 3
ENDMDL
MODEL      117
REMARK 921   NORMALIZED FREE ENERGY PREDICTED BY IDOCK:   -3.47 KCAL/MOL
REMARK 922        TOTAL FREE ENERGY PREDICTED BY IDOCK:   -4.36 KCAL/MOL
REMARK 923 INTER-LIGAND FREE ENERGY PREDICTED BY IDOCK:   -4.17 KCAL/MOL
REMARK 924 INTRA-LIGAND FREE ENERGY PREDICTED BY IDOCK:   -0.20 KCAL/MOL
REMARK 927      BINDING AFFINITY PREDICTED BY RF-SCORE:    0.00 PKD
ROOT
HETATM    1  C   UNL     1      -9.260  14.438  67.341  1.00  0.00    -0.198 C  
HETATM    2  C   UNL     1      -9.930  13.613  66.233  1.00  0.00    -0.305 C  
ENDROOT
BRANCH   1   3
HETATM    3  C   UNL     1     -10.236  15.495  67.952  1.00  0.00    -0.238 C  
HETATM    4  O   UNL     1     -11.574  15.264  67.481  1.00  0.00    -0.316 OA 
HETATM    5  H   UNL     1     -12.167  15.907  67.852  1.00  0.00     0.000 HD 
BRANCH   3   6
HETATM    6  C   UNL     1      -9.842  16.949  67.740  1.00  0.00    -0.252 A  
HETATM    7  C   UNL     1     -10.196  17.915  68.696  1.00  0.00    -0.387 A  
HETATM    8  C   UNL     1      -9.926  19.269  68.477  1.00  0.00    -0.513 A  
HETATM    9  C   UNL     1      -9.288  19.661  67.305  1.00  0.00    -0.332 A  
HETATM   10  O   UNL     1      -9.045  20.973  67.030  1.00  0.00    -0.625 OA 
HETATM   11  C   UNL     1      -8.889  18.718  66.367  1.00  0.00    -0.298 A  
HETATM   12  C   UNL     1      -9.161  17.367  66.585  1.00  0.00    -0.277 A  
HETATM   13  H   UNL     1      -8.608  21.240  66.229  1.00  0.00     0.000 HD 
ENDBRANCH   3   6
ENDBRANCH   1   3
BRANCH   1  14
HETATM   14  N   UNL     1      -8.789  13.574  68.450  1.00  0.00    -0.261 NA 
HETATM   15  C   UNL     1      -8.261  12.288  68.032  1.00  0.00    -0.163 C  
HETATM   16  H   UNL     1      -9.530  13.446  69.139  1.00  0.00     0.000 HD 
ENDBRANCH   1  14
TORSDOF 3
ENDMDL
MODEL      118
REMARK 921   NORMALIZED FREE ENERGY PREDICTED BY IDOCK:   -3.47 KCAL/MOL
REMARK 922        TOTAL FREE ENERGY PREDICTED BY IDOCK:   -4.36 KCAL/MOL
REMARK 923 INTER-LIGAND FREE ENERGY PREDICTED BY IDOCK:   -4.19 KCAL/MOL
REMARK 924 INTRA-LIGAND FREE ENERGY PREDICTED BY IDOCK:   -0.17 KCAL/MOL
REMARK 927      BINDING AFFINITY PREDICTED BY RF-SCORE:    0.00 PKD
ROOT
HETATM    1  C   UNL     1     -10.745  12.067  69.169  1.00  0.00    -0.075 C  
HETATM    2  C   UNL     1     -11.975  11.430  68.505  1.00  0.00    -0.295 C  
ENDROOT
BRANCH   1   3
HETATM    3  C   UNL     1      -9.485  11.999  68.248  1.00  0.00    -0.199 C  
HETATM    4  O   UNL     1      -8.647  13.147  68.468  1.00  0.00    -0.288 OA 
HETATM    5  H   UNL     1      -7.881  13.105  67.908  1.00  0.00     0.000 HD 
BRANCH   3   6
HETATM    6  C   UNL     1      -9.767  11.826  66.763  1.00  0.00    -0.213 A  
HETATM    7  C   UNL     1     -10.106  12.941  65.981  1.00  0.00    -0.290 A  
HETATM    8  C   UNL     1     -10.460  12.790  64.636  1.00  0.00    -0.373 A  
HETATM    9  C   UNL     1     -10.462  11.522  64.066  1.00  0.00    -0.370 A  
HETATM   10  O   UNL     1     -10.842  11.323  62.772  1.00  0.00    -0.744 OA 
HETATM   11  C   UNL     1     -10.086  10.411  64.808  1.00  0.00    -0.387 A  
HETATM   12  C   UNL     1      -9.735  10.561  66.151  1.00  0.00    -0.259 A  
HETATM   13  H   UNL     1     -10.843  10.456  62.382  1.00  0.00     0.000 HD 
ENDBRANCH   3   6
ENDBRANCH   1   3
BRANCH   1  14
HETATM   14  N   UNL     1     -10.983  13.494  69.493  1.00  0.00    -0.452 NA 
HETATM   15  C   UNL     1     -12.246  14.022  69.009  1.00  0.00    -0.245 C  
HETATM   16  H   UNL     1     -10.209  14.068  69.159  1.00  0.00     0.000 HD 
ENDBRANCH   1  14
TORSDOF 3
ENDMDL
MODEL      119
REMARK 921   NORMALIZED FREE ENERGY PREDICTED BY IDOCK:   -3.47 KCAL/MOL
REMARK 922        TOTAL FREE ENERGY PREDICTED BY IDOCK:   -4.36 KCAL/MOL
REMARK 923 INTER-LIGAND FREE ENERGY PREDICTED BY IDOCK:   -4.04 KCAL/MOL
REMARK 924 INTRA-LIGAND FREE ENERGY PREDICTED BY IDOCK:   -0.32 KCAL/MOL
REMARK 927      BINDING AFFINITY PREDICTED BY RF-SCORE:    0.00 PKD
ROOT
HETATM    1  C   UNL     1      -9.878   6.997  68.690  1.00  0.00    -0.148 C  
HETATM    2  C   UNL     1     -10.871   6.385  67.691  1.00  0.00    -0.425 C  
ENDROOT
BRANCH   1   3
HETATM    3  C   UNL     1     -10.336   6.790  70.169  1.00  0.00    -0.202 C  
HETATM    4  O   UNL     1     -11.068   5.559  70.293  1.00  0.00    -0.231 OA 
HETATM    5  H   UNL     1     -11.347   5.433  71.192  1.00  0.00     0.000 HD 
BRANCH   3   6
HETATM    6  C   UNL     1     -11.122   7.940  70.778  1.00  0.00    -0.264 A  
HETATM    7  C   UNL     1     -12.209   7.672  71.627  1.00  0.00    -0.346 A  
HETATM    8  C   UNL     1     -13.002   8.711  72.122  1.00  0.00    -0.432 A  
HETATM    9  C   UNL     1     -12.702  10.026  71.781  1.00  0.00    -0.428 A  
HETATM   10  O   UNL     1     -13.473  11.066  72.205  1.00  0.00    -0.603 OA 
HETATM   11  C   UNL     1     -11.605  10.317  70.981  1.00  0.00    -0.430 A  
HETATM   12  C   UNL     1     -10.815   9.279  70.484  1.00  0.00    -0.318 A  
HETATM   13  H   UNL     1     -13.268  11.964  71.972  1.00  0.00     0.000 HD 
ENDBRANCH   3   6
ENDBRANCH   1   3
BRANCH   1  14
HETATM   14  N   UNL     1      -8.530   6.395  68.552  1.00  0.00    -0.119 NA 
HETATM   15  C   UNL     1      -7.654   6.604  69.690  1.00  0.00    -0.098 C  
HETATM   16  H   UNL     1      -8.082   6.721  67.695  1.00  0.00     0.000 HD 
ENDBRANCH   1  14
TORSDOF 3
ENDMDL
MODEL      120
REMARK 921   NORMALIZED FREE ENERGY PREDICTED BY IDOCK:   -3.46 KCAL/MOL
REMARK 922        TOTAL FREE ENERGY PREDICTED BY IDOCK:   -4.35 KCAL/MOL
REMARK 923 INTER-LIGAND FREE ENERGY PREDICTED BY IDOCK:   -4.07 KCAL/MOL
REMARK 924 INTRA-LIGAND FREE ENERGY PREDICTED BY IDOCK:   -0.29 KCAL/MOL
REMARK 927      BINDING AFFINITY PREDICTED BY RF-SCORE:    0.00 PKD
ROOT
HETATM    1  C   UNL     1     -11.573  15.378  68.652  1.00  0.00    -0.359 C  
HETATM    2  C   UNL     1     -10.793  16.697  68.547  1.00  0.00    -0.356 C  
ENDROOT
BRANCH   1   3
HETATM    3  C   UNL     1     -10.636  14.171  68.978  1.00  0.00    -0.213 C  
HETATM    4  O   UNL     1      -9.347  14.646  69.404  1.00  0.00    -0.400 OA 
HETATM    5  H   UNL     1      -8.777  13.912  69.602  1.00  0.00     0.000 HD 
BRANCH   3   6
HETATM    6  C   UNL     1     -10.483  13.142  67.869  1.00  0.00    -0.245 A  
HETATM    7  C   UNL     1     -11.596  12.778  67.095  1.00  0.00    -0.426 A  
HETATM    8  C   UNL     1     -11.498  11.767  66.133  1.00  0.00    -0.288 A  
HETATM    9  C   UNL     1     -10.280  11.126  65.934  1.00  0.00    -0.251 A  
HETATM   10  O   UNL     1     -10.150  10.107  65.038  1.00  0.00    -0.330 OA 
HETATM   11  C   UNL     1      -9.155  11.501  66.656  1.00  0.00    -0.193 A  
HETATM   12  C   UNL     1      -9.254  12.508  67.617  1.00  0.00    -0.190 A  
HETATM   13  H   UNL     1      -9.317   9.669  64.902  1.00  0.00     0.000 HD 
ENDBRANCH   3   6
ENDBRANCH   1   3
BRANCH   1  14
HETATM   14  N   UNL     1     -12.604  15.442  69.716  1.00  0.00    -0.618 NA 
HETATM   15  C   UNL     1     -12.800  14.202  70.444  1.00  0.00    -0.197 C  
HETATM   16  H   UNL     1     -13.490  15.770  69.331  1.00  0.00     0.000 HD 
ENDBRANCH   1  14
TORSDOF 3
ENDMDL
MODEL      121
REMARK 921   NORMALIZED FREE ENERGY PREDICTED BY IDOCK:   -3.45 KCAL/MOL
REMARK 922        TOTAL FREE ENERGY PREDICTED BY IDOCK:   -4.34 KCAL/MOL
REMARK 923 INTER-LIGAND FREE ENERGY PREDICTED BY IDOCK:   -4.43 KCAL/MOL
REMARK 924 INTRA-LIGAND FREE ENERGY PREDICTED BY IDOCK:    0.09 KCAL/MOL
REMARK 927      BINDING AFFINITY PREDICTED BY RF-SCORE:    0.00 PKD
ROOT
HETATM    1  C   UNL     1      -9.263  20.353  67.268  1.00  0.00    -0.394 C  
HETATM    2  C   UNL     1      -9.755  19.405  68.371  1.00  0.00    -0.488 C  
ENDROOT
BRANCH   1   3
HETATM    3  C   UNL     1      -7.715  20.270  67.076  1.00  0.00    -0.321 C  
HETATM    4  O   UNL     1      -7.404  19.712  65.788  1.00  0.00    -0.301 OA 
HETATM    5  H   UNL     1      -6.462  19.662  65.672  1.00  0.00     0.000 HD 
BRANCH   3   6
HETATM    6  C   UNL     1      -6.958  19.534  68.171  1.00  0.00    -0.314 A  
HETATM    7  C   UNL     1      -6.807  18.139  68.099  1.00  0.00    -0.212 A  
HETATM    8  C   UNL     1      -6.197  17.432  69.140  1.00  0.00    -0.228 A  
HETATM    9  C   UNL     1      -5.722  18.121  70.252  1.00  0.00    -0.202 A  
HETATM   10  O   UNL     1      -5.160  17.469  71.308  1.00  0.00    -0.425 OA 
HETATM   11  C   UNL     1      -5.820  19.504  70.322  1.00  0.00    -0.293 A  
HETATM   12  C   UNL     1      -6.431  20.209  69.285  1.00  0.00    -0.335 A  
HETATM   13  H   UNL     1      -4.836  17.940  72.067  1.00  0.00     0.000 HD 
ENDBRANCH   3   6
ENDBRANCH   1   3
BRANCH   1  14
HETATM   14  N   UNL     1      -9.891  20.037  65.963  1.00  0.00    -0.540 NA 
HETATM   15  C   UNL     1     -10.492  18.718  65.883  1.00  0.00    -0.376 C  
HETATM   16  H   UNL     1      -9.220  20.167  65.205  1.00  0.00     0.000 HD 
ENDBRANCH   1  14
TORSDOF 3
ENDMDL
MODEL      122
REMARK 921   NORMALIZED FREE ENERGY PREDICTED BY IDOCK:   -3.45 KCAL/MOL
REMARK 922        TOTAL FREE ENERGY PREDICTED BY IDOCK:   -4.33 KCAL/MOL
REMARK 923 INTER-LIGAND FREE ENERGY PREDICTED BY IDOCK:   -4.38 KCAL/MOL
REMARK 924 INTRA-LIGAND FREE ENERGY PREDICTED BY IDOCK:    0.04 KCAL/MOL
REMARK 927      BINDING AFFINITY PREDICTED BY RF-SCORE:    0.00 PKD
ROOT
HETATM    1  C   UNL     1     -11.343  14.339  66.157  1.00  0.00    -0.342 C  
HETATM    2  C   UNL     1     -11.209  15.133  64.849  1.00  0.00    -0.424 C  
ENDROOT
BRANCH   1   3
HETATM    3  C   UNL     1     -11.859  12.886  65.907  1.00  0.00    -0.424 C  
HETATM    4  O   UNL     1     -12.188  12.255  67.156  1.00  0.00    -0.506 OA 
HETATM    5  H   UNL     1     -12.500  11.371  67.004  1.00  0.00     0.000 HD 
BRANCH   3   6
HETATM    6  C   UNL     1     -10.935  11.995  65.090  1.00  0.00    -0.359 A  
HETATM    7  C   UNL     1     -10.121  11.051  65.737  1.00  0.00    -0.305 A  
HETATM    8  C   UNL     1      -9.198  10.289  65.014  1.00  0.00    -0.259 A  
HETATM    9  C   UNL     1      -9.097  10.459  63.637  1.00  0.00    -0.253 A  
HETATM   10  O   UNL     1      -8.182   9.768  62.900  1.00  0.00    -0.135 OA 
HETATM   11  C   UNL     1      -9.923  11.353  62.971  1.00  0.00    -0.354 A  
HETATM   12  C   UNL     1     -10.842  12.116  63.693  1.00  0.00    -0.523 A  
HETATM   13  H   UNL     1      -8.112   9.885  61.959  1.00  0.00     0.000 HD 
ENDBRANCH   3   6
ENDBRANCH   1   3
BRANCH   1  14
HETATM   14  N   UNL     1     -10.044  14.237  66.864  1.00  0.00    -0.260 NA 
HETATM   15  C   UNL     1      -9.300  15.480  66.947  1.00  0.00    -0.233 C  
HETATM   16  H   UNL     1      -9.468  13.507  66.443  1.00  0.00     0.000 HD 
ENDBRANCH   1  14
TORSDOF 3
ENDMDL
MODEL      123
REMARK 921   NORMALIZED FREE ENERGY PREDICTED BY IDOCK:   -3.45 KCAL/MOL
REMARK 922        TOTAL FREE ENERGY PREDICTED BY IDOCK:   -4.33 KCAL/MOL
REMARK 923 INTER-LIGAND FREE ENERGY PREDICTED BY IDOCK:   -4.25 KCAL/MOL
REMARK 924 INTRA-LIGAND FREE ENERGY PREDICTED BY IDOCK:   -0.08 KCAL/MOL
REMARK 927      BINDING AFFINITY PREDICTED BY RF-SCORE:    0.00 PKD
ROOT
HETATM    1  C   UNL     1     -11.425  11.559  67.053  1.00  0.00    -0.214 C  
HETATM    2  C   UNL     1     -10.197  11.238  66.188  1.00  0.00    -0.291 C  
ENDROOT
BRANCH   1   3
HETATM    3  C   UNL     1     -11.019  12.085  68.468  1.00  0.00    -0.240 C  
HETATM    4  O   UNL     1     -11.877  11.517  69.472  1.00  0.00    -0.298 OA 
HETATM    5  H   UNL     1     -11.631  11.837  70.332  1.00  0.00     0.000 HD 
BRANCH   3   6
HETATM    6  C   UNL     1     -10.961  13.597  68.613  1.00  0.00    -0.290 A  
HETATM    7  C   UNL     1      -9.864  14.307  68.099  1.00  0.00    -0.226 A  
HETATM    8  C   UNL     1      -9.745  15.686  68.303  1.00  0.00    -0.201 A  
HETATM    9  C   UNL     1     -10.733  16.361  69.011  1.00  0.00    -0.322 A  
HETATM   10  O   UNL     1     -10.637  17.696  69.271  1.00  0.00    -0.410 OA 
HETATM   11  C   UNL     1     -11.850  15.688  69.488  1.00  0.00    -0.387 A  
HETATM   12  C   UNL     1     -11.966  14.312  69.287  1.00  0.00    -0.375 A  
HETATM   13  H   UNL     1     -11.313  18.158  69.755  1.00  0.00     0.000 HD 
ENDBRANCH   3   6
ENDBRANCH   1   3
BRANCH   1  14
HETATM   14  N   UNL     1     -12.277  12.594  66.421  1.00  0.00    -0.543 NA 
HETATM   15  C   UNL     1     -12.387  12.489  64.977  1.00  0.00    -0.453 C  
HETATM   16  H   UNL     1     -11.958  13.527  66.685  1.00  0.00     0.000 HD 
ENDBRANCH   1  14
TORSDOF 3
ENDMDL
MODEL      124
REMARK 921   NORMALIZED FREE ENERGY PREDICTED BY IDOCK:   -3.44 KCAL/MOL
REMARK 922        TOTAL FREE ENERGY PREDICTED BY IDOCK:   -4.33 KCAL/MOL
REMARK 923 INTER-LIGAND FREE ENERGY PREDICTED BY IDOCK:   -4.31 KCAL/MOL
REMARK 924 INTRA-LIGAND FREE ENERGY PREDICTED BY IDOCK:   -0.02 KCAL/MOL
REMARK 927      BINDING AFFINITY PREDICTED BY RF-SCORE:    0.00 PKD
ROOT
HETATM    1  C   UNL     1      -8.326  14.340  66.902  1.00  0.00    -0.054 C  
HETATM    2  C   UNL     1      -8.093  15.843  66.688  1.00  0.00    -0.298 C  
ENDROOT
BRANCH   1   3
HETATM    3  C   UNL     1      -8.596  14.000  68.403  1.00  0.00    -0.174 C  
HETATM    4  O   UNL     1      -8.391  12.597  68.638  1.00  0.00    -0.314 OA 
HETATM    5  H   UNL     1      -8.556  12.390  69.550  1.00  0.00     0.000 HD 
BRANCH   3   6
HETATM    6  C   UNL     1      -9.951  14.436  68.939  1.00  0.00    -0.183 A  
HETATM    7  C   UNL     1     -10.103  15.715  69.497  1.00  0.00    -0.277 A  
HETATM    8  C   UNL     1     -11.315  16.101  70.080  1.00  0.00    -0.332 A  
HETATM    9  C   UNL     1     -12.383  15.211  70.094  1.00  0.00    -0.341 A  
HETATM   10  O   UNL     1     -13.567  15.529  70.689  1.00  0.00    -0.826 OA 
HETATM   11  C   UNL     1     -12.269  13.958  69.508  1.00  0.00    -0.356 A  
HETATM   12  C   UNL     1     -11.059  13.572  68.929  1.00  0.00    -0.305 A  
HETATM   13  H   UNL     1     -14.298  14.921  70.699  1.00  0.00     0.000 HD 
ENDBRANCH   3   6
ENDBRANCH   1   3
BRANCH   1  14
HETATM   14  N   UNL     1      -9.487  13.855  66.119  1.00  0.00    -0.472 NA 
HETATM   15  C   UNL     1     -10.202  14.889  65.392  1.00  0.00    -0.379 C  
HETATM   16  H   UNL     1     -10.129  13.337  66.720  1.00  0.00     0.000 HD 
ENDBRANCH   1  14
TORSDOF 3
ENDMDL
MODEL      125
REMARK 921   NORMALIZED FREE ENERGY PREDICTED BY IDOCK:   -3.44 KCAL/MOL
REMARK 922        TOTAL FREE ENERGY PREDICTED BY IDOCK:   -4.33 KCAL/MOL
REMARK 923 INTER-LIGAND FREE ENERGY PREDICTED BY IDOCK:   -4.06 KCAL/MOL
REMARK 924 INTRA-LIGAND FREE ENERGY PREDICTED BY IDOCK:   -0.27 KCAL/MOL
REMARK 927      BINDING AFFINITY PREDICTED BY RF-SCORE:    0.00 PKD
ROOT
HETATM    1  C   UNL     1     -11.907   9.587  71.216  1.00  0.00    -0.373 C  
HETATM    2  C   UNL     1     -13.189  10.106  71.883  1.00  0.00    -0.557 C  
ENDROOT
BRANCH   1   3
HETATM    3  C   UNL     1     -11.591   8.113  71.628  1.00  0.00    -0.279 C  
HETATM    4  O   UNL     1     -12.724   7.532  72.295  1.00  0.00    -0.494 OA 
HETATM    5  H   UNL     1     -12.532   6.636  72.546  1.00  0.00     0.000 HD 
BRANCH   3   6
HETATM    6  C   UNL     1     -10.331   7.921  72.457  1.00  0.00    -0.349 A  
HETATM    7  C   UNL     1      -9.110   8.450  72.007  1.00  0.00    -0.296 A  
HETATM    8  C   UNL     1      -7.924   8.204  72.707  1.00  0.00    -0.209 A  
HETATM    9  C   UNL     1      -7.958   7.439  73.868  1.00  0.00    -0.131 A  
HETATM   10  O   UNL     1      -6.821   7.139  74.557  1.00  0.00    -0.092 OA 
HETATM   11  C   UNL     1      -9.160   6.945  74.356  1.00  0.00    -0.237 A  
HETATM   12  C   UNL     1     -10.343   7.188  73.656  1.00  0.00    -0.411 A  
HETATM   13  H   UNL     1      -6.844   6.617  75.350  1.00  0.00     0.000 HD 
ENDBRANCH   3   6
ENDBRANCH   1   3
BRANCH   1  14
HETATM   14  N   UNL     1     -12.013   9.623  69.738  1.00  0.00    -0.411 NA 
HETATM   15  C   UNL     1     -10.774   9.937  69.049  1.00  0.00    -0.222 C  
HETATM   16  H   UNL     1     -12.750  10.267  69.451  1.00  0.00     0.000 HD 
ENDBRANCH   1  14
TORSDOF 3
ENDMDL
MODEL      126
REMARK 921   NORMALIZED FREE ENERGY PREDICTED BY IDOCK:   -3.44 KCAL/MOL
REMARK 922        TOTAL FREE ENERGY PREDICTED BY IDOCK:   -4.32 KCAL/MOL
REMARK 923 INTER-LIGAND FREE ENERGY PREDICTED BY IDOCK:   -4.07 KCAL/MOL
REMARK 924 INTRA-LIGAND FREE ENERGY PREDICTED BY IDOCK:   -0.25 KCAL/MOL
REMARK 927      BINDING AFFINITY PREDICTED BY RF-SCORE:    0.00 PKD
ROOT
HETATM    1  C   UNL     1     -10.553   8.225  70.027  1.00  0.00    -0.235 C  
HETATM    2  C   UNL     1     -10.038   8.802  71.354  1.00  0.00    -0.354 C  
ENDROOT
BRANCH   1   3
HETATM    3  C   UNL     1     -11.522   7.021  70.253  1.00  0.00    -0.287 C  
HETATM    4  O   UNL     1     -12.799   7.492  70.717  1.00  0.00    -0.570 OA 
HETATM    5  H   UNL     1     -13.388   6.760  70.854  1.00  0.00     0.000 HD 
BRANCH   3   6
HETATM    6  C   UNL     1     -11.000   5.921  71.164  1.00  0.00    -0.327 A  
HETATM    7  C   UNL     1     -10.037   5.017  70.686  1.00  0.00    -0.313 A  
HETATM    8  C   UNL     1      -9.612   3.943  71.475  1.00  0.00    -0.236 A  
HETATM    9  C   UNL     1     -10.140   3.778  72.751  1.00  0.00    -0.162 A  
HETATM   10  O   UNL     1      -9.788   2.722  73.537  1.00  0.00    -0.097 OA 
HETATM   11  C   UNL     1     -11.059   4.685  73.260  1.00  0.00    -0.403 A  
HETATM   12  C   UNL     1     -11.485   5.755  72.472  1.00  0.00    -0.349 A  
HETATM   13  H   UNL     1     -10.149   2.609  74.409  1.00  0.00     0.000 HD 
ENDBRANCH   3   6
ENDBRANCH   1   3
BRANCH   1  14
HETATM   14  N   UNL     1     -11.286   9.246  69.241  1.00  0.00    -0.441 NA 
HETATM   15  C   UNL     1     -11.117  10.609  69.712  1.00  0.00    -0.295 C  
HETATM   16  H   UNL     1     -12.277   9.009  69.188  1.00  0.00     0.000 HD 
ENDBRANCH   1  14
TORSDOF 3
ENDMDL
MODEL      127
REMARK 921   NORMALIZED FREE ENERGY PREDICTED BY IDOCK:   -3.43 KCAL/MOL
REMARK 922        TOTAL FREE ENERGY PREDICTED BY IDOCK:   -4.32 KCAL/MOL
REMARK 923 INTER-LIGAND FREE ENERGY PREDICTED BY IDOCK:   -4.05 KCAL/MOL
REMARK 924 INTRA-LIGAND FREE ENERGY PREDICTED BY IDOCK:   -0.27 KCAL/MOL
REMARK 927      BINDING AFFINITY PREDICTED BY RF-SCORE:    0.00 PKD
ROOT
HETATM    1  C   UNL     1     -10.388   5.080  71.183  1.00  0.00    -0.184 C  
HETATM    2  C   UNL     1      -9.375   5.751  72.121  1.00  0.00    -0.157 C  
ENDROOT
BRANCH   1   3
HETATM    3  C   UNL     1     -10.937   6.074  70.110  1.00  0.00    -0.359 C  
HETATM    4  O   UNL     1      -9.885   6.465  69.212  1.00  0.00    -0.145 OA 
HETATM    5  H   UNL     1     -10.219   7.070  68.560  1.00  0.00     0.000 HD 
BRANCH   3   6
HETATM    6  C   UNL     1     -11.650   7.301  70.658  1.00  0.00    -0.322 A  
HETATM    7  C   UNL     1     -11.064   8.570  70.521  1.00  0.00    -0.265 A  
HETATM    8  C   UNL     1     -11.657   9.697  71.099  1.00  0.00    -0.456 A  
HETATM    9  C   UNL     1     -12.848   9.559  71.805  1.00  0.00    -0.406 A  
HETATM   10  O   UNL     1     -13.437  10.623  72.421  1.00  0.00    -0.603 OA 
HETATM   11  C   UNL     1     -13.468   8.323  71.914  1.00  0.00    -0.372 A  
HETATM   12  C   UNL     1     -12.875   7.198  71.339  1.00  0.00    -0.431 A  
HETATM   13  H   UNL     1     -14.251  10.529  72.903  1.00  0.00     0.000 HD 
ENDBRANCH   3   6
ENDBRANCH   1   3
BRANCH   1  14
HETATM   14  N   UNL     1      -9.782   3.935  70.461  1.00  0.00    -0.192 NA 
HETATM   15  C   UNL     1      -9.644   2.726  71.252  1.00  0.00    -0.157 C  
HETATM   16  H   UNL     1      -8.882   4.203  70.064  1.00  0.00     0.000 HD 
ENDBRANCH   1  14
TORSDOF 3
ENDMDL
MODEL      128
REMARK 921   NORMALIZED FREE ENERGY PREDICTED BY IDOCK:   -3.43 KCAL/MOL
REMARK 922        TOTAL FREE ENERGY PREDICTED BY IDOCK:   -4.31 KCAL/MOL
REMARK 923 INTER-LIGAND FREE ENERGY PREDICTED BY IDOCK:   -4.09 KCAL/MOL
REMARK 924 INTRA-LIGAND FREE ENERGY PREDICTED BY IDOCK:   -0.22 KCAL/MOL
REMARK 927      BINDING AFFINITY PREDICTED BY RF-SCORE:    0.00 PKD
ROOT
HETATM    1  C   UNL     1     -10.904  16.762  67.748  1.00  0.00    -0.285 C  
HETATM    2  C   UNL     1     -10.492  18.242  67.761  1.00  0.00    -0.430 C  
ENDROOT
BRANCH   1   3
HETATM    3  C   UNL     1     -10.167  15.962  66.627  1.00  0.00    -0.288 C  
HETATM    4  O   UNL     1     -10.543  16.462  65.333  1.00  0.00    -0.480 OA 
HETATM    5  H   UNL     1     -10.096  15.975  64.651  1.00  0.00     0.000 HD 
BRANCH   3   6
HETATM    6  C   UNL     1     -10.335  14.451  66.682  1.00  0.00    -0.275 A  
HETATM    7  C   UNL     1      -9.215  13.631  66.895  1.00  0.00    -0.257 A  
HETATM    8  C   UNL     1      -9.333  12.238  66.856  1.00  0.00    -0.210 A  
HETATM    9  C   UNL     1     -10.576  11.661  66.618  1.00  0.00    -0.243 A  
HETATM   10  O   UNL     1     -10.728  10.309  66.529  1.00  0.00    -0.176 OA 
HETATM   11  C   UNL     1     -11.704  12.452  66.451  1.00  0.00    -0.453 A  
HETATM   12  C   UNL     1     -11.586  13.842  66.487  1.00  0.00    -0.386 A  
HETATM   13  H   UNL     1     -11.577   9.915  66.367  1.00  0.00     0.000 HD 
ENDBRANCH   3   6
ENDBRANCH   1   3
BRANCH   1  14
HETATM   14  N   UNL     1     -10.598  16.104  69.041  1.00  0.00    -0.253 NA 
HETATM   15  C   UNL     1     -11.758  15.829  69.870  1.00  0.00    -0.357 C  
HETATM   16  H   UNL     1      -9.910  16.648  69.562  1.00  0.00     0.000 HD 
ENDBRANCH   1  14
TORSDOF 3
ENDMDL
MODEL      129
REMARK 921   NORMALIZED FREE ENERGY PREDICTED BY IDOCK:   -3.42 KCAL/MOL
REMARK 922        TOTAL FREE ENERGY PREDICTED BY IDOCK:   -4.29 KCAL/MOL
REMARK 923 INTER-LIGAND FREE ENERGY PREDICTED BY IDOCK:   -4.02 KCAL/MOL
REMARK 924 INTRA-LIGAND FREE ENERGY PREDICTED BY IDOCK:   -0.27 KCAL/MOL
REMARK 927      BINDING AFFINITY PREDICTED BY RF-SCORE:    0.00 PKD
ROOT
HETATM    1  C   UNL     1     -10.183   7.833  72.919  1.00  0.00    -0.315 C  
HETATM    2  C   UNL     1      -8.841   7.638  73.640  1.00  0.00    -0.295 C  
ENDROOT
BRANCH   1   3
HETATM    3  C   UNL     1     -10.007   7.904  71.368  1.00  0.00    -0.172 C  
HETATM    4  O   UNL     1      -8.643   7.625  71.012  1.00  0.00    -0.128 OA 
HETATM    5  H   UNL     1      -8.536   7.668  70.069  1.00  0.00     0.000 HD 
BRANCH   3   6
HETATM    6  C   UNL     1     -10.473   9.195  70.714  1.00  0.00    -0.322 A  
HETATM    7  C   UNL     1     -11.616   9.851  71.200  1.00  0.00    -0.468 A  
HETATM    8  C   UNL     1     -12.115  10.988  70.555  1.00  0.00    -0.470 A  
HETATM    9  C   UNL     1     -11.463  11.479  69.429  1.00  0.00    -0.309 A  
HETATM   10  O   UNL     1     -11.939  12.558  68.744  1.00  0.00    -0.310 OA 
HETATM   11  C   UNL     1     -10.306  10.873  68.959  1.00  0.00    -0.230 A  
HETATM   12  C   UNL     1      -9.810   9.738  69.601  1.00  0.00    -0.241 A  
HETATM   13  H   UNL     1     -11.493  12.894  67.975  1.00  0.00     0.000 HD 
ENDBRANCH   3   6
ENDBRANCH   1   3
BRANCH   1  14
HETATM   14  N   UNL     1     -11.122   6.723  73.211  1.00  0.00    -0.503 NA 
HETATM   15  C   UNL     1     -11.363   5.826  72.096  1.00  0.00    -0.258 C  
HETATM   16  H   UNL     1     -12.004   7.090  73.569  1.00  0.00     0.000 HD 
ENDBRANCH   1  14
TORSDOF 3
ENDMDL
MODEL      130
REMARK 921   NORMALIZED FREE ENERGY PREDICTED BY IDOCK:   -3.38 KCAL/MOL
REMARK 922        TOTAL FREE ENERGY PREDICTED BY IDOCK:   -4.25 KCAL/MOL
REMARK 923 INTER-LIGAND FREE ENERGY PREDICTED BY IDOCK:   -4.39 KCAL/MOL
REMARK 924 INTRA-LIGAND FREE ENERGY PREDICTED BY IDOCK:    0.14 KCAL/MOL
REMARK 927      BINDING AFFINITY PREDICTED BY RF-SCORE:    0.00 PKD
ROOT
HETATM    1  C   UNL     1     -12.369   7.993  71.458  1.00  0.00    -0.308 C  
HETATM    2  C   UNL     1     -13.205   8.956  72.314  1.00  0.00    -0.498 C  
ENDROOT
BRANCH   1   3
HETATM    3  C   UNL     1     -11.057   8.664  70.940  1.00  0.00    -0.264 C  
HETATM    4  O   UNL     1     -10.228   9.051  72.049  1.00  0.00    -0.339 OA 
HETATM    5  H   UNL     1      -9.430   9.459  71.734  1.00  0.00     0.000 HD 
BRANCH   3   6
HETATM    6  C   UNL     1     -11.251   9.833  69.988  1.00  0.00    -0.297 A  
HETATM    7  C   UNL     1     -10.872   9.709  68.641  1.00  0.00    -0.203 A  
HETATM    8  C   UNL     1     -10.955  10.801  67.772  1.00  0.00    -0.354 A  
HETATM    9  C   UNL     1     -11.431  12.019  68.244  1.00  0.00    -0.303 A  
HETATM   10  O   UNL     1     -11.488  13.121  67.444  1.00  0.00    -0.295 OA 
HETATM   11  C   UNL     1     -11.854  12.153  69.560  1.00  0.00    -0.386 A  
HETATM   12  C   UNL     1     -11.768  11.063  70.428  1.00  0.00    -0.437 A  
HETATM   13  H   UNL     1     -11.813  13.954  67.767  1.00  0.00     0.000 HD 
ENDBRANCH   3   6
ENDBRANCH   1   3
BRANCH   1  14
HETATM   14  N   UNL     1     -11.980   6.785  72.224  1.00  0.00    -0.455 NA 
HETATM   15  C   UNL     1     -11.100   5.875  71.515  1.00  0.00    -0.250 C  
HETATM   16  H   UNL     1     -12.811   6.290  72.552  1.00  0.00     0.000 HD 
ENDBRANCH   1  14
TORSDOF 3
ENDMDL
MODEL      131
REMARK 921   NORMALIZED FREE ENERGY PREDICTED BY IDOCK:   -3.34 KCAL/MOL
REMARK 922        TOTAL FREE ENERGY PREDICTED BY IDOCK:   -4.21 KCAL/MOL
REMARK 923 INTER-LIGAND FREE ENERGY PREDICTED BY IDOCK:   -4.22 KCAL/MOL
REMARK 924 INTRA-LIGAND FREE ENERGY PREDICTED BY IDOCK:    0.01 KCAL/MOL
REMARK 927      BINDING AFFINITY PREDICTED BY RF-SCORE:    0.00 PKD
ROOT
HETATM    1  C   UNL     1      -9.652   9.976  68.980  1.00  0.00    -0.196 C  
HETATM    2  C   UNL     1      -9.916   9.413  70.384  1.00  0.00    -0.306 C  
ENDROOT
BRANCH   1   3
HETATM    3  C   UNL     1     -10.977  10.356  68.245  1.00  0.00    -0.270 C  
HETATM    4  O   UNL     1     -10.877  10.039  66.847  1.00  0.00    -0.186 OA 
HETATM    5  H   UNL     1     -11.683  10.270  66.400  1.00  0.00     0.000 HD 
BRANCH   3   6
HETATM    6  C   UNL     1     -11.441  11.792  68.432  1.00  0.00    -0.354 A  
HETATM    7  C   UNL     1     -11.521  12.651  67.323  1.00  0.00    -0.402 A  
HETATM    8  C   UNL     1     -11.855  13.999  67.486  1.00  0.00    -0.442 A  
HETATM    9  C   UNL     1     -12.123  14.490  68.760  1.00  0.00    -0.221 A  
HETATM   10  O   UNL     1     -12.409  15.806  68.970  1.00  0.00    -0.575 OA 
HETATM   11  C   UNL     1     -12.094  13.649  69.864  1.00  0.00    -0.406 A  
HETATM   12  C   UNL     1     -11.758  12.305  69.701  1.00  0.00    -0.386 A  
HETATM   13  H   UNL     1     -12.593  16.142  69.840  1.00  0.00     0.000 HD 
ENDBRANCH   3   6
ENDBRANCH   1   3
BRANCH   1  14
HETATM   14  N   UNL     1      -8.808  11.193  69.035  1.00  0.00    -0.365 NA 
HETATM   15  C   UNL     1      -7.379  10.941  69.002  1.00  0.00    -0.113 C  
HETATM   16  H   UNL     1      -9.049  11.756  69.851  1.00  0.00     0.000 HD 
ENDBRANCH   1  14
TORSDOF 3
ENDMDL
MODEL      132
REMARK 921   NORMALIZED FREE ENERGY PREDICTED BY IDOCK:   -3.33 KCAL/MOL
REMARK 922        TOTAL FREE ENERGY PREDICTED BY IDOCK:   -4.19 KCAL/MOL
REMARK 923 INTER-LIGAND FREE ENERGY PREDICTED BY IDOCK:   -4.07 KCAL/MOL
REMARK 924 INTRA-LIGAND FREE ENERGY PREDICTED BY IDOCK:   -0.12 KCAL/MOL
REMARK 927      BINDING AFFINITY PREDICTED BY RF-SCORE:    0.00 PKD
ROOT
HETATM    1  C   UNL     1      -9.491   7.329  67.584  1.00  0.00    -0.131 C  
HETATM    2  C   UNL     1      -8.400   7.426  68.661  1.00  0.00    -0.129 C  
ENDROOT
BRANCH   1   3
HETATM    3  C   UNL     1     -10.531   6.209  67.908  1.00  0.00    -0.229 C  
HETATM    4  O   UNL     1     -11.751   6.442  67.184  1.00  0.00    -0.602 OA 
HETATM    5  H   UNL     1     -12.383   5.761  67.381  1.00  0.00     0.000 HD 
BRANCH   3   6
HETATM    6  C   UNL     1     -10.823   5.993  69.384  1.00  0.00    -0.433 A  
HETATM    7  C   UNL     1     -11.731   6.835  70.048  1.00  0.00    -0.330 A  
HETATM    8  C   UNL     1     -11.943   6.713  71.425  1.00  0.00    -0.405 A  
HETATM    9  C   UNL     1     -11.257   5.738  72.141  1.00  0.00    -0.269 A  
HETATM   10  O   UNL     1     -11.400   5.612  73.490  1.00  0.00    -0.462 OA 
HETATM   11  C   UNL     1     -10.390   4.865  71.498  1.00  0.00    -0.228 A  
HETATM   12  C   UNL     1     -10.176   4.989  70.124  1.00  0.00    -0.329 A  
HETATM   13  H   UNL     1     -10.931   4.945  73.980  1.00  0.00     0.000 HD 
ENDBRANCH   3   6
ENDBRANCH   1   3
BRANCH   1  14
HETATM   14  N   UNL     1     -10.236   8.604  67.452  1.00  0.00    -0.241 NA 
HETATM   15  C   UNL     1      -9.952   9.348  66.238  1.00  0.00    -0.283 C  
HETATM   16  H   UNL     1     -10.082   9.192  68.272  1.00  0.00     0.000 HD 
ENDBRANCH   1  14
TORSDOF 3
ENDMDL
MODEL      133
REMARK 921   NORMALIZED FREE ENERGY PREDICTED BY IDOCK:   -3.33 KCAL/MOL
REMARK 922        TOTAL FREE ENERGY PREDICTED BY IDOCK:   -4.19 KCAL/MOL
REMARK 923 INTER-LIGAND FREE ENERGY PREDICTED BY IDOCK:   -3.95 KCAL/MOL
REMARK 924 INTRA-LIGAND FREE ENERGY PREDICTED BY IDOCK:   -0.24 KCAL/MOL
REMARK 927      BINDING AFFINITY PREDICTED BY RF-SCORE:    0.00 PKD
ROOT
HETATM    1  C   UNL     1     -11.787  14.477  68.253  1.00  0.00    -0.312 C  
HETATM    2  C   UNL     1     -11.206  15.209  67.035  1.00  0.00    -0.308 C  
ENDROOT
BRANCH   1   3
HETATM    3  C   UNL     1     -10.704  13.629  68.994  1.00  0.00    -0.165 C  
HETATM    4  O   UNL     1      -9.411  14.241  68.851  1.00  0.00    -0.330 OA 
HETATM    5  H   UNL     1      -8.753  13.724  69.301  1.00  0.00     0.000 HD 
BRANCH   3   6
HETATM    6  C   UNL     1     -10.643  12.160  68.604  1.00  0.00    -0.248 A  
HETATM    7  C   UNL     1     -10.203  11.796  67.321  1.00  0.00    -0.226 A  
HETATM    8  C   UNL     1     -10.227  10.459  66.910  1.00  0.00    -0.281 A  
HETATM    9  C   UNL     1     -10.680   9.480  67.788  1.00  0.00    -0.242 A  
HETATM   10  O   UNL     1     -10.762   8.172  67.415  1.00  0.00    -0.434 OA 
HETATM   11  C   UNL     1     -11.077   9.812  69.076  1.00  0.00    -0.143 A  
HETATM   12  C   UNL     1     -11.055  11.146  69.485  1.00  0.00    -0.311 A  
HETATM   13  H   UNL     1     -11.071   7.502  68.015  1.00  0.00     0.000 HD 
ENDBRANCH   3   6
ENDBRANCH   1   3
BRANCH   1  14
HETATM   14  N   UNL     1     -12.356  15.430  69.237  1.00  0.00    -0.606 NA 
HETATM   15  C   UNL     1     -12.716  14.839  70.513  1.00  0.00    -0.343 C  
HETATM   16  H   UNL     1     -13.156  15.919  68.834  1.00  0.00     0.000 HD 
ENDBRANCH   1  14
TORSDOF 3
ENDMDL
MODEL      134
REMARK 921   NORMALIZED FREE ENERGY PREDICTED BY IDOCK:   -3.31 KCAL/MOL
REMARK 922        TOTAL FREE ENERGY PREDICTED BY IDOCK:   -4.17 KCAL/MOL
REMARK 923 INTER-LIGAND FREE ENERGY PREDICTED BY IDOCK:   -3.90 KCAL/MOL
REMARK 924 INTRA-LIGAND FREE ENERGY PREDICTED BY IDOCK:   -0.26 KCAL/MOL
REMARK 927      BINDING AFFINITY PREDICTED BY RF-SCORE:    0.00 PKD
ROOT
HETATM    1  C   UNL     1      -8.864   9.547  64.599  1.00  0.00    -0.213 C  
HETATM    2  C   UNL     1      -7.487  10.169  64.872  1.00  0.00    -0.137 C  
ENDROOT
BRANCH   1   3
HETATM    3  C   UNL     1     -10.018  10.584  64.780  1.00  0.00    -0.345 C  
HETATM    4  O   UNL     1      -9.646  11.846  64.201  1.00  0.00    -0.447 OA 
HETATM    5  H   UNL     1     -10.348  12.477  64.311  1.00  0.00     0.000 HD 
BRANCH   3   6
HETATM    6  C   UNL     1     -10.507  10.779  66.207  1.00  0.00    -0.287 A  
HETATM    7  C   UNL     1     -10.390   9.731  67.135  1.00  0.00    -0.311 A  
HETATM    8  C   UNL     1     -10.917   9.856  68.424  1.00  0.00    -0.235 A  
HETATM    9  C   UNL     1     -11.552  11.037  68.794  1.00  0.00    -0.318 A  
HETATM   10  O   UNL     1     -12.118  11.187  70.025  1.00  0.00    -0.309 OA 
HETATM   11  C   UNL     1     -11.638  12.103  67.908  1.00  0.00    -0.413 A  
HETATM   12  C   UNL     1     -11.115  11.976  66.620  1.00  0.00    -0.358 A  
HETATM   13  H   UNL     1     -12.551  11.994  70.278  1.00  0.00     0.000 HD 
ENDBRANCH   3   6
ENDBRANCH   1   3
BRANCH   1  14
HETATM   14  N   UNL     1      -8.954   9.015  63.219  1.00  0.00    -0.416 NA 
HETATM   15  C   UNL     1      -7.858   9.401  62.348  1.00  0.00    -0.115 C  
HETATM   16  H   UNL     1      -9.848   9.272  62.797  1.00  0.00     0.000 HD 
ENDBRANCH   1  14
TORSDOF 3
ENDMDL
MODEL      135
REMARK 921   NORMALIZED FREE ENERGY PREDICTED BY IDOCK:   -3.28 KCAL/MOL
REMARK 922        TOTAL FREE ENERGY PREDICTED BY IDOCK:   -4.14 KCAL/MOL
REMARK 923 INTER-LIGAND FREE ENERGY PREDICTED BY IDOCK:   -3.89 KCAL/MOL
REMARK 924 INTRA-LIGAND FREE ENERGY PREDICTED BY IDOCK:   -0.24 KCAL/MOL
REMARK 927      BINDING AFFINITY PREDICTED BY RF-SCORE:    0.00 PKD
ROOT
HETATM    1  C   UNL     1     -11.166  13.616  67.361  1.00  0.00    -0.302 C  
HETATM    2  C   UNL     1     -12.294  14.128  66.453  1.00  0.00    -0.431 C  
ENDROOT
BRANCH   1   3
HETATM    3  C   UNL     1      -9.858  13.326  66.558  1.00  0.00    -0.281 C  
HETATM    4  O   UNL     1      -9.780  14.187  65.409  1.00  0.00    -0.538 OA 
HETATM    5  H   UNL     1      -8.985  14.010  64.921  1.00  0.00     0.000 HD 
BRANCH   3   6
HETATM    6  C   UNL     1      -9.648  11.876  66.149  1.00  0.00    -0.250 A  
HETATM    7  C   UNL     1      -9.129  10.957  67.075  1.00  0.00    -0.158 A  
HETATM    8  C   UNL     1      -8.842   9.643  66.693  1.00  0.00    -0.153 A  
HETATM    9  C   UNL     1      -9.086   9.240  65.385  1.00  0.00    -0.222 A  
HETATM   10  O   UNL     1      -8.781   7.982  64.958  1.00  0.00    -0.360 OA 
HETATM   11  C   UNL     1      -9.641  10.119  64.465  1.00  0.00    -0.376 A  
HETATM   12  C   UNL     1      -9.925  11.431  64.846  1.00  0.00    -0.311 A  
HETATM   13  H   UNL     1      -8.948   7.707  64.063  1.00  0.00     0.000 HD 
ENDBRANCH   3   6
ENDBRANCH   1   3
BRANCH   1  14
HETATM   14  N   UNL     1     -10.831  14.602  68.417  1.00  0.00    -0.239 NA 
HETATM   15  C   UNL     1     -11.559  15.855  68.327  1.00  0.00    -0.272 C  
HETATM   16  H   UNL     1      -9.826  14.776  68.433  1.00  0.00     0.000 HD 
ENDBRANCH   1  14
TORSDOF 3
ENDMDL
MODEL      136
REMARK 921   NORMALIZED FREE ENERGY PREDICTED BY IDOCK:   -3.28 KCAL/MOL
REMARK 922        TOTAL FREE ENERGY PREDICTED BY IDOCK:   -4.13 KCAL/MOL
REMARK 923 INTER-LIGAND FREE ENERGY PREDICTED BY IDOCK:   -3.88 KCAL/MOL
REMARK 924 INTRA-LIGAND FREE ENERGY PREDICTED BY IDOCK:   -0.25 KCAL/MOL
REMARK 927      BINDING AFFINITY PREDICTED BY RF-SCORE:    0.00 PKD
ROOT
HETATM    1  C   UNL     1      -9.569  10.166  68.008  1.00  0.00    -0.145 C  
HETATM    2  C   UNL     1      -8.308  10.570  67.228  1.00  0.00    -0.122 C  
ENDROOT
BRANCH   1   3
HETATM    3  C   UNL     1     -10.850  10.861  67.445  1.00  0.00    -0.279 C  
HETATM    4  O   UNL     1     -10.691  11.130  66.042  1.00  0.00    -0.259 OA 
HETATM    5  H   UNL     1     -11.470  11.553  65.700  1.00  0.00     0.000 HD 
BRANCH   3   6
HETATM    6  C   UNL     1     -11.290  12.118  68.180  1.00  0.00    -0.349 A  
HETATM    7  C   UNL     1     -11.696  12.036  69.522  1.00  0.00    -0.408 A  
HETATM    8  C   UNL     1     -12.193  13.162  70.187  1.00  0.00    -0.360 A  
HETATM    9  C   UNL     1     -12.271  14.377  69.515  1.00  0.00    -0.282 A  
HETATM   10  O   UNL     1     -12.788  15.489  70.111  1.00  0.00    -0.617 OA 
HETATM   11  C   UNL     1     -11.832  14.491  68.203  1.00  0.00    -0.348 A  
HETATM   12  C   UNL     1     -11.339  13.367  67.539  1.00  0.00    -0.327 A  
HETATM   13  H   UNL     1     -12.841  16.319  69.652  1.00  0.00     0.000 HD 
ENDBRANCH   3   6
ENDBRANCH   1   3
BRANCH   1  14
HETATM   14  N   UNL     1      -9.795   8.702  67.952  1.00  0.00    -0.166 NA 
HETATM   15  C   UNL     1     -10.229   8.108  69.203  1.00  0.00    -0.214 C  
HETATM   16  H   UNL     1      -8.960   8.227  67.606  1.00  0.00     0.000 HD 
ENDBRANCH   1  14
TORSDOF 3
ENDMDL
MODEL      137
REMARK 921   NORMALIZED FREE ENERGY PREDICTED BY IDOCK:   -3.26 KCAL/MOL
REMARK 922        TOTAL FREE ENERGY PREDICTED BY IDOCK:   -4.12 KCAL/MOL
REMARK 923 INTER-LIGAND FREE ENERGY PREDICTED BY IDOCK:   -4.03 KCAL/MOL
REMARK 924 INTRA-LIGAND FREE ENERGY PREDICTED BY IDOCK:   -0.08 KCAL/MOL
REMARK 927      BINDING AFFINITY PREDICTED BY RF-SCORE:    0.00 PKD
ROOT
HETATM    1  C   UNL     1     -10.192   7.235  68.195  1.00  0.00    -0.187 C  
HETATM    2  C   UNL     1     -11.024   6.770  66.991  1.00  0.00    -0.439 C  
ENDROOT
BRANCH   1   3
HETATM    3  C   UNL     1      -9.328   8.492  67.857  1.00  0.00    -0.135 C  
HETATM    4  O   UNL     1      -8.698   8.995  69.047  1.00  0.00    -0.134 OA 
HETATM    5  H   UNL     1      -8.173   9.759  68.841  1.00  0.00     0.000 HD 
BRANCH   3   6
HETATM    6  C   UNL     1     -10.057   9.610  67.128  1.00  0.00    -0.276 A  
HETATM    7  C   UNL     1      -9.884   9.772  65.744  1.00  0.00    -0.360 A  
HETATM    8  C   UNL     1     -10.470  10.850  65.072  1.00  0.00    -0.331 A  
HETATM    9  C   UNL     1     -11.244  11.762  65.782  1.00  0.00    -0.281 A  
HETATM   10  O   UNL     1     -11.798  12.850  65.176  1.00  0.00    -0.338 OA 
HETATM   11  C   UNL     1     -11.466  11.596  67.142  1.00  0.00    -0.344 A  
HETATM   12  C   UNL     1     -10.878  10.522  67.813  1.00  0.00    -0.347 A  
HETATM   13  H   UNL     1     -12.326  13.473  65.661  1.00  0.00     0.000 HD 
ENDBRANCH   3   6
ENDBRANCH   1   3
BRANCH   1  14
HETATM   14  N   UNL     1     -11.057   7.585  69.347  1.00  0.00    -0.443 NA 
HETATM   15  C   UNL     1     -11.414   6.465  70.199  1.00  0.00    -0.417 C  
HETATM   16  H   UNL     1     -11.897   8.068  69.026  1.00  0.00     0.000 HD 
ENDBRANCH   1  14
TORSDOF 3
ENDMDL
MODEL      138
REMARK 921   NORMALIZED FREE ENERGY PREDICTED BY IDOCK:   -3.26 KCAL/MOL
REMARK 922        TOTAL FREE ENERGY PREDICTED BY IDOCK:   -4.11 KCAL/MOL
REMARK 923 INTER-LIGAND FREE ENERGY PREDICTED BY IDOCK:   -4.01 KCAL/MOL
REMARK 924 INTRA-LIGAND FREE ENERGY PREDICTED BY IDOCK:   -0.10 KCAL/MOL
REMARK 927      BINDING AFFINITY PREDICTED BY RF-SCORE:    0.00 PKD
ROOT
HETATM    1  C   UNL     1     -11.297  15.512  65.124  1.00  0.00    -0.241 C  
HETATM    2  C   UNL     1     -12.356  14.802  64.267  1.00  0.00    -0.345 C  
ENDROOT
BRANCH   1   3
HETATM    3  C   UNL     1      -9.919  14.778  65.073  1.00  0.00    -0.169 C  
HETATM    4  O   UNL     1     -10.066  13.489  64.455  1.00  0.00    -0.610 OA 
HETATM    5  H   UNL     1      -9.228  13.043  64.425  1.00  0.00     0.000 HD 
BRANCH   3   6
HETATM    6  C   UNL     1      -9.196  14.649  66.405  1.00  0.00    -0.280 A  
HETATM    7  C   UNL     1      -8.253  15.618  66.786  1.00  0.00    -0.300 A  
HETATM    8  C   UNL     1      -7.510  15.469  67.962  1.00  0.00    -0.136 A  
HETATM    9  C   UNL     1      -7.719  14.356  68.769  1.00  0.00    -0.139 A  
HETATM   10  O   UNL     1      -6.988  14.148  69.900  1.00  0.00    -0.340 OA 
HETATM   11  C   UNL     1      -8.679  13.409  68.435  1.00  0.00    -0.134 A  
HETATM   12  C   UNL     1      -9.418  13.557  67.261  1.00  0.00    -0.230 A  
HETATM   13  H   UNL     1      -7.131  13.387  70.452  1.00  0.00     0.000 HD 
ENDBRANCH   3   6
ENDBRANCH   1   3
BRANCH   1  14
HETATM   14  N   UNL     1     -11.078  16.906  64.670  1.00  0.00    -0.990 NA 
HETATM   15  C   UNL     1     -10.679  17.828  65.718  1.00  0.00    -0.098 C  
HETATM   16  H   UNL     1     -11.905  17.256  64.186  1.00  0.00     0.000 HD 
ENDBRANCH   1  14
TORSDOF 3
ENDMDL
MODEL      139
REMARK 921   NORMALIZED FREE ENERGY PREDICTED BY IDOCK:   -3.24 KCAL/MOL
REMARK 922        TOTAL FREE ENERGY PREDICTED BY IDOCK:   -4.09 KCAL/MOL
REMARK 923 INTER-LIGAND FREE ENERGY PREDICTED BY IDOCK:   -3.83 KCAL/MOL
REMARK 924 INTRA-LIGAND FREE ENERGY PREDICTED BY IDOCK:   -0.25 KCAL/MOL
REMARK 927      BINDING AFFINITY PREDICTED BY RF-SCORE:    0.00 PKD
ROOT
HETATM    1  C   UNL     1     -11.335   9.012  71.134  1.00  0.00    -0.307 C  
HETATM    2  C   UNL     1     -11.660   7.973  72.217  1.00  0.00    -0.424 C  
ENDROOT
BRANCH   1   3
HETATM    3  C   UNL     1     -10.611   8.368  69.908  1.00  0.00    -0.228 C  
HETATM    4  O   UNL     1      -9.534   7.527  70.354  1.00  0.00    -0.161 OA 
HETATM    5  H   UNL     1      -9.093   7.136  69.609  1.00  0.00     0.000 HD 
BRANCH   3   6
HETATM    6  C   UNL     1     -10.120   9.344  68.850  1.00  0.00    -0.201 A  
HETATM    7  C   UNL     1      -9.302  10.424  69.221  1.00  0.00    -0.202 A  
HETATM    8  C   UNL     1      -8.917  11.385  68.281  1.00  0.00    -0.175 A  
HETATM    9  C   UNL     1      -9.338  11.260  66.961  1.00  0.00    -0.172 A  
HETATM   10  O   UNL     1      -9.023  12.196  66.022  1.00  0.00    -0.395 OA 
HETATM   11  C   UNL     1     -10.109  10.177  66.563  1.00  0.00    -0.296 A  
HETATM   12  C   UNL     1     -10.496   9.220  67.502  1.00  0.00    -0.338 A  
HETATM   13  H   UNL     1      -9.311  12.111  65.120  1.00  0.00     0.000 HD 
ENDBRANCH   3   6
ENDBRANCH   1   3
BRANCH   1  14
HETATM   14  N   UNL     1     -12.563   9.672  70.630  1.00  0.00    -0.507 NA 
HETATM   15  C   UNL     1     -12.839  10.969  71.220  1.00  0.00    -0.425 C  
HETATM   16  H   UNL     1     -13.368   9.054  70.739  1.00  0.00     0.000 HD 
ENDBRANCH   1  14
TORSDOF 3
ENDMDL
MODEL      140
REMARK 921   NORMALIZED FREE ENERGY PREDICTED BY IDOCK:   -3.24 KCAL/MOL
REMARK 922        TOTAL FREE ENERGY PREDICTED BY IDOCK:   -4.08 KCAL/MOL
REMARK 923 INTER-LIGAND FREE ENERGY PREDICTED BY IDOCK:   -4.75 KCAL/MOL
REMARK 924 INTRA-LIGAND FREE ENERGY PREDICTED BY IDOCK:    0.67 KCAL/MOL
REMARK 927      BINDING AFFINITY PREDICTED BY RF-SCORE:    0.00 PKD
ROOT
HETATM    1  C   UNL     1      -9.605   8.584  67.063  1.00  0.00    -0.188 C  
HETATM    2  C   UNL     1      -8.779   8.453  65.775  1.00  0.00    -0.199 C  
ENDROOT
BRANCH   1   3
HETATM    3  C   UNL     1      -9.906  10.077  67.413  1.00  0.00    -0.185 C  
HETATM    4  O   UNL     1     -10.709  10.155  68.602  1.00  0.00    -0.202 OA 
HETATM    5  H   UNL     1     -10.893  11.062  68.814  1.00  0.00     0.000 HD 
BRANCH   3   6
HETATM    6  C   UNL     1     -10.531  10.898  66.295  1.00  0.00    -0.304 A  
HETATM    7  C   UNL     1     -10.131  10.686  64.966  1.00  0.00    -0.388 A  
HETATM    8  C   UNL     1     -10.624  11.493  63.935  1.00  0.00    -0.448 A  
HETATM    9  C   UNL     1     -11.529  12.507  64.230  1.00  0.00    -0.362 A  
HETATM   10  O   UNL     1     -12.002  13.344  63.264  1.00  0.00    -0.773 OA 
HETATM   11  C   UNL     1     -11.973  12.704  65.531  1.00  0.00    -0.509 A  
HETATM   12  C   UNL     1     -11.479  11.900  66.559  1.00  0.00    -0.381 A  
HETATM   13  H   UNL     1     -12.621  14.037  63.466  1.00  0.00     0.000 HD 
ENDBRANCH   3   6
ENDBRANCH   1   3
BRANCH   1  14
HETATM   14  N   UNL     1     -10.905   7.882  66.947  1.00  0.00    -0.453 NA 
HETATM   15  C   UNL     1     -10.916   6.534  67.485  1.00  0.00    -0.359 C  
HETATM   16  H   UNL     1     -11.221   7.879  65.976  1.00  0.00     0.000 HD 
ENDBRANCH   1  14
TORSDOF 3
ENDMDL
MODEL      141
REMARK 921   NORMALIZED FREE ENERGY PREDICTED BY IDOCK:   -3.20 KCAL/MOL
REMARK 922        TOTAL FREE ENERGY PREDICTED BY IDOCK:   -4.05 KCAL/MOL
REMARK 923 INTER-LIGAND FREE ENERGY PREDICTED BY IDOCK:   -3.76 KCAL/MOL
REMARK 924 INTRA-LIGAND FREE ENERGY PREDICTED BY IDOCK:   -0.29 KCAL/MOL
REMARK 927      BINDING AFFINITY PREDICTED BY RF-SCORE:    0.00 PKD
ROOT
HETATM    1  C   UNL     1     -10.397   7.265  68.843  1.00  0.00    -0.201 C  
HETATM    2  C   UNL     1     -11.330   6.257  69.530  1.00  0.00    -0.475 C  
ENDROOT
BRANCH   1   3
HETATM    3  C   UNL     1     -10.175   8.542  69.715  1.00  0.00    -0.206 C  
HETATM    4  O   UNL     1     -10.632   8.310  71.058  1.00  0.00    -0.199 OA 
HETATM    5  H   UNL     1     -10.497   9.087  71.589  1.00  0.00     0.000 HD 
BRANCH   3   6
HETATM    6  C   UNL     1     -10.777   9.825  69.164  1.00  0.00    -0.242 A  
HETATM    7  C   UNL     1     -10.695  10.101  67.789  1.00  0.00    -0.328 A  
HETATM    8  C   UNL     1     -11.159  11.317  67.276  1.00  0.00    -0.367 A  
HETATM    9  C   UNL     1     -11.721  12.255  68.135  1.00  0.00    -0.349 A  
HETATM   10  O   UNL     1     -12.146  13.469  67.685  1.00  0.00    -0.347 OA 
HETATM   11  C   UNL     1     -11.854  11.984  69.490  1.00  0.00    -0.390 A  
HETATM   12  C   UNL     1     -11.388  10.772  70.003  1.00  0.00    -0.397 A  
HETATM   13  H   UNL     1     -12.530  14.110  68.273  1.00  0.00     0.000 HD 
ENDBRANCH   3   6
ENDBRANCH   1   3
BRANCH   1  14
HETATM   14  N   UNL     1      -9.065   6.673  68.573  1.00  0.00    -0.129 NA 
HETATM   15  C   UNL     1      -7.947   7.573  68.789  1.00  0.00    -0.126 C  
HETATM   16  H   UNL     1      -9.032   6.288  67.629  1.00  0.00     0.000 HD 
ENDBRANCH   1  14
TORSDOF 3
ENDMDL
MODEL      142
REMARK 921   NORMALIZED FREE ENERGY PREDICTED BY IDOCK:   -3.20 KCAL/MOL
REMARK 922        TOTAL FREE ENERGY PREDICTED BY IDOCK:   -4.04 KCAL/MOL
REMARK 923 INTER-LIGAND FREE ENERGY PREDICTED BY IDOCK:   -3.88 KCAL/MOL
REMARK 924 INTRA-LIGAND FREE ENERGY PREDICTED BY IDOCK:   -0.16 KCAL/MOL
REMARK 927      BINDING AFFINITY PREDICTED BY RF-SCORE:    0.00 PKD
ROOT
HETATM    1  C   UNL     1     -10.042   8.732  66.880  1.00  0.00    -0.278 C  
HETATM    2  C   UNL     1      -8.636   8.539  67.467  1.00  0.00    -0.128 C  
ENDROOT
BRANCH   1   3
HETATM    3  C   UNL     1     -10.077   9.873  65.814  1.00  0.00    -0.247 C  
HETATM    4  O   UNL     1      -8.766  10.075  65.262  1.00  0.00    -0.146 OA 
HETATM    5  H   UNL     1      -8.787  10.770  64.614  1.00  0.00     0.000 HD 
BRANCH   3   6
HETATM    6  C   UNL     1     -10.664  11.194  66.288  1.00  0.00    -0.298 A  
HETATM    7  C   UNL     1     -10.209  11.772  67.484  1.00  0.00    -0.214 A  
HETATM    8  C   UNL     1     -10.799  12.936  67.985  1.00  0.00    -0.261 A  
HETATM    9  C   UNL     1     -11.839  13.535  67.282  1.00  0.00    -0.385 A  
HETATM   10  O   UNL     1     -12.473  14.645  67.755  1.00  0.00    -0.575 OA 
HETATM   11  C   UNL     1     -12.274  13.007  66.074  1.00  0.00    -0.463 A  
HETATM   12  C   UNL     1     -11.687  11.843  65.576  1.00  0.00    -0.224 A  
HETATM   13  H   UNL     1     -13.183  15.055  67.274  1.00  0.00     0.000 HD 
ENDBRANCH   3   6
ENDBRANCH   1   3
BRANCH   1  14
HETATM   14  N   UNL     1     -10.530   7.494  66.225  1.00  0.00    -0.300 NA 
HETATM   15  C   UNL     1     -10.746   6.377  67.126  1.00  0.00    -0.361 C  
HETATM   16  H   UNL     1      -9.902   7.223  65.468  1.00  0.00     0.000 HD 
ENDBRANCH   1  14
TORSDOF 3
ENDMDL
MODEL      143
REMARK 921   NORMALIZED FREE ENERGY PREDICTED BY IDOCK:   -3.19 KCAL/MOL
REMARK 922        TOTAL FREE ENERGY PREDICTED BY IDOCK:   -4.03 KCAL/MOL
REMARK 923 INTER-LIGAND FREE ENERGY PREDICTED BY IDOCK:   -3.90 KCAL/MOL
REMARK 924 INTRA-LIGAND FREE ENERGY PREDICTED BY IDOCK:   -0.14 KCAL/MOL
REMARK 927      BINDING AFFINITY PREDICTED BY RF-SCORE:    0.00 PKD
ROOT
HETATM    1  C   UNL     1      -9.808  11.661  65.943  1.00  0.00    -0.233 C  
HETATM    2  C   UNL     1      -8.396  11.118  66.209  1.00  0.00    -0.163 C  
ENDROOT
BRANCH   1   3
HETATM    3  C   UNL     1     -10.502  12.150  67.254  1.00  0.00    -0.218 C  
HETATM    4  O   UNL     1     -11.912  11.877  67.201  1.00  0.00    -0.611 OA 
HETATM    5  H   UNL     1     -12.334  12.175  67.998  1.00  0.00     0.000 HD 
BRANCH   3   6
HETATM    6  C   UNL     1     -10.256  13.605  67.621  1.00  0.00    -0.239 A  
HETATM    7  C   UNL     1     -11.241  14.570  67.352  1.00  0.00    -0.337 A  
HETATM    8  C   UNL     1     -10.999  15.925  67.595  1.00  0.00    -0.298 A  
HETATM    9  C   UNL     1      -9.773  16.319  68.123  1.00  0.00    -0.227 A  
HETATM   10  O   UNL     1      -9.478  17.633  68.335  1.00  0.00    -0.278 OA 
HETATM   11  C   UNL     1      -8.803  15.379  68.439  1.00  0.00    -0.177 A  
HETATM   12  C   UNL     1      -9.044  14.026  68.193  1.00  0.00    -0.192 A  
HETATM   13  H   UNL     1      -8.641  17.902  68.695  1.00  0.00     0.000 HD 
ENDBRANCH   3   6
ENDBRANCH   1   3
BRANCH   1  14
HETATM   14  N   UNL     1      -9.779  12.805  65.000  1.00  0.00    -0.495 NA 
HETATM   15  C   UNL     1     -10.721  12.706  63.900  1.00  0.00    -0.431 C  
HETATM   16  H   UNL     1      -8.834  12.948  64.645  1.00  0.00     0.000 HD 
ENDBRANCH   1  14
TORSDOF 3
ENDMDL
MODEL      144
REMARK 921   NORMALIZED FREE ENERGY PREDICTED BY IDOCK:   -3.16 KCAL/MOL
REMARK 922        TOTAL FREE ENERGY PREDICTED BY IDOCK:   -3.99 KCAL/MOL
REMARK 923 INTER-LIGAND FREE ENERGY PREDICTED BY IDOCK:   -3.80 KCAL/MOL
REMARK 924 INTRA-LIGAND FREE ENERGY PREDICTED BY IDOCK:   -0.20 KCAL/MOL
REMARK 927      BINDING AFFINITY PREDICTED BY RF-SCORE:    0.00 PKD
ROOT
HETATM    1  C   UNL     1     -10.607   7.005  71.863  1.00  0.00    -0.214 C  
HETATM    2  C   UNL     1     -10.561   5.522  71.467  1.00  0.00    -0.302 C  
ENDROOT
BRANCH   1   3
HETATM    3  C   UNL     1     -11.667   7.797  71.032  1.00  0.00    -0.281 C  
HETATM    4  O   UNL     1     -12.606   6.889  70.432  1.00  0.00    -0.593 OA 
HETATM    5  H   UNL     1     -13.250   7.370  69.927  1.00  0.00     0.000 HD 
BRANCH   3   6
HETATM    6  C   UNL     1     -11.104   8.747  69.987  1.00  0.00    -0.169 A  
HETATM    7  C   UNL     1     -10.397   8.236  68.886  1.00  0.00    -0.230 A  
HETATM    8  C   UNL     1      -9.792   9.095  67.964  1.00  0.00    -0.197 A  
HETATM    9  C   UNL     1      -9.903  10.471  68.133  1.00  0.00    -0.153 A  
HETATM   10  O   UNL     1      -9.293  11.345  67.284  1.00  0.00    -0.165 OA 
HETATM   11  C   UNL     1     -10.636  10.998  69.188  1.00  0.00    -0.253 A  
HETATM   12  C   UNL     1     -11.237  10.140  70.110  1.00  0.00    -0.377 A  
HETATM   13  H   UNL     1      -9.369  12.286  67.399  1.00  0.00     0.000 HD 
ENDBRANCH   3   6
ENDBRANCH   1   3
BRANCH   1  14
HETATM   14  N   UNL     1     -10.947   7.172  73.296  1.00  0.00    -0.507 NA 
HETATM   15  C   UNL     1     -10.046   6.501  74.214  1.00  0.00    -0.356 C  
HETATM   16  H   UNL     1     -11.910   6.882  73.468  1.00  0.00     0.000 HD 
ENDBRANCH   1  14
TORSDOF 3
ENDMDL
MODEL      145
REMARK 921   NORMALIZED FREE ENERGY PREDICTED BY IDOCK:   -3.15 KCAL/MOL
REMARK 922        TOTAL FREE ENERGY PREDICTED BY IDOCK:   -3.98 KCAL/MOL
REMARK 923 INTER-LIGAND FREE ENERGY PREDICTED BY IDOCK:   -3.71 KCAL/MOL
REMARK 924 INTRA-LIGAND FREE ENERGY PREDICTED BY IDOCK:   -0.27 KCAL/MOL
REMARK 927      BINDING AFFINITY PREDICTED BY RF-SCORE:    0.00 PKD
ROOT
HETATM    1  C   UNL     1      -9.740  14.082  66.496  1.00  0.00    -0.295 C  
HETATM    2  C   UNL     1      -9.048  15.450  66.413  1.00  0.00    -0.350 C  
ENDROOT
BRANCH   1   3
HETATM    3  C   UNL     1      -8.879  13.040  67.281  1.00  0.00    -0.208 C  
HETATM    4  O   UNL     1      -7.482  13.256  67.020  1.00  0.00    -0.375 OA 
HETATM    5  H   UNL     1      -6.959  12.622  67.497  1.00  0.00     0.000 HD 
BRANCH   3   6
HETATM    6  C   UNL     1      -9.244  11.582  67.049  1.00  0.00    -0.180 A  
HETATM    7  C   UNL     1      -9.172  11.041  65.755  1.00  0.00    -0.226 A  
HETATM    8  C   UNL     1      -9.592   9.730  65.505  1.00  0.00    -0.348 A  
HETATM    9  C   UNL     1     -10.072   8.952  66.553  1.00  0.00    -0.286 A  
HETATM   10  O   UNL     1     -10.532   7.685  66.347  1.00  0.00    -0.483 OA 
HETATM   11  C   UNL     1     -10.108   9.451  67.848  1.00  0.00    -0.239 A  
HETATM   12  C   UNL     1      -9.692  10.760  68.096  1.00  0.00    -0.169 A  
HETATM   13  H   UNL     1     -10.860   7.153  67.063  1.00  0.00     0.000 HD 
ENDBRANCH   3   6
ENDBRANCH   1   3
BRANCH   1  14
HETATM   14  N   UNL     1     -11.053  14.179  67.178  1.00  0.00    -0.299 NA 
HETATM   15  C   UNL     1     -10.986  14.627  68.557  1.00  0.00    -0.252 C  
HETATM   16  H   UNL     1     -11.550  13.290  67.117  1.00  0.00     0.000 HD 
ENDBRANCH   1  14
TORSDOF 3
ENDMDL
MODEL      146
REMARK 921   NORMALIZED FREE ENERGY PREDICTED BY IDOCK:   -3.13 KCAL/MOL
REMARK 922        TOTAL FREE ENERGY PREDICTED BY IDOCK:   -3.95 KCAL/MOL
REMARK 923 INTER-LIGAND FREE ENERGY PREDICTED BY IDOCK:   -3.69 KCAL/MOL
REMARK 924 INTRA-LIGAND FREE ENERGY PREDICTED BY IDOCK:   -0.27 KCAL/MOL
REMARK 927      BINDING AFFINITY PREDICTED BY RF-SCORE:    0.00 PKD
ROOT
HETATM    1  C   UNL     1      -9.373  10.092  68.593  1.00  0.00    -0.156 C  
HETATM    2  C   UNL     1     -10.482   9.556  69.511  1.00  0.00    -0.234 C  
ENDROOT
BRANCH   1   3
HETATM    3  C   UNL     1      -9.552  11.614  68.290  1.00  0.00    -0.198 C  
HETATM    4  O   UNL     1     -10.386  12.223  69.289  1.00  0.00    -0.419 OA 
HETATM    5  H   UNL     1     -10.495  13.149  69.104  1.00  0.00     0.000 HD 
BRANCH   3   6
HETATM    6  C   UNL     1     -10.062  11.949  66.896  1.00  0.00    -0.229 A  
HETATM    7  C   UNL     1     -10.526  10.923  66.057  1.00  0.00    -0.287 A  
HETATM    8  C   UNL     1     -10.911  11.197  64.740  1.00  0.00    -0.218 A  
HETATM    9  C   UNL     1     -10.846  12.502  64.264  1.00  0.00    -0.364 A  
HETATM   10  O   UNL     1     -11.170  12.807  62.976  1.00  0.00    -0.707 OA 
HETATM   11  C   UNL     1     -10.434  13.538  65.091  1.00  0.00    -0.375 A  
HETATM   12  C   UNL     1     -10.047  13.264  66.403  1.00  0.00    -0.290 A  
HETATM   13  H   UNL     1     -11.125  13.699  62.650  1.00  0.00     0.000 HD 
ENDBRANCH   3   6
ENDBRANCH   1   3
BRANCH   1  14
HETATM   14  N   UNL     1      -8.033   9.913  69.201  1.00  0.00    -0.102 NA 
HETATM   15  C   UNL     1      -7.113  11.012  68.972  1.00  0.00    -0.106 C  
HETATM   16  H   UNL     1      -7.618   9.033  68.893  1.00  0.00     0.000 HD 
ENDBRANCH   1  14
TORSDOF 3
ENDMDL
MODEL      147
REMARK 921   NORMALIZED FREE ENERGY PREDICTED BY IDOCK:   -3.13 KCAL/MOL
REMARK 922        TOTAL FREE ENERGY PREDICTED BY IDOCK:   -3.95 KCAL/MOL
REMARK 923 INTER-LIGAND FREE ENERGY PREDICTED BY IDOCK:   -3.86 KCAL/MOL
REMARK 924 INTRA-LIGAND FREE ENERGY PREDICTED BY IDOCK:   -0.09 KCAL/MOL
REMARK 927      BINDING AFFINITY PREDICTED BY RF-SCORE:    0.00 PKD
ROOT
HETATM    1  C   UNL     1     -10.611   6.848  73.517  1.00  0.00    -0.348 C  
HETATM    2  C   UNL     1      -9.121   6.568  73.276  1.00  0.00    -0.139 C  
ENDROOT
BRANCH   1   3
HETATM    3  C   UNL     1     -11.225   7.745  72.394  1.00  0.00    -0.337 C  
HETATM    4  O   UNL     1     -12.658   7.758  72.499  1.00  0.00    -0.533 OA 
HETATM    5  H   UNL     1     -13.031   8.303  71.816  1.00  0.00     0.000 HD 
BRANCH   3   6
HETATM    6  C   UNL     1     -10.799   7.400  70.975  1.00  0.00    -0.254 A  
HETATM    7  C   UNL     1      -9.701   8.057  70.396  1.00  0.00    -0.178 A  
HETATM    8  C   UNL     1      -9.351   7.823  69.062  1.00  0.00    -0.150 A  
HETATM    9  C   UNL     1     -10.092   6.920  68.307  1.00  0.00    -0.167 A  
HETATM   10  O   UNL     1      -9.813   6.695  66.992  1.00  0.00    -0.143 OA 
HETATM   11  C   UNL     1     -11.153   6.226  68.872  1.00  0.00    -0.434 A  
HETATM   12  C   UNL     1     -11.504   6.462  70.203  1.00  0.00    -0.484 A  
HETATM   13  H   UNL     1     -10.320   6.077  66.476  1.00  0.00     0.000 HD 
ENDBRANCH   3   6
ENDBRANCH   1   3
BRANCH   1  14
HETATM   14  N   UNL     1     -11.397   5.591  73.563  1.00  0.00    -0.452 NA 
HETATM   15  C   UNL     1     -10.603   4.386  73.714  1.00  0.00    -0.244 C  
HETATM   16  H   UNL     1     -11.999   5.519  72.742  1.00  0.00     0.000 HD 
ENDBRANCH   1  14
TORSDOF 3
ENDMDL
MODEL      148
REMARK 921   NORMALIZED FREE ENERGY PREDICTED BY IDOCK:   -3.12 KCAL/MOL
REMARK 922        TOTAL FREE ENERGY PREDICTED BY IDOCK:   -3.94 KCAL/MOL
REMARK 923 INTER-LIGAND FREE ENERGY PREDICTED BY IDOCK:   -4.52 KCAL/MOL
REMARK 924 INTRA-LIGAND FREE ENERGY PREDICTED BY IDOCK:    0.58 KCAL/MOL
REMARK 927      BINDING AFFINITY PREDICTED BY RF-SCORE:    0.00 PKD
ROOT
HETATM    1  C   UNL     1     -11.156   7.470  72.602  1.00  0.00    -0.347 C  
HETATM    2  C   UNL     1      -9.743   8.068  72.677  1.00  0.00    -0.332 C  
ENDROOT
BRANCH   1   3
HETATM    3  C   UNL     1     -12.255   8.577  72.518  1.00  0.00    -0.315 C  
HETATM    4  O   UNL     1     -13.555   7.977  72.399  1.00  0.00    -0.530 OA 
HETATM    5  H   UNL     1     -14.223   8.651  72.348  1.00  0.00     0.000 HD 
BRANCH   3   6
HETATM    6  C   UNL     1     -12.050   9.622  71.432  1.00  0.00    -0.472 A  
HETATM    7  C   UNL     1     -12.747  10.840  71.493  1.00  0.00    -0.536 A  
HETATM    8  C   UNL     1     -12.645  11.774  70.457  1.00  0.00    -0.234 A  
HETATM    9  C   UNL     1     -11.833  11.498  69.362  1.00  0.00    -0.350 A  
HETATM   10  O   UNL     1     -11.738  12.360  68.311  1.00  0.00    -0.313 OA 
HETATM   11  C   UNL     1     -11.099  10.321  69.303  1.00  0.00    -0.293 A  
HETATM   12  C   UNL     1     -11.204   9.388  70.335  1.00  0.00    -0.309 A  
HETATM   13  H   UNL     1     -11.183  12.172  67.562  1.00  0.00     0.000 HD 
ENDBRANCH   3   6
ENDBRANCH   1   3
BRANCH   1  14
HETATM   14  N   UNL     1     -11.312   6.597  71.413  1.00  0.00    -0.275 NA 
HETATM   15  C   UNL     1     -10.178   5.730  71.146  1.00  0.00    -0.218 C  
HETATM   16  H   UNL     1     -11.532   7.157  70.589  1.00  0.00     0.000 HD 
ENDBRANCH   1  14
TORSDOF 3
ENDMDL
MODEL      149
REMARK 921   NORMALIZED FREE ENERGY PREDICTED BY IDOCK:   -3.11 KCAL/MOL
REMARK 922        TOTAL FREE ENERGY PREDICTED BY IDOCK:   -3.93 KCAL/MOL
REMARK 923 INTER-LIGAND FREE ENERGY PREDICTED BY IDOCK:   -3.71 KCAL/MOL
REMARK 924 INTRA-LIGAND FREE ENERGY PREDICTED BY IDOCK:   -0.22 KCAL/MOL
REMARK 927      BINDING AFFINITY PREDICTED BY RF-SCORE:    0.00 PKD
ROOT
HETATM    1  C   UNL     1      -8.573  10.781  67.745  1.00  0.00    -0.127 C  
HETATM    2  C   UNL     1      -9.494  10.402  68.914  1.00  0.00    -0.190 C  
ENDROOT
BRANCH   1   3
HETATM    3  C   UNL     1      -8.586  12.318  67.467  1.00  0.00    -0.174 C  
HETATM    4  O   UNL     1      -8.237  13.040  68.660  1.00  0.00    -0.294 OA 
HETATM    5  H   UNL     1      -8.246  13.975  68.492  1.00  0.00     0.000 HD 
BRANCH   3   6
HETATM    6  C   UNL     1      -9.875  12.866  66.873  1.00  0.00    -0.235 A  
HETATM    7  C   UNL     1     -10.329  14.141  67.245  1.00  0.00    -0.267 A  
HETATM    8  C   UNL     1     -11.558  14.625  66.783  1.00  0.00    -0.370 A  
HETATM    9  C   UNL     1     -12.330  13.838  65.935  1.00  0.00    -0.476 A  
HETATM   10  O   UNL     1     -13.552  14.250  65.496  1.00  0.00    -0.650 OA 
HETATM   11  C   UNL     1     -11.879  12.593  65.518  1.00  0.00    -0.479 A  
HETATM   12  C   UNL     1     -10.654  12.109  65.982  1.00  0.00    -0.292 A  
HETATM   13  H   UNL     1     -14.080  13.712  64.917  1.00  0.00     0.000 HD 
ENDBRANCH   3   6
ENDBRANCH   1   3
BRANCH   1  14
HETATM   14  N   UNL     1      -7.169  10.388  68.012  1.00  0.00    -0.083 NA 
HETATM   15  C   UNL     1      -6.886   8.978  67.811  1.00  0.00    -0.070 C  
HETATM   16  H   UNL     1      -6.893  10.674  68.952  1.00  0.00     0.000 HD 
ENDBRANCH   1  14
TORSDOF 3
ENDMDL
MODEL      150
REMARK 921   NORMALIZED FREE ENERGY PREDICTED BY IDOCK:   -3.10 KCAL/MOL
REMARK 922        TOTAL FREE ENERGY PREDICTED BY IDOCK:   -3.93 KCAL/MOL
REMARK 923 INTER-LIGAND FREE ENERGY PREDICTED BY IDOCK:   -4.05 KCAL/MOL
REMARK 924 INTRA-LIGAND FREE ENERGY PREDICTED BY IDOCK:    0.12 KCAL/MOL
REMARK 927      BINDING AFFINITY PREDICTED BY RF-SCORE:    0.00 PKD
ROOT
HETATM    1  C   UNL     1     -11.821   8.334  72.092  1.00  0.00    -0.369 C  
HETATM    2  C   UNL     1     -13.032   9.229  72.392  1.00  0.00    -0.450 C  
ENDROOT
BRANCH   1   3
HETATM    3  C   UNL     1     -12.250   6.935  71.547  1.00  0.00    -0.371 C  
HETATM    4  O   UNL     1     -12.380   5.999  72.631  1.00  0.00    -0.544 OA 
HETATM    5  H   UNL     1     -12.641   5.148  72.299  1.00  0.00     0.000 HD 
BRANCH   3   6
HETATM    6  C   UNL     1     -11.366   6.359  70.452  1.00  0.00    -0.453 A  
HETATM    7  C   UNL     1     -11.567   6.744  69.116  1.00  0.00    -0.016 A  
HETATM    8  C   UNL     1     -10.827   6.157  68.085  1.00  0.00    -0.389 A  
HETATM    9  C   UNL     1      -9.873   5.191  68.388  1.00  0.00    -0.152 A  
HETATM   10  O   UNL     1      -9.161   4.562  67.411  1.00  0.00    -0.117 OA 
HETATM   11  C   UNL     1      -9.626   4.829  69.705  1.00  0.00    -0.253 A  
HETATM   12  C   UNL     1     -10.366   5.413  70.734  1.00  0.00    -0.322 A  
HETATM   13  H   UNL     1      -8.509   3.902  67.618  1.00  0.00     0.000 HD 
ENDBRANCH   3   6
ENDBRANCH   1   3
BRANCH   1  14
HETATM   14  N   UNL     1     -10.929   8.952  71.082  1.00  0.00    -0.263 NA 
HETATM   15  C   UNL     1     -11.353  10.261  70.619  1.00  0.00    -0.347 C  
HETATM   16  H   UNL     1     -10.799   8.321  70.291  1.00  0.00     0.000 HD 
ENDBRANCH   1  14
TORSDOF 3
ENDMDL
MODEL      151
REMARK 921   NORMALIZED FREE ENERGY PREDICTED BY IDOCK:   -3.10 KCAL/MOL
REMARK 922        TOTAL FREE ENERGY PREDICTED BY IDOCK:   -3.92 KCAL/MOL
REMARK 923 INTER-LIGAND FREE ENERGY PREDICTED BY IDOCK:   -3.68 KCAL/MOL
REMARK 924 INTRA-LIGAND FREE ENERGY PREDICTED BY IDOCK:   -0.24 KCAL/MOL
REMARK 927      BINDING AFFINITY PREDICTED BY RF-SCORE:    0.00 PKD
ROOT
HETATM    1  C   UNL     1     -10.127   8.486  70.557  1.00  0.00    -0.192 C  
HETATM    2  C   UNL     1      -9.898   8.550  72.074  1.00  0.00    -0.383 C  
ENDROOT
BRANCH   1   3
HETATM    3  C   UNL     1     -11.224   7.441  70.176  1.00  0.00    -0.218 C  
HETATM    4  O   UNL     1     -11.741   6.812  71.361  1.00  0.00    -0.290 OA 
HETATM    5  H   UNL     1     -12.408   6.176  71.129  1.00  0.00     0.000 HD 
BRANCH   3   6
HETATM    6  C   UNL     1     -10.803   6.392  69.159  1.00  0.00    -0.382 A  
HETATM    7  C   UNL     1     -10.176   5.211  69.590  1.00  0.00    -0.337 A  
HETATM    8  C   UNL     1      -9.698   4.277  68.665  1.00  0.00    -0.174 A  
HETATM    9  C   UNL     1      -9.858   4.516  67.304  1.00  0.00    -0.175 A  
HETATM   10  O   UNL     1      -9.369   3.654  66.368  1.00  0.00    -0.168 OA 
HETATM   11  C   UNL     1     -10.515   5.654  66.857  1.00  0.00    -0.349 A  
HETATM   12  C   UNL     1     -10.990   6.587  67.780  1.00  0.00    -0.407 A  
HETATM   13  H   UNL     1      -9.479   3.817  65.438  1.00  0.00     0.000 HD 
ENDBRANCH   3   6
ENDBRANCH   1   3
BRANCH   1  14
HETATM   14  N   UNL     1     -10.557   9.799  70.019  1.00  0.00    -0.255 NA 
HETATM   15  C   UNL     1     -11.723  10.368  70.671  1.00  0.00    -0.351 C  
HETATM   16  H   UNL     1     -10.710   9.737  69.012  1.00  0.00     0.000 HD 
ENDBRANCH   1  14
TORSDOF 3
ENDMDL
MODEL      152
REMARK 921   NORMALIZED FREE ENERGY PREDICTED BY IDOCK:   -3.08 KCAL/MOL
REMARK 922        TOTAL FREE ENERGY PREDICTED BY IDOCK:   -3.90 KCAL/MOL
REMARK 923 INTER-LIGAND FREE ENERGY PREDICTED BY IDOCK:   -3.85 KCAL/MOL
REMARK 924 INTRA-LIGAND FREE ENERGY PREDICTED BY IDOCK:   -0.04 KCAL/MOL
REMARK 927      BINDING AFFINITY PREDICTED BY RF-SCORE:    0.00 PKD
ROOT
HETATM    1  C   UNL     1     -10.298  13.636  65.228  1.00  0.00    -0.348 C  
HETATM    2  C   UNL     1      -9.607  14.414  66.358  1.00  0.00    -0.320 C  
ENDROOT
BRANCH   1   3
HETATM    3  C   UNL     1     -10.017  12.102  65.321  1.00  0.00    -0.237 C  
HETATM    4  O   UNL     1     -10.850  11.389  64.391  1.00  0.00    -0.335 OA 
HETATM    5  H   UNL     1     -10.680  10.456  64.447  1.00  0.00     0.000 HD 
BRANCH   3   6
HETATM    6  C   UNL     1     -10.136  11.497  66.711  1.00  0.00    -0.245 A  
HETATM    7  C   UNL     1     -11.389  11.441  67.344  1.00  0.00    -0.359 A  
HETATM    8  C   UNL     1     -11.505  10.975  68.658  1.00  0.00    -0.375 A  
HETATM    9  C   UNL     1     -10.369  10.550  69.338  1.00  0.00    -0.234 A  
HETATM   10  O   UNL     1     -10.429  10.130  70.633  1.00  0.00    -0.390 OA 
HETATM   11  C   UNL     1      -9.127  10.554  68.716  1.00  0.00    -0.166 A  
HETATM   12  C   UNL     1      -9.011  11.022  67.406  1.00  0.00    -0.141 A  
HETATM   13  H   UNL     1      -9.652   9.839  71.098  1.00  0.00     0.000 HD 
ENDBRANCH   3   6
ENDBRANCH   1   3
BRANCH   1  14
HETATM   14  N   UNL     1     -11.768  13.823  65.263  1.00  0.00    -0.326 NA 
HETATM   15  C   UNL     1     -12.274  14.812  64.329  1.00  0.00    -0.379 C  
HETATM   16  H   UNL     1     -12.076  14.041  66.211  1.00  0.00     0.000 HD 
ENDBRANCH   1  14
TORSDOF 3
ENDMDL
MODEL      153
REMARK 921   NORMALIZED FREE ENERGY PREDICTED BY IDOCK:   -3.04 KCAL/MOL
REMARK 922        TOTAL FREE ENERGY PREDICTED BY IDOCK:   -3.86 KCAL/MOL
REMARK 923 INTER-LIGAND FREE ENERGY PREDICTED BY IDOCK:   -3.58 KCAL/MOL
REMARK 924 INTRA-LIGAND FREE ENERGY PREDICTED BY IDOCK:   -0.28 KCAL/MOL
REMARK 927      BINDING AFFINITY PREDICTED BY RF-SCORE:    0.00 PKD
ROOT
HETATM    1  C   UNL     1      -9.337   5.320  68.608  1.00  0.00    -0.121 C  
HETATM    2  C   UNL     1      -8.094   4.876  69.393  1.00  0.00    -0.078 C  
ENDROOT
BRANCH   1   3
HETATM    3  C   UNL     1      -9.567   6.863  68.702  1.00  0.00    -0.133 C  
HETATM    4  O   UNL     1      -8.313   7.539  68.893  1.00  0.00    -0.127 OA 
HETATM    5  H   UNL     1      -8.452   8.477  68.951  1.00  0.00     0.000 HD 
BRANCH   3   6
HETATM    6  C   UNL     1     -10.576   7.311  69.748  1.00  0.00    -0.247 A  
HETATM    7  C   UNL     1     -10.678   8.671  70.083  1.00  0.00    -0.244 A  
HETATM    8  C   UNL     1     -11.532   9.093  71.107  1.00  0.00    -0.388 A  
HETATM    9  C   UNL     1     -12.299   8.156  71.790  1.00  0.00    -0.321 A  
HETATM   10  O   UNL     1     -13.112   8.517  72.823  1.00  0.00    -0.636 OA 
HETATM   11  C   UNL     1     -12.249   6.812  71.445  1.00  0.00    -0.413 A  
HETATM   12  C   UNL     1     -11.394   6.391  70.425  1.00  0.00    -0.453 A  
HETATM   13  H   UNL     1     -13.636   7.876  73.289  1.00  0.00     0.000 HD 
ENDBRANCH   3   6
ENDBRANCH   1   3
BRANCH   1  14
HETATM   14  N   UNL     1      -9.222   4.974  67.171  1.00  0.00    -0.117 NA 
HETATM   15  C   UNL     1     -10.466   5.055  66.427  1.00  0.00    -0.300 C  
HETATM   16  H   UNL     1      -8.804   4.050  67.061  1.00  0.00     0.000 HD 
ENDBRANCH   1  14
TORSDOF 3
ENDMDL
MODEL      154
REMARK 921   NORMALIZED FREE ENERGY PREDICTED BY IDOCK:   -3.04 KCAL/MOL
REMARK 922        TOTAL FREE ENERGY PREDICTED BY IDOCK:   -3.85 KCAL/MOL
REMARK 923 INTER-LIGAND FREE ENERGY PREDICTED BY IDOCK:   -3.58 KCAL/MOL
REMARK 924 INTRA-LIGAND FREE ENERGY PREDICTED BY IDOCK:   -0.27 KCAL/MOL
REMARK 927      BINDING AFFINITY PREDICTED BY RF-SCORE:    0.00 PKD
ROOT
HETATM    1  C   UNL     1      -8.201  12.485  68.020  1.00  0.00    -0.166 C  
HETATM    2  C   UNL     1      -7.563  13.834  67.658  1.00  0.00    -0.189 C  
ENDROOT
BRANCH   1   3
HETATM    3  C   UNL     1      -9.695  12.407  67.571  1.00  0.00    -0.191 C  
HETATM    4  O   UNL     1     -10.056  13.593  66.843  1.00  0.00    -0.251 OA 
HETATM    5  H   UNL     1     -10.965  13.546  66.571  1.00  0.00     0.000 HD 
BRANCH   3   6
HETATM    6  C   UNL     1     -10.699  12.140  68.682  1.00  0.00    -0.261 A  
HETATM    7  C   UNL     1     -11.371  13.213  69.291  1.00  0.00    -0.312 A  
HETATM    8  C   UNL     1     -12.227  12.997  70.375  1.00  0.00    -0.386 A  
HETATM    9  C   UNL     1     -12.425  11.703  70.846  1.00  0.00    -0.341 A  
HETATM   10  O   UNL     1     -13.216  11.452  71.927  1.00  0.00    -0.484 OA 
HETATM   11  C   UNL     1     -11.807  10.623  70.231  1.00  0.00    -0.430 A  
HETATM   12  C   UNL     1     -10.950  10.839  69.151  1.00  0.00    -0.293 A  
HETATM   13  H   UNL     1     -13.351  10.568  72.249  1.00  0.00     0.000 HD 
ENDBRANCH   3   6
ENDBRANCH   1   3
BRANCH   1  14
HETATM   14  N   UNL     1      -7.484  11.357  67.378  1.00  0.00    -0.112 NA 
HETATM   15  C   UNL     1      -8.168  10.776  66.237  1.00  0.00    -0.162 C  
HETATM   16  H   UNL     1      -7.267  10.637  68.066  1.00  0.00     0.000 HD 
ENDBRANCH   1  14
TORSDOF 3
ENDMDL
MODEL      155
REMARK 921   NORMALIZED FREE ENERGY PREDICTED BY IDOCK:   -3.03 KCAL/MOL
REMARK 922        TOTAL FREE ENERGY PREDICTED BY IDOCK:   -3.84 KCAL/MOL
REMARK 923 INTER-LIGAND FREE ENERGY PREDICTED BY IDOCK:   -3.57 KCAL/MOL
REMARK 924 INTRA-LIGAND FREE ENERGY PREDICTED BY IDOCK:   -0.27 KCAL/MOL
REMARK 927      BINDING AFFINITY PREDICTED BY RF-SCORE:    0.00 PKD
ROOT
HETATM    1  C   UNL     1      -9.534   6.836  66.639  1.00  0.00    -0.165 C  
HETATM    2  C   UNL     1     -10.955   6.667  67.198  1.00  0.00    -0.478 C  
ENDROOT
BRANCH   1   3
HETATM    3  C   UNL     1      -8.985   8.280  66.871  1.00  0.00    -0.146 C  
HETATM    4  O   UNL     1      -9.333   8.737  68.188  1.00  0.00    -0.139 OA 
HETATM    5  H   UNL     1      -8.999   9.616  68.328  1.00  0.00     0.000 HD 
BRANCH   3   6
HETATM    6  C   UNL     1      -9.390   9.310  65.827  1.00  0.00    -0.306 A  
HETATM    7  C   UNL     1     -10.267  10.350  66.175  1.00  0.00    -0.288 A  
HETATM    8  C   UNL     1     -10.725  11.251  65.208  1.00  0.00    -0.302 A  
HETATM    9  C   UNL     1     -10.295  11.123  63.892  1.00  0.00    -0.380 A  
HETATM   10  O   UNL     1     -10.749  11.952  62.910  1.00  0.00    -0.657 OA 
HETATM   11  C   UNL     1      -9.392  10.131  63.535  1.00  0.00    -0.333 A  
HETATM   12  C   UNL     1      -8.937   9.230  64.499  1.00  0.00    -0.183 A  
HETATM   13  H   UNL     1     -10.454  11.865  62.011  1.00  0.00     0.000 HD 
ENDBRANCH   3   6
ENDBRANCH   1   3
BRANCH   1  14
HETATM   14  N   UNL     1      -8.586   5.891  67.276  1.00  0.00    -0.107 NA 
HETATM   15  C   UNL     1      -7.462   5.508  66.442  1.00  0.00    -0.087 C  
HETATM   16  H   UNL     1      -9.080   5.062  67.608  1.00  0.00     0.000 HD 
ENDBRANCH   1  14
TORSDOF 3
ENDMDL
MODEL      156
REMARK 921   NORMALIZED FREE ENERGY PREDICTED BY IDOCK:   -3.02 KCAL/MOL
REMARK 922        TOTAL FREE ENERGY PREDICTED BY IDOCK:   -3.83 KCAL/MOL
REMARK 923 INTER-LIGAND FREE ENERGY PREDICTED BY IDOCK:   -3.57 KCAL/MOL
REMARK 924 INTRA-LIGAND FREE ENERGY PREDICTED BY IDOCK:   -0.25 KCAL/MOL
REMARK 927      BINDING AFFINITY PREDICTED BY RF-SCORE:    0.00 PKD
ROOT
HETATM    1  C   UNL     1     -10.380   6.348  67.011  1.00  0.00    -0.244 C  
HETATM    2  C   UNL     1     -10.178   5.025  66.258  1.00  0.00    -0.306 C  
ENDROOT
BRANCH   1   3
HETATM    3  C   UNL     1      -9.352   6.520  68.174  1.00  0.00    -0.109 C  
HETATM    4  O   UNL     1      -8.421   5.425  68.178  1.00  0.00    -0.098 OA 
HETATM    5  H   UNL     1      -7.796   5.530  68.886  1.00  0.00     0.000 HD 
BRANCH   3   6
HETATM    6  C   UNL     1      -9.954   6.711  69.558  1.00  0.00    -0.178 A  
HETATM    7  C   UNL     1     -11.303   6.393  69.782  1.00  0.00    -0.494 A  
HETATM    8  C   UNL     1     -11.901   6.648  71.021  1.00  0.00    -0.427 A  
HETATM    9  C   UNL     1     -11.145   7.210  72.044  1.00  0.00    -0.245 A  
HETATM   10  O   UNL     1     -11.697   7.515  73.253  1.00  0.00    -0.604 OA 
HETATM   11  C   UNL     1      -9.798   7.490  71.859  1.00  0.00    -0.196 A  
HETATM   12  C   UNL     1      -9.203   7.238  70.622  1.00  0.00    -0.157 A  
HETATM   13  H   UNL     1     -11.180   7.899  73.952  1.00  0.00     0.000 HD 
ENDBRANCH   3   6
ENDBRANCH   1   3
BRANCH   1  14
HETATM   14  N   UNL     1     -10.230   7.514  66.107  1.00  0.00    -0.335 NA 
HETATM   15  C   UNL     1      -8.933   8.163  66.166  1.00  0.00    -0.178 C  
HETATM   16  H   UNL     1     -10.974   8.192  66.276  1.00  0.00     0.000 HD 
ENDBRANCH   1  14
TORSDOF 3
ENDMDL
MODEL      157
REMARK 921   NORMALIZED FREE ENERGY PREDICTED BY IDOCK:   -3.01 KCAL/MOL
REMARK 922        TOTAL FREE ENERGY PREDICTED BY IDOCK:   -3.82 KCAL/MOL
REMARK 923 INTER-LIGAND FREE ENERGY PREDICTED BY IDOCK:   -3.61 KCAL/MOL
REMARK 924 INTRA-LIGAND FREE ENERGY PREDICTED BY IDOCK:   -0.22 KCAL/MOL
REMARK 927      BINDING AFFINITY PREDICTED BY RF-SCORE:    0.00 PKD
ROOT
HETATM    1  C   UNL     1      -9.917   9.743  66.086  1.00  0.00    -0.268 C  
HETATM    2  C   UNL     1      -8.510   9.166  66.302  1.00  0.00    -0.131 C  
ENDROOT
BRANCH   1   3
HETATM    3  C   UNL     1     -10.073  11.158  66.730  1.00  0.00    -0.218 C  
HETATM    4  O   UNL     1      -8.784  11.772  66.895  1.00  0.00    -0.176 OA 
HETATM    5  H   UNL     1      -8.878  12.632  67.287  1.00  0.00     0.000 HD 
BRANCH   3   6
HETATM    6  C   UNL     1     -10.852  11.201  68.035  1.00  0.00    -0.274 A  
HETATM    7  C   UNL     1     -11.480  12.391  68.435  1.00  0.00    -0.356 A  
HETATM    8  C   UNL     1     -12.122  12.479  69.675  1.00  0.00    -0.272 A  
HETATM    9  C   UNL     1     -12.150  11.369  70.513  1.00  0.00    -0.394 A  
HETATM   10  O   UNL     1     -12.726  11.422  71.747  1.00  0.00    -0.348 OA 
HETATM   11  C   UNL     1     -11.575  10.169  70.118  1.00  0.00    -0.350 A  
HETATM   12  C   UNL     1     -10.932  10.083  68.882  1.00  0.00    -0.244 A  
HETATM   13  H   UNL     1     -12.745  10.664  72.319  1.00  0.00     0.000 HD 
ENDBRANCH   3   6
ENDBRANCH   1   3
BRANCH   1  14
HETATM   14  N   UNL     1     -10.232   9.873  64.643  1.00  0.00    -0.306 NA 
HETATM   15  C   UNL     1      -9.079  10.088  63.788  1.00  0.00    -0.267 C  
HETATM   16  H   UNL     1     -10.924  10.608  64.496  1.00  0.00     0.000 HD 
ENDBRANCH   1  14
TORSDOF 3
ENDMDL
MODEL      158
REMARK 921   NORMALIZED FREE ENERGY PREDICTED BY IDOCK:   -3.00 KCAL/MOL
REMARK 922        TOTAL FREE ENERGY PREDICTED BY IDOCK:   -3.80 KCAL/MOL
REMARK 923 INTER-LIGAND FREE ENERGY PREDICTED BY IDOCK:   -3.57 KCAL/MOL
REMARK 924 INTRA-LIGAND FREE ENERGY PREDICTED BY IDOCK:   -0.24 KCAL/MOL
REMARK 927      BINDING AFFINITY PREDICTED BY RF-SCORE:    0.00 PKD
ROOT
HETATM    1  C   UNL     1     -10.997  13.880  66.531  1.00  0.00    -0.300 C  
HETATM    2  C   UNL     1     -10.098  13.707  65.298  1.00  0.00    -0.297 C  
ENDROOT
BRANCH   1   3
HETATM    3  C   UNL     1     -10.251  13.510  67.853  1.00  0.00    -0.247 C  
HETATM    4  O   UNL     1      -8.848  13.335  67.597  1.00  0.00    -0.177 OA 
HETATM    5  H   UNL     1      -8.394  13.110  68.401  1.00  0.00     0.000 HD 
BRANCH   3   6
HETATM    6  C   UNL     1     -10.807  12.311  68.605  1.00  0.00    -0.268 A  
HETATM    7  C   UNL     1     -11.874  12.482  69.503  1.00  0.00    -0.375 A  
HETATM    8  C   UNL     1     -12.338  11.411  70.273  1.00  0.00    -0.379 A  
HETATM    9  C   UNL     1     -11.745  10.160  70.137  1.00  0.00    -0.256 A  
HETATM   10  O   UNL     1     -12.136   9.100  70.899  1.00  0.00    -0.363 OA 
HETATM   11  C   UNL     1     -10.720   9.958  69.223  1.00  0.00    -0.247 A  
HETATM   12  C   UNL     1     -10.255  11.028  68.457  1.00  0.00    -0.203 A  
HETATM   13  H   UNL     1     -11.731   8.245  70.806  1.00  0.00     0.000 HD 
ENDBRANCH   3   6
ENDBRANCH   1   3
BRANCH   1  14
HETATM   14  N   UNL     1     -11.472  15.278  66.663  1.00  0.00    -0.186 NA 
HETATM   15  C   UNL     1     -10.550  16.280  66.159  1.00  0.00    -0.267 C  
HETATM   16  H   UNL     1     -11.718  15.479  67.633  1.00  0.00     0.000 HD 
ENDBRANCH   1  14
TORSDOF 3
ENDMDL
MODEL      159
REMARK 921   NORMALIZED FREE ENERGY PREDICTED BY IDOCK:   -2.97 KCAL/MOL
REMARK 922        TOTAL FREE ENERGY PREDICTED BY IDOCK:   -3.77 KCAL/MOL
REMARK 923 INTER-LIGAND FREE ENERGY PREDICTED BY IDOCK:   -3.69 KCAL/MOL
REMARK 924 INTRA-LIGAND FREE ENERGY PREDICTED BY IDOCK:   -0.09 KCAL/MOL
REMARK 927      BINDING AFFINITY PREDICTED BY RF-SCORE:    0.00 PKD
ROOT
HETATM    1  C   UNL     1     -10.060   9.487  68.332  1.00  0.00    -0.175 C  
HETATM    2  C   UNL     1     -10.427   8.282  67.454  1.00  0.00    -0.353 C  
ENDROOT
BRANCH   1   3
HETATM    3  C   UNL     1      -8.947  10.367  67.678  1.00  0.00    -0.138 C  
HETATM    4  O   UNL     1      -8.098  10.927  68.694  1.00  0.00    -0.127 OA 
HETATM    5  H   UNL     1      -7.421  11.463  68.297  1.00  0.00     0.000 HD 
BRANCH   3   6
HETATM    6  C   UNL     1      -9.441  11.457  66.740  1.00  0.00    -0.197 A  
HETATM    7  C   UNL     1      -9.417  12.799  67.153  1.00  0.00    -0.223 A  
HETATM    8  C   UNL     1      -9.953  13.806  66.343  1.00  0.00    -0.301 A  
HETATM    9  C   UNL     1     -10.503  13.474  65.109  1.00  0.00    -0.364 A  
HETATM   10  O   UNL     1     -11.074  14.416  64.307  1.00  0.00    -0.606 OA 
HETATM   11  C   UNL     1     -10.495  12.160  64.661  1.00  0.00    -0.336 A  
HETATM   12  C   UNL     1      -9.963  11.155  65.471  1.00  0.00    -0.298 A  
HETATM   13  H   UNL     1     -11.450  14.189  63.464  1.00  0.00     0.000 HD 
ENDBRANCH   3   6
ENDBRANCH   1   3
BRANCH   1  14
HETATM   14  N   UNL     1     -11.235  10.359  68.572  1.00  0.00    -0.377 NA 
HETATM   15  C   UNL     1     -11.831  10.222  69.889  1.00  0.00    -0.193 C  
HETATM   16  H   UNL     1     -11.938  10.214  67.848  1.00  0.00     0.000 HD 
ENDBRANCH   1  14
TORSDOF 3
ENDMDL
MODEL      160
REMARK 921   NORMALIZED FREE ENERGY PREDICTED BY IDOCK:   -2.97 KCAL/MOL
REMARK 922        TOTAL FREE ENERGY PREDICTED BY IDOCK:   -3.77 KCAL/MOL
REMARK 923 INTER-LIGAND FREE ENERGY PREDICTED BY IDOCK:   -3.56 KCAL/MOL
REMARK 924 INTRA-LIGAND FREE ENERGY PREDICTED BY IDOCK:   -0.21 KCAL/MOL
REMARK 927      BINDING AFFINITY PREDICTED BY RF-SCORE:    0.00 PKD
ROOT
HETATM    1  C   UNL     1      -9.345   9.622  69.922  1.00  0.00    -0.228 C  
HETATM    2  C   UNL     1      -8.861   8.251  69.428  1.00  0.00    -0.146 C  
ENDROOT
BRANCH   1   3
HETATM    3  C   UNL     1     -10.660  10.069  69.206  1.00  0.00    -0.227 C  
HETATM    4  O   UNL     1     -11.093   9.053  68.287  1.00  0.00    -0.475 OA 
HETATM    5  H   UNL     1     -11.892   9.325  67.851  1.00  0.00     0.000 HD 
BRANCH   3   6
HETATM    6  C   UNL     1     -10.601  11.422  68.513  1.00  0.00    -0.225 A  
HETATM    7  C   UNL     1     -11.742  12.239  68.476  1.00  0.00    -0.381 A  
HETATM    8  C   UNL     1     -11.736  13.443  67.765  1.00  0.00    -0.394 A  
HETATM    9  C   UNL     1     -10.582  13.840  67.098  1.00  0.00    -0.277 A  
HETATM   10  O   UNL     1     -10.545  14.984  66.358  1.00  0.00    -0.295 OA 
HETATM   11  C   UNL     1      -9.428  13.070  67.159  1.00  0.00    -0.230 A  
HETATM   12  C   UNL     1      -9.436  11.868  67.866  1.00  0.00    -0.194 A  
HETATM   13  H   UNL     1      -9.756  15.255  65.902  1.00  0.00     0.000 HD 
ENDBRANCH   3   6
ENDBRANCH   1   3
BRANCH   1  14
HETATM   14  N   UNL     1      -9.615   9.608  71.380  1.00  0.00    -0.237 NA 
HETATM   15  C   UNL     1      -9.690   8.283  71.969  1.00  0.00    -0.252 C  
HETATM   16  H   UNL     1     -10.462  10.137  71.589  1.00  0.00     0.000 HD 
ENDBRANCH   1  14
TORSDOF 3
ENDMDL
MODEL      161
REMARK 921   NORMALIZED FREE ENERGY PREDICTED BY IDOCK:   -2.97 KCAL/MOL
REMARK 922        TOTAL FREE ENERGY PREDICTED BY IDOCK:   -3.77 KCAL/MOL
REMARK 923 INTER-LIGAND FREE ENERGY PREDICTED BY IDOCK:   -3.49 KCAL/MOL
REMARK 924 INTRA-LIGAND FREE ENERGY PREDICTED BY IDOCK:   -0.28 KCAL/MOL
REMARK 927      BINDING AFFINITY PREDICTED BY RF-SCORE:    0.00 PKD
ROOT
HETATM    1  C   UNL     1      -8.816  11.072  66.639  1.00  0.00    -0.164 C  
HETATM    2  C   UNL     1      -8.244  12.314  67.339  1.00  0.00    -0.178 C  
ENDROOT
BRANCH   1   3
HETATM    3  C   UNL     1     -10.315  10.833  67.009  1.00  0.00    -0.228 C  
HETATM    4  O   UNL     1     -11.049  12.066  66.922  1.00  0.00    -0.268 OA 
HETATM    5  H   UNL     1     -11.961  11.921  67.147  1.00  0.00     0.000 HD 
BRANCH   3   6
HETATM    6  C   UNL     1     -10.559  10.164  68.353  1.00  0.00    -0.249 A  
HETATM    7  C   UNL     1     -10.053   8.877  68.595  1.00  0.00    -0.206 A  
HETATM    8  C   UNL     1     -10.345   8.206  69.787  1.00  0.00    -0.216 A  
HETATM    9  C   UNL     1     -11.134   8.829  70.749  1.00  0.00    -0.260 A  
HETATM   10  O   UNL     1     -11.479   8.197  71.906  1.00  0.00    -0.266 OA 
HETATM   11  C   UNL     1     -11.606  10.120  70.550  1.00  0.00    -0.411 A  
HETATM   12  C   UNL     1     -11.317  10.787  69.359  1.00  0.00    -0.351 A  
HETATM   13  H   UNL     1     -12.018   8.623  72.563  1.00  0.00     0.000 HD 
ENDBRANCH   3   6
ENDBRANCH   1   3
BRANCH   1  14
HETATM   14  N   UNL     1      -8.736  11.197  65.164  1.00  0.00    -0.379 NA 
HETATM   15  C   UNL     1      -9.573  10.265  64.431  1.00  0.00    -0.316 C  
HETATM   16  H   UNL     1      -7.766  11.121  64.854  1.00  0.00     0.000 HD 
ENDBRANCH   1  14
TORSDOF 3
ENDMDL
MODEL      162
REMARK 921   NORMALIZED FREE ENERGY PREDICTED BY IDOCK:   -2.95 KCAL/MOL
REMARK 922        TOTAL FREE ENERGY PREDICTED BY IDOCK:   -3.74 KCAL/MOL
REMARK 923 INTER-LIGAND FREE ENERGY PREDICTED BY IDOCK:   -3.73 KCAL/MOL
REMARK 924 INTRA-LIGAND FREE ENERGY PREDICTED BY IDOCK:   -0.01 KCAL/MOL
REMARK 927      BINDING AFFINITY PREDICTED BY RF-SCORE:    0.00 PKD
ROOT
HETATM    1  C   UNL     1      -9.543  10.542  67.703  1.00  0.00    -0.157 C  
HETATM    2  C   UNL     1     -10.682   9.538  67.471  1.00  0.00    -0.311 C  
ENDROOT
BRANCH   1   3
HETATM    3  C   UNL     1      -9.834  11.921  67.029  1.00  0.00    -0.192 C  
HETATM    4  O   UNL     1      -8.659  12.402  66.356  1.00  0.00    -0.398 OA 
HETATM    5  H   UNL     1      -8.836  13.240  65.947  1.00  0.00     0.000 HD 
BRANCH   3   6
HETATM    6  C   UNL     1     -10.396  12.993  67.950  1.00  0.00    -0.233 A  
HETATM    7  C   UNL     1      -9.614  14.113  68.276  1.00  0.00    -0.226 A  
HETATM    8  C   UNL     1     -10.075  15.064  69.193  1.00  0.00    -0.245 A  
HETATM    9  C   UNL     1     -11.327  14.903  69.777  1.00  0.00    -0.283 A  
HETATM   10  O   UNL     1     -11.797  15.780  70.708  1.00  0.00    -0.342 OA 
HETATM   11  C   UNL     1     -12.135  13.828  69.434  1.00  0.00    -0.377 A  
HETATM   12  C   UNL     1     -11.674  12.878  68.521  1.00  0.00    -0.374 A  
HETATM   13  H   UNL     1     -12.653  15.671  71.106  1.00  0.00     0.000 HD 
ENDBRANCH   3   6
ENDBRANCH   1   3
BRANCH   1  14
HETATM   14  N   UNL     1      -9.325  10.789  69.149  1.00  0.00    -0.348 NA 
HETATM   15  C   UNL     1      -9.409   9.605  69.984  1.00  0.00    -0.241 C  
HETATM   16  H   UNL     1      -9.967  11.507  69.486  1.00  0.00     0.000 HD 
ENDBRANCH   1  14
TORSDOF 3
ENDMDL
MODEL      163
REMARK 921   NORMALIZED FREE ENERGY PREDICTED BY IDOCK:   -2.90 KCAL/MOL
REMARK 922        TOTAL FREE ENERGY PREDICTED BY IDOCK:   -3.69 KCAL/MOL
REMARK 923 INTER-LIGAND FREE ENERGY PREDICTED BY IDOCK:   -3.66 KCAL/MOL
REMARK 924 INTRA-LIGAND FREE ENERGY PREDICTED BY IDOCK:   -0.03 KCAL/MOL
REMARK 927      BINDING AFFINITY PREDICTED BY RF-SCORE:    0.00 PKD
ROOT
HETATM    1  C   UNL     1      -8.348  15.908  68.443  1.00  0.00    -0.174 C  
HETATM    2  C   UNL     1      -8.044  15.260  69.802  1.00  0.00    -0.028 C  
ENDROOT
BRANCH   1   3
HETATM    3  C   UNL     1      -8.368  14.857  67.287  1.00  0.00    -0.210 C  
HETATM    4  O   UNL     1      -7.515  15.286  66.213  1.00  0.00     0.014 OA 
HETATM    5  H   UNL     1      -7.528  14.647  65.510  1.00  0.00     0.000 HD 
BRANCH   3   6
HETATM    6  C   UNL     1      -9.746  14.492  66.758  1.00  0.00    -0.269 A  
HETATM    7  C   UNL     1     -10.162  14.968  65.504  1.00  0.00    -0.406 A  
HETATM    8  C   UNL     1     -11.458  14.722  65.040  1.00  0.00    -0.389 A  
HETATM    9  C   UNL     1     -12.340  13.986  65.825  1.00  0.00    -0.480 A  
HETATM   10  O   UNL     1     -13.625  13.760  65.432  1.00  0.00    -0.517 OA 
HETATM   11  C   UNL     1     -11.935  13.468  67.048  1.00  0.00    -0.440 A  
HETATM   12  C   UNL     1     -10.643  13.716  67.511  1.00  0.00    -0.243 A  
HETATM   13  H   UNL     1     -14.227  13.257  65.969  1.00  0.00     0.000 HD 
ENDBRANCH   3   6
ENDBRANCH   1   3
BRANCH   1  14
HETATM   14  N   UNL     1      -9.665  16.588  68.450  1.00  0.00    -0.229 NA 
HETATM   15  C   UNL     1      -9.644  17.955  67.960  1.00  0.00    -0.290 C  
HETATM   16  H   UNL     1     -10.078  16.553  69.382  1.00  0.00     0.000 HD 
ENDBRANCH   1  14
TORSDOF 3
ENDMDL
MODEL      164
REMARK 921   NORMALIZED FREE ENERGY PREDICTED BY IDOCK:   -2.89 KCAL/MOL
REMARK 922        TOTAL FREE ENERGY PREDICTED BY IDOCK:   -3.68 KCAL/MOL
REMARK 923 INTER-LIGAND FREE ENERGY PREDICTED BY IDOCK:   -3.52 KCAL/MOL
REMARK 924 INTRA-LIGAND FREE ENERGY PREDICTED BY IDOCK:   -0.16 KCAL/MOL
REMARK 927      BINDING AFFINITY PREDICTED BY RF-SCORE:    0.00 PKD
ROOT
HETATM    1  C   UNL     1     -10.277   6.954  71.518  1.00  0.00    -0.196 C  
HETATM    2  C   UNL     1      -8.835   7.183  71.041  1.00  0.00    -0.145 C  
ENDROOT
BRANCH   1   3
HETATM    3  C   UNL     1     -11.310   7.741  70.649  1.00  0.00    -0.264 C  
HETATM    4  O   UNL     1     -12.587   7.082  70.681  1.00  0.00    -0.598 OA 
HETATM    5  H   UNL     1     -13.215   7.560  70.153  1.00  0.00     0.000 HD 
BRANCH   3   6
HETATM    6  C   UNL     1     -10.887   8.011  69.214  1.00  0.00    -0.072 A  
HETATM    7  C   UNL     1     -10.822   6.953  68.293  1.00  0.00    -0.244 A  
HETATM    8  C   UNL     1     -10.347   7.163  66.995  1.00  0.00    -0.368 A  
HETATM    9  C   UNL     1      -9.948   8.439  66.609  1.00  0.00    -0.284 A  
HETATM   10  O   UNL     1      -9.438   8.681  65.368  1.00  0.00    -0.446 OA 
HETATM   11  C   UNL     1     -10.047   9.509  67.488  1.00  0.00    -0.257 A  
HETATM   12  C   UNL     1     -10.519   9.297  68.784  1.00  0.00    -0.233 A  
HETATM   13  H   UNL     1      -9.166   9.553  65.104  1.00  0.00     0.000 HD 
ENDBRANCH   3   6
ENDBRANCH   1   3
BRANCH   1  14
HETATM   14  N   UNL     1     -10.645   5.519  71.458  1.00  0.00    -0.241 NA 
HETATM   15  C   UNL     1      -9.595   4.645  70.966  1.00  0.00    -0.176 C  
HETATM   16  H   UNL     1     -11.496   5.394  70.909  1.00  0.00     0.000 HD 
ENDBRANCH   1  14
TORSDOF 3
ENDMDL
MODEL      165
REMARK 921   NORMALIZED FREE ENERGY PREDICTED BY IDOCK:   -2.89 KCAL/MOL
REMARK 922        TOTAL FREE ENERGY PREDICTED BY IDOCK:   -3.68 KCAL/MOL
REMARK 923 INTER-LIGAND FREE ENERGY PREDICTED BY IDOCK:   -3.66 KCAL/MOL
REMARK 924 INTRA-LIGAND FREE ENERGY PREDICTED BY IDOCK:   -0.02 KCAL/MOL
REMARK 927      BINDING AFFINITY PREDICTED BY RF-SCORE:    0.00 PKD
ROOT
HETATM    1  C   UNL     1      -8.802  14.203  67.428  1.00  0.00    -0.206 C  
HETATM    2  C   UNL     1      -8.503  15.623  66.923  1.00  0.00    -0.286 C  
ENDROOT
BRANCH   1   3
HETATM    3  C   UNL     1     -10.169  13.670  66.892  1.00  0.00    -0.261 C  
HETATM    4  O   UNL     1     -11.245  14.142  67.721  1.00  0.00    -0.268 OA 
HETATM    5  H   UNL     1     -12.076  13.817  67.396  1.00  0.00     0.000 HD 
BRANCH   3   6
HETATM    6  C   UNL     1     -10.259  12.162  66.713  1.00  0.00    -0.224 A  
HETATM    7  C   UNL     1     -10.559  11.344  67.814  1.00  0.00    -0.231 A  
HETATM    8  C   UNL     1     -10.554   9.951  67.692  1.00  0.00    -0.325 A  
HETATM    9  C   UNL     1     -10.263   9.372  66.461  1.00  0.00    -0.238 A  
HETATM   10  O   UNL     1     -10.205   8.019  66.307  1.00  0.00    -0.481 OA 
HETATM   11  C   UNL     1     -10.009  10.162  65.349  1.00  0.00    -0.377 A  
HETATM   12  C   UNL     1     -10.011  11.552  65.472  1.00  0.00    -0.282 A  
HETATM   13  H   UNL     1     -10.006   7.623  65.466  1.00  0.00     0.000 HD 
ENDBRANCH   3   6
ENDBRANCH   1   3
BRANCH   1  14
HETATM   14  N   UNL     1      -7.753  13.246  67.004  1.00  0.00    -0.385 NA 
HETATM   15  C   UNL     1      -6.927  12.735  68.083  1.00  0.00    -0.096 C  
HETATM   16  H   UNL     1      -7.169  13.659  66.276  1.00  0.00     0.000 HD 
ENDBRANCH   1  14
TORSDOF 3
ENDMDL
MODEL      166
REMARK 921   NORMALIZED FREE ENERGY PREDICTED BY IDOCK:   -2.86 KCAL/MOL
REMARK 922        TOTAL FREE ENERGY PREDICTED BY IDOCK:   -3.64 KCAL/MOL
REMARK 923 INTER-LIGAND FREE ENERGY PREDICTED BY IDOCK:   -3.43 KCAL/MOL
REMARK 924 INTRA-LIGAND FREE ENERGY PREDICTED BY IDOCK:   -0.21 KCAL/MOL
REMARK 927      BINDING AFFINITY PREDICTED BY RF-SCORE:    0.00 PKD
ROOT
HETATM    1  C   UNL     1     -10.058  10.160  67.916  1.00  0.00    -0.176 C  
HETATM    2  C   UNL     1     -10.125  10.378  66.398  1.00  0.00    -0.287 C  
ENDROOT
BRANCH   1   3
HETATM    3  C   UNL     1     -10.128   8.645  68.292  1.00  0.00    -0.192 C  
HETATM    4  O   UNL     1     -11.128   7.984  67.500  1.00  0.00    -0.495 OA 
HETATM    5  H   UNL     1     -11.171   7.063  67.728  1.00  0.00     0.000 HD 
BRANCH   3   6
HETATM    6  C   UNL     1     -10.336   8.346  69.768  1.00  0.00    -0.216 A  
HETATM    7  C   UNL     1      -9.402   7.557  70.460  1.00  0.00    -0.160 A  
HETATM    8  C   UNL     1      -9.622   7.193  71.792  1.00  0.00    -0.161 A  
HETATM    9  C   UNL     1     -10.772   7.628  72.441  1.00  0.00    -0.280 A  
HETATM   10  O   UNL     1     -11.048   7.261  73.725  1.00  0.00    -0.557 OA 
HETATM   11  C   UNL     1     -11.687   8.445  71.791  1.00  0.00    -0.371 A  
HETATM   12  C   UNL     1     -11.468   8.807  70.461  1.00  0.00    -0.222 A  
HETATM   13  H   UNL     1     -11.835   7.558  74.168  1.00  0.00     0.000 HD 
ENDBRANCH   3   6
ENDBRANCH   1   3
BRANCH   1  14
HETATM   14  N   UNL     1      -8.801  10.703  68.486  1.00  0.00    -0.141 NA 
HETATM   15  C   UNL     1      -8.549  12.099  68.176  1.00  0.00    -0.177 C  
HETATM   16  H   UNL     1      -8.006  10.128  68.204  1.00  0.00     0.000 HD 
ENDBRANCH   1  14
TORSDOF 3
ENDMDL
MODEL      167
REMARK 921   NORMALIZED FREE ENERGY PREDICTED BY IDOCK:   -2.86 KCAL/MOL
REMARK 922        TOTAL FREE ENERGY PREDICTED BY IDOCK:   -3.64 KCAL/MOL
REMARK 923 INTER-LIGAND FREE ENERGY PREDICTED BY IDOCK:   -3.40 KCAL/MOL
REMARK 924 INTRA-LIGAND FREE ENERGY PREDICTED BY IDOCK:   -0.23 KCAL/MOL
REMARK 927      BINDING AFFINITY PREDICTED BY RF-SCORE:    0.00 PKD
ROOT
HETATM    1  C   UNL     1      -8.841   6.905  66.152  1.00  0.00    -0.147 C  
HETATM    2  C   UNL     1      -7.685   6.359  67.003  1.00  0.00    -0.100 C  
ENDROOT
BRANCH   1   3
HETATM    3  C   UNL     1      -8.508   8.305  65.545  1.00  0.00    -0.161 C  
HETATM    4  O   UNL     1      -7.204   8.733  65.972  1.00  0.00    -0.085 OA 
HETATM    5  H   UNL     1      -7.001   9.584  65.604  1.00  0.00     0.000 HD 
BRANCH   3   6
HETATM    6  C   UNL     1      -9.536   9.395  65.808  1.00  0.00    -0.340 A  
HETATM    7  C   UNL     1      -9.867  10.304  64.791  1.00  0.00    -0.403 A  
HETATM    8  C   UNL     1     -10.740  11.369  65.040  1.00  0.00    -0.340 A  
HETATM    9  C   UNL     1     -11.294  11.519  66.306  1.00  0.00    -0.153 A  
HETATM   10  O   UNL     1     -12.114  12.566  66.605  1.00  0.00    -0.562 OA 
HETATM   11  C   UNL     1     -11.017  10.605  67.314  1.00  0.00    -0.348 A  
HETATM   12  C   UNL     1     -10.144   9.545  67.066  1.00  0.00    -0.297 A  
HETATM   13  H   UNL     1     -12.494  12.668  67.471  1.00  0.00     0.000 HD 
ENDBRANCH   3   6
ENDBRANCH   1   3
BRANCH   1  14
HETATM   14  N   UNL     1      -9.161   5.996  65.025  1.00  0.00    -0.350 NA 
HETATM   15  C   UNL     1      -8.047   5.718  64.137  1.00  0.00    -0.120 C  
HETATM   16  H   UNL     1      -9.956   6.354  64.495  1.00  0.00     0.000 HD 
ENDBRANCH   1  14
TORSDOF 3
ENDMDL
MODEL      168
REMARK 921   NORMALIZED FREE ENERGY PREDICTED BY IDOCK:   -2.85 KCAL/MOL
REMARK 922        TOTAL FREE ENERGY PREDICTED BY IDOCK:   -3.63 KCAL/MOL
REMARK 923 INTER-LIGAND FREE ENERGY PREDICTED BY IDOCK:   -3.47 KCAL/MOL
REMARK 924 INTRA-LIGAND FREE ENERGY PREDICTED BY IDOCK:   -0.16 KCAL/MOL
REMARK 927      BINDING AFFINITY PREDICTED BY RF-SCORE:    0.00 PKD
ROOT
HETATM    1  C   UNL     1     -11.634  12.398  64.629  1.00  0.00    -0.343 C  
HETATM    2  C   UNL     1     -10.702  12.005  63.473  1.00  0.00    -0.513 C  
ENDROOT
BRANCH   1   3
HETATM    3  C   UNL     1     -11.437  11.476  65.875  1.00  0.00    -0.014 C  
HETATM    4  O   UNL     1     -11.930  12.128  67.057  1.00  0.00    -0.593 OA 
HETATM    5  H   UNL     1     -11.810  11.568  67.814  1.00  0.00     0.000 HD 
BRANCH   3   6
HETATM    6  C   UNL     1     -10.020  10.971  66.099  1.00  0.00    -0.277 A  
HETATM    7  C   UNL     1      -9.708   9.626  65.839  1.00  0.00    -0.343 A  
HETATM    8  C   UNL     1      -8.437   9.119  66.127  1.00  0.00    -0.136 A  
HETATM    9  C   UNL     1      -7.468   9.961  66.663  1.00  0.00    -0.099 A  
HETATM   10  O   UNL     1      -6.230   9.500  66.998  1.00  0.00    -0.063 OA 
HETATM   11  C   UNL     1      -7.741  11.304  66.884  1.00  0.00    -0.152 A  
HETATM   12  C   UNL     1      -9.010  11.809  66.600  1.00  0.00    -0.195 A  
HETATM   13  H   UNL     1      -5.568  10.076  67.365  1.00  0.00     0.000 HD 
ENDBRANCH   3   6
ENDBRANCH   1   3
BRANCH   1  14
HETATM   14  N   UNL     1     -11.395  13.794  65.066  1.00  0.00    -0.317 NA 
HETATM   15  C   UNL     1     -12.243  14.782  64.424  1.00  0.00    -0.428 C  
HETATM   16  H   UNL     1     -10.412  14.040  64.947  1.00  0.00     0.000 HD 
ENDBRANCH   1  14
TORSDOF 3
ENDMDL
MODEL      169
REMARK 921   NORMALIZED FREE ENERGY PREDICTED BY IDOCK:   -2.81 KCAL/MOL
REMARK 922        TOTAL FREE ENERGY PREDICTED BY IDOCK:   -3.59 KCAL/MOL
REMARK 923 INTER-LIGAND FREE ENERGY PREDICTED BY IDOCK:   -3.46 KCAL/MOL
REMARK 924 INTRA-LIGAND FREE ENERGY PREDICTED BY IDOCK:   -0.13 KCAL/MOL
REMARK 927      BINDING AFFINITY PREDICTED BY RF-SCORE:    0.00 PKD
ROOT
HETATM    1  C   UNL     1      -8.680  10.599  67.184  1.00  0.00    -0.130 C  
HETATM    2  C   UNL     1      -7.910   9.280  67.346  1.00  0.00    -0.099 C  
ENDROOT
BRANCH   1   3
HETATM    3  C   UNL     1     -10.226  10.375  67.177  1.00  0.00    -0.222 C  
HETATM    4  O   UNL     1     -10.854  11.275  66.249  1.00  0.00    -0.272 OA 
HETATM    5  H   UNL     1     -11.794  11.139  66.246  1.00  0.00     0.000 HD 
BRANCH   3   6
HETATM    6  C   UNL     1     -10.905  10.454  68.536  1.00  0.00    -0.278 A  
HETATM    7  C   UNL     1     -10.759   9.400  69.453  1.00  0.00    -0.234 A  
HETATM    8  C   UNL     1     -11.450   9.410  70.669  1.00  0.00    -0.344 A  
HETATM    9  C   UNL     1     -12.279  10.483  70.978  1.00  0.00    -0.400 A  
HETATM   10  O   UNL     1     -13.004  10.515  72.131  1.00  0.00    -0.441 OA 
HETATM   11  C   UNL     1     -12.402  11.557  70.106  1.00  0.00    -0.323 A  
HETATM   12  C   UNL     1     -11.715  11.545  68.892  1.00  0.00    -0.403 A  
HETATM   13  H   UNL     1     -13.571  11.248  72.343  1.00  0.00     0.000 HD 
ENDBRANCH   3   6
ENDBRANCH   1   3
BRANCH   1  14
HETATM   14  N   UNL     1      -8.372  11.545  68.283  1.00  0.00    -0.148 NA 
HETATM   15  C   UNL     1      -8.246  12.931  67.872  1.00  0.00    -0.165 C  
HETATM   16  H   UNL     1      -7.534  11.246  68.783  1.00  0.00     0.000 HD 
ENDBRANCH   1  14
TORSDOF 3
ENDMDL
MODEL      170
REMARK 921   NORMALIZED FREE ENERGY PREDICTED BY IDOCK:   -2.81 KCAL/MOL
REMARK 922        TOTAL FREE ENERGY PREDICTED BY IDOCK:   -3.59 KCAL/MOL
REMARK 923 INTER-LIGAND FREE ENERGY PREDICTED BY IDOCK:   -3.34 KCAL/MOL
REMARK 924 INTRA-LIGAND FREE ENERGY PREDICTED BY IDOCK:   -0.25 KCAL/MOL
REMARK 927      BINDING AFFINITY PREDICTED BY RF-SCORE:    0.00 PKD
ROOT
HETATM    1  C   UNL     1     -11.405   9.933  70.038  1.00  0.00    -0.249 C  
HETATM    2  C   UNL     1     -11.233  10.713  68.726  1.00  0.00    -0.337 C  
ENDROOT
BRANCH   1   3
HETATM    3  C   UNL     1     -10.035   9.454  70.616  1.00  0.00    -0.284 C  
HETATM    4  O   UNL     1      -8.958   9.911  69.781  1.00  0.00    -0.207 OA 
HETATM    5  H   UNL     1      -8.125   9.620  70.132  1.00  0.00     0.000 HD 
BRANCH   3   6
HETATM    6  C   UNL     1      -9.916   7.959  70.864  1.00  0.00    -0.196 A  
HETATM    7  C   UNL     1     -10.692   7.061  70.113  1.00  0.00    -0.265 A  
HETATM    8  C   UNL     1     -10.666   5.690  70.389  1.00  0.00    -0.352 A  
HETATM    9  C   UNL     1      -9.853   5.211  71.410  1.00  0.00    -0.179 A  
HETATM   10  O   UNL     1      -9.830   3.889  71.742  1.00  0.00    -0.167 OA 
HETATM   11  C   UNL     1      -9.044   6.075  72.136  1.00  0.00    -0.142 A  
HETATM   12  C   UNL     1      -9.071   7.443  71.862  1.00  0.00    -0.146 A  
HETATM   13  H   UNL     1      -9.274   3.562  72.440  1.00  0.00     0.000 HD 
ENDBRANCH   3   6
ENDBRANCH   1   3
BRANCH   1  14
HETATM   14  N   UNL     1     -12.062  10.761  71.078  1.00  0.00    -0.352 NA 
HETATM   15  C   UNL     1     -13.048  10.057  71.878  1.00  0.00    -0.460 C  
HETATM   16  H   UNL     1     -12.476  11.594  70.659  1.00  0.00     0.000 HD 
ENDBRANCH   1  14
TORSDOF 3
ENDMDL
MODEL      171
REMARK 921   NORMALIZED FREE ENERGY PREDICTED BY IDOCK:   -2.81 KCAL/MOL
REMARK 922        TOTAL FREE ENERGY PREDICTED BY IDOCK:   -3.59 KCAL/MOL
REMARK 923 INTER-LIGAND FREE ENERGY PREDICTED BY IDOCK:   -3.59 KCAL/MOL
REMARK 924 INTRA-LIGAND FREE ENERGY PREDICTED BY IDOCK:    0.00 KCAL/MOL
REMARK 927      BINDING AFFINITY PREDICTED BY RF-SCORE:    0.00 PKD
ROOT
HETATM    1  C   UNL     1     -11.566   9.730  71.123  1.00  0.00    -0.392 C  
HETATM    2  C   UNL     1     -12.744   9.986  72.074  1.00  0.00    -0.439 C  
ENDROOT
BRANCH   1   3
HETATM    3  C   UNL     1     -10.889   8.348  71.393  1.00  0.00    -0.244 C  
HETATM    4  O   UNL     1      -9.846   8.491  72.372  1.00  0.00    -0.292 OA 
HETATM    5  H   UNL     1      -9.434   7.651  72.536  1.00  0.00     0.000 HD 
BRANCH   3   6
HETATM    6  C   UNL     1     -10.366   7.624  70.163  1.00  0.00    -0.217 A  
HETATM    7  C   UNL     1      -9.207   8.086  69.518  1.00  0.00    -0.152 A  
HETATM    8  C   UNL     1      -8.763   7.491  68.333  1.00  0.00    -0.123 A  
HETATM    9  C   UNL     1      -9.471   6.422  67.795  1.00  0.00    -0.115 A  
HETATM   10  O   UNL     1      -9.100   5.841  66.619  1.00  0.00    -0.125 OA 
HETATM   11  C   UNL     1     -10.593   5.919  68.440  1.00  0.00    -0.314 A  
HETATM   12  C   UNL     1     -11.038   6.514  69.621  1.00  0.00    -0.435 A  
HETATM   13  H   UNL     1      -9.584   5.109  66.252  1.00  0.00     0.000 HD 
ENDBRANCH   3   6
ENDBRANCH   1   3
BRANCH   1  14
HETATM   14  N   UNL     1     -12.001   9.744  69.706  1.00  0.00    -0.448 NA 
HETATM   15  C   UNL     1     -11.968  11.052  69.076  1.00  0.00    -0.293 C  
HETATM   16  H   UNL     1     -12.929   9.330  69.616  1.00  0.00     0.000 HD 
ENDBRANCH   1  14
TORSDOF 3
ENDMDL
MODEL      172
REMARK 921   NORMALIZED FREE ENERGY PREDICTED BY IDOCK:   -2.80 KCAL/MOL
REMARK 922        TOTAL FREE ENERGY PREDICTED BY IDOCK:   -3.57 KCAL/MOL
REMARK 923 INTER-LIGAND FREE ENERGY PREDICTED BY IDOCK:   -3.36 KCAL/MOL
REMARK 924 INTRA-LIGAND FREE ENERGY PREDICTED BY IDOCK:   -0.22 KCAL/MOL
REMARK 927      BINDING AFFINITY PREDICTED BY RF-SCORE:    0.00 PKD
ROOT
HETATM    1  C   UNL     1      -9.093   5.841  66.235  1.00  0.00    -0.147 C  
HETATM    2  C   UNL     1      -7.799   6.396  65.623  1.00  0.00    -0.099 C  
ENDROOT
BRANCH   1   3
HETATM    3  C   UNL     1     -10.104   6.977  66.594  1.00  0.00    -0.148 C  
HETATM    4  O   UNL     1      -9.699   8.212  65.978  1.00  0.00    -0.437 OA 
HETATM    5  H   UNL     1     -10.314   8.903  66.197  1.00  0.00     0.000 HD 
BRANCH   3   6
HETATM    6  C   UNL     1     -10.358   7.183  68.079  1.00  0.00    -0.238 A  
HETATM    7  C   UNL     1     -11.117   6.243  68.795  1.00  0.00    -0.424 A  
HETATM    8  C   UNL     1     -11.440   6.460  70.138  1.00  0.00    -0.484 A  
HETATM    9  C   UNL     1     -10.993   7.614  70.774  1.00  0.00    -0.252 A  
HETATM   10  O   UNL     1     -11.321   7.886  72.068  1.00  0.00    -0.260 OA 
HETATM   11  C   UNL     1     -10.204   8.534  70.098  1.00  0.00    -0.202 A  
HETATM   12  C   UNL     1      -9.883   8.318  68.757  1.00  0.00    -0.179 A  
HETATM   13  H   UNL     1     -11.016   8.675  72.503  1.00  0.00     0.000 HD 
ENDBRANCH   3   6
ENDBRANCH   1   3
BRANCH   1  14
HETATM   14  N   UNL     1      -9.779   4.913  65.303  1.00  0.00    -0.340 NA 
HETATM   15  C   UNL     1      -9.023   4.590  64.107  1.00  0.00    -0.144 C  
HETATM   16  H   UNL     1     -10.699   5.276  65.054  1.00  0.00     0.000 HD 
ENDBRANCH   1  14
TORSDOF 3
ENDMDL
MODEL      173
REMARK 921   NORMALIZED FREE ENERGY PREDICTED BY IDOCK:   -2.80 KCAL/MOL
REMARK 922        TOTAL FREE ENERGY PREDICTED BY IDOCK:   -3.57 KCAL/MOL
REMARK 923 INTER-LIGAND FREE ENERGY PREDICTED BY IDOCK:   -3.37 KCAL/MOL
REMARK 924 INTRA-LIGAND FREE ENERGY PREDICTED BY IDOCK:   -0.20 KCAL/MOL
REMARK 927      BINDING AFFINITY PREDICTED BY RF-SCORE:    0.00 PKD
ROOT
HETATM    1  C   UNL     1     -10.390  12.113  68.633  1.00  0.00    -0.195 C  
HETATM    2  C   UNL     1     -11.432  13.235  68.754  1.00  0.00    -0.346 C  
ENDROOT
BRANCH   1   3
HETATM    3  C   UNL     1     -11.045  10.747  68.250  1.00  0.00    -0.271 C  
HETATM    4  O   UNL     1     -12.466  10.803  68.460  1.00  0.00    -0.748 OA 
HETATM    5  H   UNL     1     -12.864   9.973  68.227  1.00  0.00     0.000 HD 
BRANCH   3   6
HETATM    6  C   UNL     1     -10.455   9.523  68.933  1.00  0.00    -0.235 A  
HETATM    7  C   UNL     1     -10.086   9.587  70.287  1.00  0.00    -0.314 A  
HETATM    8  C   UNL     1      -9.457   8.504  70.908  1.00  0.00    -0.221 A  
HETATM    9  C   UNL     1      -9.206   7.346  70.179  1.00  0.00    -0.151 A  
HETATM   10  O   UNL     1      -8.556   6.283  70.732  1.00  0.00    -0.133 OA 
HETATM   11  C   UNL     1      -9.603   7.244  68.853  1.00  0.00    -0.143 A  
HETATM   12  C   UNL     1     -10.228   8.326  68.232  1.00  0.00    -0.246 A  
HETATM   13  H   UNL     1      -8.385   5.492  70.234  1.00  0.00     0.000 HD 
ENDBRANCH   3   6
ENDBRANCH   1   3
BRANCH   1  14
HETATM   14  N   UNL     1      -9.374  12.426  67.600  1.00  0.00    -0.181 NA 
HETATM   15  C   UNL     1      -8.627  13.648  67.835  1.00  0.00    -0.181 C  
HETATM   16  H   UNL     1      -9.804  12.446  66.675  1.00  0.00     0.000 HD 
ENDBRANCH   1  14
TORSDOF 3
ENDMDL
MODEL      174
REMARK 921   NORMALIZED FREE ENERGY PREDICTED BY IDOCK:   -2.79 KCAL/MOL
REMARK 922        TOTAL FREE ENERGY PREDICTED BY IDOCK:   -3.56 KCAL/MOL
REMARK 923 INTER-LIGAND FREE ENERGY PREDICTED BY IDOCK:   -3.28 KCAL/MOL
REMARK 924 INTRA-LIGAND FREE ENERGY PREDICTED BY IDOCK:   -0.29 KCAL/MOL
REMARK 927      BINDING AFFINITY PREDICTED BY RF-SCORE:    0.00 PKD
ROOT
HETATM    1  C   UNL     1      -9.792   5.890  66.623  1.00  0.00    -0.163 C  
HETATM    2  C   UNL     1      -9.582   4.727  67.603  1.00  0.00    -0.190 C  
ENDROOT
BRANCH   1   3
HETATM    3  C   UNL     1      -8.909   7.126  66.987  1.00  0.00    -0.124 C  
HETATM    4  O   UNL     1      -8.190   6.879  68.207  1.00  0.00    -0.121 OA 
HETATM    5  H   UNL     1      -7.653   7.631  68.428  1.00  0.00     0.000 HD 
BRANCH   3   6
HETATM    6  C   UNL     1      -9.642   8.456  67.062  1.00  0.00    -0.248 A  
HETATM    7  C   UNL     1     -10.262   8.846  68.261  1.00  0.00    -0.239 A  
HETATM    8  C   UNL     1     -11.020  10.020  68.324  1.00  0.00    -0.278 A  
HETATM    9  C   UNL     1     -11.148  10.816  67.191  1.00  0.00    -0.227 A  
HETATM   10  O   UNL     1     -11.912  11.944  67.196  1.00  0.00    -0.611 OA 
HETATM   11  C   UNL     1     -10.507  10.473  66.008  1.00  0.00    -0.226 A  
HETATM   12  C   UNL     1      -9.753   9.300  65.944  1.00  0.00    -0.355 A  
HETATM   13  H   UNL     1     -12.000  12.488  66.421  1.00  0.00     0.000 HD 
ENDBRANCH   3   6
ENDBRANCH   1   3
BRANCH   1  14
HETATM   14  N   UNL     1      -9.457   5.496  65.234  1.00  0.00    -0.363 NA 
HETATM   15  C   UNL     1      -8.165   5.966  64.766  1.00  0.00    -0.129 C  
HETATM   16  H   UNL     1     -10.194   5.791  64.593  1.00  0.00     0.000 HD 
ENDBRANCH   1  14
TORSDOF 3
ENDMDL
MODEL      175
REMARK 921   NORMALIZED FREE ENERGY PREDICTED BY IDOCK:   -2.77 KCAL/MOL
REMARK 922        TOTAL FREE ENERGY PREDICTED BY IDOCK:   -3.54 KCAL/MOL
REMARK 923 INTER-LIGAND FREE ENERGY PREDICTED BY IDOCK:   -3.51 KCAL/MOL
REMARK 924 INTRA-LIGAND FREE ENERGY PREDICTED BY IDOCK:   -0.03 KCAL/MOL
REMARK 927      BINDING AFFINITY PREDICTED BY RF-SCORE:    0.00 PKD
ROOT
HETATM    1  C   UNL     1      -9.089   9.673  70.142  1.00  0.00    -0.240 C  
HETATM    2  C   UNL     1      -8.057   8.837  69.371  1.00  0.00    -0.106 C  
ENDROOT
BRANCH   1   3
HETATM    3  C   UNL     1     -10.348   9.991  69.273  1.00  0.00    -0.219 C  
HETATM    4  O   UNL     1      -9.977  10.117  67.890  1.00  0.00    -0.155 OA 
HETATM    5  H   UNL     1     -10.742  10.310  67.362  1.00  0.00     0.000 HD 
BRANCH   3   6
HETATM    6  C   UNL     1     -11.162  11.197  69.716  1.00  0.00    -0.318 A  
HETATM    7  C   UNL     1     -11.099  12.391  68.980  1.00  0.00    -0.288 A  
HETATM    8  C   UNL     1     -11.766  13.539  69.422  1.00  0.00    -0.381 A  
HETATM    9  C   UNL     1     -12.510  13.490  70.596  1.00  0.00    -0.333 A  
HETATM   10  O   UNL     1     -13.140  14.595  71.086  1.00  0.00    -0.336 OA 
HETATM   11  C   UNL     1     -12.624  12.308  71.315  1.00  0.00    -0.336 A  
HETATM   12  C   UNL     1     -11.956  11.164  70.875  1.00  0.00    -0.362 A  
HETATM   13  H   UNL     1     -13.649  14.562  71.889  1.00  0.00     0.000 HD 
ENDBRANCH   3   6
ENDBRANCH   1   3
BRANCH   1  14
HETATM   14  N   UNL     1      -9.555   8.970  71.361  1.00  0.00    -0.290 NA 
HETATM   15  C   UNL     1      -9.163   7.574  71.441  1.00  0.00    -0.141 C  
HETATM   16  H   UNL     1     -10.567   9.060  71.458  1.00  0.00     0.000 HD 
ENDBRANCH   1  14
TORSDOF 3
ENDMDL
MODEL      176
REMARK 921   NORMALIZED FREE ENERGY PREDICTED BY IDOCK:   -2.73 KCAL/MOL
REMARK 922        TOTAL FREE ENERGY PREDICTED BY IDOCK:   -3.49 KCAL/MOL
REMARK 923 INTER-LIGAND FREE ENERGY PREDICTED BY IDOCK:   -3.24 KCAL/MOL
REMARK 924 INTRA-LIGAND FREE ENERGY PREDICTED BY IDOCK:   -0.25 KCAL/MOL
REMARK 927      BINDING AFFINITY PREDICTED BY RF-SCORE:    0.00 PKD
ROOT
HETATM    1  C   UNL     1     -11.154  13.131  68.976  1.00  0.00    -0.234 C  
HETATM    2  C   UNL     1     -12.155  13.370  67.836  1.00  0.00    -0.289 C  
ENDROOT
BRANCH   1   3
HETATM    3  C   UNL     1      -9.920  12.297  68.505  1.00  0.00    -0.170 C  
HETATM    4  O   UNL     1      -9.336  12.895  67.335  1.00  0.00    -0.182 OA 
HETATM    5  H   UNL     1      -8.586  12.387  67.048  1.00  0.00     0.000 HD 
BRANCH   3   6
HETATM    6  C   UNL     1     -10.181  10.817  68.271  1.00  0.00    -0.187 A  
HETATM    7  C   UNL     1     -10.372   9.959  69.366  1.00  0.00    -0.238 A  
HETATM    8  C   UNL     1     -10.520   8.581  69.177  1.00  0.00    -0.217 A  
HETATM    9  C   UNL     1     -10.491   8.058  67.888  1.00  0.00    -0.197 A  
HETATM   10  O   UNL     1     -10.588   6.718  67.661  1.00  0.00    -0.198 OA 
HETATM   11  C   UNL     1     -10.349   8.893  66.788  1.00  0.00    -0.317 A  
HETATM   12  C   UNL     1     -10.199  10.268  66.978  1.00  0.00    -0.282 A  
HETATM   13  H   UNL     1     -10.568   6.361  66.780  1.00  0.00     0.000 HD 
ENDBRANCH   3   6
ENDBRANCH   1   3
BRANCH   1  14
HETATM   14  N   UNL     1     -10.644  14.410  69.526  1.00  0.00    -0.428 NA 
HETATM   15  C   UNL     1     -11.659  15.260  70.123  1.00  0.00    -0.299 C  
HETATM   16  H   UNL     1     -10.129  14.923  68.810  1.00  0.00     0.000 HD 
ENDBRANCH   1  14
TORSDOF 3
ENDMDL
MODEL      177
REMARK 921   NORMALIZED FREE ENERGY PREDICTED BY IDOCK:   -2.72 KCAL/MOL
REMARK 922        TOTAL FREE ENERGY PREDICTED BY IDOCK:   -3.48 KCAL/MOL
REMARK 923 INTER-LIGAND FREE ENERGY PREDICTED BY IDOCK:   -3.35 KCAL/MOL
REMARK 924 INTRA-LIGAND FREE ENERGY PREDICTED BY IDOCK:   -0.13 KCAL/MOL
REMARK 927      BINDING AFFINITY PREDICTED BY RF-SCORE:    0.00 PKD
ROOT
HETATM    1  C   UNL     1      -7.534   6.834  71.065  1.00  0.00    -0.083 C  
HETATM    2  C   UNL     1      -7.355   5.952  69.820  1.00  0.00    -0.075 C  
ENDROOT
BRANCH   1   3
HETATM    3  C   UNL     1      -8.524   8.014  70.805  1.00  0.00    -0.124 C  
HETATM    4  O   UNL     1      -8.069   9.200  71.478  1.00  0.00    -0.337 OA 
HETATM    5  H   UNL     1      -8.672   9.917  71.321  1.00  0.00     0.000 HD 
BRANCH   3   6
HETATM    6  C   UNL     1      -9.980   7.735  71.147  1.00  0.00    -0.194 A  
HETATM    7  C   UNL     1     -10.734   6.868  70.340  1.00  0.00    -0.278 A  
HETATM    8  C   UNL     1     -12.097   6.670  70.582  1.00  0.00    -0.342 A  
HETATM    9  C   UNL     1     -12.708   7.331  71.643  1.00  0.00    -0.375 A  
HETATM   10  O   UNL     1     -14.042   7.202  71.889  1.00  0.00    -0.525 OA 
HETATM   11  C   UNL     1     -11.972   8.157  72.481  1.00  0.00    -0.410 A  
HETATM   12  C   UNL     1     -10.612   8.356  72.237  1.00  0.00    -0.412 A  
HETATM   13  H   UNL     1     -14.460   7.653  72.614  1.00  0.00     0.000 HD 
ENDBRANCH   3   6
ENDBRANCH   1   3
BRANCH   1  14
HETATM   14  N   UNL     1      -8.061   6.053  72.210  1.00  0.00    -0.110 NA 
HETATM   15  C   UNL     1      -7.386   6.299  73.471  1.00  0.00    -0.087 C  
HETATM   16  H   UNL     1      -8.054   5.056  71.992  1.00  0.00     0.000 HD 
ENDBRANCH   1  14
TORSDOF 3
ENDMDL
MODEL      178
REMARK 921   NORMALIZED FREE ENERGY PREDICTED BY IDOCK:   -2.71 KCAL/MOL
REMARK 922        TOTAL FREE ENERGY PREDICTED BY IDOCK:   -3.47 KCAL/MOL
REMARK 923 INTER-LIGAND FREE ENERGY PREDICTED BY IDOCK:   -3.28 KCAL/MOL
REMARK 924 INTRA-LIGAND FREE ENERGY PREDICTED BY IDOCK:   -0.19 KCAL/MOL
REMARK 927      BINDING AFFINITY PREDICTED BY RF-SCORE:    0.00 PKD
ROOT
HETATM    1  C   UNL     1     -10.097   7.120  71.570  1.00  0.00    -0.186 C  
HETATM    2  C   UNL     1      -8.888   8.066  71.590  1.00  0.00    -0.179 C  
ENDROOT
BRANCH   1   3
HETATM    3  C   UNL     1     -11.330   7.764  70.859  1.00  0.00    -0.275 C  
HETATM    4  O   UNL     1     -12.212   6.739  70.371  1.00  0.00    -0.581 OA 
HETATM    5  H   UNL     1     -12.961   7.131  69.938  1.00  0.00     0.000 HD 
BRANCH   3   6
HETATM    6  C   UNL     1     -11.004   8.756  69.753  1.00  0.00    -0.146 A  
HETATM    7  C   UNL     1     -11.243  10.126  69.950  1.00  0.00    -0.343 A  
HETATM    8  C   UNL     1     -11.039  11.043  68.914  1.00  0.00    -0.295 A  
HETATM    9  C   UNL     1     -10.580  10.593  67.680  1.00  0.00    -0.246 A  
HETATM   10  O   UNL     1     -10.408  11.444  66.630  1.00  0.00    -0.218 OA 
HETATM   11  C   UNL     1     -10.294   9.249  67.478  1.00  0.00    -0.323 A  
HETATM   12  C   UNL     1     -10.501   8.334  68.511  1.00  0.00    -0.199 A  
HETATM   13  H   UNL     1     -10.095  11.137  65.787  1.00  0.00     0.000 HD 
ENDBRANCH   3   6
ENDBRANCH   1   3
BRANCH   1  14
HETATM   14  N   UNL     1      -9.783   5.856  70.860  1.00  0.00    -0.170 NA 
HETATM   15  C   UNL     1      -8.378   5.672  70.544  1.00  0.00    -0.117 C  
HETATM   16  H   UNL     1     -10.350   5.774  70.015  1.00  0.00     0.000 HD 
ENDBRANCH   1  14
TORSDOF 3
ENDMDL
MODEL      179
REMARK 921   NORMALIZED FREE ENERGY PREDICTED BY IDOCK:   -2.68 KCAL/MOL
REMARK 922        TOTAL FREE ENERGY PREDICTED BY IDOCK:   -3.43 KCAL/MOL
REMARK 923 INTER-LIGAND FREE ENERGY PREDICTED BY IDOCK:   -3.17 KCAL/MOL
REMARK 924 INTRA-LIGAND FREE ENERGY PREDICTED BY IDOCK:   -0.26 KCAL/MOL
REMARK 927      BINDING AFFINITY PREDICTED BY RF-SCORE:    0.00 PKD
ROOT
HETATM    1  C   UNL     1      -9.186   5.321  67.234  1.00  0.00    -0.113 C  
HETATM    2  C   UNL     1      -9.986   4.420  66.282  1.00  0.00    -0.255 C  
ENDROOT
BRANCH   1   3
HETATM    3  C   UNL     1      -9.103   4.719  68.674  1.00  0.00    -0.113 C  
HETATM    4  O   UNL     1      -9.452   3.325  68.649  1.00  0.00    -0.173 OA 
HETATM    5  H   UNL     1      -9.402   2.960  69.524  1.00  0.00     0.000 HD 
BRANCH   3   6
HETATM    6  C   UNL     1      -9.908   5.450  69.737  1.00  0.00    -0.268 A  
HETATM    7  C   UNL     1      -9.676   5.184  71.096  1.00  0.00    -0.235 A  
HETATM    8  C   UNL     1     -10.468   5.775  72.086  1.00  0.00    -0.258 A  
HETATM    9  C   UNL     1     -11.488   6.645  71.718  1.00  0.00    -0.291 A  
HETATM   10  O   UNL     1     -12.312   7.209  72.646  1.00  0.00    -0.485 OA 
HETATM   11  C   UNL     1     -11.707   6.958  70.383  1.00  0.00    -0.377 A  
HETATM   12  C   UNL     1     -10.917   6.366  69.396  1.00  0.00    -0.421 A  
HETATM   13  H   UNL     1     -13.010   7.804  72.395  1.00  0.00     0.000 HD 
ENDBRANCH   3   6
ENDBRANCH   1   3
BRANCH   1  14
HETATM   14  N   UNL     1      -7.798   5.521  66.753  1.00  0.00    -0.100 NA 
HETATM   15  C   UNL     1      -7.026   6.485  67.516  1.00  0.00    -0.078 C  
HETATM   16  H   UNL     1      -7.798   5.770  65.764  1.00  0.00     0.000 HD 
ENDBRANCH   1  14
TORSDOF 3
ENDMDL
MODEL      180
REMARK 921   NORMALIZED FREE ENERGY PREDICTED BY IDOCK:   -2.66 KCAL/MOL
REMARK 922        TOTAL FREE ENERGY PREDICTED BY IDOCK:   -3.41 KCAL/MOL
REMARK 923 INTER-LIGAND FREE ENERGY PREDICTED BY IDOCK:   -3.19 KCAL/MOL
REMARK 924 INTRA-LIGAND FREE ENERGY PREDICTED BY IDOCK:   -0.22 KCAL/MOL
REMARK 927      BINDING AFFINITY PREDICTED BY RF-SCORE:    0.00 PKD
ROOT
HETATM    1  C   UNL     1      -9.590   4.691  65.208  1.00  0.00    -0.151 C  
HETATM    2  C   UNL     1     -10.156   3.657  64.223  1.00  0.00    -0.212 C  
ENDROOT
BRANCH   1   3
HETATM    3  C   UNL     1      -9.233   4.049  66.587  1.00  0.00    -0.163 C  
HETATM    4  O   UNL     1      -9.548   2.647  66.577  1.00  0.00    -0.393 OA 
HETATM    5  H   UNL     1      -9.332   2.257  67.415  1.00  0.00     0.000 HD 
BRANCH   3   6
HETATM    6  C   UNL     1      -9.850   4.724  67.802  1.00  0.00    -0.194 A  
HETATM    7  C   UNL     1     -10.678   5.845  67.634  1.00  0.00    -0.352 A  
HETATM    8  C   UNL     1     -11.180   6.536  68.742  1.00  0.00    -0.319 A  
HETATM    9  C   UNL     1     -10.865   6.097  70.024  1.00  0.00    -0.341 A  
HETATM   10  O   UNL     1     -11.296   6.765  71.131  1.00  0.00    -0.266 OA 
HETATM   11  C   UNL     1     -10.086   4.964  70.213  1.00  0.00    -0.322 A  
HETATM   12  C   UNL     1      -9.583   4.277  69.107  1.00  0.00    -0.249 A  
HETATM   13  H   UNL     1     -11.081   6.465  72.007  1.00  0.00     0.000 HD 
ENDBRANCH   3   6
ENDBRANCH   1   3
BRANCH   1  14
HETATM   14  N   UNL     1      -8.358   5.324  64.679  1.00  0.00    -0.138 NA 
HETATM   15  C   UNL     1      -7.979   4.891  63.346  1.00  0.00    -0.090 C  
HETATM   16  H   UNL     1      -7.583   5.190  65.329  1.00  0.00     0.000 HD 
ENDBRANCH   1  14
TORSDOF 3
ENDMDL
MODEL      181
REMARK 921   NORMALIZED FREE ENERGY PREDICTED BY IDOCK:   -2.66 KCAL/MOL
REMARK 922        TOTAL FREE ENERGY PREDICTED BY IDOCK:   -3.41 KCAL/MOL
REMARK 923 INTER-LIGAND FREE ENERGY PREDICTED BY IDOCK:   -3.38 KCAL/MOL
REMARK 924 INTRA-LIGAND FREE ENERGY PREDICTED BY IDOCK:   -0.02 KCAL/MOL
REMARK 927      BINDING AFFINITY PREDICTED BY RF-SCORE:    0.00 PKD
ROOT
HETATM    1  C   UNL     1     -11.947  13.051  65.744  1.00  0.00    -0.429 C  
HETATM    2  C   UNL     1     -11.274  11.901  64.981  1.00  0.00    -0.350 C  
ENDROOT
BRANCH   1   3
HETATM    3  C   UNL     1     -11.693  12.956  67.283  1.00  0.00    -0.373 C  
HETATM    4  O   UNL     1     -12.411  13.996  67.968  1.00  0.00    -0.523 OA 
HETATM    5  H   UNL     1     -12.256  13.939  68.904  1.00  0.00     0.000 HD 
BRANCH   3   6
HETATM    6  C   UNL     1     -10.232  12.952  67.706  1.00  0.00    -0.224 A  
HETATM    7  C   UNL     1      -9.564  11.732  67.899  1.00  0.00    -0.187 A  
HETATM    8  C   UNL     1      -8.250  11.705  68.377  1.00  0.00    -0.155 A  
HETATM    9  C   UNL     1      -7.595  12.901  68.652  1.00  0.00    -0.085 A  
HETATM   10  O   UNL     1      -6.331  12.920  69.160  1.00  0.00    -0.093 OA 
HETATM   11  C   UNL     1      -8.221  14.119  68.426  1.00  0.00    -0.149 A  
HETATM   12  C   UNL     1      -9.533  14.146  67.951  1.00  0.00    -0.211 A  
HETATM   13  H   UNL     1      -5.883  13.738  69.348  1.00  0.00     0.000 HD 
ENDBRANCH   3   6
ENDBRANCH   1   3
BRANCH   1  14
HETATM   14  N   UNL     1     -11.446  14.370  65.290  1.00  0.00    -0.338 NA 
HETATM   15  C   UNL     1     -12.341  15.082  64.396  1.00  0.00    -0.266 C  
HETATM   16  H   UNL     1     -10.525  14.271  64.863  1.00  0.00     0.000 HD 
ENDBRANCH   1  14
TORSDOF 3
ENDMDL
MODEL      182
REMARK 921   NORMALIZED FREE ENERGY PREDICTED BY IDOCK:   -2.63 KCAL/MOL
REMARK 922        TOTAL FREE ENERGY PREDICTED BY IDOCK:   -3.38 KCAL/MOL
REMARK 923 INTER-LIGAND FREE ENERGY PREDICTED BY IDOCK:   -3.18 KCAL/MOL
REMARK 924 INTRA-LIGAND FREE ENERGY PREDICTED BY IDOCK:   -0.19 KCAL/MOL
REMARK 927      BINDING AFFINITY PREDICTED BY RF-SCORE:    0.00 PKD
ROOT
HETATM    1  C   UNL     1     -10.867  10.473  66.714  1.00  0.00    -0.142 C  
HETATM    2  C   UNL     1      -9.762  11.077  65.834  1.00  0.00    -0.267 C  
ENDROOT
BRANCH   1   3
HETATM    3  C   UNL     1     -10.280   9.658  67.910  1.00  0.00    -0.198 C  
HETATM    4  O   UNL     1      -8.953  10.117  68.218  1.00  0.00    -0.118 OA 
HETATM    5  H   UNL     1      -8.596   9.621  68.946  1.00  0.00     0.000 HD 
BRANCH   3   6
HETATM    6  C   UNL     1     -10.292   8.146  67.742  1.00  0.00    -0.295 A  
HETATM    7  C   UNL     1     -10.738   7.329  68.794  1.00  0.00    -0.168 A  
HETATM    8  C   UNL     1     -10.670   5.936  68.695  1.00  0.00    -0.339 A  
HETATM    9  C   UNL     1     -10.168   5.355  67.535  1.00  0.00    -0.194 A  
HETATM   10  O   UNL     1     -10.044   4.003  67.412  1.00  0.00    -0.138 OA 
HETATM   11  C   UNL     1      -9.765   6.142  66.465  1.00  0.00    -0.184 A  
HETATM   12  C   UNL     1      -9.830   7.532  66.565  1.00  0.00    -0.226 A  
HETATM   13  H   UNL     1      -9.701   3.606  66.619  1.00  0.00     0.000 HD 
ENDBRANCH   3   6
ENDBRANCH   1   3
BRANCH   1  14
HETATM   14  N   UNL     1     -11.745  11.525  67.280  1.00  0.00    -0.603 NA 
HETATM   15  C   UNL     1     -11.348  12.883  66.955  1.00  0.00    -0.312 C  
HETATM   16  H   UNL     1     -11.827  11.412  68.290  1.00  0.00     0.000 HD 
ENDBRANCH   1  14
TORSDOF 3
ENDMDL
MODEL      183
REMARK 921   NORMALIZED FREE ENERGY PREDICTED BY IDOCK:   -2.60 KCAL/MOL
REMARK 922        TOTAL FREE ENERGY PREDICTED BY IDOCK:   -3.34 KCAL/MOL
REMARK 923 INTER-LIGAND FREE ENERGY PREDICTED BY IDOCK:   -3.31 KCAL/MOL
REMARK 924 INTRA-LIGAND FREE ENERGY PREDICTED BY IDOCK:   -0.03 KCAL/MOL
REMARK 927      BINDING AFFINITY PREDICTED BY RF-SCORE:    0.00 PKD
ROOT
HETATM    1  C   UNL     1      -7.627   9.084  66.192  1.00  0.00    -0.095 C  
HETATM    2  C   UNL     1      -7.457  10.034  67.386  1.00  0.00    -0.091 C  
ENDROOT
BRANCH   1   3
HETATM    3  C   UNL     1      -9.105   9.041  65.687  1.00  0.00    -0.223 C  
HETATM    4  O   UNL     1      -9.136   8.899  64.257  1.00  0.00    -0.419 OA 
HETATM    5  H   UNL     1     -10.035   8.873  63.951  1.00  0.00     0.000 HD 
BRANCH   3   6
HETATM    6  C   UNL     1      -9.980  10.205  66.125  1.00  0.00    -0.310 A  
HETATM    7  C   UNL     1     -10.098  11.339  65.304  1.00  0.00    -0.318 A  
HETATM    8  C   UNL     1     -10.822  12.457  65.729  1.00  0.00    -0.312 A  
HETATM    9  C   UNL     1     -11.443  12.439  66.974  1.00  0.00    -0.358 A  
HETATM   10  O   UNL     1     -12.122  13.522  67.446  1.00  0.00    -0.369 OA 
HETATM   11  C   UNL     1     -11.379  11.312  67.782  1.00  0.00    -0.354 A  
HETATM   12  C   UNL     1     -10.654  10.197  67.358  1.00  0.00    -0.329 A  
HETATM   13  H   UNL     1     -12.547  13.510  68.297  1.00  0.00     0.000 HD 
ENDBRANCH   3   6
ENDBRANCH   1   3
BRANCH   1  14
HETATM   14  N   UNL     1      -6.777   9.494  65.049  1.00  0.00    -0.085 NA 
HETATM   15  C   UNL     1      -5.548   8.735  64.906  1.00  0.00    -0.050 C  
HETATM   16  H   UNL     1      -6.574  10.492  65.098  1.00  0.00     0.000 HD 
ENDBRANCH   1  14
TORSDOF 3
ENDMDL
MODEL      184
REMARK 921   NORMALIZED FREE ENERGY PREDICTED BY IDOCK:   -2.59 KCAL/MOL
REMARK 922        TOTAL FREE ENERGY PREDICTED BY IDOCK:   -3.32 KCAL/MOL
REMARK 923 INTER-LIGAND FREE ENERGY PREDICTED BY IDOCK:   -3.04 KCAL/MOL
REMARK 924 INTRA-LIGAND FREE ENERGY PREDICTED BY IDOCK:   -0.27 KCAL/MOL
REMARK 927      BINDING AFFINITY PREDICTED BY RF-SCORE:    0.00 PKD
ROOT
HETATM    1  C   UNL     1     -10.798   7.359  70.187  1.00  0.00    -0.256 C  
HETATM    2  C   UNL     1     -10.689   7.168  68.667  1.00  0.00    -0.198 C  
ENDROOT
BRANCH   1   3
HETATM    3  C   UNL     1      -9.633   6.650  70.949  1.00  0.00    -0.175 C  
HETATM    4  O   UNL     1      -8.581   6.302  70.033  1.00  0.00    -0.131 OA 
HETATM    5  H   UNL     1      -7.873   5.870  70.496  1.00  0.00     0.000 HD 
BRANCH   3   6
HETATM    6  C   UNL     1     -10.034   5.442  71.780  1.00  0.00    -0.235 A  
HETATM    7  C   UNL     1     -11.073   5.553  72.719  1.00  0.00    -0.340 A  
HETATM    8  C   UNL     1     -11.395   4.482  73.559  1.00  0.00    -0.355 A  
HETATM    9  C   UNL     1     -10.687   3.290  73.452  1.00  0.00    -0.202 A  
HETATM   10  O   UNL     1     -10.938   2.235  74.278  1.00  0.00    -0.149 OA 
HETATM   11  C   UNL     1      -9.687   3.142  72.500  1.00  0.00    -0.206 A  
HETATM   12  C   UNL     1      -9.364   4.212  71.664  1.00  0.00    -0.202 A  
HETATM   13  H   UNL     1     -10.454   1.421  74.205  1.00  0.00     0.000 HD 
ENDBRANCH   3   6
ENDBRANCH   1   3
BRANCH   1  14
HETATM   14  N   UNL     1     -10.762   8.795  70.556  1.00  0.00    -0.215 NA 
HETATM   15  C   UNL     1     -11.658   9.165  71.637  1.00  0.00    -0.379 C  
HETATM   16  H   UNL     1     -10.938   9.376  69.736  1.00  0.00     0.000 HD 
ENDBRANCH   1  14
TORSDOF 3
ENDMDL
MODEL      185
REMARK 921   NORMALIZED FREE ENERGY PREDICTED BY IDOCK:   -2.55 KCAL/MOL
REMARK 922        TOTAL FREE ENERGY PREDICTED BY IDOCK:   -3.28 KCAL/MOL
REMARK 923 INTER-LIGAND FREE ENERGY PREDICTED BY IDOCK:   -3.38 KCAL/MOL
REMARK 924 INTRA-LIGAND FREE ENERGY PREDICTED BY IDOCK:    0.10 KCAL/MOL
REMARK 927      BINDING AFFINITY PREDICTED BY RF-SCORE:    0.00 PKD
ROOT
HETATM    1  C   UNL     1     -10.662  17.976  67.562  1.00  0.00    -0.336 C  
HETATM    2  C   UNL     1     -10.351  18.807  66.309  1.00  0.00    -0.497 C  
ENDROOT
BRANCH   1   3
HETATM    3  C   UNL     1     -10.478  16.445  67.307  1.00  0.00    -0.303 C  
HETATM    4  O   UNL     1     -11.436  15.697  68.075  1.00  0.00    -0.345 OA 
HETATM    5  H   UNL     1     -11.324  14.767  67.920  1.00  0.00     0.000 HD 
BRANCH   3   6
HETATM    6  C   UNL     1      -9.075  15.906  67.539  1.00  0.00    -0.204 A  
HETATM    7  C   UNL     1      -8.875  14.833  68.422  1.00  0.00    -0.181 A  
HETATM    8  C   UNL     1      -7.585  14.384  68.720  1.00  0.00    -0.131 A  
HETATM    9  C   UNL     1      -6.490  14.999  68.123  1.00  0.00    -0.131 A  
HETATM   10  O   UNL     1      -5.213  14.623  68.417  1.00  0.00    -0.091 OA 
HETATM   11  C   UNL     1      -6.666  16.031  67.212  1.00  0.00    -0.232 A  
HETATM   12  C   UNL     1      -7.954  16.481  66.917  1.00  0.00    -0.260 A  
HETATM   13  H   UNL     1      -4.464  15.043  68.009  1.00  0.00     0.000 HD 
ENDBRANCH   3   6
ENDBRANCH   1   3
BRANCH   1  14
HETATM   14  N   UNL     1      -9.777  18.348  68.692  1.00  0.00    -0.352 NA 
HETATM   15  C   UNL     1      -9.670  19.776  68.932  1.00  0.00    -0.317 C  
HETATM   16  H   UNL     1      -8.851  17.940  68.567  1.00  0.00     0.000 HD 
ENDBRANCH   1  14
TORSDOF 3
ENDMDL
MODEL      186
REMARK 921   NORMALIZED FREE ENERGY PREDICTED BY IDOCK:   -2.55 KCAL/MOL
REMARK 922        TOTAL FREE ENERGY PREDICTED BY IDOCK:   -3.28 KCAL/MOL
REMARK 923 INTER-LIGAND FREE ENERGY PREDICTED BY IDOCK:   -3.32 KCAL/MOL
REMARK 924 INTRA-LIGAND FREE ENERGY PREDICTED BY IDOCK:    0.04 KCAL/MOL
REMARK 927      BINDING AFFINITY PREDICTED BY RF-SCORE:    0.00 PKD
ROOT
HETATM    1  C   UNL     1      -9.993  10.971  66.960  1.00  0.00    -0.190 C  
HETATM    2  C   UNL     1      -9.611  10.391  68.330  1.00  0.00    -0.153 C  
ENDROOT
BRANCH   1   3
HETATM    3  C   UNL     1     -11.083  12.083  67.081  1.00  0.00    -0.290 C  
HETATM    4  O   UNL     1     -12.202  11.775  66.233  1.00  0.00    -0.344 OA 
HETATM    5  H   UNL     1     -12.864  12.452  66.306  1.00  0.00     0.000 HD 
BRANCH   3   6
HETATM    6  C   UNL     1     -10.601  13.503  66.830  1.00  0.00    -0.272 A  
HETATM    7  C   UNL     1      -9.772  14.137  67.769  1.00  0.00    -0.223 A  
HETATM    8  C   UNL     1      -9.393  15.473  67.603  1.00  0.00    -0.203 A  
HETATM    9  C   UNL     1      -9.833  16.176  66.486  1.00  0.00    -0.267 A  
HETATM   10  O   UNL     1      -9.525  17.492  66.306  1.00  0.00    -0.345 OA 
HETATM   11  C   UNL     1     -10.616  15.557  65.522  1.00  0.00    -0.413 A  
HETATM   12  C   UNL     1     -10.995  14.224  65.690  1.00  0.00    -0.309 A  
HETATM   13  H   UNL     1      -9.826  17.972  65.543  1.00  0.00     0.000 HD 
ENDBRANCH   3   6
ENDBRANCH   1   3
BRANCH   1  14
HETATM   14  N   UNL     1      -8.819  11.569  66.280  1.00  0.00    -0.206 NA 
HETATM   15  C   UNL     1      -8.192  10.713  65.290  1.00  0.00    -0.105 C  
HETATM   16  H   UNL     1      -8.132  11.880  66.967  1.00  0.00     0.000 HD 
ENDBRANCH   1  14
TORSDOF 3
ENDMDL
MODEL      187
REMARK 921   NORMALIZED FREE ENERGY PREDICTED BY IDOCK:   -2.52 KCAL/MOL
REMARK 922        TOTAL FREE ENERGY PREDICTED BY IDOCK:   -3.24 KCAL/MOL
REMARK 923 INTER-LIGAND FREE ENERGY PREDICTED BY IDOCK:   -3.02 KCAL/MOL
REMARK 924 INTRA-LIGAND FREE ENERGY PREDICTED BY IDOCK:   -0.23 KCAL/MOL
REMARK 927      BINDING AFFINITY PREDICTED BY RF-SCORE:    0.00 PKD
ROOT
HETATM    1  C   UNL     1     -10.381   8.427  70.654  1.00  0.00    -0.197 C  
HETATM    2  C   UNL     1      -9.613   8.536  71.980  1.00  0.00    -0.371 C  
ENDROOT
BRANCH   1   3
HETATM    3  C   UNL     1     -10.387   6.966  70.102  1.00  0.00    -0.199 C  
HETATM    4  O   UNL     1      -9.708   6.088  71.016  1.00  0.00    -0.173 OA 
HETATM    5  H   UNL     1      -9.711   5.200  70.680  1.00  0.00     0.000 HD 
BRANCH   3   6
HETATM    6  C   UNL     1      -9.836   6.795  68.695  1.00  0.00    -0.142 A  
HETATM    7  C   UNL     1      -9.844   7.881  67.804  1.00  0.00    -0.204 A  
HETATM    8  C   UNL     1      -9.430   7.721  66.478  1.00  0.00    -0.262 A  
HETATM    9  C   UNL     1      -8.991   6.475  66.042  1.00  0.00    -0.122 A  
HETATM   10  O   UNL     1      -8.620   6.263  64.748  1.00  0.00    -0.328 OA 
HETATM   11  C   UNL     1      -8.931   5.399  66.917  1.00  0.00    -0.110 A  
HETATM   12  C   UNL     1      -9.348   5.558  68.240  1.00  0.00    -0.127 A  
HETATM   13  H   UNL     1      -8.320   5.412  64.450  1.00  0.00     0.000 HD 
ENDBRANCH   3   6
ENDBRANCH   1   3
BRANCH   1  14
HETATM   14  N   UNL     1     -11.793   8.851  70.810  1.00  0.00    -0.419 NA 
HETATM   15  C   UNL     1     -12.008  10.284  70.725  1.00  0.00    -0.360 C  
HETATM   16  H   UNL     1     -12.178   8.486  71.682  1.00  0.00     0.000 HD 
ENDBRANCH   1  14
TORSDOF 3
ENDMDL
MODEL      188
REMARK 921   NORMALIZED FREE ENERGY PREDICTED BY IDOCK:   -2.51 KCAL/MOL
REMARK 922        TOTAL FREE ENERGY PREDICTED BY IDOCK:   -3.24 KCAL/MOL
REMARK 923 INTER-LIGAND FREE ENERGY PREDICTED BY IDOCK:   -2.97 KCAL/MOL
REMARK 924 INTRA-LIGAND FREE ENERGY PREDICTED BY IDOCK:   -0.27 KCAL/MOL
REMARK 927      BINDING AFFINITY PREDICTED BY RF-SCORE:    0.00 PKD
ROOT
HETATM    1  C   UNL     1     -10.567   7.489  70.913  1.00  0.00    -0.220 C  
HETATM    2  C   UNL     1     -11.220   6.523  69.913  1.00  0.00    -0.456 C  
ENDROOT
BRANCH   1   3
HETATM    3  C   UNL     1     -10.443   8.934  70.331  1.00  0.00    -0.210 C  
HETATM    4  O   UNL     1     -11.190   9.042  69.108  1.00  0.00    -0.441 OA 
HETATM    5  H   UNL     1     -11.114   9.920  68.755  1.00  0.00     0.000 HD 
BRANCH   3   6
HETATM    6  C   UNL     1      -9.022   9.439  70.132  1.00  0.00    -0.256 A  
HETATM    7  C   UNL     1      -7.999   9.006  70.990  1.00  0.00    -0.186 A  
HETATM    8  C   UNL     1      -6.706   9.529  70.882  1.00  0.00    -0.085 A  
HETATM    9  C   UNL     1      -6.431  10.480  69.905  1.00  0.00    -0.116 A  
HETATM   10  O   UNL     1      -5.197  11.049  69.793  1.00  0.00    -0.041 OA 
HETATM   11  C   UNL     1      -7.416  10.890  69.017  1.00  0.00    -0.124 A  
HETATM   12  C   UNL     1      -8.706  10.369  69.127  1.00  0.00    -0.173 A  
HETATM   13  H   UNL     1      -5.008  11.698  69.125  1.00  0.00     0.000 HD 
ENDBRANCH   3   6
ENDBRANCH   1   3
BRANCH   1  14
HETATM   14  N   UNL     1     -11.350   7.580  72.169  1.00  0.00    -0.269 NA 
HETATM   15  C   UNL     1     -10.587   7.326  73.377  1.00  0.00    -0.389 C  
HETATM   16  H   UNL     1     -12.162   6.963  72.126  1.00  0.00     0.000 HD 
ENDBRANCH   1  14
TORSDOF 3
ENDMDL
MODEL      189
REMARK 921   NORMALIZED FREE ENERGY PREDICTED BY IDOCK:   -2.48 KCAL/MOL
REMARK 922        TOTAL FREE ENERGY PREDICTED BY IDOCK:   -3.19 KCAL/MOL
REMARK 923 INTER-LIGAND FREE ENERGY PREDICTED BY IDOCK:   -3.09 KCAL/MOL
REMARK 924 INTRA-LIGAND FREE ENERGY PREDICTED BY IDOCK:   -0.10 KCAL/MOL
REMARK 927      BINDING AFFINITY PREDICTED BY RF-SCORE:    0.00 PKD
ROOT
HETATM    1  C   UNL     1      -9.513   8.355  70.616  1.00  0.00    -0.167 C  
HETATM    2  C   UNL     1      -8.090   7.789  70.503  1.00  0.00    -0.103 C  
ENDROOT
BRANCH   1   3
HETATM    3  C   UNL     1     -10.587   7.336  70.116  1.00  0.00    -0.232 C  
HETATM    4  O   UNL     1     -11.896   7.742  70.550  1.00  0.00    -0.460 OA 
HETATM    5  H   UNL     1     -12.548   7.123  70.246  1.00  0.00     0.000 HD 
BRANCH   3   6
HETATM    6  C   UNL     1     -10.333   5.883  70.484  1.00  0.00    -0.297 A  
HETATM    7  C   UNL     1     -10.576   5.441  71.795  1.00  0.00    -0.286 A  
HETATM    8  C   UNL     1     -10.261   4.133  72.179  1.00  0.00    -0.220 A  
HETATM    9  C   UNL     1      -9.713   3.258  71.246  1.00  0.00    -0.151 A  
HETATM   10  O   UNL     1      -9.351   1.989  71.587  1.00  0.00    -0.088 OA 
HETATM   11  C   UNL     1      -9.507   3.660  69.933  1.00  0.00    -0.262 A  
HETATM   12  C   UNL     1      -9.819   4.965  69.552  1.00  0.00    -0.287 A  
HETATM   13  H   UNL     1      -8.977   1.391  70.950  1.00  0.00     0.000 HD 
ENDBRANCH   3   6
ENDBRANCH   1   3
BRANCH   1  14
HETATM   14  N   UNL     1      -9.848   8.703  72.018  1.00  0.00    -0.308 NA 
HETATM   15  C   UNL     1      -8.862   8.285  72.998  1.00  0.00    -0.232 C  
HETATM   16  H   UNL     1     -10.769   8.337  72.264  1.00  0.00     0.000 HD 
ENDBRANCH   1  14
TORSDOF 3
ENDMDL
MODEL      190
REMARK 921   NORMALIZED FREE ENERGY PREDICTED BY IDOCK:   -2.48 KCAL/MOL
REMARK 922        TOTAL FREE ENERGY PREDICTED BY IDOCK:   -3.19 KCAL/MOL
REMARK 923 INTER-LIGAND FREE ENERGY PREDICTED BY IDOCK:   -3.01 KCAL/MOL
REMARK 924 INTRA-LIGAND FREE ENERGY PREDICTED BY IDOCK:   -0.18 KCAL/MOL
REMARK 927      BINDING AFFINITY PREDICTED BY RF-SCORE:    0.00 PKD
ROOT
HETATM    1  C   UNL     1      -8.505   7.356  72.598  1.00  0.00    -0.113 C  
HETATM    2  C   UNL     1      -7.060   7.512  73.092  1.00  0.00    -0.082 C  
ENDROOT
BRANCH   1   3
HETATM    3  C   UNL     1      -8.708   6.030  71.797  1.00  0.00    -0.138 C  
HETATM    4  O   UNL     1      -7.455   5.339  71.659  1.00  0.00    -0.087 OA 
HETATM    5  H   UNL     1      -7.579   4.533  71.171  1.00  0.00     0.000 HD 
BRANCH   3   6
HETATM    6  C   UNL     1      -9.384   6.179  70.443  1.00  0.00    -0.173 A  
HETATM    7  C   UNL     1      -9.614   7.460  69.914  1.00  0.00    -0.163 A  
HETATM    8  C   UNL     1     -10.317   7.622  68.716  1.00  0.00    -0.218 A  
HETATM    9  C   UNL     1     -10.782   6.501  68.036  1.00  0.00    -0.283 A  
HETATM   10  O   UNL     1     -11.508   6.615  66.888  1.00  0.00    -0.777 OA 
HETATM   11  C   UNL     1     -10.527   5.224  68.517  1.00  0.00    -0.147 A  
HETATM   12  C   UNL     1      -9.827   5.063  69.714  1.00  0.00    -0.286 A  
HETATM   13  H   UNL     1     -11.826   5.849  66.424  1.00  0.00     0.000 HD 
ENDBRANCH   3   6
ENDBRANCH   1   3
BRANCH   1  14
HETATM   14  N   UNL     1      -9.465   7.345  73.728  1.00  0.00    -0.262 NA 
HETATM   15  C   UNL     1     -10.856   7.496  73.342  1.00  0.00    -0.285 C  
HETATM   16  H   UNL     1      -9.210   8.054  74.417  1.00  0.00     0.000 HD 
ENDBRANCH   1  14
TORSDOF 3
ENDMDL
MODEL      191
REMARK 921   NORMALIZED FREE ENERGY PREDICTED BY IDOCK:   -2.46 KCAL/MOL
REMARK 922        TOTAL FREE ENERGY PREDICTED BY IDOCK:   -3.17 KCAL/MOL
REMARK 923 INTER-LIGAND FREE ENERGY PREDICTED BY IDOCK:   -3.12 KCAL/MOL
REMARK 924 INTRA-LIGAND FREE ENERGY PREDICTED BY IDOCK:   -0.05 KCAL/MOL
REMARK 927      BINDING AFFINITY PREDICTED BY RF-SCORE:    0.00 PKD
ROOT
HETATM    1  C   UNL     1      -9.601   6.837  66.727  1.00  0.00    -0.166 C  
HETATM    2  C   UNL     1     -11.036   6.699  67.256  1.00  0.00    -0.456 C  
ENDROOT
BRANCH   1   3
HETATM    3  C   UNL     1      -8.985   8.231  67.068  1.00  0.00    -0.140 C  
HETATM    4  O   UNL     1      -7.630   8.077  67.521  1.00  0.00    -0.098 OA 
HETATM    5  H   UNL     1      -7.255   8.925  67.729  1.00  0.00     0.000 HD 
BRANCH   3   6
HETATM    6  C   UNL     1      -9.781   9.076  68.051  1.00  0.00    -0.179 A  
HETATM    7  C   UNL     1      -9.627   8.872  69.432  1.00  0.00    -0.163 A  
HETATM    8  C   UNL     1     -10.417   9.572  70.350  1.00  0.00    -0.336 A  
HETATM    9  C   UNL     1     -11.354  10.490  69.888  1.00  0.00    -0.309 A  
HETATM   10  O   UNL     1     -12.174  11.162  70.744  1.00  0.00    -0.346 OA 
HETATM   11  C   UNL     1     -11.491  10.741  68.529  1.00  0.00    -0.362 A  
HETATM   12  C   UNL     1     -10.705  10.040  67.614  1.00  0.00    -0.340 A  
HETATM   13  H   UNL     1     -12.815  11.790  70.429  1.00  0.00     0.000 HD 
ENDBRANCH   3   6
ENDBRANCH   1   3
BRANCH   1  14
HETATM   14  N   UNL     1      -8.709   5.802  67.304  1.00  0.00    -0.109 NA 
HETATM   15  C   UNL     1      -9.032   4.441  66.918  1.00  0.00    -0.118 C  
HETATM   16  H   UNL     1      -8.681   5.885  68.320  1.00  0.00     0.000 HD 
ENDBRANCH   1  14
TORSDOF 3
ENDMDL
MODEL      192
REMARK 921   NORMALIZED FREE ENERGY PREDICTED BY IDOCK:   -2.45 KCAL/MOL
REMARK 922        TOTAL FREE ENERGY PREDICTED BY IDOCK:   -3.16 KCAL/MOL
REMARK 923 INTER-LIGAND FREE ENERGY PREDICTED BY IDOCK:   -3.39 KCAL/MOL
REMARK 924 INTRA-LIGAND FREE ENERGY PREDICTED BY IDOCK:    0.23 KCAL/MOL
REMARK 927      BINDING AFFINITY PREDICTED BY RF-SCORE:    0.00 PKD
ROOT
HETATM    1  C   UNL     1     -10.203   5.141  71.807  1.00  0.00    -0.209 C  
HETATM    2  C   UNL     1     -10.798   5.173  73.222  1.00  0.00    -0.352 C  
ENDROOT
BRANCH   1   3
HETATM    3  C   UNL     1     -11.127   5.855  70.769  1.00  0.00    -0.254 C  
HETATM    4  O   UNL     1     -10.859   5.363  69.446  1.00  0.00    -0.252 OA 
HETATM    5  H   UNL     1     -11.421   5.797  68.815  1.00  0.00     0.000 HD 
BRANCH   3   6
HETATM    6  C   UNL     1     -11.083   7.375  70.790  1.00  0.00    -0.285 A  
HETATM    7  C   UNL     1     -12.189   8.100  71.261  1.00  0.00    -0.302 A  
HETATM    8  C   UNL     1     -12.205   9.498  71.201  1.00  0.00    -0.421 A  
HETATM    9  C   UNL     1     -11.107  10.175  70.682  1.00  0.00    -0.322 A  
HETATM   10  O   UNL     1     -11.097  11.532  70.565  1.00  0.00    -0.261 OA 
HETATM   11  C   UNL     1      -9.984   9.480  70.253  1.00  0.00    -0.310 A  
HETATM   12  C   UNL     1      -9.970   8.085  70.310  1.00  0.00    -0.189 A  
HETATM   13  H   UNL     1     -10.346  11.995  70.210  1.00  0.00     0.000 HD 
ENDBRANCH   3   6
ENDBRANCH   1   3
BRANCH   1  14
HETATM   14  N   UNL     1      -8.880   5.809  71.759  1.00  0.00    -0.136 NA 
HETATM   15  C   UNL     1      -7.889   5.254  72.663  1.00  0.00    -0.099 C  
HETATM   16  H   UNL     1      -8.984   6.812  71.919  1.00  0.00     0.000 HD 
ENDBRANCH   1  14
TORSDOF 3
ENDMDL
MODEL      193
REMARK 921   NORMALIZED FREE ENERGY PREDICTED BY IDOCK:   -2.45 KCAL/MOL
REMARK 922        TOTAL FREE ENERGY PREDICTED BY IDOCK:   -3.16 KCAL/MOL
REMARK 923 INTER-LIGAND FREE ENERGY PREDICTED BY IDOCK:   -2.88 KCAL/MOL
REMARK 924 INTRA-LIGAND FREE ENERGY PREDICTED BY IDOCK:   -0.28 KCAL/MOL
REMARK 927      BINDING AFFINITY PREDICTED BY RF-SCORE:    0.00 PKD
ROOT
HETATM    1  C   UNL     1      -9.805   3.936  63.840  1.00  0.00    -0.176 C  
HETATM    2  C   UNL     1     -10.869   2.840  63.678  1.00  0.00    -0.142 C  
ENDROOT
BRANCH   1   3
HETATM    3  C   UNL     1      -9.320   4.062  65.320  1.00  0.00    -0.163 C  
HETATM    4  O   UNL     1      -9.781   2.940  66.090  1.00  0.00    -0.391 OA 
HETATM    5  H   UNL     1      -9.487   3.017  66.990  1.00  0.00     0.000 HD 
BRANCH   3   6
HETATM    6  C   UNL     1      -9.677   5.366  66.017  1.00  0.00    -0.134 A  
HETATM    7  C   UNL     1     -10.756   5.407  66.914  1.00  0.00    -0.264 A  
HETATM    8  C   UNL     1     -11.158   6.615  67.493  1.00  0.00    -0.374 A  
HETATM    9  C   UNL     1     -10.472   7.785  67.186  1.00  0.00    -0.343 A  
HETATM   10  O   UNL     1     -10.856   8.991  67.693  1.00  0.00    -0.458 OA 
HETATM   11  C   UNL     1      -9.373   7.760  66.337  1.00  0.00    -0.237 A  
HETATM   12  C   UNL     1      -8.974   6.555  65.758  1.00  0.00    -0.060 A  
HETATM   13  H   UNL     1     -10.386   9.790  67.484  1.00  0.00     0.000 HD 
ENDBRANCH   3   6
ENDBRANCH   1   3
BRANCH   1  14
HETATM   14  N   UNL     1      -8.613   3.661  63.002  1.00  0.00    -0.089 NA 
HETATM   15  C   UNL     1      -7.342   3.838  63.681  1.00  0.00    -0.051 C  
HETATM   16  H   UNL     1      -8.641   4.223  62.151  1.00  0.00     0.000 HD 
ENDBRANCH   1  14
TORSDOF 3
ENDMDL
MODEL      194
REMARK 921   NORMALIZED FREE ENERGY PREDICTED BY IDOCK:   -2.37 KCAL/MOL
REMARK 922        TOTAL FREE ENERGY PREDICTED BY IDOCK:   -3.06 KCAL/MOL
REMARK 923 INTER-LIGAND FREE ENERGY PREDICTED BY IDOCK:   -2.84 KCAL/MOL
REMARK 924 INTRA-LIGAND FREE ENERGY PREDICTED BY IDOCK:   -0.23 KCAL/MOL
REMARK 927      BINDING AFFINITY PREDICTED BY RF-SCORE:    0.00 PKD
ROOT
HETATM    1  C   UNL     1     -10.625   9.719  68.610  1.00  0.00    -0.221 C  
HETATM    2  C   UNL     1     -10.180  10.021  70.048  1.00  0.00    -0.306 C  
ENDROOT
BRANCH   1   3
HETATM    3  C   UNL     1     -10.980   8.210  68.413  1.00  0.00     0.225 C  
HETATM    4  O   UNL     1     -11.221   7.588  69.687  1.00  0.00    -0.434 OA 
HETATM    5  H   UNL     1     -11.436   6.671  69.567  1.00  0.00     0.000 HD 
BRANCH   3   6
HETATM    6  C   UNL     1      -9.975   7.401  67.609  1.00  0.00    -0.213 A  
HETATM    7  C   UNL     1      -9.175   8.037  66.646  1.00  0.00    -0.225 A  
HETATM    8  C   UNL     1      -8.312   7.297  65.831  1.00  0.00    -0.144 A  
HETATM    9  C   UNL     1      -8.237   5.917  65.988  1.00  0.00    -0.123 A  
HETATM   10  O   UNL     1      -7.443   5.151  65.187  1.00  0.00    -0.070 OA 
HETATM   11  C   UNL     1      -8.984   5.272  66.964  1.00  0.00    -0.112 A  
HETATM   12  C   UNL     1      -9.847   6.011  67.775  1.00  0.00    -0.129 A  
HETATM   13  H   UNL     1      -7.391   4.208  65.294  1.00  0.00     0.000 HD 
ENDBRANCH   3   6
ENDBRANCH   1   3
BRANCH   1  14
HETATM   14  N   UNL     1     -11.822  10.511  68.236  1.00  0.00    -0.785 NA 
HETATM   15  C   UNL     1     -11.532  11.774  67.583  1.00  0.00    -0.300 C  
HETATM   16  H   UNL     1     -12.416  10.661  69.051  1.00  0.00     0.000 HD 
ENDBRANCH   1  14
TORSDOF 3
ENDMDL
MODEL      195
REMARK 921   NORMALIZED FREE ENERGY PREDICTED BY IDOCK:   -2.35 KCAL/MOL
REMARK 922        TOTAL FREE ENERGY PREDICTED BY IDOCK:   -3.04 KCAL/MOL
REMARK 923 INTER-LIGAND FREE ENERGY PREDICTED BY IDOCK:   -2.77 KCAL/MOL
REMARK 924 INTRA-LIGAND FREE ENERGY PREDICTED BY IDOCK:   -0.27 KCAL/MOL
REMARK 927      BINDING AFFINITY PREDICTED BY RF-SCORE:    0.00 PKD
ROOT
HETATM    1  C   UNL     1      -8.693   9.183  70.265  1.00  0.00    -0.200 C  
HETATM    2  C   UNL     1      -7.299   9.824  70.338  1.00  0.00    -0.151 C  
ENDROOT
BRANCH   1   3
HETATM    3  C   UNL     1      -9.118   8.555  71.631  1.00  0.00    -0.229 C  
HETATM    4  O   UNL     1      -8.192   8.939  72.662  1.00  0.00    -0.387 OA 
HETATM    5  H   UNL     1      -8.451   8.557  73.493  1.00  0.00     0.000 HD 
BRANCH   3   6
HETATM    6  C   UNL     1      -9.312   7.047  71.627  1.00  0.00    -0.158 A  
HETATM    7  C   UNL     1      -8.918   6.295  70.508  1.00  0.00    -0.151 A  
HETATM    8  C   UNL     1      -9.172   4.921  70.445  1.00  0.00    -0.189 A  
HETATM    9  C   UNL     1      -9.811   4.292  71.508  1.00  0.00    -0.189 A  
HETATM   10  O   UNL     1     -10.117   2.965  71.471  1.00  0.00    -0.111 OA 
HETATM   11  C   UNL     1     -10.168   5.007  72.643  1.00  0.00    -0.236 A  
HETATM   12  C   UNL     1      -9.916   6.379  72.705  1.00  0.00    -0.184 A  
HETATM   13  H   UNL     1     -10.554   2.535  72.198  1.00  0.00     0.000 HD 
ENDBRANCH   3   6
ENDBRANCH   1   3
BRANCH   1  14
HETATM   14  N   UNL     1      -9.727  10.177  69.891  1.00  0.00    -0.377 NA 
HETATM   15  C   UNL     1     -10.881   9.622  69.207  1.00  0.00    -0.205 C  
HETATM   16  H   UNL     1      -9.314  10.927  69.336  1.00  0.00     0.000 HD 
ENDBRANCH   1  14
TORSDOF 3
ENDMDL
MODEL      196
REMARK 921   NORMALIZED FREE ENERGY PREDICTED BY IDOCK:   -2.32 KCAL/MOL
REMARK 922        TOTAL FREE ENERGY PREDICTED BY IDOCK:   -3.00 KCAL/MOL
REMARK 923 INTER-LIGAND FREE ENERGY PREDICTED BY IDOCK:   -2.90 KCAL/MOL
REMARK 924 INTRA-LIGAND FREE ENERGY PREDICTED BY IDOCK:   -0.10 KCAL/MOL
REMARK 927      BINDING AFFINITY PREDICTED BY RF-SCORE:    0.00 PKD
ROOT
HETATM    1  C   UNL     1      -8.815   6.443  67.227  1.00  0.00    -0.108 C  
HETATM    2  C   UNL     1      -9.212   7.800  66.629  1.00  0.00    -0.220 C  
ENDROOT
BRANCH   1   3
HETATM    3  C   UNL     1      -8.356   6.573  68.715  1.00  0.00    -0.122 C  
HETATM    4  O   UNL     1      -7.384   5.560  69.024  1.00  0.00    -0.074 OA 
HETATM    5  H   UNL     1      -7.105   5.639  69.929  1.00  0.00     0.000 HD 
BRANCH   3   6
HETATM    6  C   UNL     1      -9.473   6.569  69.747  1.00  0.00    -0.155 A  
HETATM    7  C   UNL     1      -9.612   5.480  70.623  1.00  0.00    -0.221 A  
HETATM    8  C   UNL     1     -10.687   5.414  71.516  1.00  0.00    -0.262 A  
HETATM    9  C   UNL     1     -11.619   6.445  71.545  1.00  0.00    -0.310 A  
HETATM   10  O   UNL     1     -12.705   6.401  72.367  1.00  0.00    -0.547 OA 
HETATM   11  C   UNL     1     -11.476   7.553  70.720  1.00  0.00    -0.305 A  
HETATM   12  C   UNL     1     -10.405   7.618  69.828  1.00  0.00    -0.223 A  
HETATM   13  H   UNL     1     -13.342   7.107  72.387  1.00  0.00     0.000 HD 
ENDBRANCH   3   6
ENDBRANCH   1   3
BRANCH   1  14
HETATM   14  N   UNL     1      -9.945   5.484  67.192  1.00  0.00    -0.152 NA 
HETATM   15  C   UNL     1      -9.634   4.203  66.584  1.00  0.00    -0.206 C  
HETATM   16  H   UNL     1     -10.754   5.906  66.734  1.00  0.00     0.000 HD 
ENDBRANCH   1  14
TORSDOF 3
ENDMDL
MODEL      197
REMARK 921   NORMALIZED FREE ENERGY PREDICTED BY IDOCK:   -2.31 KCAL/MOL
REMARK 922        TOTAL FREE ENERGY PREDICTED BY IDOCK:   -3.00 KCAL/MOL
REMARK 923 INTER-LIGAND FREE ENERGY PREDICTED BY IDOCK:   -2.95 KCAL/MOL
REMARK 924 INTRA-LIGAND FREE ENERGY PREDICTED BY IDOCK:   -0.05 KCAL/MOL
REMARK 927      BINDING AFFINITY PREDICTED BY RF-SCORE:    0.00 PKD
ROOT
HETATM    1  C   UNL     1     -10.775   7.438  69.089  1.00  0.00    -0.166 C  
HETATM    2  C   UNL     1     -11.170   6.153  69.832  1.00  0.00    -0.484 C  
ENDROOT
BRANCH   1   3
HETATM    3  C   UNL     1      -9.275   7.809  69.321  1.00  0.00    -0.145 C  
HETATM    4  O   UNL     1      -8.988   7.852  70.729  1.00  0.00    -0.138 OA 
HETATM    5  H   UNL     1      -8.076   8.078  70.869  1.00  0.00     0.000 HD 
BRANCH   3   6
HETATM    6  C   UNL     1      -8.804   9.086  68.643  1.00  0.00    -0.137 A  
HETATM    7  C   UNL     1      -8.266   9.031  67.347  1.00  0.00    -0.108 A  
HETATM    8  C   UNL     1      -7.741  10.178  66.742  1.00  0.00    -0.105 A  
HETATM    9  C   UNL     1      -7.766  11.388  67.428  1.00  0.00    -0.135 A  
HETATM   10  O   UNL     1      -7.227  12.520  66.895  1.00  0.00    -0.370 OA 
HETATM   11  C   UNL     1      -8.335  11.474  68.692  1.00  0.00    -0.123 A  
HETATM   12  C   UNL     1      -8.856  10.329  69.296  1.00  0.00    -0.186 A  
HETATM   13  H   UNL     1      -7.245  13.347  67.364  1.00  0.00     0.000 HD 
ENDBRANCH   3   6
ENDBRANCH   1   3
BRANCH   1  14
HETATM   14  N   UNL     1     -10.980   7.303  67.627  1.00  0.00    -0.521 NA 
HETATM   15  C   UNL     1     -10.685   5.985  67.094  1.00  0.00    -0.330 C  
HETATM   16  H   UNL     1     -10.447   8.015  67.127  1.00  0.00     0.000 HD 
ENDBRANCH   1  14
TORSDOF 3
ENDMDL
MODEL      198
REMARK 921   NORMALIZED FREE ENERGY PREDICTED BY IDOCK:   -2.28 KCAL/MOL
REMARK 922        TOTAL FREE ENERGY PREDICTED BY IDOCK:   -2.96 KCAL/MOL
REMARK 923 INTER-LIGAND FREE ENERGY PREDICTED BY IDOCK:   -3.11 KCAL/MOL
REMARK 924 INTRA-LIGAND FREE ENERGY PREDICTED BY IDOCK:    0.15 KCAL/MOL
REMARK 927      BINDING AFFINITY PREDICTED BY RF-SCORE:    0.00 PKD
ROOT
HETATM    1  C   UNL     1      -8.172   8.857  68.962  1.00  0.00    -0.116 C  
HETATM    2  C   UNL     1      -7.913  10.182  69.693  1.00  0.00    -0.181 C  
ENDROOT
BRANCH   1   3
HETATM    3  C   UNL     1      -9.592   8.817  68.313  1.00  0.00    -0.146 C  
HETATM    4  O   UNL     1      -9.495   8.435  66.931  1.00  0.00    -0.159 OA 
HETATM    5  H   UNL     1     -10.358   8.411  66.536  1.00  0.00     0.000 HD 
BRANCH   3   6
HETATM    6  C   UNL     1     -10.413  10.089  68.456  1.00  0.00    -0.229 A  
HETATM    7  C   UNL     1     -10.642  10.903  67.334  1.00  0.00    -0.285 A  
HETATM    8  C   UNL     1     -11.314  12.123  67.462  1.00  0.00    -0.392 A  
HETATM    9  C   UNL     1     -11.772  12.526  68.712  1.00  0.00    -0.327 A  
HETATM   10  O   UNL     1     -12.393  13.726  68.890  1.00  0.00    -0.409 OA 
HETATM   11  C   UNL     1     -11.598  11.716  69.825  1.00  0.00    -0.389 A  
HETATM   12  C   UNL     1     -10.925  10.500  69.698  1.00  0.00    -0.333 A  
HETATM   13  H   UNL     1     -12.707  14.002  69.744  1.00  0.00     0.000 HD 
ENDBRANCH   3   6
ENDBRANCH   1   3
BRANCH   1  14
HETATM   14  N   UNL     1      -7.182   8.631  67.882  1.00  0.00    -0.086 NA 
HETATM   15  C   UNL     1      -6.174   9.669  67.759  1.00  0.00    -0.053 C  
HETATM   16  H   UNL     1      -7.656   8.490  66.990  1.00  0.00     0.000 HD 
ENDBRANCH   1  14
TORSDOF 3
ENDMDL
MODEL      199
REMARK 921   NORMALIZED FREE ENERGY PREDICTED BY IDOCK:   -2.24 KCAL/MOL
REMARK 922        TOTAL FREE ENERGY PREDICTED BY IDOCK:   -2.92 KCAL/MOL
REMARK 923 INTER-LIGAND FREE ENERGY PREDICTED BY IDOCK:   -2.69 KCAL/MOL
REMARK 924 INTRA-LIGAND FREE ENERGY PREDICTED BY IDOCK:   -0.22 KCAL/MOL
REMARK 927      BINDING AFFINITY PREDICTED BY RF-SCORE:    0.00 PKD
ROOT
HETATM    1  C   UNL     1      -9.728   8.461  69.223  1.00  0.00    -0.177 C  
HETATM    2  C   UNL     1     -10.639   7.272  69.563  1.00  0.00    -0.244 C  
ENDROOT
BRANCH   1   3
HETATM    3  C   UNL     1     -10.468   9.536  68.365  1.00  0.00    -0.224 C  
HETATM    4  O   UNL     1     -11.069   8.922  67.212  1.00  0.00    -0.373 OA 
HETATM    5  H   UNL     1     -11.519   9.576  66.690  1.00  0.00     0.000 HD 
BRANCH   3   6
HETATM    6  C   UNL     1      -9.629  10.735  67.951  1.00  0.00    -0.171 A  
HETATM    7  C   UNL     1      -8.356  10.537  67.392  1.00  0.00    -0.121 A  
HETATM    8  C   UNL     1      -7.530  11.626  67.091  1.00  0.00    -0.146 A  
HETATM    9  C   UNL     1      -7.983  12.918  67.336  1.00  0.00    -0.178 A  
HETATM   10  O   UNL     1      -7.196  14.005  67.099  1.00  0.00    -0.320 OA 
HETATM   11  C   UNL     1      -9.255  13.138  67.845  1.00  0.00    -0.207 A  
HETATM   12  C   UNL     1     -10.077  12.052  68.148  1.00  0.00    -0.200 A  
HETATM   13  H   UNL     1      -7.505  14.888  67.266  1.00  0.00     0.000 HD 
ENDBRANCH   3   6
ENDBRANCH   1   3
BRANCH   1  14
HETATM   14  N   UNL     1      -9.235   9.132  70.450  1.00  0.00    -0.213 NA 
HETATM   15  C   UNL     1      -7.825   8.924  70.728  1.00  0.00    -0.119 C  
HETATM   16  H   UNL     1      -9.799   8.859  71.255  1.00  0.00     0.000 HD 
ENDBRANCH   1  14
TORSDOF 3
ENDMDL
MODEL      200
REMARK 921   NORMALIZED FREE ENERGY PREDICTED BY IDOCK:   -2.24 KCAL/MOL
REMARK 922        TOTAL FREE ENERGY PREDICTED BY IDOCK:   -2.91 KCAL/MOL
REMARK 923 INTER-LIGAND FREE ENERGY PREDICTED BY IDOCK:   -2.88 KCAL/MOL
REMARK 924 INTRA-LIGAND FREE ENERGY PREDICTED BY IDOCK:   -0.02 KCAL/MOL
REMARK 927      BINDING AFFINITY PREDICTED BY RF-SCORE:    0.00 PKD
ROOT
HETATM    1  C   UNL     1     -10.463   8.703  70.607  1.00  0.00    -0.204 C  
HETATM    2  C   UNL     1      -9.630   8.452  71.872  1.00  0.00    -0.324 C  
ENDROOT
BRANCH   1   3
HETATM    3  C   UNL     1     -10.325   7.537  69.576  1.00  0.00    -0.216 C  
HETATM    4  O   UNL     1     -11.618   6.984  69.278  1.00  0.00    -0.534 OA 
HETATM    5  H   UNL     1     -11.534   6.275  68.652  1.00  0.00     0.000 HD 
BRANCH   3   6
HETATM    6  C   UNL     1      -9.352   6.435  69.962  1.00  0.00    -0.162 A  
HETATM    7  C   UNL     1      -9.824   5.278  70.603  1.00  0.00    -0.264 A  
HETATM    8  C   UNL     1      -8.934   4.295  71.050  1.00  0.00    -0.167 A  
HETATM    9  C   UNL     1      -7.569   4.460  70.843  1.00  0.00    -0.052 A  
HETATM   10  O   UNL     1      -6.664   3.549  71.299  1.00  0.00    -0.029 OA 
HETATM   11  C   UNL     1      -7.084   5.574  70.170  1.00  0.00    -0.066 A  
HETATM   12  C   UNL     1      -7.971   6.556  69.728  1.00  0.00    -0.120 A  
HETATM   13  H   UNL     1      -5.731   3.662  71.157  1.00  0.00     0.000 HD 
ENDBRANCH   3   6
ENDBRANCH   1   3
BRANCH   1  14
HETATM   14  N   UNL     1     -11.904   8.847  70.927  1.00  0.00    -0.365 NA 
HETATM   15  C   UNL     1     -12.369  10.219  71.022  1.00  0.00    -0.381 C  
HETATM   16  H   UNL     1     -12.130   8.336  71.781  1.00  0.00     0.000 HD 
ENDBRANCH   1  14
TORSDOF 3
ENDMDL
MODEL      201
REMARK 921   NORMALIZED FREE ENERGY PREDICTED BY IDOCK:   -2.19 KCAL/MOL
REMARK 922        TOTAL FREE ENERGY PREDICTED BY IDOCK:   -2.85 KCAL/MOL
REMARK 923 INTER-LIGAND FREE ENERGY PREDICTED BY IDOCK:   -2.59 KCAL/MOL
REMARK 924 INTRA-LIGAND FREE ENERGY PREDICTED BY IDOCK:   -0.26 KCAL/MOL
REMARK 927      BINDING AFFINITY PREDICTED BY RF-SCORE:    0.00 PKD
ROOT
HETATM    1  C   UNL     1      -7.671   3.814  71.578  1.00  0.00    -0.060 C  
HETATM    2  C   UNL     1      -6.313   3.807  70.860  1.00  0.00    -0.019 C  
ENDROOT
BRANCH   1   3
HETATM    3  C   UNL     1      -8.782   3.117  70.729  1.00  0.00    -0.075 C  
HETATM    4  O   UNL     1      -8.224   2.017  69.991  1.00  0.00    -0.041 OA 
HETATM    5  H   UNL     1      -8.899   1.593  69.474  1.00  0.00     0.000 HD 
BRANCH   3   6
HETATM    6  C   UNL     1      -9.571   4.031  69.805  1.00  0.00    -0.280 A  
HETATM    7  C   UNL     1      -9.494   3.854  68.414  1.00  0.00    -0.210 A  
HETATM    8  C   UNL     1     -10.137   4.741  67.544  1.00  0.00    -0.161 A  
HETATM    9  C   UNL     1     -10.871   5.801  68.065  1.00  0.00    -0.161 A  
HETATM   10  O   UNL     1     -11.477   6.714  67.255  1.00  0.00    -0.766 OA 
HETATM   11  C   UNL     1     -10.998   5.968  69.437  1.00  0.00    -0.455 A  
HETATM   12  C   UNL     1     -10.354   5.085  70.305  1.00  0.00    -0.299 A  
HETATM   13  H   UNL     1     -11.979   7.438  67.611  1.00  0.00     0.000 HD 
ENDBRANCH   3   6
ENDBRANCH   1   3
BRANCH   1  14
HETATM   14  N   UNL     1      -7.598   3.112  72.881  1.00  0.00    -0.050 NA 
HETATM   15  C   UNL     1      -6.310   2.510  73.174  1.00  0.00    -0.013 C  
HETATM   16  H   UNL     1      -8.339   2.414  72.950  1.00  0.00     0.000 HD 
ENDBRANCH   1  14
TORSDOF 3
ENDMDL
MODEL      202
REMARK 921   NORMALIZED FREE ENERGY PREDICTED BY IDOCK:   -2.16 KCAL/MOL
REMARK 922        TOTAL FREE ENERGY PREDICTED BY IDOCK:   -2.82 KCAL/MOL
REMARK 923 INTER-LIGAND FREE ENERGY PREDICTED BY IDOCK:   -2.74 KCAL/MOL
REMARK 924 INTRA-LIGAND FREE ENERGY PREDICTED BY IDOCK:   -0.09 KCAL/MOL
REMARK 927      BINDING AFFINITY PREDICTED BY RF-SCORE:    0.00 PKD
ROOT
HETATM    1  C   UNL     1      -8.289   7.131  73.273  1.00  0.00    -0.116 C  
HETATM    2  C   UNL     1      -9.275   8.289  73.058  1.00  0.00    -0.316 C  
ENDROOT
BRANCH   1   3
HETATM    3  C   UNL     1      -7.853   6.478  71.923  1.00  0.00    -0.103 C  
HETATM    4  O   UNL     1      -6.577   6.997  71.511  1.00  0.00    -0.047 OA 
HETATM    5  H   UNL     1      -6.312   6.600  70.690  1.00  0.00     0.000 HD 
BRANCH   3   6
HETATM    6  C   UNL     1      -8.861   6.583  70.789  1.00  0.00    -0.144 A  
HETATM    7  C   UNL     1     -10.106   5.944  70.899  1.00  0.00    -0.251 A  
HETATM    8  C   UNL     1     -11.009   5.950  69.831  1.00  0.00    -0.444 A  
HETATM    9  C   UNL     1     -10.673   6.609  68.652  1.00  0.00    -0.254 A  
HETATM   10  O   UNL     1     -11.504   6.603  67.572  1.00  0.00    -0.721 OA 
HETATM   11  C   UNL     1      -9.467   7.285  68.538  1.00  0.00    -0.140 A  
HETATM   12  C   UNL     1      -8.565   7.277  69.603  1.00  0.00    -0.137 A  
HETATM   13  H   UNL     1     -11.275   7.053  66.767  1.00  0.00     0.000 HD 
ENDBRANCH   3   6
ENDBRANCH   1   3
BRANCH   1  14
HETATM   14  N   UNL     1      -7.060   7.588  73.965  1.00  0.00    -0.091 NA 
HETATM   15  C   UNL     1      -7.142   8.925  74.524  1.00  0.00     0.028 C  
HETATM   16  H   UNL     1      -6.255   7.511  73.344  1.00  0.00     0.000 HD 
ENDBRANCH   1  14
TORSDOF 3
ENDMDL
MODEL      203
REMARK 921   NORMALIZED FREE ENERGY PREDICTED BY IDOCK:   -2.10 KCAL/MOL
REMARK 922        TOTAL FREE ENERGY PREDICTED BY IDOCK:   -2.75 KCAL/MOL
REMARK 923 INTER-LIGAND FREE ENERGY PREDICTED BY IDOCK:   -2.55 KCAL/MOL
REMARK 924 INTRA-LIGAND FREE ENERGY PREDICTED BY IDOCK:   -0.20 KCAL/MOL
REMARK 927      BINDING AFFINITY PREDICTED BY RF-SCORE:    0.00 PKD
ROOT
HETATM    1  C   UNL     1     -10.562   7.501  70.799  1.00  0.00    -0.220 C  
HETATM    2  C   UNL     1     -11.700   6.605  70.287  1.00  0.00    -0.432 C  
ENDROOT
BRANCH   1   3
HETATM    3  C   UNL     1     -10.089   8.520  69.714  1.00  0.00    -0.197 C  
HETATM    4  O   UNL     1     -11.179   8.852  68.837  1.00  0.00    -0.437 OA 
HETATM    5  H   UNL     1     -10.892   9.471  68.177  1.00  0.00     0.000 HD 
BRANCH   3   6
HETATM    6  C   UNL     1      -8.869   8.101  68.909  1.00  0.00    -0.141 A  
HETATM    7  C   UNL     1      -7.652   7.853  69.563  1.00  0.00    -0.099 A  
HETATM    8  C   UNL     1      -6.496   7.557  68.833  1.00  0.00    -0.044 A  
HETATM    9  C   UNL     1      -6.558   7.495  67.445  1.00  0.00    -0.062 A  
HETATM   10  O   UNL     1      -5.448   7.254  66.692  1.00  0.00    -0.022 OA 
HETATM   11  C   UNL     1      -7.761   7.692  66.780  1.00  0.00    -0.102 A  
HETATM   12  C   UNL     1      -8.913   7.990  67.509  1.00  0.00    -0.143 A  
HETATM   13  H   UNL     1      -5.490   7.211  65.743  1.00  0.00     0.000 HD 
ENDBRANCH   3   6
ENDBRANCH   1   3
BRANCH   1  14
HETATM   14  N   UNL     1     -10.980   8.280  71.990  1.00  0.00    -0.282 NA 
HETATM   15  C   UNL     1     -12.365   8.713  71.974  1.00  0.00    -0.371 C  
HETATM   16  H   UNL     1     -10.360   9.078  72.127  1.00  0.00     0.000 HD 
ENDBRANCH   1  14
TORSDOF 3
ENDMDL
MODEL      204
REMARK 921   NORMALIZED FREE ENERGY PREDICTED BY IDOCK:   -2.10 KCAL/MOL
REMARK 922        TOTAL FREE ENERGY PREDICTED BY IDOCK:   -2.75 KCAL/MOL
REMARK 923 INTER-LIGAND FREE ENERGY PREDICTED BY IDOCK:   -2.65 KCAL/MOL
REMARK 924 INTRA-LIGAND FREE ENERGY PREDICTED BY IDOCK:   -0.10 KCAL/MOL
REMARK 927      BINDING AFFINITY PREDICTED BY RF-SCORE:    0.00 PKD
ROOT
HETATM    1  C   UNL     1      -6.729  10.560  68.775  1.00  0.00    -0.054 C  
HETATM    2  C   UNL     1      -6.256   9.383  69.642  1.00  0.00    -0.039 C  
ENDROOT
BRANCH   1   3
HETATM    3  C   UNL     1      -7.945  10.170  67.876  1.00  0.00    -0.101 C  
HETATM    4  O   UNL     1      -7.965  10.982  66.690  1.00  0.00    -0.144 OA 
HETATM    5  H   UNL     1      -8.704  10.746  66.143  1.00  0.00     0.000 HD 
BRANCH   3   6
HETATM    6  C   UNL     1      -9.302  10.198  68.561  1.00  0.00    -0.151 A  
HETATM    7  C   UNL     1      -9.621   9.223  69.521  1.00  0.00    -0.178 A  
HETATM    8  C   UNL     1     -10.895   9.175  70.094  1.00  0.00    -0.269 A  
HETATM    9  C   UNL     1     -11.853  10.111  69.718  1.00  0.00    -0.088 A  
HETATM   10  O   UNL     1     -13.120  10.075  70.219  1.00  0.00    -0.591 OA 
HETATM   11  C   UNL     1     -11.545  11.111  68.805  1.00  0.00    -0.389 A  
HETATM   12  C   UNL     1     -10.274  11.157  68.231  1.00  0.00    -0.197 A  
HETATM   13  H   UNL     1     -13.774  10.715  69.962  1.00  0.00     0.000 HD 
ENDBRANCH   3   6
ENDBRANCH   1   3
BRANCH   1  14
HETATM   14  N   UNL     1      -7.143  11.714  69.609  1.00  0.00    -0.345 NA 
HETATM   15  C   UNL     1      -6.500  12.970  69.267  1.00  0.00    -0.103 C  
HETATM   16  H   UNL     1      -7.006  11.504  70.598  1.00  0.00     0.000 HD 
ENDBRANCH   1  14
TORSDOF 3
ENDMDL
MODEL      205
REMARK 921   NORMALIZED FREE ENERGY PREDICTED BY IDOCK:   -2.09 KCAL/MOL
REMARK 922        TOTAL FREE ENERGY PREDICTED BY IDOCK:   -2.74 KCAL/MOL
REMARK 923 INTER-LIGAND FREE ENERGY PREDICTED BY IDOCK:   -2.48 KCAL/MOL
REMARK 924 INTRA-LIGAND FREE ENERGY PREDICTED BY IDOCK:   -0.26 KCAL/MOL
REMARK 927      BINDING AFFINITY PREDICTED BY RF-SCORE:    0.00 PKD
ROOT
HETATM    1  C   UNL     1     -10.504   7.025  69.432  1.00  0.00    -0.214 C  
HETATM    2  C   UNL     1     -10.593   7.441  70.908  1.00  0.00    -0.234 C  
ENDROOT
BRANCH   1   3
HETATM    3  C   UNL     1      -9.092   7.313  68.829  1.00  0.00    -0.127 C  
HETATM    4  O   UNL     1      -8.215   7.826  69.845  1.00  0.00    -0.121 OA 
HETATM    5  H   UNL     1      -7.356   8.002  69.478  1.00  0.00     0.000 HD 
BRANCH   3   6
HETATM    6  C   UNL     1      -9.075   8.218  67.606  1.00  0.00    -0.139 A  
HETATM    7  C   UNL     1     -10.209   8.981  67.285  1.00  0.00    -0.323 A  
HETATM    8  C   UNL     1     -10.247   9.746  66.115  1.00  0.00    -0.278 A  
HETATM    9  C   UNL     1      -9.143   9.762  65.269  1.00  0.00    -0.211 A  
HETATM   10  O   UNL     1      -9.152  10.459  64.098  1.00  0.00    -0.201 OA 
HETATM   11  C   UNL     1      -7.994   9.051  65.590  1.00  0.00    -0.104 A  
HETATM   12  C   UNL     1      -7.958   8.285  66.756  1.00  0.00    -0.099 A  
HETATM   13  H   UNL     1      -8.398  10.469  63.520  1.00  0.00     0.000 HD 
ENDBRANCH   3   6
ENDBRANCH   1   3
BRANCH   1  14
HETATM   14  N   UNL     1     -10.776   5.578  69.260  1.00  0.00    -0.262 NA 
HETATM   15  C   UNL     1      -9.642   4.801  68.793  1.00  0.00    -0.163 C  
HETATM   16  H   UNL     1     -11.578   5.438  68.646  1.00  0.00     0.000 HD 
ENDBRANCH   1  14
TORSDOF 3
ENDMDL
MODEL      206
REMARK 921   NORMALIZED FREE ENERGY PREDICTED BY IDOCK:   -2.08 KCAL/MOL
REMARK 922        TOTAL FREE ENERGY PREDICTED BY IDOCK:   -2.73 KCAL/MOL
REMARK 923 INTER-LIGAND FREE ENERGY PREDICTED BY IDOCK:   -2.68 KCAL/MOL
REMARK 924 INTRA-LIGAND FREE ENERGY PREDICTED BY IDOCK:   -0.05 KCAL/MOL
REMARK 927      BINDING AFFINITY PREDICTED BY RF-SCORE:    0.00 PKD
ROOT
HETATM    1  C   UNL     1      -9.417   6.059  71.314  1.00  0.00    -0.163 C  
HETATM    2  C   UNL     1      -7.901   5.985  71.547  1.00  0.00    -0.106 C  
ENDROOT
BRANCH   1   3
HETATM    3  C   UNL     1      -9.789   7.127  70.235  1.00  0.00    -0.176 C  
HETATM    4  O   UNL     1     -11.106   7.647  70.487  1.00  0.00    -0.251 OA 
HETATM    5  H   UNL     1     -11.332   8.295  69.830  1.00  0.00     0.000 HD 
BRANCH   3   6
HETATM    6  C   UNL     1      -9.666   6.668  68.790  1.00  0.00    -0.130 A  
HETATM    7  C   UNL     1     -10.818   6.313  68.069  1.00  0.00    -0.409 A  
HETATM    8  C   UNL     1     -10.718   5.800  66.772  1.00  0.00    -0.369 A  
HETATM    9  C   UNL     1      -9.466   5.655  66.186  1.00  0.00    -0.139 A  
HETATM   10  O   UNL     1      -9.319   5.120  64.941  1.00  0.00    -0.341 OA 
HETATM   11  C   UNL     1      -8.317   6.043  66.863  1.00  0.00    -0.105 A  
HETATM   12  C   UNL     1      -8.417   6.551  68.159  1.00  0.00    -0.116 A  
HETATM   13  H   UNL     1      -8.463   5.020  64.540  1.00  0.00     0.000 HD 
ENDBRANCH   3   6
ENDBRANCH   1   3
BRANCH   1  14
HETATM   14  N   UNL     1      -9.959   4.757  70.858  1.00  0.00    -0.207 NA 
HETATM   15  C   UNL     1      -9.828   3.677  71.819  1.00  0.00    -0.165 C  
HETATM   16  H   UNL     1      -9.540   4.491  69.966  1.00  0.00     0.000 HD 
ENDBRANCH   1  14
TORSDOF 3
ENDMDL
MODEL      207
REMARK 921   NORMALIZED FREE ENERGY PREDICTED BY IDOCK:   -2.05 KCAL/MOL
REMARK 922        TOTAL FREE ENERGY PREDICTED BY IDOCK:   -2.69 KCAL/MOL
REMARK 923 INTER-LIGAND FREE ENERGY PREDICTED BY IDOCK:   -2.44 KCAL/MOL
REMARK 924 INTRA-LIGAND FREE ENERGY PREDICTED BY IDOCK:   -0.25 KCAL/MOL
REMARK 927      BINDING AFFINITY PREDICTED BY RF-SCORE:    0.00 PKD
ROOT
HETATM    1  C   UNL     1      -8.964  10.811  65.650  1.00  0.00    -0.189 C  
HETATM    2  C   UNL     1      -9.304   9.519  64.892  1.00  0.00    -0.264 C  
ENDROOT
BRANCH   1   3
HETATM    3  C   UNL     1      -7.443  10.900  65.995  1.00  0.00    -0.086 C  
HETATM    4  O   UNL     1      -6.798   9.645  65.723  1.00  0.00    -0.087 OA 
HETATM    5  H   UNL     1      -5.873   9.699  65.933  1.00  0.00     0.000 HD 
BRANCH   3   6
HETATM    6  C   UNL     1      -7.117  11.370  67.405  1.00  0.00    -0.114 A  
HETATM    7  C   UNL     1      -6.595  12.657  67.610  1.00  0.00    -0.143 A  
HETATM    8  C   UNL     1      -6.203  13.074  68.886  1.00  0.00    -0.088 A  
HETATM    9  C   UNL     1      -6.344  12.207  69.964  1.00  0.00    -0.035 A  
HETATM   10  O   UNL     1      -5.935  12.555  71.217  1.00  0.00    -0.525 OA 
HETATM   11  C   UNL     1      -6.900  10.947  69.792  1.00  0.00    -0.134 A  
HETATM   12  C   UNL     1      -7.289  10.530  68.518  1.00  0.00    -0.088 A  
HETATM   13  H   UNL     1      -6.031  11.963  71.954  1.00  0.00     0.000 HD 
ENDBRANCH   3   6
ENDBRANCH   1   3
BRANCH   1  14
HETATM   14  N   UNL     1      -9.312  12.013  64.855  1.00  0.00    -0.426 NA 
HETATM   15  C   UNL     1     -10.066  13.020  65.580  1.00  0.00    -0.259 C  
HETATM   16  H   UNL     1      -9.807  11.744  64.004  1.00  0.00     0.000 HD 
ENDBRANCH   1  14
TORSDOF 3
ENDMDL
MODEL      208
REMARK 921   NORMALIZED FREE ENERGY PREDICTED BY IDOCK:   -2.04 KCAL/MOL
REMARK 922        TOTAL FREE ENERGY PREDICTED BY IDOCK:   -2.68 KCAL/MOL
REMARK 923 INTER-LIGAND FREE ENERGY PREDICTED BY IDOCK:   -2.55 KCAL/MOL
REMARK 924 INTRA-LIGAND FREE ENERGY PREDICTED BY IDOCK:   -0.13 KCAL/MOL
REMARK 927      BINDING AFFINITY PREDICTED BY RF-SCORE:    0.00 PKD
ROOT
HETATM    1  C   UNL     1      -9.800   6.523  66.797  1.00  0.00    -0.162 C  
HETATM    2  C   UNL     1     -11.005   6.334  67.730  1.00  0.00    -0.427 C  
ENDROOT
BRANCH   1   3
HETATM    3  C   UNL     1      -8.950   7.774  67.189  1.00  0.00    -0.126 C  
HETATM    4  O   UNL     1      -7.629   7.669  66.632  1.00  0.00    -0.093 OA 
HETATM    5  H   UNL     1      -7.112   8.430  66.871  1.00  0.00     0.000 HD 
BRANCH   3   6
HETATM    6  C   UNL     1      -8.877   8.076  68.677  1.00  0.00    -0.134 A  
HETATM    7  C   UNL     1      -8.059   7.296  69.510  1.00  0.00    -0.129 A  
HETATM    8  C   UNL     1      -8.049   7.497  70.894  1.00  0.00    -0.104 A  
HETATM    9  C   UNL     1      -8.849   8.490  71.448  1.00  0.00    -0.198 A  
HETATM   10  O   UNL     1      -8.904   8.692  72.795  1.00  0.00    -0.374 OA 
HETATM   11  C   UNL     1      -9.631   9.304  70.640  1.00  0.00    -0.334 A  
HETATM   12  C   UNL     1      -9.643   9.101  69.259  1.00  0.00    -0.159 A  
HETATM   13  H   UNL     1      -9.450   9.371  73.174  1.00  0.00     0.000 HD 
ENDBRANCH   3   6
ENDBRANCH   1   3
BRANCH   1  14
HETATM   14  N   UNL     1      -8.901   5.345  66.829  1.00  0.00    -0.112 NA 
HETATM   15  C   UNL     1      -9.569   4.080  67.074  1.00  0.00    -0.201 C  
HETATM   16  H   UNL     1      -8.153   5.488  67.509  1.00  0.00     0.000 HD 
ENDBRANCH   1  14
TORSDOF 3
ENDMDL
MODEL      209
REMARK 921   NORMALIZED FREE ENERGY PREDICTED BY IDOCK:   -2.04 KCAL/MOL
REMARK 922        TOTAL FREE ENERGY PREDICTED BY IDOCK:   -2.68 KCAL/MOL
REMARK 923 INTER-LIGAND FREE ENERGY PREDICTED BY IDOCK:   -2.60 KCAL/MOL
REMARK 924 INTRA-LIGAND FREE ENERGY PREDICTED BY IDOCK:   -0.09 KCAL/MOL
REMARK 927      BINDING AFFINITY PREDICTED BY RF-SCORE:    0.00 PKD
ROOT
HETATM    1  C   UNL     1      -9.415   6.446  67.894  1.00  0.00    -0.115 C  
HETATM    2  C   UNL     1      -8.388   5.708  68.765  1.00  0.00    -0.103 C  
ENDROOT
BRANCH   1   3
HETATM    3  C   UNL     1     -10.383   7.324  68.751  1.00  0.00    -0.200 C  
HETATM    4  O   UNL     1     -10.817   8.466  67.993  1.00  0.00    -0.454 OA 
HETATM    5  H   UNL     1     -11.405   9.000  68.515  1.00  0.00     0.000 HD 
BRANCH   3   6
HETATM    6  C   UNL     1      -9.846   7.759  70.106  1.00  0.00    -0.184 A  
HETATM    7  C   UNL     1      -8.805   8.700  70.176  1.00  0.00    -0.144 A  
HETATM    8  C   UNL     1      -8.234   9.043  71.406  1.00  0.00    -0.113 A  
HETATM    9  C   UNL     1      -8.713   8.456  72.572  1.00  0.00    -0.206 A  
HETATM   10  O   UNL     1      -8.157   8.728  73.787  1.00  0.00    -0.381 OA 
HETATM   11  C   UNL     1      -9.771   7.558  72.530  1.00  0.00    -0.218 A  
HETATM   12  C   UNL     1     -10.338   7.213  71.303  1.00  0.00    -0.209 A  
HETATM   13  H   UNL     1      -8.485   8.326  74.584  1.00  0.00     0.000 HD 
ENDBRANCH   3   6
ENDBRANCH   1   3
BRANCH   1  14
HETATM   14  N   UNL     1      -8.752   7.340  66.914  1.00  0.00    -0.122 NA 
HETATM   15  C   UNL     1      -8.427   6.713  65.646  1.00  0.00    -0.144 C  
HETATM   16  H   UNL     1      -7.918   7.760  67.326  1.00  0.00     0.000 HD 
ENDBRANCH   1  14
TORSDOF 3
ENDMDL
MODEL      210
REMARK 921   NORMALIZED FREE ENERGY PREDICTED BY IDOCK:   -2.00 KCAL/MOL
REMARK 922        TOTAL FREE ENERGY PREDICTED BY IDOCK:   -2.63 KCAL/MOL
REMARK 923 INTER-LIGAND FREE ENERGY PREDICTED BY IDOCK:   -2.33 KCAL/MOL
REMARK 924 INTRA-LIGAND FREE ENERGY PREDICTED BY IDOCK:   -0.30 KCAL/MOL
REMARK 927      BINDING AFFINITY PREDICTED BY RF-SCORE:    0.00 PKD
ROOT
HETATM    1  C   UNL     1      -8.622   8.451  67.997  1.00  0.00    -0.135 C  
HETATM    2  C   UNL     1      -9.828   8.157  68.902  1.00  0.00    -0.178 C  
ENDROOT
BRANCH   1   3
HETATM    3  C   UNL     1      -8.769   7.780  66.593  1.00  0.00    -0.140 C  
HETATM    4  O   UNL     1      -9.857   8.380  65.870  1.00  0.00    -0.471 OA 
HETATM    5  H   UNL     1      -9.946   7.972  65.016  1.00  0.00     0.000 HD 
BRANCH   3   6
HETATM    6  C   UNL     1      -8.909   6.266  66.602  1.00  0.00    -0.132 A  
HETATM    7  C   UNL     1     -10.004   5.661  65.964  1.00  0.00    -0.032 A  
HETATM    8  C   UNL     1     -10.201   4.278  66.040  1.00  0.00    -0.183 A  
HETATM    9  C   UNL     1      -9.294   3.494  66.745  1.00  0.00    -0.182 A  
HETATM   10  O   UNL     1      -9.470   2.149  66.881  1.00  0.00    -0.375 OA 
HETATM   11  C   UNL     1      -8.180   4.065  67.345  1.00  0.00    -0.098 A  
HETATM   12  C   UNL     1      -7.985   5.445  67.271  1.00  0.00    -0.101 A  
HETATM   13  H   UNL     1      -8.850   1.613  67.363  1.00  0.00     0.000 HD 
ENDBRANCH   3   6
ENDBRANCH   1   3
BRANCH   1  14
HETATM   14  N   UNL     1      -8.450   9.907  67.780  1.00  0.00    -0.118 NA 
HETATM   15  C   UNL     1      -9.318  10.746  68.585  1.00  0.00    -0.184 C  
HETATM   16  H   UNL     1      -8.557  10.133  66.790  1.00  0.00     0.000 HD 
ENDBRANCH   1  14
TORSDOF 3
ENDMDL
MODEL      211
REMARK 921   NORMALIZED FREE ENERGY PREDICTED BY IDOCK:   -1.97 KCAL/MOL
REMARK 922        TOTAL FREE ENERGY PREDICTED BY IDOCK:   -2.59 KCAL/MOL
REMARK 923 INTER-LIGAND FREE ENERGY PREDICTED BY IDOCK:   -3.03 KCAL/MOL
REMARK 924 INTRA-LIGAND FREE ENERGY PREDICTED BY IDOCK:    0.44 KCAL/MOL
REMARK 927      BINDING AFFINITY PREDICTED BY RF-SCORE:    0.00 PKD
ROOT
HETATM    1  C   UNL     1     -10.207   5.878  68.141  1.00  0.00    -0.184 C  
HETATM    2  C   UNL     1     -10.463   5.249  66.763  1.00  0.00    -0.330 C  
ENDROOT
BRANCH   1   3
HETATM    3  C   UNL     1      -8.905   6.742  68.154  1.00  0.00    -0.120 C  
HETATM    4  O   UNL     1      -8.607   7.168  69.494  1.00  0.00    -0.133 OA 
HETATM    5  H   UNL     1      -7.816   7.694  69.502  1.00  0.00     0.000 HD 
BRANCH   3   6
HETATM    6  C   UNL     1      -8.898   7.930  67.205  1.00  0.00    -0.137 A  
HETATM    7  C   UNL     1      -7.875   8.056  66.251  1.00  0.00    -0.099 A  
HETATM    8  C   UNL     1      -7.798   9.188  65.432  1.00  0.00    -0.100 A  
HETATM    9  C   UNL     1      -8.754  10.190  65.555  1.00  0.00    -0.158 A  
HETATM   10  O   UNL     1      -8.692  11.329  64.809  1.00  0.00    -0.377 OA 
HETATM   11  C   UNL     1      -9.800  10.065  66.459  1.00  0.00    -0.267 A  
HETATM   12  C   UNL     1      -9.875   8.937  67.279  1.00  0.00    -0.256 A  
HETATM   13  H   UNL     1      -9.346  12.014  64.893  1.00  0.00     0.000 HD 
ENDBRANCH   3   6
ENDBRANCH   1   3
BRANCH   1  14
HETATM   14  N   UNL     1     -11.328   6.755  68.553  1.00  0.00    -0.560 NA 
HETATM   15  C   UNL     1     -11.582   6.783  69.982  1.00  0.00    -0.310 C  
HETATM   16  H   UNL     1     -12.179   6.505  68.047  1.00  0.00     0.000 HD 
ENDBRANCH   1  14
TORSDOF 3
ENDMDL
MODEL      212
REMARK 921   NORMALIZED FREE ENERGY PREDICTED BY IDOCK:   -1.95 KCAL/MOL
REMARK 922        TOTAL FREE ENERGY PREDICTED BY IDOCK:   -2.58 KCAL/MOL
REMARK 923 INTER-LIGAND FREE ENERGY PREDICTED BY IDOCK:   -2.67 KCAL/MOL
REMARK 924 INTRA-LIGAND FREE ENERGY PREDICTED BY IDOCK:    0.09 KCAL/MOL
REMARK 927      BINDING AFFINITY PREDICTED BY RF-SCORE:    0.00 PKD
ROOT
HETATM    1  C   UNL     1     -10.872   6.100  71.745  1.00  0.00    -0.255 C  
HETATM    2  C   UNL     1     -10.222   6.861  72.910  1.00  0.00    -0.226 C  
ENDROOT
BRANCH   1   3
HETATM    3  C   UNL     1     -11.120   7.025  70.511  1.00  0.00    -0.280 C  
HETATM    4  O   UNL     1     -12.397   6.731  69.919  1.00  0.00    -0.581 OA 
HETATM    5  H   UNL     1     -12.547   7.293  69.169  1.00  0.00     0.000 HD 
BRANCH   3   6
HETATM    6  C   UNL     1     -10.029   7.011  69.452  1.00  0.00    -0.165 A  
HETATM    7  C   UNL     1      -8.719   7.384  69.793  1.00  0.00    -0.141 A  
HETATM    8  C   UNL     1      -7.722   7.468  68.816  1.00  0.00    -0.119 A  
HETATM    9  C   UNL     1      -8.030   7.164  67.494  1.00  0.00    -0.113 A  
HETATM   10  O   UNL     1      -7.101   7.274  66.502  1.00  0.00    -0.074 OA 
HETATM   11  C   UNL     1      -9.307   6.748  67.142  1.00  0.00    -0.154 A  
HETATM   12  C   UNL     1     -10.302   6.668  68.117  1.00  0.00    -0.223 A  
HETATM   13  H   UNL     1      -7.312   7.066  65.599  1.00  0.00     0.000 HD 
ENDBRANCH   3   6
ENDBRANCH   1   3
BRANCH   1  14
HETATM   14  N   UNL     1     -10.023   4.972  71.293  1.00  0.00    -0.188 NA 
HETATM   15  C   UNL     1     -10.091   3.789  72.132  1.00  0.00    -0.150 C  
HETATM   16  H   UNL     1      -9.055   5.277  71.189  1.00  0.00     0.000 HD 
ENDBRANCH   1  14
TORSDOF 3
ENDMDL
MODEL      213
REMARK 921   NORMALIZED FREE ENERGY PREDICTED BY IDOCK:   -1.91 KCAL/MOL
REMARK 922        TOTAL FREE ENERGY PREDICTED BY IDOCK:   -2.52 KCAL/MOL
REMARK 923 INTER-LIGAND FREE ENERGY PREDICTED BY IDOCK:   -2.27 KCAL/MOL
REMARK 924 INTRA-LIGAND FREE ENERGY PREDICTED BY IDOCK:   -0.25 KCAL/MOL
REMARK 927      BINDING AFFINITY PREDICTED BY RF-SCORE:    0.00 PKD
ROOT
HETATM    1  C   UNL     1      -8.153   6.748  67.199  1.00  0.00    -0.117 C  
HETATM    2  C   UNL     1      -6.618   6.800  67.205  1.00  0.00    -0.054 C  
ENDROOT
BRANCH   1   3
HETATM    3  C   UNL     1      -8.742   7.099  65.795  1.00  0.00    -0.107 C  
HETATM    4  O   UNL     1      -7.959   6.481  64.760  1.00  0.00    -0.114 OA 
HETATM    5  H   UNL     1      -8.317   6.695  63.907  1.00  0.00     0.000 HD 
BRANCH   3   6
HETATM    6  C   UNL     1      -8.921   8.583  65.512  1.00  0.00    -0.182 A  
HETATM    7  C   UNL     1      -9.223   9.464  66.563  1.00  0.00    -0.202 A  
HETATM    8  C   UNL     1      -9.482  10.815  66.310  1.00  0.00    -0.213 A  
HETATM    9  C   UNL     1      -9.427  11.291  65.005  1.00  0.00    -0.209 A  
HETATM   10  O   UNL     1      -9.716  12.590  64.708  1.00  0.00    -0.476 OA 
HETATM   11  C   UNL     1      -9.086  10.448  63.956  1.00  0.00    -0.271 A  
HETATM   12  C   UNL     1      -8.830   9.099  64.208  1.00  0.00    -0.139 A  
HETATM   13  H   UNL     1      -9.678  12.916  63.816  1.00  0.00     0.000 HD 
ENDBRANCH   3   6
ENDBRANCH   1   3
BRANCH   1  14
HETATM   14  N   UNL     1      -8.651   5.402  67.568  1.00  0.00    -0.109 NA 
HETATM   15  C   UNL     1      -7.774   4.652  68.449  1.00  0.00    -0.080 C  
HETATM   16  H   UNL     1      -8.859   4.859  66.729  1.00  0.00     0.000 HD 
ENDBRANCH   1  14
TORSDOF 3
ENDMDL
MODEL      214
REMARK 921   NORMALIZED FREE ENERGY PREDICTED BY IDOCK:   -1.90 KCAL/MOL
REMARK 922        TOTAL FREE ENERGY PREDICTED BY IDOCK:   -2.51 KCAL/MOL
REMARK 923 INTER-LIGAND FREE ENERGY PREDICTED BY IDOCK:   -2.42 KCAL/MOL
REMARK 924 INTRA-LIGAND FREE ENERGY PREDICTED BY IDOCK:   -0.09 KCAL/MOL
REMARK 927      BINDING AFFINITY PREDICTED BY RF-SCORE:    0.00 PKD
ROOT
HETATM    1  C   UNL     1     -10.695   7.731  69.508  1.00  0.00    -0.198 C  
HETATM    2  C   UNL     1     -11.101   6.252  69.600  1.00  0.00    -0.479 C  
ENDROOT
BRANCH   1   3
HETATM    3  C   UNL     1      -9.998   8.226  70.815  1.00  0.00    -0.190 C  
HETATM    4  O   UNL     1      -9.099   9.308  70.518  1.00  0.00    -0.221 OA 
HETATM    5  H   UNL     1      -8.675   9.609  71.313  1.00  0.00     0.000 HD 
BRANCH   3   6
HETATM    6  C   UNL     1      -9.288   7.153  71.626  1.00  0.00    -0.158 A  
HETATM    7  C   UNL     1      -9.758   6.820  72.907  1.00  0.00    -0.173 A  
HETATM    8  C   UNL     1      -9.066   5.905  73.706  1.00  0.00    -0.127 A  
HETATM    9  C   UNL     1      -7.908   5.308  73.220  1.00  0.00    -0.104 A  
HETATM   10  O   UNL     1      -7.178   4.443  73.980  1.00  0.00    -0.069 OA 
HETATM   11  C   UNL     1      -7.451   5.588  71.939  1.00  0.00    -0.094 A  
HETATM   12  C   UNL     1      -8.140   6.504  71.143  1.00  0.00    -0.116 A  
HETATM   13  H   UNL     1      -6.387   4.035  73.648  1.00  0.00     0.000 HD 
ENDBRANCH   3   6
ENDBRANCH   1   3
BRANCH   1  14
HETATM   14  N   UNL     1      -9.754   7.964  68.385  1.00  0.00    -0.157 NA 
HETATM   15  C   UNL     1     -10.315   7.729  67.067  1.00  0.00    -0.334 C  
HETATM   16  H   UNL     1      -8.905   7.413  68.513  1.00  0.00     0.000 HD 
ENDBRANCH   1  14
TORSDOF 3
ENDMDL
MODEL      215
REMARK 921   NORMALIZED FREE ENERGY PREDICTED BY IDOCK:   -1.89 KCAL/MOL
REMARK 922        TOTAL FREE ENERGY PREDICTED BY IDOCK:   -2.51 KCAL/MOL
REMARK 923 INTER-LIGAND FREE ENERGY PREDICTED BY IDOCK:   -2.41 KCAL/MOL
REMARK 924 INTRA-LIGAND FREE ENERGY PREDICTED BY IDOCK:   -0.10 KCAL/MOL
REMARK 927      BINDING AFFINITY PREDICTED BY RF-SCORE:    0.00 PKD
ROOT
HETATM    1  C   UNL     1      -9.259   6.585  68.326  1.00  0.00    -0.116 C  
HETATM    2  C   UNL     1      -8.160   6.618  69.399  1.00  0.00    -0.119 C  
ENDROOT
BRANCH   1   3
HETATM    3  C   UNL     1      -9.812   8.013  68.014  1.00  0.00    -0.167 C  
HETATM    4  O   UNL     1     -11.181   7.930  67.584  1.00  0.00    -0.433 OA 
HETATM    5  H   UNL     1     -11.517   8.798  67.394  1.00  0.00     0.000 HD 
BRANCH   3   6
HETATM    6  C   UNL     1      -8.994   8.831  67.028  1.00  0.00    -0.151 A  
HETATM    7  C   UNL     1      -9.393   8.909  65.684  1.00  0.00    -0.259 A  
HETATM    8  C   UNL     1      -8.604   9.578  64.742  1.00  0.00    -0.196 A  
HETATM    9  C   UNL     1      -7.419  10.184  65.146  1.00  0.00    -0.141 A  
HETATM   10  O   UNL     1      -6.599  10.810  64.255  1.00  0.00    -0.356 OA 
HETATM   11  C   UNL     1      -7.029  10.159  66.478  1.00  0.00    -0.102 A  
HETATM   12  C   UNL     1      -7.814   9.489  67.417  1.00  0.00    -0.102 A  
HETATM   13  H   UNL     1      -5.789  11.224  64.531  1.00  0.00     0.000 HD 
ENDBRANCH   3   6
ENDBRANCH   1   3
BRANCH   1  14
HETATM   14  N   UNL     1      -8.757   6.014  67.053  1.00  0.00    -0.110 NA 
HETATM   15  C   UNL     1      -9.418   4.791  66.636  1.00  0.00    -0.155 C  
HETATM   16  H   UNL     1      -7.747   5.872  67.102  1.00  0.00     0.000 HD 
ENDBRANCH   1  14
TORSDOF 3
ENDMDL
MODEL      216
REMARK 921   NORMALIZED FREE ENERGY PREDICTED BY IDOCK:   -1.89 KCAL/MOL
REMARK 922        TOTAL FREE ENERGY PREDICTED BY IDOCK:   -2.50 KCAL/MOL
REMARK 923 INTER-LIGAND FREE ENERGY PREDICTED BY IDOCK:   -2.36 KCAL/MOL
REMARK 924 INTRA-LIGAND FREE ENERGY PREDICTED BY IDOCK:   -0.14 KCAL/MOL
REMARK 927      BINDING AFFINITY PREDICTED BY RF-SCORE:    0.00 PKD
ROOT
HETATM    1  C   UNL     1      -6.994  10.382  68.815  1.00  0.00    -0.068 C  
HETATM    2  C   UNL     1      -6.090   9.492  69.681  1.00  0.00    -0.039 C  
ENDROOT
BRANCH   1   3
HETATM    3  C   UNL     1      -8.326   9.662  68.431  1.00  0.00    -0.117 C  
HETATM    4  O   UNL     1      -9.271  10.612  67.911  1.00  0.00    -0.145 OA 
HETATM    5  H   UNL     1     -10.081  10.174  67.679  1.00  0.00     0.000 HD 
BRANCH   3   6
HETATM    6  C   UNL     1      -8.962   8.830  69.534  1.00  0.00    -0.145 A  
HETATM    7  C   UNL     1      -8.906   7.428  69.473  1.00  0.00    -0.137 A  
HETATM    8  C   UNL     1      -9.564   6.644  70.427  1.00  0.00    -0.173 A  
HETATM    9  C   UNL     1     -10.269   7.262  71.454  1.00  0.00    -0.188 A  
HETATM   10  O   UNL     1     -10.961   6.538  72.379  1.00  0.00    -0.227 OA 
HETATM   11  C   UNL     1     -10.300   8.646  71.560  1.00  0.00    -0.341 A  
HETATM   12  C   UNL     1      -9.646   9.427  70.606  1.00  0.00    -0.331 A  
HETATM   13  H   UNL     1     -11.443   6.960  73.081  1.00  0.00     0.000 HD 
ENDBRANCH   3   6
ENDBRANCH   1   3
BRANCH   1  14
HETATM   14  N   UNL     1      -7.352  11.637  69.519  1.00  0.00    -0.345 NA 
HETATM   15  C   UNL     1      -6.461  12.752  69.259  1.00  0.00    -0.105 C  
HETATM   16  H   UNL     1      -7.429  11.471  70.523  1.00  0.00     0.000 HD 
ENDBRANCH   1  14
TORSDOF 3
ENDMDL
MODEL      217
REMARK 921   NORMALIZED FREE ENERGY PREDICTED BY IDOCK:   -1.87 KCAL/MOL
REMARK 922        TOTAL FREE ENERGY PREDICTED BY IDOCK:   -2.47 KCAL/MOL
REMARK 923 INTER-LIGAND FREE ENERGY PREDICTED BY IDOCK:   -2.39 KCAL/MOL
REMARK 924 INTRA-LIGAND FREE ENERGY PREDICTED BY IDOCK:   -0.09 KCAL/MOL
REMARK 927      BINDING AFFINITY PREDICTED BY RF-SCORE:    0.00 PKD
ROOT
HETATM    1  C   UNL     1      -9.195   6.492  68.041  1.00  0.00    -0.111 C  
HETATM    2  C   UNL     1      -8.615   5.238  68.712  1.00  0.00    -0.091 C  
ENDROOT
BRANCH   1   3
HETATM    3  C   UNL     1      -9.645   7.560  69.089  1.00  0.00    -0.157 C  
HETATM    4  O   UNL     1     -10.920   7.201  69.646  1.00  0.00    -0.260 OA 
HETATM    5  H   UNL     1     -11.193   7.850  70.283  1.00  0.00     0.000 HD 
BRANCH   3   6
HETATM    6  C   UNL     1      -9.668   8.996  68.591  1.00  0.00    -0.168 A  
HETATM    7  C   UNL     1     -10.609   9.386  67.624  1.00  0.00    -0.333 A  
HETATM    8  C   UNL     1     -10.587  10.676  67.085  1.00  0.00    -0.312 A  
HETATM    9  C   UNL     1      -9.631  11.586  67.522  1.00  0.00    -0.172 A  
HETATM   10  O   UNL     1      -9.546  12.840  66.993  1.00  0.00    -0.216 OA 
HETATM   11  C   UNL     1      -8.720  11.237  68.510  1.00  0.00    -0.156 A  
HETATM   12  C   UNL     1      -8.741   9.949  69.046  1.00  0.00    -0.151 A  
HETATM   13  H   UNL     1      -8.892  13.462  67.293  1.00  0.00     0.000 HD 
ENDBRANCH   3   6
ENDBRANCH   1   3
BRANCH   1  14
HETATM   14  N   UNL     1      -8.203   7.135  67.146  1.00  0.00    -0.117 NA 
HETATM   15  C   UNL     1      -8.333   6.780  65.745  1.00  0.00    -0.143 C  
HETATM   16  H   UNL     1      -7.256   6.946  67.473  1.00  0.00     0.000 HD 
ENDBRANCH   1  14
TORSDOF 3
ENDMDL
MODEL      218
REMARK 921   NORMALIZED FREE ENERGY PREDICTED BY IDOCK:   -1.77 KCAL/MOL
REMARK 922        TOTAL FREE ENERGY PREDICTED BY IDOCK:   -2.37 KCAL/MOL
REMARK 923 INTER-LIGAND FREE ENERGY PREDICTED BY IDOCK:   -2.06 KCAL/MOL
REMARK 924 INTRA-LIGAND FREE ENERGY PREDICTED BY IDOCK:   -0.31 KCAL/MOL
REMARK 927      BINDING AFFINITY PREDICTED BY RF-SCORE:    0.00 PKD
ROOT
HETATM    1  C   UNL     1      -9.508   5.955  67.987  1.00  0.00    -0.108 C  
HETATM    2  C   UNL     1      -8.649   4.719  67.679  1.00  0.00    -0.103 C  
ENDROOT
BRANCH   1   3
HETATM    3  C   UNL     1      -9.024   6.694  69.276  1.00  0.00    -0.135 C  
HETATM    4  O   UNL     1      -7.675   7.158  69.104  1.00  0.00    -0.104 OA 
HETATM    5  H   UNL     1      -7.381   7.607  69.888  1.00  0.00     0.000 HD 
BRANCH   3   6
HETATM    6  C   UNL     1      -9.154   5.906  70.570  1.00  0.00    -0.158 A  
HETATM    7  C   UNL     1     -10.401   5.381  70.947  1.00  0.00    -0.312 A  
HETATM    8  C   UNL     1     -10.562   4.734  72.176  1.00  0.00    -0.204 A  
HETATM    9  C   UNL     1      -9.471   4.598  73.028  1.00  0.00    -0.129 A  
HETATM   10  O   UNL     1      -9.592   4.014  74.254  1.00  0.00    -0.105 OA 
HETATM   11  C   UNL     1      -8.219   5.069  72.656  1.00  0.00    -0.112 A  
HETATM   12  C   UNL     1      -8.059   5.717  71.430  1.00  0.00    -0.118 A  
HETATM   13  H   UNL     1      -8.846   3.921  74.836  1.00  0.00     0.000 HD 
ENDBRANCH   3   6
ENDBRANCH   1   3
BRANCH   1  14
HETATM   14  N   UNL     1      -9.470   6.932  66.872  1.00  0.00    -0.152 NA 
HETATM   15  C   UNL     1     -10.499   7.955  66.929  1.00  0.00    -0.318 C  
HETATM   16  H   UNL     1      -9.502   6.448  65.975  1.00  0.00     0.000 HD 
ENDBRANCH   1  14
TORSDOF 3
ENDMDL
MODEL      219
REMARK 921   NORMALIZED FREE ENERGY PREDICTED BY IDOCK:   -1.76 KCAL/MOL
REMARK 922        TOTAL FREE ENERGY PREDICTED BY IDOCK:   -2.35 KCAL/MOL
REMARK 923 INTER-LIGAND FREE ENERGY PREDICTED BY IDOCK:   -2.07 KCAL/MOL
REMARK 924 INTRA-LIGAND FREE ENERGY PREDICTED BY IDOCK:   -0.28 KCAL/MOL
REMARK 927      BINDING AFFINITY PREDICTED BY RF-SCORE:    0.00 PKD
ROOT
HETATM    1  C   UNL     1      -8.163   3.484  64.819  1.00  0.00    -0.090 C  
HETATM    2  C   UNL     1      -7.072   3.694  63.758  1.00  0.00    -0.050 C  
ENDROOT
BRANCH   1   3
HETATM    3  C   UNL     1      -9.035   4.765  65.020  1.00  0.00    -0.153 C  
HETATM    4  O   UNL     1      -8.476   5.865  64.284  1.00  0.00    -0.292 OA 
HETATM    5  H   UNL     1      -9.005   6.644  64.407  1.00  0.00     0.000 HD 
BRANCH   3   6
HETATM    6  C   UNL     1      -9.286   5.165  66.465  1.00  0.00    -0.142 A  
HETATM    7  C   UNL     1      -8.717   4.416  67.508  1.00  0.00    -0.112 A  
HETATM    8  C   UNL     1      -9.011   4.711  68.843  1.00  0.00    -0.145 A  
HETATM    9  C   UNL     1      -9.866   5.767  69.140  1.00  0.00    -0.162 A  
HETATM   10  O   UNL     1     -10.214   6.062  70.424  1.00  0.00    -0.185 OA 
HETATM   11  C   UNL     1     -10.403   6.550  68.128  1.00  0.00    -0.223 A  
HETATM   12  C   UNL     1     -10.112   6.253  66.795  1.00  0.00    -0.237 A  
HETATM   13  H   UNL     1     -10.798   6.784  70.628  1.00  0.00     0.000 HD 
ENDBRANCH   3   6
ENDBRANCH   1   3
BRANCH   1  14
HETATM   14  N   UNL     1      -9.076   2.378  64.444  1.00  0.00    -0.117 NA 
HETATM   15  C   UNL     1     -10.291   2.798  63.769  1.00  0.00    -0.164 C  
HETATM   16  H   UNL     1      -9.303   1.813  65.263  1.00  0.00     0.000 HD 
ENDBRANCH   1  14
TORSDOF 3
ENDMDL
MODEL      220
REMARK 921   NORMALIZED FREE ENERGY PREDICTED BY IDOCK:   -1.74 KCAL/MOL
REMARK 922        TOTAL FREE ENERGY PREDICTED BY IDOCK:   -2.33 KCAL/MOL
REMARK 923 INTER-LIGAND FREE ENERGY PREDICTED BY IDOCK:   -2.11 KCAL/MOL
REMARK 924 INTRA-LIGAND FREE ENERGY PREDICTED BY IDOCK:   -0.21 KCAL/MOL
REMARK 927      BINDING AFFINITY PREDICTED BY RF-SCORE:    0.00 PKD
ROOT
HETATM    1  C   UNL     1      -8.170   5.807  65.838  1.00  0.00    -0.121 C  
HETATM    2  C   UNL     1      -6.831   5.264  66.357  1.00  0.00    -0.059 C  
ENDROOT
BRANCH   1   3
HETATM    3  C   UNL     1      -7.971   6.855  64.696  1.00  0.00    -0.112 C  
HETATM    4  O   UNL     1      -6.635   6.770  64.173  1.00  0.00    -0.042 OA 
HETATM    5  H   UNL     1      -6.514   7.407  63.479  1.00  0.00     0.000 HD 
BRANCH   3   6
HETATM    6  C   UNL     1      -8.308   8.293  65.061  1.00  0.00    -0.158 A  
HETATM    7  C   UNL     1      -8.772   9.175  64.072  1.00  0.00    -0.165 A  
HETATM    8  C   UNL     1      -8.998  10.523  64.365  1.00  0.00    -0.232 A  
HETATM    9  C   UNL     1      -8.772  10.991  65.655  1.00  0.00    -0.157 A  
HETATM   10  O   UNL     1      -8.938  12.306  65.975  1.00  0.00    -0.412 OA 
HETATM   11  C   UNL     1      -8.357  10.128  66.660  1.00  0.00    -0.123 A  
HETATM   12  C   UNL     1      -8.129   8.783  66.366  1.00  0.00    -0.103 A  
HETATM   13  H   UNL     1      -8.784  12.626  66.857  1.00  0.00     0.000 HD 
ENDBRANCH   3   6
ENDBRANCH   1   3
BRANCH   1  14
HETATM   14  N   UNL     1      -9.024   4.721  65.302  1.00  0.00    -0.148 NA 
HETATM   15  C   UNL     1     -10.365   4.674  65.857  1.00  0.00    -0.283 C  
HETATM   16  H   UNL     1      -8.563   3.818  65.415  1.00  0.00     0.000 HD 
ENDBRANCH   1  14
TORSDOF 3
ENDMDL
MODEL      221
REMARK 921   NORMALIZED FREE ENERGY PREDICTED BY IDOCK:   -1.71 KCAL/MOL
REMARK 922        TOTAL FREE ENERGY PREDICTED BY IDOCK:   -2.29 KCAL/MOL
REMARK 923 INTER-LIGAND FREE ENERGY PREDICTED BY IDOCK:   -2.34 KCAL/MOL
REMARK 924 INTRA-LIGAND FREE ENERGY PREDICTED BY IDOCK:    0.06 KCAL/MOL
REMARK 927      BINDING AFFINITY PREDICTED BY RF-SCORE:    0.00 PKD
ROOT
HETATM    1  C   UNL     1      -7.913   6.989  71.664  1.00  0.00    -0.099 C  
HETATM    2  C   UNL     1      -8.643   8.264  71.217  1.00  0.00    -0.179 C  
ENDROOT
BRANCH   1   3
HETATM    3  C   UNL     1      -8.766   5.706  71.403  1.00  0.00    -0.132 C  
HETATM    4  O   UNL     1      -8.027   4.534  71.782  1.00  0.00    -0.092 OA 
HETATM    5  H   UNL     1      -8.545   3.754  71.623  1.00  0.00     0.000 HD 
BRANCH   3   6
HETATM    6  C   UNL     1      -9.309   5.557  69.990  1.00  0.00    -0.187 A  
HETATM    7  C   UNL     1      -8.650   4.723  69.072  1.00  0.00    -0.093 A  
HETATM    8  C   UNL     1      -9.078   4.644  67.743  1.00  0.00    -0.136 A  
HETATM    9  C   UNL     1     -10.176   5.392  67.330  1.00  0.00    -0.201 A  
HETATM   10  O   UNL     1     -10.600   5.379  66.035  1.00  0.00    -0.458 OA 
HETATM   11  C   UNL     1     -10.869   6.188  68.231  1.00  0.00    -0.387 A  
HETATM   12  C   UNL     1     -10.441   6.268  69.557  1.00  0.00    -0.293 A  
HETATM   13  H   UNL     1     -11.351   5.890  65.753  1.00  0.00     0.000 HD 
ENDBRANCH   3   6
ENDBRANCH   1   3
BRANCH   1  14
HETATM   14  N   UNL     1      -6.626   6.822  70.947  1.00  0.00    -0.052 NA 
HETATM   15  C   UNL     1      -5.450   7.168  71.725  1.00  0.00    -0.036 C  
HETATM   16  H   UNL     1      -6.638   7.345  70.071  1.00  0.00     0.000 HD 
ENDBRANCH   1  14
TORSDOF 3
ENDMDL
MODEL      222
REMARK 921   NORMALIZED FREE ENERGY PREDICTED BY IDOCK:   -1.65 KCAL/MOL
REMARK 922        TOTAL FREE ENERGY PREDICTED BY IDOCK:   -2.22 KCAL/MOL
REMARK 923 INTER-LIGAND FREE ENERGY PREDICTED BY IDOCK:   -2.00 KCAL/MOL
REMARK 924 INTRA-LIGAND FREE ENERGY PREDICTED BY IDOCK:   -0.22 KCAL/MOL
REMARK 927      BINDING AFFINITY PREDICTED BY RF-SCORE:    0.00 PKD
ROOT
HETATM    1  C   UNL     1      -8.711   3.841  66.447  1.00  0.00    -0.118 C  
HETATM    2  C   UNL     1      -7.369   3.338  65.896  1.00  0.00    -0.072 C  
ENDROOT
BRANCH   1   3
HETATM    3  C   UNL     1      -8.743   5.398  66.574  1.00  0.00    -0.117 C  
HETATM    4  O   UNL     1      -7.555   5.967  65.996  1.00  0.00    -0.084 OA 
HETATM    5  H   UNL     1      -7.574   6.913  66.074  1.00  0.00     0.000 HD 
BRANCH   3   6
HETATM    6  C   UNL     1      -8.959   5.936  67.980  1.00  0.00    -0.118 A  
HETATM    7  C   UNL     1     -10.138   6.634  68.287  1.00  0.00    -0.170 A  
HETATM    8  C   UNL     1     -10.316   7.217  69.546  1.00  0.00    -0.230 A  
HETATM    9  C   UNL     1      -9.318   7.091  70.507  1.00  0.00    -0.159 A  
HETATM   10  O   UNL     1      -9.430   7.680  71.732  1.00  0.00    -0.143 OA 
HETATM   11  C   UNL     1      -8.165   6.367  70.240  1.00  0.00    -0.125 A  
HETATM   12  C   UNL     1      -7.987   5.788  68.983  1.00  0.00    -0.098 A  
HETATM   13  H   UNL     1      -8.749   7.594  72.388  1.00  0.00     0.000 HD 
ENDBRANCH   3   6
ENDBRANCH   1   3
BRANCH   1  14
HETATM   14  N   UNL     1      -9.839   3.443  65.571  1.00  0.00    -0.388 NA 
HETATM   15  C   UNL     1      -9.745   3.926  64.205  1.00  0.00    -0.174 C  
HETATM   16  H   UNL     1     -10.728   3.726  65.986  1.00  0.00     0.000 HD 
ENDBRANCH   1  14
TORSDOF 3
ENDMDL
MODEL      223
REMARK 921   NORMALIZED FREE ENERGY PREDICTED BY IDOCK:   -1.60 KCAL/MOL
REMARK 922        TOTAL FREE ENERGY PREDICTED BY IDOCK:   -2.16 KCAL/MOL
REMARK 923 INTER-LIGAND FREE ENERGY PREDICTED BY IDOCK:   -1.84 KCAL/MOL
REMARK 924 INTRA-LIGAND FREE ENERGY PREDICTED BY IDOCK:   -0.32 KCAL/MOL
REMARK 927      BINDING AFFINITY PREDICTED BY RF-SCORE:    0.00 PKD
ROOT
HETATM    1  C   UNL     1      -8.041   7.297  72.171  1.00  0.00    -0.094 C  
HETATM    2  C   UNL     1      -6.828   8.126  71.723  1.00  0.00    -0.073 C  
ENDROOT
BRANCH   1   3
HETATM    3  C   UNL     1      -8.577   6.381  71.025  1.00  0.00    -0.131 C  
HETATM    4  O   UNL     1      -7.595   5.390  70.682  1.00  0.00    -0.076 OA 
HETATM    5  H   UNL     1      -7.921   4.833  69.985  1.00  0.00     0.000 HD 
BRANCH   3   6
HETATM    6  C   UNL     1      -9.057   7.107  69.778  1.00  0.00    -0.141 A  
HETATM    7  C   UNL     1      -8.391   6.913  68.557  1.00  0.00    -0.121 A  
HETATM    8  C   UNL     1      -8.757   7.641  67.420  1.00  0.00    -0.124 A  
HETATM    9  C   UNL     1      -9.801   8.556  67.498  1.00  0.00    -0.177 A  
HETATM   10  O   UNL     1     -10.162   9.318  66.427  1.00  0.00    -0.273 OA 
HETATM   11  C   UNL     1     -10.503   8.731  68.683  1.00  0.00    -0.213 A  
HETATM   12  C   UNL     1     -10.136   8.006  69.818  1.00  0.00    -0.196 A  
HETATM   13  H   UNL     1     -10.876   9.943  66.480  1.00  0.00     0.000 HD 
ENDBRANCH   3   6
ENDBRANCH   1   3
BRANCH   1  14
HETATM   14  N   UNL     1      -7.704   6.422  73.320  1.00  0.00    -0.097 NA 
HETATM   15  C   UNL     1      -8.851   5.887  74.030  1.00  0.00    -0.123 C  
HETATM   16  H   UNL     1      -7.082   6.909  73.966  1.00  0.00     0.000 HD 
ENDBRANCH   1  14
TORSDOF 3
ENDMDL
MODEL      224
REMARK 921   NORMALIZED FREE ENERGY PREDICTED BY IDOCK:   -1.57 KCAL/MOL
REMARK 922        TOTAL FREE ENERGY PREDICTED BY IDOCK:   -2.12 KCAL/MOL
REMARK 923 INTER-LIGAND FREE ENERGY PREDICTED BY IDOCK:   -2.07 KCAL/MOL
REMARK 924 INTRA-LIGAND FREE ENERGY PREDICTED BY IDOCK:   -0.06 KCAL/MOL
REMARK 927      BINDING AFFINITY PREDICTED BY RF-SCORE:    0.00 PKD
ROOT
HETATM    1  C   UNL     1      -8.598   6.750  72.817  1.00  0.00    -0.121 C  
HETATM    2  C   UNL     1      -9.059   8.135  73.294  1.00  0.00    -0.327 C  
ENDROOT
BRANCH   1   3
HETATM    3  C   UNL     1      -8.594   6.642  71.258  1.00  0.00    -0.126 C  
HETATM    4  O   UNL     1      -7.313   6.183  70.797  1.00  0.00    -0.078 OA 
HETATM    5  H   UNL     1      -7.311   6.117  69.849  1.00  0.00     0.000 HD 
BRANCH   3   6
HETATM    6  C   UNL     1      -9.007   7.902  70.513  1.00  0.00    -0.145 A  
HETATM    7  C   UNL     1     -10.321   8.032  70.034  1.00  0.00    -0.218 A  
HETATM    8  C   UNL     1     -10.695   9.140  69.267  1.00  0.00    -0.199 A  
HETATM    9  C   UNL     1      -9.758  10.129  68.988  1.00  0.00    -0.206 A  
HETATM   10  O   UNL     1     -10.067  11.203  68.208  1.00  0.00    -0.172 OA 
HETATM   11  C   UNL     1      -8.467  10.043  69.489  1.00  0.00    -0.186 A  
HETATM   12  C   UNL     1      -8.093   8.936  70.253  1.00  0.00    -0.125 A  
HETATM   13  H   UNL     1      -9.427  11.879  68.017  1.00  0.00     0.000 HD 
ENDBRANCH   3   6
ENDBRANCH   1   3
BRANCH   1  14
HETATM   14  N   UNL     1      -7.226   6.445  73.288  1.00  0.00    -0.086 NA 
HETATM   15  C   UNL     1      -6.642   7.456  74.150  1.00  0.00    -0.077 C  
HETATM   16  H   UNL     1      -6.611   6.258  72.495  1.00  0.00     0.000 HD 
ENDBRANCH   1  14
TORSDOF 3
ENDMDL
MODEL      225
REMARK 921   NORMALIZED FREE ENERGY PREDICTED BY IDOCK:   -1.54 KCAL/MOL
REMARK 922        TOTAL FREE ENERGY PREDICTED BY IDOCK:   -2.09 KCAL/MOL
REMARK 923 INTER-LIGAND FREE ENERGY PREDICTED BY IDOCK:   -1.80 KCAL/MOL
REMARK 924 INTRA-LIGAND FREE ENERGY PREDICTED BY IDOCK:   -0.29 KCAL/MOL
REMARK 927      BINDING AFFINITY PREDICTED BY RF-SCORE:    0.00 PKD
ROOT
HETATM    1  C   UNL     1      -9.479   8.718  68.154  1.00  0.00    -0.140 C  
HETATM    2  C   UNL     1      -8.961   8.681  66.709  1.00  0.00    -0.167 C  
ENDROOT
BRANCH   1   3
HETATM    3  C   UNL     1      -8.391   8.255  69.176  1.00  0.00    -0.123 C  
HETATM    4  O   UNL     1      -7.078   8.508  68.649  1.00  0.00    -0.069 OA 
HETATM    5  H   UNL     1      -6.416   8.226  69.270  1.00  0.00     0.000 HD 
BRANCH   3   6
HETATM    6  C   UNL     1      -8.506   6.813  69.646  1.00  0.00    -0.133 A  
HETATM    7  C   UNL     1      -9.703   6.359  70.223  1.00  0.00    -0.186 A  
HETATM    8  C   UNL     1      -9.799   5.066  70.746  1.00  0.00    -0.279 A  
HETATM    9  C   UNL     1      -8.699   4.217  70.682  1.00  0.00    -0.076 A  
HETATM   10  O   UNL     1      -8.733   2.964  71.218  1.00  0.00    -0.063 OA 
HETATM   11  C   UNL     1      -7.520   4.629  70.075  1.00  0.00    -0.054 A  
HETATM   12  C   UNL     1      -7.424   5.921  69.555  1.00  0.00    -0.076 A  
HETATM   13  H   UNL     1      -7.982   2.384  71.173  1.00  0.00     0.000 HD 
ENDBRANCH   3   6
ENDBRANCH   1   3
BRANCH   1  14
HETATM   14  N   UNL     1      -9.903  10.084  68.543  1.00  0.00    -0.153 NA 
HETATM   15  C   UNL     1     -10.710  10.147  69.748  1.00  0.00    -0.279 C  
HETATM   16  H   UNL     1     -10.386  10.539  67.769  1.00  0.00     0.000 HD 
ENDBRANCH   1  14
TORSDOF 3
ENDMDL
MODEL      226
REMARK 921   NORMALIZED FREE ENERGY PREDICTED BY IDOCK:   -1.33 KCAL/MOL
REMARK 922        TOTAL FREE ENERGY PREDICTED BY IDOCK:   -1.84 KCAL/MOL
REMARK 923 INTER-LIGAND FREE ENERGY PREDICTED BY IDOCK:   -1.64 KCAL/MOL
REMARK 924 INTRA-LIGAND FREE ENERGY PREDICTED BY IDOCK:   -0.20 KCAL/MOL
REMARK 927      BINDING AFFINITY PREDICTED BY RF-SCORE:    0.00 PKD
ROOT
HETATM    1  C   UNL     1      -5.930  11.194  69.509  1.00  0.00    -0.072 C  
HETATM    2  C   UNL     1      -6.092  12.501  70.301  1.00  0.00    -0.066 C  
ENDROOT
BRANCH   1   3
HETATM    3  C   UNL     1      -7.304  10.502  69.238  1.00  0.00    -0.113 C  
HETATM    4  O   UNL     1      -8.373  11.454  69.372  1.00  0.00    -0.365 OA 
HETATM    5  H   UNL     1      -9.208  11.033  69.208  1.00  0.00     0.000 HD 
BRANCH   3   6
HETATM    6  C   UNL     1      -7.588   9.262  70.071  1.00  0.00    -0.099 A  
HETATM    7  C   UNL     1      -8.739   9.209  70.875  1.00  0.00    -0.277 A  
HETATM    8  C   UNL     1      -8.971   8.118  71.719  1.00  0.00    -0.216 A  
HETATM    9  C   UNL     1      -8.058   7.070  71.751  1.00  0.00    -0.099 A  
HETATM   10  O   UNL     1      -8.222   6.008  72.590  1.00  0.00    -0.111 OA 
HETATM   11  C   UNL     1      -6.937   7.080  70.932  1.00  0.00    -0.062 A  
HETATM   12  C   UNL     1      -6.705   8.170  70.092  1.00  0.00    -0.036 A  
HETATM   13  H   UNL     1      -7.598   5.291  72.612  1.00  0.00     0.000 HD 
ENDBRANCH   3   6
ENDBRANCH   1   3
BRANCH   1  14
HETATM   14  N   UNL     1      -5.284  11.433  68.196  1.00  0.00    -0.043 NA 
HETATM   15  C   UNL     1      -6.096  11.074  67.048  1.00  0.00    -0.082 C  
HETATM   16  H   UNL     1      -4.381  10.960  68.154  1.00  0.00     0.000 HD 
ENDBRANCH   1  14
TORSDOF 3
ENDMDL
MODEL      227
REMARK 921   NORMALIZED FREE ENERGY PREDICTED BY IDOCK:   -1.21 KCAL/MOL
REMARK 922        TOTAL FREE ENERGY PREDICTED BY IDOCK:   -1.70 KCAL/MOL
REMARK 923 INTER-LIGAND FREE ENERGY PREDICTED BY IDOCK:   -1.68 KCAL/MOL
REMARK 924 INTRA-LIGAND FREE ENERGY PREDICTED BY IDOCK:   -0.02 KCAL/MOL
REMARK 927      BINDING AFFINITY PREDICTED BY RF-SCORE:    0.00 PKD
ROOT
HETATM    1  C   UNL     1      -8.561   6.993  73.480  1.00  0.00    -0.134 C  
HETATM    2  C   UNL     1      -9.295   8.261  73.017  1.00  0.00    -0.310 C  
ENDROOT
BRANCH   1   3
HETATM    3  C   UNL     1      -9.231   5.696  72.924  1.00  0.00    -0.135 C  
HETATM    4  O   UNL     1      -8.866   4.565  73.733  1.00  0.00    -0.105 OA 
HETATM    5  H   UNL     1      -9.273   3.776  73.395  1.00  0.00     0.000 HD 
BRANCH   3   6
HETATM    6  C   UNL     1      -8.972   5.403  71.455  1.00  0.00    -0.151 A  
HETATM    7  C   UNL     1      -7.893   4.585  71.084  1.00  0.00    -0.077 A  
HETATM    8  C   UNL     1      -7.582   4.380  69.736  1.00  0.00    -0.054 A  
HETATM    9  C   UNL     1      -8.360   4.982  68.753  1.00  0.00    -0.084 A  
HETATM   10  O   UNL     1      -8.067   4.844  67.429  1.00  0.00    -0.105 OA 
HETATM   11  C   UNL     1      -9.459   5.757  69.096  1.00  0.00    -0.157 A  
HETATM   12  C   UNL     1      -9.767   5.964  70.441  1.00  0.00    -0.217 A  
HETATM   13  H   UNL     1      -8.599   5.255  66.757  1.00  0.00     0.000 HD 
ENDBRANCH   3   6
ENDBRANCH   1   3
BRANCH   1  14
HETATM   14  N   UNL     1      -7.148   6.992  73.032  1.00  0.00    -0.073 NA 
HETATM   15  C   UNL     1      -6.743   8.180  72.302  1.00  0.00    -0.077 C  
HETATM   16  H   UNL     1      -6.950   6.155  72.483  1.00  0.00     0.000 HD 
ENDBRANCH   1  14
TORSDOF 3
ENDMDL
MODEL      228
REMARK 921   NORMALIZED FREE ENERGY PREDICTED BY IDOCK:   -1.10 KCAL/MOL
REMARK 922        TOTAL FREE ENERGY PREDICTED BY IDOCK:   -1.58 KCAL/MOL
REMARK 923 INTER-LIGAND FREE ENERGY PREDICTED BY IDOCK:   -1.30 KCAL/MOL
REMARK 924 INTRA-LIGAND FREE ENERGY PREDICTED BY IDOCK:   -0.28 KCAL/MOL
REMARK 927      BINDING AFFINITY PREDICTED BY RF-SCORE:    0.00 PKD
ROOT
HETATM    1  C   UNL     1      -7.687   4.242  71.101  1.00  0.00    -0.067 C  
HETATM    2  C   UNL     1      -6.168   4.465  71.116  1.00  0.00    -0.018 C  
ENDROOT
BRANCH   1   3
HETATM    3  C   UNL     1      -8.155   3.502  69.807  1.00  0.00    -0.052 C  
HETATM    4  O   UNL     1      -7.290   2.387  69.534  1.00  0.00    -0.043 OA 
HETATM    5  H   UNL     1      -7.574   1.937  68.747  1.00  0.00     0.000 HD 
BRANCH   3   6
HETATM    6  C   UNL     1      -8.303   4.375  68.571  1.00  0.00    -0.090 A  
HETATM    7  C   UNL     1      -9.077   5.545  68.629  1.00  0.00    -0.128 A  
HETATM    8  C   UNL     1      -9.302   6.311  67.481  1.00  0.00    -0.113 A  
HETATM    9  C   UNL     1      -8.741   5.915  66.272  1.00  0.00    -0.136 A  
HETATM   10  O   UNL     1      -8.970   6.607  65.120  1.00  0.00    -0.362 OA 
HETATM   11  C   UNL     1      -7.935   4.787  66.200  1.00  0.00    -0.103 A  
HETATM   12  C   UNL     1      -7.713   4.021  67.345  1.00  0.00    -0.080 A  
HETATM   13  H   UNL     1      -8.586   6.337  64.293  1.00  0.00     0.000 HD 
ENDBRANCH   3   6
ENDBRANCH   1   3
BRANCH   1  14
HETATM   14  N   UNL     1      -8.127   3.431  72.262  1.00  0.00    -0.067 NA 
HETATM   15  C   UNL     1      -7.056   3.013  73.148  1.00  0.00    -0.040 C  
HETATM   16  H   UNL     1      -8.663   2.622  71.947  1.00  0.00     0.000 HD 
ENDBRANCH   1  14
TORSDOF 3
ENDMDL
