MODEL        1
REMARK 921   NORMALIZED FREE ENERGY PREDICTED BY IDOCK:   -6.41 KCAL/MOL
REMARK 922        TOTAL FREE ENERGY PREDICTED BY IDOCK:   -7.45 KCAL/MOL
REMARK 923 INTER-LIGAND FREE ENERGY PREDICTED BY IDOCK:   -7.15 KCAL/MOL
REMARK 924 INTRA-LIGAND FREE ENERGY PREDICTED BY IDOCK:   -0.30 KCAL/MOL
REMARK 927      BINDING AFFINITY PREDICTED BY RF-SCORE:    0.00 PKD
ROOT
HETATM    1  N   UNL     1     -11.065  16.974  69.820  1.00  0.00    -0.280 NA 
HETATM    2  CA  UNL     1     -11.683  15.618  69.621  1.00  0.00    -0.361 C  
HETATM    3  H1  UNL     1     -11.719  17.682  70.154  1.00  0.00     0.000 HD 
HETATM    4  H2  UNL     1     -10.603  17.287  68.966  1.00  0.00     0.000 HD 
HETATM    5  OXT UNL     1     -12.741  14.058  71.194  1.00  0.00    -0.326 OA 
HETATM    6  C   UNL     1     -12.258  15.156  70.969  1.00  0.00    -0.334 C  
HETATM    7  O   UNL     1     -12.157  16.133  71.911  1.00  0.00    -0.476 OA 
ENDROOT
BRANCH   2   8
HETATM    8  C   UNL     1     -10.698  14.552  69.118  1.00  0.00    -0.263 C  
BRANCH   8   9
HETATM    9  C   UNL     1     -11.250  13.667  68.040  1.00  0.00    -0.295 A  
HETATM   10  C   UNL     1     -11.579  12.332  68.170  1.00  0.00    -0.339 A  
HETATM   11  N   UNL     1     -12.024  11.877  66.958  1.00  0.00    -0.601 NA 
HETATM   12  H   UNL     1     -12.329  10.921  66.770  1.00  0.00     0.000 HD 
HETATM   13  C   UNL     1     -11.999  12.891  66.030  1.00  0.00    -0.446 A  
HETATM   14  C   UNL     1     -11.503  14.026  66.675  1.00  0.00    -0.377 A  
HETATM   15  C   UNL     1     -11.352  15.214  65.925  1.00  0.00    -0.225 A  
HETATM   16  C   UNL     1     -11.723  15.215  64.579  1.00  0.00    -0.328 A  
HETATM   17  C   UNL     1     -12.220  14.076  63.963  1.00  0.00    -0.395 A  
HETATM   18  O   UNL     1     -11.607  16.343  63.819  1.00  0.00    -1.605 OA 
HETATM   19  C   UNL     1     -12.362  12.884  64.679  1.00  0.00    -0.501 A  
HETATM   20  H   UNL     1     -11.860  16.344  62.903  1.00  0.00     0.000 HD 
ENDBRANCH   8   9
ENDBRANCH   2   8
TORSDOF 2
ENDMDL
MODEL        2
REMARK 921   NORMALIZED FREE ENERGY PREDICTED BY IDOCK:   -6.35 KCAL/MOL
REMARK 922        TOTAL FREE ENERGY PREDICTED BY IDOCK:   -7.38 KCAL/MOL
REMARK 923 INTER-LIGAND FREE ENERGY PREDICTED BY IDOCK:   -7.06 KCAL/MOL
REMARK 924 INTRA-LIGAND FREE ENERGY PREDICTED BY IDOCK:   -0.33 KCAL/MOL
REMARK 927      BINDING AFFINITY PREDICTED BY RF-SCORE:    0.00 PKD
ROOT
HETATM    1  N   UNL     1     -12.059  12.955  65.662  1.00  0.00    -0.438 NA 
HETATM    2  CA  UNL     1     -11.888  14.448  65.662  1.00  0.00    -0.355 C  
HETATM    3  H1  UNL     1     -12.999  12.646  65.412  1.00  0.00     0.000 HD 
HETATM    4  H2  UNL     1     -11.780  12.561  66.560  1.00  0.00     0.000 HD 
HETATM    5  OXT UNL     1     -12.079  16.114  63.869  1.00  0.00    -0.956 OA 
HETATM    6  C   UNL     1     -12.213  14.963  64.251  1.00  0.00    -0.344 C  
HETATM    7  O   UNL     1     -12.672  13.961  63.452  1.00  0.00    -0.806 OA 
ENDROOT
BRANCH   2   8
HETATM    8  C   UNL     1     -10.473  14.913  66.038  1.00  0.00    -0.326 C  
BRANCH   8   9
HETATM    9  C   UNL     1     -10.427  15.847  67.210  1.00  0.00    -0.310 A  
HETATM   10  C   UNL     1     -10.482  15.487  68.542  1.00  0.00    -0.238 A  
HETATM   11  N   UNL     1     -10.439  16.627  69.300  1.00  0.00    -0.320 NA 
HETATM   12  H   UNL     1     -10.469  16.651  70.320  1.00  0.00     0.000 HD 
HETATM   13  C   UNL     1     -10.351  17.735  68.489  1.00  0.00    -0.364 A  
HETATM   14  C   UNL     1     -10.356  17.279  67.169  1.00  0.00    -0.321 A  
HETATM   15  C   UNL     1     -10.301  18.233  66.128  1.00  0.00    -0.414 A  
HETATM   16  C   UNL     1     -10.220  19.587  66.457  1.00  0.00    -0.467 A  
HETATM   17  C   UNL     1     -10.209  20.014  67.777  1.00  0.00    -0.549 A  
HETATM   18  O   UNL     1     -10.151  20.543  65.485  1.00  0.00    -0.505 OA 
HETATM   19  C   UNL     1     -10.281  19.092  68.824  1.00  0.00    -0.343 A  
HETATM   20  H   UNL     1     -10.096  21.466  65.709  1.00  0.00     0.000 HD 
ENDBRANCH   8   9
ENDBRANCH   2   8
TORSDOF 2
ENDMDL
MODEL        3
REMARK 921   NORMALIZED FREE ENERGY PREDICTED BY IDOCK:   -6.32 KCAL/MOL
REMARK 922        TOTAL FREE ENERGY PREDICTED BY IDOCK:   -7.35 KCAL/MOL
REMARK 923 INTER-LIGAND FREE ENERGY PREDICTED BY IDOCK:   -7.02 KCAL/MOL
REMARK 924 INTRA-LIGAND FREE ENERGY PREDICTED BY IDOCK:   -0.33 KCAL/MOL
REMARK 927      BINDING AFFINITY PREDICTED BY RF-SCORE:    0.00 PKD
ROOT
HETATM    1  N   UNL     1     -11.151  11.495  63.427  1.00  0.00    -0.724 NA 
HETATM    2  CA  UNL     1     -11.765  11.998  64.704  1.00  0.00    -0.287 C  
HETATM    3  H1  UNL     1     -11.830  11.295  62.692  1.00  0.00     0.000 HD 
HETATM    4  H2  UNL     1     -10.566  10.679  63.606  1.00  0.00     0.000 HD 
HETATM    5  OXT UNL     1     -13.069  14.016  65.206  1.00  0.00    -0.782 OA 
HETATM    6  C   UNL     1     -12.534  13.288  64.384  1.00  0.00    -0.290 C  
HETATM    7  O   UNL     1     -12.546  13.539  63.047  1.00  0.00    -0.716 OA 
ENDROOT
BRANCH   2   8
HETATM    8  C   UNL     1     -10.742  12.299  65.811  1.00  0.00    -0.298 C  
BRANCH   8   9
HETATM    9  C   UNL     1     -11.090  11.706  67.143  1.00  0.00    -0.354 A  
HETATM   10  C   UNL     1     -11.014  10.370  67.486  1.00  0.00    -0.295 A  
HETATM   11  N   UNL     1     -11.441  10.231  68.779  1.00  0.00    -0.478 NA 
HETATM   12  H   UNL     1     -11.491   9.346  69.285  1.00  0.00     0.000 HD 
HETATM   13  C   UNL     1     -11.794  11.455  69.299  1.00  0.00    -0.349 A  
HETATM   14  C   UNL     1     -11.599  12.401  68.289  1.00  0.00    -0.384 A  
HETATM   15  C   UNL     1     -11.917  13.750  68.562  1.00  0.00    -0.402 A  
HETATM   16  C   UNL     1     -12.390  14.090  69.831  1.00  0.00    -0.310 A  
HETATM   17  C   UNL     1     -12.569  13.132  70.819  1.00  0.00    -0.338 A  
HETATM   18  O   UNL     1     -12.697  15.383  70.144  1.00  0.00    -0.578 OA 
HETATM   19  C   UNL     1     -12.278  11.788  70.568  1.00  0.00    -0.438 A  
HETATM   20  H   UNL     1     -13.019  15.614  71.008  1.00  0.00     0.000 HD 
ENDBRANCH   8   9
ENDBRANCH   2   8
TORSDOF 2
ENDMDL
MODEL        4
REMARK 921   NORMALIZED FREE ENERGY PREDICTED BY IDOCK:   -6.29 KCAL/MOL
REMARK 922        TOTAL FREE ENERGY PREDICTED BY IDOCK:   -7.32 KCAL/MOL
REMARK 923 INTER-LIGAND FREE ENERGY PREDICTED BY IDOCK:   -7.05 KCAL/MOL
REMARK 924 INTRA-LIGAND FREE ENERGY PREDICTED BY IDOCK:   -0.28 KCAL/MOL
REMARK 927      BINDING AFFINITY PREDICTED BY RF-SCORE:    0.00 PKD
ROOT
HETATM    1  N   UNL     1     -12.348  14.015  63.676  1.00  0.00    -1.059 NA 
HETATM    2  CA  UNL     1     -11.833  14.390  65.037  1.00  0.00    -0.400 C  
HETATM    3  H1  UNL     1     -13.063  14.647  63.316  1.00  0.00     0.000 HD 
HETATM    4  H2  UNL     1     -12.686  13.052  63.673  1.00  0.00     0.000 HD 
HETATM    5  OXT UNL     1     -10.637  16.379  65.840  1.00  0.00    -0.329 OA 
HETATM    6  C   UNL     1     -11.235  15.803  64.945  1.00  0.00    -0.350 C  
HETATM    7  O   UNL     1     -11.447  16.351  63.718  1.00  0.00    -1.002 OA 
ENDROOT
BRANCH   2   8
HETATM    8  C   UNL     1     -10.755  13.438  65.580  1.00  0.00    -0.301 C  
BRANCH   8   9
HETATM    9  C   UNL     1     -11.174  12.671  66.798  1.00  0.00    -0.347 A  
HETATM   10  C   UNL     1     -11.311  11.300  66.891  1.00  0.00    -0.155 A  
HETATM   11  N   UNL     1     -11.736  10.992  68.156  1.00  0.00    -0.593 NA 
HETATM   12  H   UNL     1     -11.921  10.048  68.496  1.00  0.00     0.000 HD 
HETATM   13  C   UNL     1     -11.876  12.139  68.903  1.00  0.00    -0.304 A  
HETATM   14  C   UNL     1     -11.545  13.213  68.073  1.00  0.00    -0.371 A  
HETATM   15  C   UNL     1     -11.635  14.521  68.598  1.00  0.00    -0.346 A  
HETATM   16  C   UNL     1     -12.027  14.690  69.928  1.00  0.00    -0.329 A  
HETATM   17  C   UNL     1     -12.344  13.606  70.734  1.00  0.00    -0.446 A  
HETATM   18  O   UNL     1     -12.115  15.934  70.482  1.00  0.00    -0.375 OA 
HETATM   19  C   UNL     1     -12.280  12.303  70.232  1.00  0.00    -0.342 A  
HETATM   20  H   UNL     1     -12.382  16.049  71.387  1.00  0.00     0.000 HD 
ENDBRANCH   8   9
ENDBRANCH   2   8
TORSDOF 2
ENDMDL
MODEL        5
REMARK 921   NORMALIZED FREE ENERGY PREDICTED BY IDOCK:   -6.27 KCAL/MOL
REMARK 922        TOTAL FREE ENERGY PREDICTED BY IDOCK:   -7.30 KCAL/MOL
REMARK 923 INTER-LIGAND FREE ENERGY PREDICTED BY IDOCK:   -7.04 KCAL/MOL
REMARK 924 INTRA-LIGAND FREE ENERGY PREDICTED BY IDOCK:   -0.26 KCAL/MOL
REMARK 927      BINDING AFFINITY PREDICTED BY RF-SCORE:    0.00 PKD
ROOT
HETATM    1  N   UNL     1     -12.749  12.653  65.195  1.00  0.00    -0.732 NA 
HETATM    2  CA  UNL     1     -12.536  14.120  65.443  1.00  0.00    -0.466 C  
HETATM    3  H1  UNL     1     -13.557  12.446  64.607  1.00  0.00     0.000 HD 
HETATM    4  H2  UNL     1     -12.808  12.144  66.077  1.00  0.00     0.000 HD 
HETATM    5  OXT UNL     1     -12.043  15.980  63.919  1.00  0.00    -0.880 OA 
HETATM    6  C   UNL     1     -12.340  14.808  64.083  1.00  0.00    -0.231 C  
HETATM    7  O   UNL     1     -12.533  13.937  63.056  1.00  0.00    -0.689 OA 
ENDROOT
BRANCH   2   8
HETATM    8  C   UNL     1     -11.319  14.432  66.329  1.00  0.00    -0.350 C  
BRANCH   8   9
HETATM    9  C   UNL     1     -11.645  14.583  67.785  1.00  0.00    -0.390 A  
HETATM   10  C   UNL     1     -11.735  15.772  68.481  1.00  0.00    -0.319 A  
HETATM   11  N   UNL     1     -12.023  15.486  69.789  1.00  0.00    -0.353 NA 
HETATM   12  H   UNL     1     -12.142  16.182  70.526  1.00  0.00     0.000 HD 
HETATM   13  C   UNL     1     -12.131  14.126  69.967  1.00  0.00    -0.346 A  
HETATM   14  C   UNL     1     -11.883  13.530  68.728  1.00  0.00    -0.390 A  
HETATM   15  C   UNL     1     -11.906  12.119  68.645  1.00  0.00    -0.358 A  
HETATM   16  C   UNL     1     -12.198  11.379  69.793  1.00  0.00    -0.265 A  
HETATM   17  C   UNL     1     -12.448  11.997  71.010  1.00  0.00    -0.376 A  
HETATM   18  O   UNL     1     -12.245  10.015  69.757  1.00  0.00    -0.483 OA 
HETATM   19  C   UNL     1     -12.412  13.389  71.122  1.00  0.00    -0.414 A  
HETATM   20  H   UNL     1     -12.444   9.512  70.538  1.00  0.00     0.000 HD 
ENDBRANCH   8   9
ENDBRANCH   2   8
TORSDOF 2
ENDMDL
MODEL        6
REMARK 921   NORMALIZED FREE ENERGY PREDICTED BY IDOCK:   -6.24 KCAL/MOL
REMARK 922        TOTAL FREE ENERGY PREDICTED BY IDOCK:   -7.26 KCAL/MOL
REMARK 923 INTER-LIGAND FREE ENERGY PREDICTED BY IDOCK:   -7.02 KCAL/MOL
REMARK 924 INTRA-LIGAND FREE ENERGY PREDICTED BY IDOCK:   -0.25 KCAL/MOL
REMARK 927      BINDING AFFINITY PREDICTED BY RF-SCORE:    0.00 PKD
ROOT
HETATM    1  N   UNL     1     -12.537  14.328  63.332  1.00  0.00    -1.004 NA 
HETATM    2  CA  UNL     1     -11.859  14.355  64.674  1.00  0.00    -0.451 C  
HETATM    3  H1  UNL     1     -13.269  15.030  63.225  1.00  0.00     0.000 HD 
HETATM    4  H2  UNL     1     -12.902  13.396  63.133  1.00  0.00     0.000 HD 
HETATM    5  OXT UNL     1     -10.520  16.082  65.792  1.00  0.00    -0.339 OA 
HETATM    6  C   UNL     1     -11.233  15.746  64.860  1.00  0.00    -0.350 C  
HETATM    7  O   UNL     1     -11.566  16.580  63.838  1.00  0.00    -1.175 OA 
ENDROOT
BRANCH   2   8
HETATM    8  C   UNL     1     -10.757  13.296  64.836  1.00  0.00    -0.365 C  
BRANCH   8   9
HETATM    9  C   UNL     1     -11.010  12.314  65.940  1.00  0.00    -0.338 A  
HETATM   10  C   UNL     1     -11.730  12.553  67.095  1.00  0.00    -0.355 A  
HETATM   11  N   UNL     1     -11.709  11.417  67.859  1.00  0.00    -0.574 NA 
HETATM   12  H   UNL     1     -12.161  11.317  68.769  1.00  0.00     0.000 HD 
HETATM   13  C   UNL     1     -10.990  10.430  67.226  1.00  0.00    -0.240 A  
HETATM   14  C   UNL     1     -10.525  10.968  66.024  1.00  0.00    -0.304 A  
HETATM   15  C   UNL     1      -9.726  10.155  65.189  1.00  0.00    -0.370 A  
HETATM   16  C   UNL     1      -9.453   8.843  65.583  1.00  0.00    -0.159 A  
HETATM   17  C   UNL     1      -9.933   8.330  66.779  1.00  0.00    -0.355 A  
HETATM   18  O   UNL     1      -8.698   8.017  64.801  1.00  0.00    -0.383 OA 
HETATM   19  C   UNL     1     -10.710   9.120  67.631  1.00  0.00    -0.257 A  
HETATM   20  H   UNL     1      -8.512   7.125  65.069  1.00  0.00     0.000 HD 
ENDBRANCH   8   9
ENDBRANCH   2   8
TORSDOF 2
ENDMDL
MODEL        7
REMARK 921   NORMALIZED FREE ENERGY PREDICTED BY IDOCK:   -6.24 KCAL/MOL
REMARK 922        TOTAL FREE ENERGY PREDICTED BY IDOCK:   -7.26 KCAL/MOL
REMARK 923 INTER-LIGAND FREE ENERGY PREDICTED BY IDOCK:   -7.04 KCAL/MOL
REMARK 924 INTRA-LIGAND FREE ENERGY PREDICTED BY IDOCK:   -0.23 KCAL/MOL
REMARK 927      BINDING AFFINITY PREDICTED BY RF-SCORE:    0.00 PKD
ROOT
HETATM    1  N   UNL     1     -13.932  15.486  71.003  1.00  0.00    -0.833 NA 
HETATM    2  CA  UNL     1     -12.799  14.904  71.802  1.00  0.00    -0.330 C  
HETATM    3  H1  UNL     1     -14.855  15.274  71.382  1.00  0.00     0.000 HD 
HETATM    4  H2  UNL     1     -13.869  15.196  70.028  1.00  0.00     0.000 HD 
HETATM    5  OXT UNL     1     -12.063  15.287  74.113  1.00  0.00    -0.585 OA 
HETATM    6  C   UNL     1     -12.884  15.469  73.228  1.00  0.00    -0.517 C  
HETATM    7  O   UNL     1     -14.006  16.221  73.396  1.00  0.00    -0.500 OA 
ENDROOT
BRANCH   2   8
HETATM    8  C   UNL     1     -11.407  15.221  71.233  1.00  0.00    -0.416 C  
BRANCH   8   9
HETATM    9  C   UNL     1     -11.343  15.215  69.735  1.00  0.00    -0.307 A  
HETATM   10  C   UNL     1     -11.185  16.320  68.921  1.00  0.00    -0.337 A  
HETATM   11  N   UNL     1     -11.202  15.902  67.618  1.00  0.00    -0.272 NA 
HETATM   12  H   UNL     1     -11.108  16.515  66.807  1.00  0.00     0.000 HD 
HETATM   13  C   UNL     1     -11.364  14.537  67.556  1.00  0.00    -0.340 A  
HETATM   14  C   UNL     1     -11.471  14.078  68.871  1.00  0.00    -0.331 A  
HETATM   15  C   UNL     1     -11.673  12.696  69.086  1.00  0.00    -0.375 A  
HETATM   16  C   UNL     1     -11.734  11.843  67.982  1.00  0.00    -0.312 A  
HETATM   17  C   UNL     1     -11.618  12.323  66.686  1.00  0.00    -0.438 A  
HETATM   18  O   UNL     1     -11.915  10.499  68.142  1.00  0.00    -0.788 OA 
HETATM   19  C   UNL     1     -11.436  13.688  66.447  1.00  0.00    -0.358 A  
HETATM   20  H   UNL     1     -11.957   9.918  67.391  1.00  0.00     0.000 HD 
ENDBRANCH   8   9
ENDBRANCH   2   8
TORSDOF 2
ENDMDL
MODEL        8
REMARK 921   NORMALIZED FREE ENERGY PREDICTED BY IDOCK:   -6.20 KCAL/MOL
REMARK 922        TOTAL FREE ENERGY PREDICTED BY IDOCK:   -7.22 KCAL/MOL
REMARK 923 INTER-LIGAND FREE ENERGY PREDICTED BY IDOCK:   -6.96 KCAL/MOL
REMARK 924 INTRA-LIGAND FREE ENERGY PREDICTED BY IDOCK:   -0.26 KCAL/MOL
REMARK 927      BINDING AFFINITY PREDICTED BY RF-SCORE:    0.00 PKD
ROOT
HETATM    1  N   UNL     1     -13.038  13.868  65.439  1.00  0.00    -0.740 NA 
HETATM    2  CA  UNL     1     -11.878  14.367  66.254  1.00  0.00    -0.379 C  
HETATM    3  H1  UNL     1     -13.096  14.279  64.507  1.00  0.00     0.000 HD 
HETATM    4  H2  UNL     1     -13.915  14.000  65.943  1.00  0.00     0.000 HD 
HETATM    5  OXT UNL     1      -9.452  14.206  65.912  1.00  0.00    -0.219 OA 
HETATM    6  C   UNL     1     -10.586  14.034  65.492  1.00  0.00    -0.318 C  
HETATM    7  O   UNL     1     -10.855  13.507  64.268  1.00  0.00    -0.391 OA 
ENDROOT
BRANCH   2   8
HETATM    8  C   UNL     1     -11.791  13.749  67.658  1.00  0.00    -0.413 C  
BRANCH   8   9
HETATM    9  C   UNL     1     -11.670  14.754  68.763  1.00  0.00    -0.354 A  
HETATM   10  C   UNL     1     -11.082  16.000  68.671  1.00  0.00    -0.349 A  
HETATM   11  N   UNL     1     -11.148  16.602  69.899  1.00  0.00    -0.420 NA 
HETATM   12  H   UNL     1     -10.784  17.530  70.115  1.00  0.00     0.000 HD 
HETATM   13  C   UNL     1     -11.777  15.775  70.801  1.00  0.00    -0.399 A  
HETATM   14  C   UNL     1     -12.103  14.599  70.122  1.00  0.00    -0.385 A  
HETATM   15  C   UNL     1     -12.741  13.562  70.840  1.00  0.00    -0.366 A  
HETATM   16  C   UNL     1     -13.040  13.760  72.189  1.00  0.00    -0.406 A  
HETATM   17  C   UNL     1     -12.711  14.940  72.840  1.00  0.00    -0.531 A  
HETATM   18  O   UNL     1     -13.667  12.792  72.919  1.00  0.00    -0.676 OA 
HETATM   19  C   UNL     1     -12.064  15.974  72.156  1.00  0.00    -0.611 A  
HETATM   20  H   UNL     1     -13.871  12.927  73.838  1.00  0.00     0.000 HD 
ENDBRANCH   8   9
ENDBRANCH   2   8
TORSDOF 2
ENDMDL
MODEL        9
REMARK 921   NORMALIZED FREE ENERGY PREDICTED BY IDOCK:   -6.18 KCAL/MOL
REMARK 922        TOTAL FREE ENERGY PREDICTED BY IDOCK:   -7.20 KCAL/MOL
REMARK 923 INTER-LIGAND FREE ENERGY PREDICTED BY IDOCK:   -6.92 KCAL/MOL
REMARK 924 INTRA-LIGAND FREE ENERGY PREDICTED BY IDOCK:   -0.28 KCAL/MOL
REMARK 927      BINDING AFFINITY PREDICTED BY RF-SCORE:    0.00 PKD
ROOT
HETATM    1  N   UNL     1     -12.443  12.744  65.591  1.00  0.00    -0.608 NA 
HETATM    2  CA  UNL     1     -12.230  14.229  65.687  1.00  0.00    -0.400 C  
HETATM    3  H1  UNL     1     -13.338  12.481  65.179  1.00  0.00     0.000 HD 
HETATM    4  H2  UNL     1     -12.326  12.305  66.504  1.00  0.00     0.000 HD 
HETATM    5  OXT UNL     1     -12.076  15.972  63.965  1.00  0.00    -0.810 OA 
HETATM    6  C   UNL     1     -12.305  14.811  64.267  1.00  0.00    -0.320 C  
HETATM    7  O   UNL     1     -12.658  13.861  63.361  1.00  0.00    -0.853 OA 
ENDROOT
BRANCH   2   8
HETATM    8  C   UNL     1     -10.881  14.626  66.308  1.00  0.00    -0.321 C  
BRANCH   8   9
HETATM    9  C   UNL     1     -11.000  15.370  67.605  1.00  0.00    -0.315 A  
HETATM   10  C   UNL     1     -10.668  16.693  67.818  1.00  0.00    -0.327 A  
HETATM   11  N   UNL     1     -10.894  16.988  69.136  1.00  0.00    -0.315 NA 
HETATM   12  H   UNL     1     -10.729  17.898  69.567  1.00  0.00     0.000 HD 
HETATM   13  C   UNL     1     -11.375  15.881  69.796  1.00  0.00    -0.347 A  
HETATM   14  C   UNL     1     -11.439  14.843  68.864  1.00  0.00    -0.320 A  
HETATM   15  C   UNL     1     -11.882  13.574  69.300  1.00  0.00    -0.392 A  
HETATM   16  C   UNL     1     -12.259  13.412  70.635  1.00  0.00    -0.350 A  
HETATM   17  C   UNL     1     -12.194  14.462  71.539  1.00  0.00    -0.406 A  
HETATM   18  O   UNL     1     -12.706  12.208  71.098  1.00  0.00    -0.358 OA 
HETATM   19  C   UNL     1     -11.742  15.722  71.137  1.00  0.00    -0.476 A  
HETATM   20  H   UNL     1     -12.963  12.098  72.006  1.00  0.00     0.000 HD 
ENDBRANCH   8   9
ENDBRANCH   2   8
TORSDOF 2
ENDMDL
MODEL       10
REMARK 921   NORMALIZED FREE ENERGY PREDICTED BY IDOCK:   -6.13 KCAL/MOL
REMARK 922        TOTAL FREE ENERGY PREDICTED BY IDOCK:   -7.15 KCAL/MOL
REMARK 923 INTER-LIGAND FREE ENERGY PREDICTED BY IDOCK:   -6.89 KCAL/MOL
REMARK 924 INTRA-LIGAND FREE ENERGY PREDICTED BY IDOCK:   -0.25 KCAL/MOL
REMARK 927      BINDING AFFINITY PREDICTED BY RF-SCORE:    0.00 PKD
ROOT
HETATM    1  N   UNL     1     -12.341  14.052  63.120  1.00  0.00    -1.094 NA 
HETATM    2  CA  UNL     1     -11.676  13.765  64.437  1.00  0.00    -0.408 C  
HETATM    3  H1  UNL     1     -12.353  13.257  62.481  1.00  0.00     0.000 HD 
HETATM    4  H2  UNL     1     -11.917  14.865  62.673  1.00  0.00     0.000 HD 
HETATM    5  OXT UNL     1     -12.225  12.187  66.236  1.00  0.00    -0.604 OA 
HETATM    6  C   UNL     1     -12.433  12.610  65.110  1.00  0.00    -0.463 C  
HETATM    7  O   UNL     1     -13.391  12.102  64.288  1.00  0.00    -0.761 OA 
ENDROOT
BRANCH   2   8
HETATM    8  C   UNL     1     -11.657  14.964  65.399  1.00  0.00    -0.280 C  
BRANCH   8   9
HETATM    9  C   UNL     1     -10.284  15.370  65.844  1.00  0.00    -0.365 A  
HETATM   10  C   UNL     1      -9.235  14.519  66.134  1.00  0.00    -0.140 A  
HETATM   11  N   UNL     1      -8.163  15.273  66.529  1.00  0.00    -0.367 NA 
HETATM   12  H   UNL     1      -7.255  14.897  66.805  1.00  0.00     0.000 HD 
HETATM   13  C   UNL     1      -8.484  16.610  66.500  1.00  0.00    -0.292 A  
HETATM   14  C   UNL     1      -9.816  16.703  66.088  1.00  0.00    -0.340 A  
HETATM   15  C   UNL     1     -10.404  17.985  66.000  1.00  0.00    -0.333 A  
HETATM   16  C   UNL     1      -9.630  19.106  66.305  1.00  0.00    -0.348 A  
HETATM   17  C   UNL     1      -8.307  18.987  66.705  1.00  0.00    -0.310 A  
HETATM   18  O   UNL     1     -10.152  20.365  66.221  1.00  0.00    -0.531 OA 
HETATM   19  C   UNL     1      -7.707  17.730  66.816  1.00  0.00    -0.258 A  
HETATM   20  H   UNL     1      -9.625  21.128  66.429  1.00  0.00     0.000 HD 
ENDBRANCH   8   9
ENDBRANCH   2   8
TORSDOF 2
ENDMDL
MODEL       11
REMARK 921   NORMALIZED FREE ENERGY PREDICTED BY IDOCK:   -6.13 KCAL/MOL
REMARK 922        TOTAL FREE ENERGY PREDICTED BY IDOCK:   -7.14 KCAL/MOL
REMARK 923 INTER-LIGAND FREE ENERGY PREDICTED BY IDOCK:   -6.88 KCAL/MOL
REMARK 924 INTRA-LIGAND FREE ENERGY PREDICTED BY IDOCK:   -0.26 KCAL/MOL
REMARK 927      BINDING AFFINITY PREDICTED BY RF-SCORE:    0.00 PKD
ROOT
HETATM    1  N   UNL     1      -9.776  16.221  65.635  1.00  0.00    -0.500 NA 
HETATM    2  CA  UNL     1     -10.799  15.120  65.614  1.00  0.00    -0.360 C  
HETATM    3  H1  UNL     1      -9.296  16.356  64.745  1.00  0.00     0.000 HD 
HETATM    4  H2  UNL     1      -9.102  16.071  66.386  1.00  0.00     0.000 HD 
HETATM    5  OXT UNL     1     -12.871  14.839  64.328  1.00  0.00    -0.622 OA 
HETATM    6  C   UNL     1     -11.845  15.464  64.543  1.00  0.00    -0.256 C  
HETATM    7  O   UNL     1     -11.491  16.578  63.846  1.00  0.00    -1.145 OA 
ENDROOT
BRANCH   2   8
HETATM    8  C   UNL     1     -11.522  14.916  66.955  1.00  0.00    -0.333 C  
BRANCH   8   9
HETATM    9  C   UNL     1     -11.571  13.489  67.413  1.00  0.00    -0.392 A  
HETATM   10  C   UNL     1     -11.296  12.376  66.644  1.00  0.00    -0.339 A  
HETATM   11  N   UNL     1     -11.478  11.261  67.417  1.00  0.00    -0.513 NA 
HETATM   12  H   UNL     1     -11.346  10.301  67.096  1.00  0.00     0.000 HD 
HETATM   13  C   UNL     1     -11.865  11.619  68.687  1.00  0.00    -0.308 A  
HETATM   14  C   UNL     1     -11.947  13.013  68.713  1.00  0.00    -0.302 A  
HETATM   15  C   UNL     1     -12.356  13.641  69.911  1.00  0.00    -0.310 A  
HETATM   16  C   UNL     1     -12.638  12.849  71.026  1.00  0.00    -0.287 A  
HETATM   17  C   UNL     1     -12.542  11.466  70.977  1.00  0.00    -0.487 A  
HETATM   18  O   UNL     1     -13.023  13.412  72.208  1.00  0.00    -0.336 OA 
HETATM   19  C   UNL     1     -12.157  10.821  69.798  1.00  0.00    -0.389 A  
HETATM   20  H   UNL     1     -13.216  12.873  72.967  1.00  0.00     0.000 HD 
ENDBRANCH   8   9
ENDBRANCH   2   8
TORSDOF 2
ENDMDL
MODEL       12
REMARK 921   NORMALIZED FREE ENERGY PREDICTED BY IDOCK:   -6.10 KCAL/MOL
REMARK 922        TOTAL FREE ENERGY PREDICTED BY IDOCK:   -7.11 KCAL/MOL
REMARK 923 INTER-LIGAND FREE ENERGY PREDICTED BY IDOCK:   -6.88 KCAL/MOL
REMARK 924 INTRA-LIGAND FREE ENERGY PREDICTED BY IDOCK:   -0.22 KCAL/MOL
REMARK 927      BINDING AFFINITY PREDICTED BY RF-SCORE:    0.00 PKD
ROOT
HETATM    1  N   UNL     1     -13.384  13.997  65.459  1.00  0.00    -0.676 NA 
HETATM    2  CA  UNL     1     -11.996  13.981  64.882  1.00  0.00    -0.404 C  
HETATM    3  H1  UNL     1     -14.120  14.116  64.763  1.00  0.00     0.000 HD 
HETATM    4  H2  UNL     1     -13.462  14.705  66.189  1.00  0.00     0.000 HD 
HETATM    5  OXT UNL     1     -10.902  12.456  63.300  1.00  0.00    -0.432 OA 
HETATM    6  C   UNL     1     -11.913  12.821  63.878  1.00  0.00    -0.480 C  
HETATM    7  O   UNL     1     -13.125  12.227  63.707  1.00  0.00    -0.780 OA 
ENDROOT
BRANCH   2   8
HETATM    8  C   UNL     1     -10.887  13.801  65.930  1.00  0.00    -0.283 C  
BRANCH   8   9
HETATM    9  C   UNL     1     -11.309  13.023  67.140  1.00  0.00    -0.348 A  
HETATM   10  C   UNL     1     -11.523  11.660  67.199  1.00  0.00    -0.271 A  
HETATM   11  N   UNL     1     -11.922  11.340  68.469  1.00  0.00    -0.575 NA 
HETATM   12  H   UNL     1     -12.151  10.398  68.789  1.00  0.00     0.000 HD 
HETATM   13  C   UNL     1     -11.969  12.469  69.253  1.00  0.00    -0.250 A  
HETATM   14  C   UNL     1     -11.604  13.546  68.442  1.00  0.00    -0.378 A  
HETATM   15  C   UNL     1     -11.599  14.841  69.008  1.00  0.00    -0.324 A  
HETATM   16  C   UNL     1     -11.935  14.992  70.355  1.00  0.00    -0.323 A  
HETATM   17  C   UNL     1     -12.288  13.904  71.140  1.00  0.00    -0.440 A  
HETATM   18  O   UNL     1     -11.930  16.222  70.947  1.00  0.00    -0.545 OA 
HETATM   19  C   UNL     1     -12.318  12.616  70.600  1.00  0.00    -0.375 A  
HETATM   20  H   UNL     1     -12.159  16.324  71.864  1.00  0.00     0.000 HD 
ENDBRANCH   8   9
ENDBRANCH   2   8
TORSDOF 2
ENDMDL
MODEL       13
REMARK 921   NORMALIZED FREE ENERGY PREDICTED BY IDOCK:   -6.06 KCAL/MOL
REMARK 922        TOTAL FREE ENERGY PREDICTED BY IDOCK:   -7.06 KCAL/MOL
REMARK 923 INTER-LIGAND FREE ENERGY PREDICTED BY IDOCK:   -6.76 KCAL/MOL
REMARK 924 INTRA-LIGAND FREE ENERGY PREDICTED BY IDOCK:   -0.30 KCAL/MOL
REMARK 927      BINDING AFFINITY PREDICTED BY RF-SCORE:    0.00 PKD
ROOT
HETATM    1  N   UNL     1     -11.047  13.589  69.491  1.00  0.00    -0.447 NA 
HETATM    2  CA  UNL     1     -11.379  13.809  68.041  1.00  0.00    -0.288 C  
HETATM    3  H1  UNL     1     -11.840  13.285  70.055  1.00  0.00     0.000 HD 
HETATM    4  H2  UNL     1     -10.621  14.425  69.892  1.00  0.00     0.000 HD 
HETATM    5  OXT UNL     1     -12.173  12.275  66.297  1.00  0.00    -0.628 OA 
HETATM    6  C   UNL     1     -11.905  12.484  67.469  1.00  0.00    -0.323 C  
HETATM    7  O   UNL     1     -12.036  11.542  68.443  1.00  0.00    -0.556 OA 
ENDROOT
BRANCH   2   8
HETATM    8  C   UNL     1     -10.184  14.268  67.191  1.00  0.00    -0.254 C  
BRANCH   8   9
HETATM    9  C   UNL     1     -10.464  15.470  66.340  1.00  0.00    -0.310 A  
HETATM   10  C   UNL     1     -10.742  15.464  64.987  1.00  0.00    -0.438 A  
HETATM   11  N   UNL     1     -10.912  16.758  64.575  1.00  0.00    -1.079 NA 
HETATM   12  H   UNL     1     -11.124  17.043  63.618  1.00  0.00     0.000 HD 
HETATM   13  C   UNL     1     -10.756  17.621  65.635  1.00  0.00    -0.084 A  
HETATM   14  C   UNL     1     -10.459  16.842  66.756  1.00  0.00    -0.258 A  
HETATM   15  C   UNL     1     -10.224  17.497  67.986  1.00  0.00    -0.354 A  
HETATM   16  C   UNL     1     -10.319  18.889  68.040  1.00  0.00    -0.389 A  
HETATM   17  C   UNL     1     -10.623  19.639  66.913  1.00  0.00    -0.603 A  
HETATM   18  O   UNL     1     -10.114  19.563  69.209  1.00  0.00    -0.585 OA 
HETATM   19  C   UNL     1     -10.843  19.016  65.681  1.00  0.00    -0.164 A  
HETATM   20  H   UNL     1     -10.179  20.511  69.245  1.00  0.00     0.000 HD 
ENDBRANCH   8   9
ENDBRANCH   2   8
TORSDOF 2
ENDMDL
MODEL       14
REMARK 921   NORMALIZED FREE ENERGY PREDICTED BY IDOCK:   -6.02 KCAL/MOL
REMARK 922        TOTAL FREE ENERGY PREDICTED BY IDOCK:   -7.02 KCAL/MOL
REMARK 923 INTER-LIGAND FREE ENERGY PREDICTED BY IDOCK:   -6.78 KCAL/MOL
REMARK 924 INTRA-LIGAND FREE ENERGY PREDICTED BY IDOCK:   -0.25 KCAL/MOL
REMARK 927      BINDING AFFINITY PREDICTED BY RF-SCORE:    0.00 PKD
ROOT
HETATM    1  N   UNL     1      -9.851  14.044  66.247  1.00  0.00    -0.296 NA 
HETATM    2  CA  UNL     1     -10.654  13.472  67.382  1.00  0.00    -0.251 C  
HETATM    3  H1  UNL     1      -9.028  13.492  66.004  1.00  0.00     0.000 HD 
HETATM    4  H2  UNL     1      -9.590  15.010  66.442  1.00  0.00     0.000 HD 
HETATM    5  OXT UNL     1     -11.868  11.351  67.619  1.00  0.00    -0.609 OA 
HETATM    6  C   UNL     1     -11.112  12.063  66.976  1.00  0.00    -0.298 C  
HETATM    7  O   UNL     1     -10.571  11.690  65.785  1.00  0.00    -0.256 OA 
ENDROOT
BRANCH   2   8
HETATM    8  C   UNL     1     -11.894  14.303  67.748  1.00  0.00    -0.414 C  
BRANCH   8   9
HETATM    9  C   UNL     1     -11.718  15.162  68.964  1.00  0.00    -0.358 A  
HETATM   10  C   UNL     1     -11.014  16.349  69.029  1.00  0.00    -0.325 A  
HETATM   11  N   UNL     1     -11.066  16.812  70.316  1.00  0.00    -0.385 NA 
HETATM   12  H   UNL     1     -10.625  17.672  70.645  1.00  0.00     0.000 HD 
HETATM   13  C   UNL     1     -11.798  15.953  71.103  1.00  0.00    -0.438 A  
HETATM   14  C   UNL     1     -12.208  14.897  70.285  1.00  0.00    -0.389 A  
HETATM   15  C   UNL     1     -12.962  13.852  70.865  1.00  0.00    -0.316 A  
HETATM   16  C   UNL     1     -13.287  13.925  72.221  1.00  0.00    -0.503 A  
HETATM   17  C   UNL     1     -12.873  14.988  73.010  1.00  0.00    -0.574 A  
HETATM   18  O   UNL     1     -14.025  12.945  72.820  1.00  0.00    -0.730 OA 
HETATM   19  C   UNL     1     -12.111  16.025  72.465  1.00  0.00    -0.635 A  
HETATM   20  H   UNL     1     -14.246  12.995  73.743  1.00  0.00     0.000 HD 
ENDBRANCH   8   9
ENDBRANCH   2   8
TORSDOF 2
ENDMDL
MODEL       15
REMARK 921   NORMALIZED FREE ENERGY PREDICTED BY IDOCK:   -6.02 KCAL/MOL
REMARK 922        TOTAL FREE ENERGY PREDICTED BY IDOCK:   -7.02 KCAL/MOL
REMARK 923 INTER-LIGAND FREE ENERGY PREDICTED BY IDOCK:   -6.76 KCAL/MOL
REMARK 924 INTRA-LIGAND FREE ENERGY PREDICTED BY IDOCK:   -0.25 KCAL/MOL
REMARK 927      BINDING AFFINITY PREDICTED BY RF-SCORE:    0.00 PKD
ROOT
HETATM    1  N   UNL     1      -9.896  14.721  65.315  1.00  0.00    -0.469 NA 
HETATM    2  CA  UNL     1     -11.018  13.865  65.834  1.00  0.00    -0.284 C  
HETATM    3  H1  UNL     1      -9.684  14.570  64.328  1.00  0.00     0.000 HD 
HETATM    4  H2  UNL     1      -9.058  14.599  65.884  1.00  0.00     0.000 HD 
HETATM    5  OXT UNL     1     -13.393  13.742  65.229  1.00  0.00    -0.710 OA 
HETATM    6  C   UNL     1     -12.276  14.181  65.011  1.00  0.00    -0.441 C  
HETATM    7  O   UNL     1     -11.996  15.033  63.988  1.00  0.00    -0.441 OA 
ENDROOT
BRANCH   2   8
HETATM    8  C   UNL     1     -11.337  14.092  67.321  1.00  0.00    -0.350 C  
BRANCH   8   9
HETATM    9  C   UNL     1     -11.638  12.835  68.081  1.00  0.00    -0.380 A  
HETATM   10  C   UNL     1     -11.517  11.545  67.603  1.00  0.00    -0.285 A  
HETATM   11  N   UNL     1     -11.911  10.680  68.589  1.00  0.00    -0.772 NA 
HETATM   12  H   UNL     1     -11.925   9.663  68.502  1.00  0.00     0.000 HD 
HETATM   13  C   UNL     1     -12.285  11.378  69.713  1.00  0.00    -0.265 A  
HETATM   14  C   UNL     1     -12.139  12.736  69.420  1.00  0.00    -0.248 A  
HETATM   15  C   UNL     1     -12.488  13.679  70.413  1.00  0.00    -0.364 A  
HETATM   16  C   UNL     1     -12.941  13.221  71.652  1.00  0.00    -0.349 A  
HETATM   17  C   UNL     1     -13.071  11.866  71.920  1.00  0.00    -0.474 A  
HETATM   18  O   UNL     1     -13.276  14.095  72.645  1.00  0.00    -0.466 OA 
HETATM   19  C   UNL     1     -12.750  10.913  70.948  1.00  0.00    -0.464 A  
HETATM   20  H   UNL     1     -13.585  13.782  73.488  1.00  0.00     0.000 HD 
ENDBRANCH   8   9
ENDBRANCH   2   8
TORSDOF 2
ENDMDL
MODEL       16
REMARK 921   NORMALIZED FREE ENERGY PREDICTED BY IDOCK:   -5.99 KCAL/MOL
REMARK 922        TOTAL FREE ENERGY PREDICTED BY IDOCK:   -6.99 KCAL/MOL
REMARK 923 INTER-LIGAND FREE ENERGY PREDICTED BY IDOCK:   -7.13 KCAL/MOL
REMARK 924 INTRA-LIGAND FREE ENERGY PREDICTED BY IDOCK:    0.14 KCAL/MOL
REMARK 927      BINDING AFFINITY PREDICTED BY RF-SCORE:    0.00 PKD
ROOT
HETATM    1  N   UNL     1     -14.411  13.820  72.591  1.00  0.00    -0.594 NA 
HETATM    2  CA  UNL     1     -12.971  14.028  72.211  1.00  0.00    -0.373 C  
HETATM    3  H1  UNL     1     -14.596  13.935  73.588  1.00  0.00     0.000 HD 
HETATM    4  H2  UNL     1     -14.739  12.910  72.268  1.00  0.00     0.000 HD 
HETATM    5  OXT UNL     1     -11.508  15.993  72.369  1.00  0.00    -0.374 OA 
HETATM    6  C   UNL     1     -12.575  15.455  72.620  1.00  0.00    -0.387 C  
HETATM    7  O   UNL     1     -13.576  16.070  73.306  1.00  0.00    -0.590 OA 
ENDROOT
BRANCH   2   8
HETATM    8  C   UNL     1     -12.692  13.854  70.710  1.00  0.00    -0.383 C  
BRANCH   8   9
HETATM    9  C   UNL     1     -12.047  12.548  70.355  1.00  0.00    -0.380 A  
HETATM   10  C   UNL     1     -11.099  12.348  69.370  1.00  0.00    -0.084 A  
HETATM   11  N   UNL     1     -10.782  11.017  69.340  1.00  0.00    -0.324 NA 
HETATM   12  H   UNL     1     -10.109  10.592  68.702  1.00  0.00     0.000 HD 
HETATM   13  C   UNL     1     -11.501  10.334  70.293  1.00  0.00    -0.317 A  
HETATM   14  C   UNL     1     -12.317  11.267  70.938  1.00  0.00    -0.490 A  
HETATM   15  C   UNL     1     -13.186  10.811  71.954  1.00  0.00    -0.524 A  
HETATM   16  C   UNL     1     -13.180   9.455  72.291  1.00  0.00    -0.446 A  
HETATM   17  C   UNL     1     -12.355   8.550  71.640  1.00  0.00    -0.371 A  
HETATM   18  O   UNL     1     -13.992   8.972  73.276  1.00  0.00    -1.205 OA 
HETATM   19  C   UNL     1     -11.499   8.973  70.619  1.00  0.00    -0.291 A  
HETATM   20  H   UNL     1     -13.988   8.049  73.505  1.00  0.00     0.000 HD 
ENDBRANCH   8   9
ENDBRANCH   2   8
TORSDOF 2
ENDMDL
MODEL       17
REMARK 921   NORMALIZED FREE ENERGY PREDICTED BY IDOCK:   -5.96 KCAL/MOL
REMARK 922        TOTAL FREE ENERGY PREDICTED BY IDOCK:   -6.95 KCAL/MOL
REMARK 923 INTER-LIGAND FREE ENERGY PREDICTED BY IDOCK:   -6.69 KCAL/MOL
REMARK 924 INTRA-LIGAND FREE ENERGY PREDICTED BY IDOCK:   -0.26 KCAL/MOL
REMARK 927      BINDING AFFINITY PREDICTED BY RF-SCORE:    0.00 PKD
ROOT
HETATM    1  N   UNL     1     -13.929   7.790  71.269  1.00  0.00    -0.618 NA 
HETATM    2  CA  UNL     1     -12.761   8.737  71.260  1.00  0.00    -0.230 C  
HETATM    3  H1  UNL     1     -13.728   6.882  70.849  1.00  0.00     0.000 HD 
HETATM    4  H2  UNL     1     -14.742   8.218  70.826  1.00  0.00     0.000 HD 
HETATM    5  OXT UNL     1     -10.549   8.612  72.316  1.00  0.00    -0.334 OA 
HETATM    6  C   UNL     1     -11.612   8.080  72.040  1.00  0.00    -0.316 C  
HETATM    7  O   UNL     1     -11.925   6.807  72.403  1.00  0.00    -0.236 OA 
ENDROOT
BRANCH   2   8
HETATM    8  C   UNL     1     -13.064  10.105  71.892  1.00  0.00    -0.571 C  
BRANCH   8   9
HETATM    9  C   UNL     1     -12.557  11.271  71.098  1.00  0.00    -0.501 A  
HETATM   10  C   UNL     1     -11.730  11.209  69.994  1.00  0.00    -0.356 A  
HETATM   11  N   UNL     1     -11.475  12.486  69.572  1.00  0.00    -0.418 NA 
HETATM   12  H   UNL     1     -10.887  12.731  68.775  1.00  0.00     0.000 HD 
HETATM   13  C   UNL     1     -12.125  13.393  70.377  1.00  0.00    -0.333 A  
HETATM   14  C   UNL     1     -12.802  12.660  71.356  1.00  0.00    -0.358 A  
HETATM   15  C   UNL     1     -13.536  13.366  72.336  1.00  0.00    -0.685 A  
HETATM   16  C   UNL     1     -13.575  14.761  72.276  1.00  0.00    -0.429 A  
HETATM   17  C   UNL     1     -12.899  15.464  71.290  1.00  0.00    -0.519 A  
HETATM   18  O   UNL     1     -14.282  15.483  73.194  1.00  0.00    -0.405 OA 
HETATM   19  C   UNL     1     -12.152  14.790  70.320  1.00  0.00    -0.380 A  
HETATM   20  H   UNL     1     -14.308  16.433  73.153  1.00  0.00     0.000 HD 
ENDBRANCH   8   9
ENDBRANCH   2   8
TORSDOF 2
ENDMDL
MODEL       18
REMARK 921   NORMALIZED FREE ENERGY PREDICTED BY IDOCK:   -5.96 KCAL/MOL
REMARK 922        TOTAL FREE ENERGY PREDICTED BY IDOCK:   -6.95 KCAL/MOL
REMARK 923 INTER-LIGAND FREE ENERGY PREDICTED BY IDOCK:   -6.71 KCAL/MOL
REMARK 924 INTRA-LIGAND FREE ENERGY PREDICTED BY IDOCK:   -0.24 KCAL/MOL
REMARK 927      BINDING AFFINITY PREDICTED BY RF-SCORE:    0.00 PKD
ROOT
HETATM    1  N   UNL     1     -10.186  14.677  69.657  1.00  0.00    -0.434 NA 
HETATM    2  CA  UNL     1     -11.662  14.803  69.399  1.00  0.00    -0.323 C  
HETATM    3  H1  UNL     1      -9.712  15.571  69.785  1.00  0.00     0.000 HD 
HETATM    4  H2  UNL     1      -9.738  14.135  68.918  1.00  0.00     0.000 HD 
HETATM    5  OXT UNL     1     -13.489  15.703  70.769  1.00  0.00    -0.536 OA 
HETATM    6  C   UNL     1     -12.294  15.524  70.599  1.00  0.00    -0.416 C  
HETATM    7  O   UNL     1     -11.345  15.946  71.478  1.00  0.00    -0.379 OA 
ENDROOT
BRANCH   2   8
HETATM    8  C   UNL     1     -12.378  13.457  69.205  1.00  0.00    -0.090 C  
BRANCH   8   9
HETATM    9  C   UNL     1     -11.822  12.622  68.090  1.00  0.00    -0.366 A  
HETATM   10  C   UNL     1     -11.177  11.409  68.224  1.00  0.00    -0.263 A  
HETATM   11  N   UNL     1     -10.797  10.981  66.980  1.00  0.00    -0.274 NA 
HETATM   12  H   UNL     1     -10.298  10.112  66.788  1.00  0.00     0.000 HD 
HETATM   13  C   UNL     1     -11.186  11.891  66.024  1.00  0.00    -0.324 A  
HETATM   14  C   UNL     1     -11.819  12.942  66.693  1.00  0.00    -0.461 A  
HETATM   15  C   UNL     1     -12.295  14.033  65.931  1.00  0.00    -0.515 A  
HETATM   16  C   UNL     1     -12.135  14.010  64.544  1.00  0.00    -0.459 A  
HETATM   17  C   UNL     1     -11.509  12.951  63.904  1.00  0.00    -0.504 A  
HETATM   18  O   UNL     1     -12.591  15.036  63.767  1.00  0.00    -0.997 OA 
HETATM   19  C   UNL     1     -11.014  11.868  64.636  1.00  0.00    -0.370 A  
HETATM   20  H   UNL     1     -12.482  15.020  62.823  1.00  0.00     0.000 HD 
ENDBRANCH   8   9
ENDBRANCH   2   8
TORSDOF 2
ENDMDL
MODEL       19
REMARK 921   NORMALIZED FREE ENERGY PREDICTED BY IDOCK:   -5.91 KCAL/MOL
REMARK 922        TOTAL FREE ENERGY PREDICTED BY IDOCK:   -6.89 KCAL/MOL
REMARK 923 INTER-LIGAND FREE ENERGY PREDICTED BY IDOCK:   -6.69 KCAL/MOL
REMARK 924 INTRA-LIGAND FREE ENERGY PREDICTED BY IDOCK:   -0.20 KCAL/MOL
REMARK 927      BINDING AFFINITY PREDICTED BY RF-SCORE:    0.00 PKD
ROOT
HETATM    1  N   UNL     1     -11.504  16.447  63.916  1.00  0.00    -1.618 NA 
HETATM    2  CA  UNL     1     -10.962  15.322  64.753  1.00  0.00    -0.386 C  
HETATM    3  H1  UNL     1     -11.516  16.249  62.915  1.00  0.00     0.000 HD 
HETATM    4  H2  UNL     1     -10.997  17.312  64.105  1.00  0.00     0.000 HD 
HETATM    5  OXT UNL     1     -11.745  13.022  65.104  1.00  0.00    -0.316 OA 
HETATM    6  C   UNL     1     -11.839  14.084  64.510  1.00  0.00    -0.434 C  
HETATM    7  O   UNL     1     -12.760  14.314  63.535  1.00  0.00    -0.767 OA 
ENDROOT
BRANCH   2   8
HETATM    8  C   UNL     1     -10.944  15.620  66.261  1.00  0.00    -0.201 C  
BRANCH   8   9
HETATM    9  C   UNL     1      -9.642  16.171  66.761  1.00  0.00    -0.256 A  
HETATM   10  C   UNL     1      -8.390  15.635  66.535  1.00  0.00    -0.241 A  
HETATM   11  N   UNL     1      -7.465  16.413  67.178  1.00  0.00    -0.171 NA 
HETATM   12  H   UNL     1      -6.458  16.242  67.180  1.00  0.00     0.000 HD 
HETATM   13  C   UNL     1      -8.086  17.458  67.822  1.00  0.00    -0.214 A  
HETATM   14  C   UNL     1      -9.457  17.325  67.591  1.00  0.00    -0.246 A  
HETATM   15  C   UNL     1     -10.331  18.270  68.174  1.00  0.00    -0.393 A  
HETATM   16  C   UNL     1      -9.793  19.309  68.936  1.00  0.00    -0.446 A  
HETATM   17  C   UNL     1      -8.426  19.422  69.145  1.00  0.00    -0.148 A  
HETATM   18  O   UNL     1     -10.598  20.252  69.507  1.00  0.00    -0.521 OA 
HETATM   19  C   UNL     1      -7.542  18.490  68.594  1.00  0.00    -0.330 A  
HETATM   20  H   UNL     1     -10.231  20.959  70.026  1.00  0.00     0.000 HD 
ENDBRANCH   8   9
ENDBRANCH   2   8
TORSDOF 2
ENDMDL
MODEL       20
REMARK 921   NORMALIZED FREE ENERGY PREDICTED BY IDOCK:   -5.89 KCAL/MOL
REMARK 922        TOTAL FREE ENERGY PREDICTED BY IDOCK:   -6.87 KCAL/MOL
REMARK 923 INTER-LIGAND FREE ENERGY PREDICTED BY IDOCK:   -6.66 KCAL/MOL
REMARK 924 INTRA-LIGAND FREE ENERGY PREDICTED BY IDOCK:   -0.21 KCAL/MOL
REMARK 927      BINDING AFFINITY PREDICTED BY RF-SCORE:    0.00 PKD
ROOT
HETATM    1  N   UNL     1     -10.668  11.184  67.063  1.00  0.00    -0.255 NA 
HETATM    2  CA  UNL     1     -11.493  12.414  67.319  1.00  0.00    -0.354 C  
HETATM    3  H1  UNL     1     -11.174  10.440  66.581  1.00  0.00     0.000 HD 
HETATM    4  H2  UNL     1     -10.263  10.837  67.932  1.00  0.00     0.000 HD 
HETATM    5  OXT UNL     1     -12.585  13.995  65.791  1.00  0.00    -0.491 OA 
HETATM    6  C   UNL     1     -11.976  12.951  65.963  1.00  0.00    -0.446 C  
HETATM    7  O   UNL     1     -11.634  12.112  64.948  1.00  0.00    -0.332 OA 
ENDROOT
BRANCH   2   8
HETATM    8  C   UNL     1     -10.732  13.535  68.045  1.00  0.00    -0.263 C  
BRANCH   8   9
HETATM    9  C   UNL     1     -11.547  14.262  69.072  1.00  0.00    -0.342 A  
HETATM   10  C   UNL     1     -11.769  15.625  69.120  1.00  0.00    -0.390 A  
HETATM   11  N   UNL     1     -12.539  15.898  70.219  1.00  0.00    -0.563 NA 
HETATM   12  H   UNL     1     -12.849  16.830  70.497  1.00  0.00     0.000 HD 
HETATM   13  C   UNL     1     -12.833  14.737  70.896  1.00  0.00    -0.362 A  
HETATM   14  C   UNL     1     -12.211  13.693  70.208  1.00  0.00    -0.423 A  
HETATM   15  C   UNL     1     -12.338  12.382  70.719  1.00  0.00    -0.377 A  
HETATM   16  C   UNL     1     -13.096  12.177  71.874  1.00  0.00    -0.369 A  
HETATM   17  C   UNL     1     -13.710  13.231  72.535  1.00  0.00    -0.613 A  
HETATM   18  O   UNL     1     -13.258  10.926  72.396  1.00  0.00    -0.570 OA 
HETATM   19  C   UNL     1     -13.584  14.539  72.059  1.00  0.00    -0.509 A  
HETATM   20  H   UNL     1     -13.773  10.787  73.182  1.00  0.00     0.000 HD 
ENDBRANCH   8   9
ENDBRANCH   2   8
TORSDOF 2
ENDMDL
MODEL       21
REMARK 921   NORMALIZED FREE ENERGY PREDICTED BY IDOCK:   -5.86 KCAL/MOL
REMARK 922        TOTAL FREE ENERGY PREDICTED BY IDOCK:   -6.84 KCAL/MOL
REMARK 923 INTER-LIGAND FREE ENERGY PREDICTED BY IDOCK:   -6.63 KCAL/MOL
REMARK 924 INTRA-LIGAND FREE ENERGY PREDICTED BY IDOCK:   -0.21 KCAL/MOL
REMARK 927      BINDING AFFINITY PREDICTED BY RF-SCORE:    0.00 PKD
ROOT
HETATM    1  N   UNL     1     -12.513  13.798  63.297  1.00  0.00    -1.092 NA 
HETATM    2  CA  UNL     1     -11.665  13.960  64.527  1.00  0.00    -0.410 C  
HETATM    3  H1  UNL     1     -13.412  14.277  63.349  1.00  0.00     0.000 HD 
HETATM    4  H2  UNL     1     -12.645  12.810  63.079  1.00  0.00     0.000 HD 
HETATM    5  OXT UNL     1     -10.672  15.944  65.578  1.00  0.00    -0.361 OA 
HETATM    6  C   UNL     1     -11.407  15.460  64.732  1.00  0.00    -0.376 C  
HETATM    7  O   UNL     1     -12.106  16.209  63.836  1.00  0.00    -0.956 OA 
ENDROOT
BRANCH   2   8
HETATM    8  C   UNL     1     -10.310  13.237  64.449  1.00  0.00    -0.372 C  
BRANCH   8   9
HETATM    9  C   UNL     1     -10.298  11.887  65.100  1.00  0.00    -0.318 A  
HETATM   10  C   UNL     1     -10.047  10.682  64.474  1.00  0.00    -0.353 A  
HETATM   11  N   UNL     1     -10.155   9.681  65.402  1.00  0.00    -0.345 NA 
HETATM   12  H   UNL     1     -10.022   8.688  65.208  1.00  0.00     0.000 HD 
HETATM   13  C   UNL     1     -10.468  10.207  66.635  1.00  0.00    -0.185 A  
HETATM   14  C   UNL     1     -10.581  11.590  66.474  1.00  0.00    -0.301 A  
HETATM   15  C   UNL     1     -10.926  12.371  67.600  1.00  0.00    -0.276 A  
HETATM   16  C   UNL     1     -11.120  11.737  68.829  1.00  0.00    -0.241 A  
HETATM   17  C   UNL     1     -10.996  10.361  68.963  1.00  0.00    -0.282 A  
HETATM   18  O   UNL     1     -11.442  12.452  69.946  1.00  0.00    -0.478 OA 
HETATM   19  C   UNL     1     -10.672   9.565  67.861  1.00  0.00    -0.285 A  
HETATM   20  H   UNL     1     -11.573  12.020  70.783  1.00  0.00     0.000 HD 
ENDBRANCH   8   9
ENDBRANCH   2   8
TORSDOF 2
ENDMDL
MODEL       22
REMARK 921   NORMALIZED FREE ENERGY PREDICTED BY IDOCK:   -5.86 KCAL/MOL
REMARK 922        TOTAL FREE ENERGY PREDICTED BY IDOCK:   -6.84 KCAL/MOL
REMARK 923 INTER-LIGAND FREE ENERGY PREDICTED BY IDOCK:   -6.61 KCAL/MOL
REMARK 924 INTRA-LIGAND FREE ENERGY PREDICTED BY IDOCK:   -0.22 KCAL/MOL
REMARK 927      BINDING AFFINITY PREDICTED BY RF-SCORE:    0.00 PKD
ROOT
HETATM    1  N   UNL     1      -8.707  16.645  67.429  1.00  0.00    -0.189 NA 
HETATM    2  CA  UNL     1     -10.094  17.149  67.717  1.00  0.00    -0.306 C  
HETATM    3  H1  UNL     1      -8.447  16.693  66.444  1.00  0.00     0.000 HD 
HETATM    4  H2  UNL     1      -8.589  15.697  67.785  1.00  0.00     0.000 HD 
HETATM    5  OXT UNL     1     -11.118  19.363  67.440  1.00  0.00    -0.445 OA 
HETATM    6  C   UNL     1     -10.170  18.614  67.263  1.00  0.00    -0.376 C  
HETATM    7  O   UNL     1      -9.028  18.996  66.629  1.00  0.00    -0.302 OA 
ENDROOT
BRANCH   2   8
HETATM    8  C   UNL     1     -10.487  17.076  69.202  1.00  0.00    -0.323 C  
BRANCH   8   9
HETATM    9  C   UNL     1     -11.306  15.873  69.560  1.00  0.00    -0.335 A  
HETATM   10  C   UNL     1     -11.714  14.877  68.694  1.00  0.00    -0.330 A  
HETATM   11  N   UNL     1     -12.463  13.973  69.398  1.00  0.00    -0.451 NA 
HETATM   12  H   UNL     1     -12.894  13.137  69.001  1.00  0.00     0.000 HD 
HETATM   13  C   UNL     1     -12.552  14.351  70.717  1.00  0.00    -0.357 A  
HETATM   14  C   UNL     1     -11.847  15.550  70.848  1.00  0.00    -0.413 A  
HETATM   15  C   UNL     1     -11.807  16.171  72.116  1.00  0.00    -0.626 A  
HETATM   16  C   UNL     1     -12.450  15.555  73.192  1.00  0.00    -0.460 A  
HETATM   17  C   UNL     1     -13.137  14.360  73.037  1.00  0.00    -0.581 A  
HETATM   18  O   UNL     1     -12.426  16.111  74.438  1.00  0.00    -0.652 OA 
HETATM   19  C   UNL     1     -13.207  13.735  71.789  1.00  0.00    -0.467 A  
HETATM   20  H   UNL     1     -12.864  15.691  75.170  1.00  0.00     0.000 HD 
ENDBRANCH   8   9
ENDBRANCH   2   8
TORSDOF 2
ENDMDL
MODEL       23
REMARK 921   NORMALIZED FREE ENERGY PREDICTED BY IDOCK:   -5.83 KCAL/MOL
REMARK 922        TOTAL FREE ENERGY PREDICTED BY IDOCK:   -6.81 KCAL/MOL
REMARK 923 INTER-LIGAND FREE ENERGY PREDICTED BY IDOCK:   -6.55 KCAL/MOL
REMARK 924 INTRA-LIGAND FREE ENERGY PREDICTED BY IDOCK:   -0.26 KCAL/MOL
REMARK 927      BINDING AFFINITY PREDICTED BY RF-SCORE:    0.00 PKD
ROOT
HETATM    1  N   UNL     1     -12.943  15.833  70.332  1.00  0.00    -0.714 NA 
HETATM    2  CA  UNL     1     -13.157  14.386  70.677  1.00  0.00    -0.223 C  
HETATM    3  H1  UNL     1     -13.799  16.388  70.330  1.00  0.00     0.000 HD 
HETATM    4  H2  UNL     1     -12.456  15.922  69.440  1.00  0.00     0.000 HD 
HETATM    5  OXT UNL     1     -13.999  13.298  72.711  1.00  0.00    -0.701 OA 
HETATM    6  C   UNL     1     -13.786  14.320  72.078  1.00  0.00    -0.450 C  
HETATM    7  O   UNL     1     -14.080  15.562  72.547  1.00  0.00    -0.546 OA 
ENDROOT
BRANCH   2   8
HETATM    8  C   UNL     1     -11.867  13.549  70.680  1.00  0.00    -0.200 C  
BRANCH   8   9
HETATM    9  C   UNL     1     -11.782  12.551  69.565  1.00  0.00    -0.375 A  
HETATM   10  C   UNL     1     -12.242  11.249  69.600  1.00  0.00    -0.271 A  
HETATM   11  N   UNL     1     -11.954  10.657  68.399  1.00  0.00    -0.811 NA 
HETATM   12  H   UNL     1     -12.181   9.693  68.155  1.00  0.00     0.000 HD 
HETATM   13  C   UNL     1     -11.317  11.550  67.569  1.00  0.00    -0.299 A  
HETATM   14  C   UNL     1     -11.180  12.745  68.279  1.00  0.00    -0.308 A  
HETATM   15  C   UNL     1     -10.525  13.828  67.651  1.00  0.00    -0.242 A  
HETATM   16  C   UNL     1     -10.062  13.672  66.343  1.00  0.00    -0.295 A  
HETATM   17  C   UNL     1     -10.216  12.476  65.657  1.00  0.00    -0.287 A  
HETATM   18  O   UNL     1      -9.435  14.695  65.692  1.00  0.00    -0.511 OA 
HETATM   19  C   UNL     1     -10.844  11.384  66.262  1.00  0.00    -0.318 A  
HETATM   20  H   UNL     1      -9.120  14.589  64.802  1.00  0.00     0.000 HD 
ENDBRANCH   8   9
ENDBRANCH   2   8
TORSDOF 2
ENDMDL
MODEL       24
REMARK 921   NORMALIZED FREE ENERGY PREDICTED BY IDOCK:   -5.83 KCAL/MOL
REMARK 922        TOTAL FREE ENERGY PREDICTED BY IDOCK:   -6.81 KCAL/MOL
REMARK 923 INTER-LIGAND FREE ENERGY PREDICTED BY IDOCK:   -6.57 KCAL/MOL
REMARK 924 INTRA-LIGAND FREE ENERGY PREDICTED BY IDOCK:   -0.24 KCAL/MOL
REMARK 927      BINDING AFFINITY PREDICTED BY RF-SCORE:    0.00 PKD
ROOT
HETATM    1  N   UNL     1     -11.272  16.621  64.120  1.00  0.00    -1.430 NA 
HETATM    2  CA  UNL     1     -10.707  15.919  65.324  1.00  0.00    -0.424 C  
HETATM    3  H1  UNL     1     -11.242  16.064  63.266  1.00  0.00     0.000 HD 
HETATM    4  H2  UNL     1     -10.810  17.519  63.979  1.00  0.00     0.000 HD 
HETATM    5  OXT UNL     1     -11.399  13.877  66.498  1.00  0.00    -0.314 OA 
HETATM    6  C   UNL     1     -11.521  14.635  65.549  1.00  0.00    -0.341 C  
HETATM    7  O   UNL     1     -12.419  14.437  64.547  1.00  0.00    -0.608 OA 
ENDROOT
BRANCH   2   8
HETATM    8  C   UNL     1     -10.751  16.758  66.611  1.00  0.00    -0.107 C  
BRANCH   8   9
HETATM    9  C   UNL     1      -9.994  18.049  66.527  1.00  0.00    -0.371 A  
HETATM   10  C   UNL     1     -10.537  19.318  66.579  1.00  0.00    -0.446 A  
HETATM   11  N   UNL     1      -9.524  20.228  66.441  1.00  0.00    -0.603 NA 
HETATM   12  H   UNL     1      -9.645  21.241  66.441  1.00  0.00     0.000 HD 
HETATM   13  C   UNL     1      -8.317  19.581  66.304  1.00  0.00    -0.345 A  
HETATM   14  C   UNL     1      -8.581  18.210  66.338  1.00  0.00    -0.251 A  
HETATM   15  C   UNL     1      -7.500  17.313  66.189  1.00  0.00    -0.321 A  
HETATM   16  C   UNL     1      -6.211  17.828  66.037  1.00  0.00    -0.228 A  
HETATM   17  C   UNL     1      -5.974  19.195  66.013  1.00  0.00    -0.191 A  
HETATM   18  O   UNL     1      -5.134  17.000  65.903  1.00  0.00    -0.301 OA 
HETATM   19  C   UNL     1      -7.030  20.103  66.141  1.00  0.00    -0.284 A  
HETATM   20  H   UNL     1      -4.257  17.351  65.799  1.00  0.00     0.000 HD 
ENDBRANCH   8   9
ENDBRANCH   2   8
TORSDOF 2
ENDMDL
MODEL       25
REMARK 921   NORMALIZED FREE ENERGY PREDICTED BY IDOCK:   -5.81 KCAL/MOL
REMARK 922        TOTAL FREE ENERGY PREDICTED BY IDOCK:   -6.78 KCAL/MOL
REMARK 923 INTER-LIGAND FREE ENERGY PREDICTED BY IDOCK:   -6.53 KCAL/MOL
REMARK 924 INTRA-LIGAND FREE ENERGY PREDICTED BY IDOCK:   -0.25 KCAL/MOL
REMARK 927      BINDING AFFINITY PREDICTED BY RF-SCORE:    0.00 PKD
ROOT
HETATM    1  N   UNL     1      -8.626  17.482  68.364  1.00  0.00    -0.269 NA 
HETATM    2  CA  UNL     1      -9.579  16.393  67.958  1.00  0.00    -0.226 C  
HETATM    3  H1  UNL     1      -7.725  17.441  67.888  1.00  0.00     0.000 HD 
HETATM    4  H2  UNL     1      -8.497  17.487  69.376  1.00  0.00     0.000 HD 
HETATM    5  OXT UNL     1     -10.618  15.852  65.800  1.00  0.00    -0.332 OA 
HETATM    6  C   UNL     1      -9.820  16.513  66.445  1.00  0.00    -0.293 C  
HETATM    7  O   UNL     1      -9.026  17.469  65.892  1.00  0.00    -0.517 OA 
ENDROOT
BRANCH   2   8
HETATM    8  C   UNL     1     -10.937  16.453  68.675  1.00  0.00    -0.345 C  
BRANCH   8   9
HETATM    9  C   UNL     1     -11.372  15.150  69.274  1.00  0.00    -0.313 A  
HETATM   10  C   UNL     1     -11.166  13.895  68.734  1.00  0.00    -0.272 A  
HETATM   11  N   UNL     1     -11.734  12.968  69.565  1.00  0.00    -0.317 NA 
HETATM   12  H   UNL     1     -11.732  11.960  69.403  1.00  0.00     0.000 HD 
HETATM   13  C   UNL     1     -12.309  13.589  70.650  1.00  0.00    -0.358 A  
HETATM   14  C   UNL     1     -12.112  14.962  70.488  1.00  0.00    -0.378 A  
HETATM   15  C   UNL     1     -12.637  15.836  71.466  1.00  0.00    -0.517 A  
HETATM   16  C   UNL     1     -13.310  15.296  72.564  1.00  0.00    -0.453 A  
HETATM   17  C   UNL     1     -13.486  13.927  72.705  1.00  0.00    -0.652 A  
HETATM   18  O   UNL     1     -13.822  16.101  73.540  1.00  0.00    -0.868 OA 
HETATM   19  C   UNL     1     -12.992  13.043  71.742  1.00  0.00    -0.420 A  
HETATM   20  H   UNL     1     -14.281  15.733  74.287  1.00  0.00     0.000 HD 
ENDBRANCH   8   9
ENDBRANCH   2   8
TORSDOF 2
ENDMDL
MODEL       26
REMARK 921   NORMALIZED FREE ENERGY PREDICTED BY IDOCK:   -5.80 KCAL/MOL
REMARK 922        TOTAL FREE ENERGY PREDICTED BY IDOCK:   -6.77 KCAL/MOL
REMARK 923 INTER-LIGAND FREE ENERGY PREDICTED BY IDOCK:   -6.70 KCAL/MOL
REMARK 924 INTRA-LIGAND FREE ENERGY PREDICTED BY IDOCK:   -0.08 KCAL/MOL
REMARK 927      BINDING AFFINITY PREDICTED BY RF-SCORE:    0.00 PKD
ROOT
HETATM    1  N   UNL     1     -12.900  15.988  71.148  1.00  0.00    -0.558 NA 
HETATM    2  CA  UNL     1     -13.019  14.528  70.810  1.00  0.00    -0.343 C  
HETATM    3  H1  UNL     1     -13.748  16.390  71.549  1.00  0.00     0.000 HD 
HETATM    4  H2  UNL     1     -12.602  16.522  70.332  1.00  0.00     0.000 HD 
HETATM    5  OXT UNL     1     -13.423  12.554  72.213  1.00  0.00    -0.556 OA 
HETATM    6  C   UNL     1     -13.355  13.768  72.102  1.00  0.00    -0.476 C  
HETATM    7  O   UNL     1     -13.569  14.624  73.138  1.00  0.00    -0.569 OA 
ENDROOT
BRANCH   2   8
HETATM    8  C   UNL     1     -11.742  13.923  70.205  1.00  0.00    -0.294 C  
BRANCH   8   9
HETATM    9  C   UNL     1     -11.193  14.690  69.040  1.00  0.00    -0.287 A  
HETATM   10  C   UNL     1     -10.344  15.777  69.108  1.00  0.00    -0.240 A  
HETATM   11  N   UNL     1     -10.094  16.211  67.833  1.00  0.00    -0.240 NA 
HETATM   12  H   UNL     1      -9.499  17.004  67.593  1.00  0.00     0.000 HD 
HETATM   13  C   UNL     1     -10.762  15.424  66.923  1.00  0.00    -0.314 A  
HETATM   14  C   UNL     1     -11.474  14.468  67.652  1.00  0.00    -0.374 A  
HETATM   15  C   UNL     1     -12.273  13.543  66.945  1.00  0.00    -0.377 A  
HETATM   16  C   UNL     1     -12.304  13.603  65.550  1.00  0.00    -0.482 A  
HETATM   17  C   UNL     1     -11.581  14.558  64.849  1.00  0.00    -0.401 A  
HETATM   18  O   UNL     1     -13.051  12.720  64.824  1.00  0.00    -0.813 OA 
HETATM   19  C   UNL     1     -10.797  15.495  65.527  1.00  0.00    -0.372 A  
HETATM   20  H   UNL     1     -13.072  12.762  63.875  1.00  0.00     0.000 HD 
ENDBRANCH   8   9
ENDBRANCH   2   8
TORSDOF 2
ENDMDL
MODEL       27
REMARK 921   NORMALIZED FREE ENERGY PREDICTED BY IDOCK:   -5.79 KCAL/MOL
REMARK 922        TOTAL FREE ENERGY PREDICTED BY IDOCK:   -6.76 KCAL/MOL
REMARK 923 INTER-LIGAND FREE ENERGY PREDICTED BY IDOCK:   -6.57 KCAL/MOL
REMARK 924 INTRA-LIGAND FREE ENERGY PREDICTED BY IDOCK:   -0.19 KCAL/MOL
REMARK 927      BINDING AFFINITY PREDICTED BY RF-SCORE:    0.00 PKD
ROOT
HETATM    1  N   UNL     1     -12.534  10.645  69.274  1.00  0.00    -0.711 NA 
HETATM    2  CA  UNL     1     -11.090  10.447  68.906  1.00  0.00    -0.247 C  
HETATM    3  H1  UNL     1     -13.021   9.783  69.518  1.00  0.00     0.000 HD 
HETATM    4  H2  UNL     1     -13.029  11.138  68.530  1.00  0.00     0.000 HD 
HETATM    5  OXT UNL     1      -9.178   9.602  70.193  1.00  0.00    -0.226 OA 
HETATM    6  C   UNL     1     -10.378   9.808  70.108  1.00  0.00    -0.282 C  
HETATM    7  O   UNL     1     -11.259   9.496  71.097  1.00  0.00    -0.315 OA 
ENDROOT
BRANCH   2   8
HETATM    8  C   UNL     1     -10.357  11.746  68.536  1.00  0.00    -0.228 C  
BRANCH   8   9
HETATM    9  C   UNL     1     -11.148  12.667  67.657  1.00  0.00    -0.303 A  
HETATM   10  C   UNL     1     -11.879  13.763  68.073  1.00  0.00    -0.373 A  
HETATM   11  N   UNL     1     -12.477  14.325  66.977  1.00  0.00    -0.543 NA 
HETATM   12  H   UNL     1     -13.080  15.148  66.999  1.00  0.00     0.000 HD 
HETATM   13  C   UNL     1     -12.149  13.621  65.842  1.00  0.00    -0.439 A  
HETATM   14  C   UNL     1     -11.327  12.563  66.239  1.00  0.00    -0.386 A  
HETATM   15  C   UNL     1     -10.868  11.662  65.252  1.00  0.00    -0.340 A  
HETATM   16  C   UNL     1     -11.232  11.875  63.921  1.00  0.00    -0.420 A  
HETATM   17  C   UNL     1     -12.044  12.937  63.552  1.00  0.00    -0.633 A  
HETATM   18  O   UNL     1     -10.800  11.039  62.932  1.00  0.00    -0.797 OA 
HETATM   19  C   UNL     1     -12.526  13.832  64.511  1.00  0.00    -0.329 A  
HETATM   20  H   UNL     1     -11.048  11.183  62.026  1.00  0.00     0.000 HD 
ENDBRANCH   8   9
ENDBRANCH   2   8
TORSDOF 2
ENDMDL
MODEL       28
REMARK 921   NORMALIZED FREE ENERGY PREDICTED BY IDOCK:   -5.72 KCAL/MOL
REMARK 922        TOTAL FREE ENERGY PREDICTED BY IDOCK:   -6.69 KCAL/MOL
REMARK 923 INTER-LIGAND FREE ENERGY PREDICTED BY IDOCK:   -6.43 KCAL/MOL
REMARK 924 INTRA-LIGAND FREE ENERGY PREDICTED BY IDOCK:   -0.25 KCAL/MOL
REMARK 927      BINDING AFFINITY PREDICTED BY RF-SCORE:    0.00 PKD
ROOT
HETATM    1  N   UNL     1     -10.887  15.333  70.857  1.00  0.00    -0.520 NA 
HETATM    2  CA  UNL     1     -11.087  14.360  69.729  1.00  0.00    -0.159 C  
HETATM    3  H1  UNL     1     -10.180  16.044  70.669  1.00  0.00     0.000 HD 
HETATM    4  H2  UNL     1     -10.677  14.839  71.725  1.00  0.00     0.000 HD 
HETATM    5  OXT UNL     1     -11.857  14.673  67.419  1.00  0.00    -0.385 OA 
HETATM    6  C   UNL     1     -11.514  15.156  68.486  1.00  0.00    -0.320 C  
HETATM    7  O   UNL     1     -11.470  16.496  68.718  1.00  0.00    -0.291 OA 
ENDROOT
BRANCH   2   8
HETATM    8  C   UNL     1     -12.152  13.288  70.013  1.00  0.00    -0.385 C  
BRANCH   8   9
HETATM    9  C   UNL     1     -11.642  11.881  69.924  1.00  0.00    -0.333 A  
HETATM   10  C   UNL     1     -10.675  11.417  69.054  1.00  0.00    -0.205 A  
HETATM   11  N   UNL     1     -10.510  10.075  69.267  1.00  0.00    -0.210 NA 
HETATM   12  H   UNL     1      -9.858   9.479  68.756  1.00  0.00     0.000 HD 
HETATM   13  C   UNL     1     -11.350   9.645  70.269  1.00  0.00    -0.257 A  
HETATM   14  C   UNL     1     -12.086  10.754  70.692  1.00  0.00    -0.467 A  
HETATM   15  C   UNL     1     -13.051  10.572  71.708  1.00  0.00    -0.570 A  
HETATM   16  C   UNL     1     -13.216   9.302  72.264  1.00  0.00    -0.460 A  
HETATM   17  C   UNL     1     -12.467   8.218  71.830  1.00  0.00    -0.376 A  
HETATM   18  O   UNL     1     -14.126   9.083  73.257  1.00  0.00    -1.218 OA 
HETATM   19  C   UNL     1     -11.519   8.368  70.815  1.00  0.00    -0.277 A  
HETATM   20  H   UNL     1     -14.238   8.218  73.635  1.00  0.00     0.000 HD 
ENDBRANCH   8   9
ENDBRANCH   2   8
TORSDOF 2
ENDMDL
MODEL       29
REMARK 921   NORMALIZED FREE ENERGY PREDICTED BY IDOCK:   -5.72 KCAL/MOL
REMARK 922        TOTAL FREE ENERGY PREDICTED BY IDOCK:   -6.68 KCAL/MOL
REMARK 923 INTER-LIGAND FREE ENERGY PREDICTED BY IDOCK:   -6.42 KCAL/MOL
REMARK 924 INTRA-LIGAND FREE ENERGY PREDICTED BY IDOCK:   -0.26 KCAL/MOL
REMARK 927      BINDING AFFINITY PREDICTED BY RF-SCORE:    0.00 PKD
ROOT
HETATM    1  N   UNL     1      -9.633  10.117  70.197  1.00  0.00    -0.396 NA 
HETATM    2  CA  UNL     1     -10.886  10.899  69.919  1.00  0.00    -0.141 C  
HETATM    3  H1  UNL     1      -9.292  10.208  71.154  1.00  0.00     0.000 HD 
HETATM    4  H2  UNL     1      -8.901  10.365  69.531  1.00  0.00     0.000 HD 
HETATM    5  OXT UNL     1     -13.150  10.743  70.857  1.00  0.00    -0.331 OA 
HETATM    6  C   UNL     1     -11.979  10.398  70.876  1.00  0.00    -0.377 C  
HETATM    7  O   UNL     1     -11.482   9.497  71.766  1.00  0.00    -0.384 OA 
ENDROOT
BRANCH   2   8
HETATM    8  C   UNL     1     -11.399  10.764  68.477  1.00  0.00    -0.360 C  
BRANCH   8   9
HETATM    9  C   UNL     1     -11.633  12.073  67.785  1.00  0.00    -0.400 A  
HETATM   10  C   UNL     1     -11.884  13.285  68.397  1.00  0.00    -0.360 A  
HETATM   11  N   UNL     1     -12.068  14.231  67.424  1.00  0.00    -0.567 NA 
HETATM   12  H   UNL     1     -12.272  15.216  67.599  1.00  0.00     0.000 HD 
HETATM   13  C   UNL     1     -11.937  13.664  66.178  1.00  0.00    -0.416 A  
HETATM   14  C   UNL     1     -11.679  12.305  66.371  1.00  0.00    -0.431 A  
HETATM   15  C   UNL     1     -11.528  11.481  65.233  1.00  0.00    -0.091 A  
HETATM   16  C   UNL     1     -11.619  12.058  63.964  1.00  0.00    -0.411 A  
HETATM   17  C   UNL     1     -11.870  13.413  63.800  1.00  0.00    -0.483 A  
HETATM   18  O   UNL     1     -11.467  11.304  62.836  1.00  0.00    -0.829 OA 
HETATM   19  C   UNL     1     -12.041  14.245  64.909  1.00  0.00    -0.442 A  
HETATM   20  H   UNL     1     -11.529  11.697  61.973  1.00  0.00     0.000 HD 
ENDBRANCH   8   9
ENDBRANCH   2   8
TORSDOF 2
ENDMDL
MODEL       30
REMARK 921   NORMALIZED FREE ENERGY PREDICTED BY IDOCK:   -5.71 KCAL/MOL
REMARK 922        TOTAL FREE ENERGY PREDICTED BY IDOCK:   -6.67 KCAL/MOL
REMARK 923 INTER-LIGAND FREE ENERGY PREDICTED BY IDOCK:   -6.41 KCAL/MOL
REMARK 924 INTRA-LIGAND FREE ENERGY PREDICTED BY IDOCK:   -0.26 KCAL/MOL
REMARK 927      BINDING AFFINITY PREDICTED BY RF-SCORE:    0.00 PKD
ROOT
HETATM    1  N   UNL     1      -9.484  14.844  65.868  1.00  0.00    -0.455 NA 
HETATM    2  CA  UNL     1     -10.566  14.685  64.836  1.00  0.00    -0.422 C  
HETATM    3  H1  UNL     1      -8.746  15.494  65.596  1.00  0.00     0.000 HD 
HETATM    4  H2  UNL     1      -9.090  13.937  66.118  1.00  0.00     0.000 HD 
HETATM    5  OXT UNL     1     -12.169  16.285  63.890  1.00  0.00    -0.945 OA 
HETATM    6  C   UNL     1     -11.195  16.065  64.591  1.00  0.00    -0.330 C  
HETATM    7  O   UNL     1     -10.529  17.039  65.268  1.00  0.00    -0.649 OA 
ENDROOT
BRANCH   2   8
HETATM    8  C   UNL     1     -11.678  13.706  65.246  1.00  0.00    -0.349 C  
BRANCH   8   9
HETATM    9  C   UNL     1     -11.177  12.398  65.779  1.00  0.00    -0.370 A  
HETATM   10  C   UNL     1     -10.618  11.376  65.036  1.00  0.00    -0.299 A  
HETATM   11  N   UNL     1     -10.314  10.343  65.883  1.00  0.00    -0.225 NA 
HETATM   12  H   UNL     1      -9.892   9.459  65.597  1.00  0.00     0.000 HD 
HETATM   13  C   UNL     1     -10.658  10.669  67.175  1.00  0.00    -0.260 A  
HETATM   14  C   UNL     1     -11.217  11.949  67.140  1.00  0.00    -0.377 A  
HETATM   15  C   UNL     1     -11.683  12.512  68.349  1.00  0.00    -0.375 A  
HETATM   16  C   UNL     1     -11.547  11.781  69.531  1.00  0.00    -0.332 A  
HETATM   17  C   UNL     1     -10.981  10.515  69.540  1.00  0.00    -0.312 A  
HETATM   18  O   UNL     1     -11.970  12.291  70.725  1.00  0.00    -0.473 OA 
HETATM   19  C   UNL     1     -10.529   9.928  68.354  1.00  0.00    -0.239 A  
HETATM   20  H   UNL     1     -11.877  11.793  71.529  1.00  0.00     0.000 HD 
ENDBRANCH   8   9
ENDBRANCH   2   8
TORSDOF 2
ENDMDL
MODEL       31
REMARK 921   NORMALIZED FREE ENERGY PREDICTED BY IDOCK:   -5.69 KCAL/MOL
REMARK 922        TOTAL FREE ENERGY PREDICTED BY IDOCK:   -6.65 KCAL/MOL
REMARK 923 INTER-LIGAND FREE ENERGY PREDICTED BY IDOCK:   -6.39 KCAL/MOL
REMARK 924 INTRA-LIGAND FREE ENERGY PREDICTED BY IDOCK:   -0.26 KCAL/MOL
REMARK 927      BINDING AFFINITY PREDICTED BY RF-SCORE:    0.00 PKD
ROOT
HETATM    1  N   UNL     1     -12.214  12.991  70.786  1.00  0.00    -0.463 NA 
HETATM    2  CA  UNL     1     -12.319  14.433  71.199  1.00  0.00    -0.358 C  
HETATM    3  H1  UNL     1     -11.989  12.357  71.553  1.00  0.00     0.000 HD 
HETATM    4  H2  UNL     1     -11.545  12.884  70.024  1.00  0.00     0.000 HD 
HETATM    5  OXT UNL     1     -13.841  15.583  72.744  1.00  0.00    -0.529 OA 
HETATM    6  C   UNL     1     -13.422  14.543  72.263  1.00  0.00    -0.422 C  
HETATM    7  O   UNL     1     -13.894  13.316  72.614  1.00  0.00    -0.712 OA 
ENDROOT
BRANCH   2   8
HETATM    8  C   UNL     1     -12.658  15.388  70.044  1.00  0.00    -0.269 C  
BRANCH   8   9
HETATM    9  C   UNL     1     -11.583  15.498  69.004  1.00  0.00    -0.377 A  
HETATM   10  C   UNL     1     -10.457  16.294  69.078  1.00  0.00    -0.276 A  
HETATM   11  N   UNL     1      -9.739  16.134  67.923  1.00  0.00    -0.224 NA 
HETATM   12  H   UNL     1      -8.861  16.609  67.711  1.00  0.00     0.000 HD 
HETATM   13  C   UNL     1     -10.371  15.240  67.089  1.00  0.00    -0.265 A  
HETATM   14  C   UNL     1     -11.541  14.834  67.734  1.00  0.00    -0.378 A  
HETATM   15  C   UNL     1     -12.395  13.926  67.069  1.00  0.00    -0.287 A  
HETATM   16  C   UNL     1     -12.027  13.453  65.808  1.00  0.00    -0.407 A  
HETATM   17  C   UNL     1     -10.855  13.867  65.191  1.00  0.00    -0.364 A  
HETATM   18  O   UNL     1     -12.814  12.564  65.133  1.00  0.00    -0.685 OA 
HETATM   19  C   UNL     1     -10.003  14.778  65.821  1.00  0.00    -0.375 A  
HETATM   20  H   UNL     1     -12.563  12.242  64.275  1.00  0.00     0.000 HD 
ENDBRANCH   8   9
ENDBRANCH   2   8
TORSDOF 2
ENDMDL
MODEL       32
REMARK 921   NORMALIZED FREE ENERGY PREDICTED BY IDOCK:   -5.67 KCAL/MOL
REMARK 922        TOTAL FREE ENERGY PREDICTED BY IDOCK:   -6.62 KCAL/MOL
REMARK 923 INTER-LIGAND FREE ENERGY PREDICTED BY IDOCK:   -6.32 KCAL/MOL
REMARK 924 INTRA-LIGAND FREE ENERGY PREDICTED BY IDOCK:   -0.31 KCAL/MOL
REMARK 927      BINDING AFFINITY PREDICTED BY RF-SCORE:    0.00 PKD
ROOT
HETATM    1  N   UNL     1     -10.078  12.890  63.704  1.00  0.00    -0.715 NA 
HETATM    2  CA  UNL     1     -10.866  13.566  64.791  1.00  0.00    -0.381 C  
HETATM    3  H1  UNL     1     -10.250  11.888  63.631  1.00  0.00     0.000 HD 
HETATM    4  H2  UNL     1      -9.081  13.076  63.816  1.00  0.00     0.000 HD 
HETATM    5  OXT UNL     1     -13.283  13.844  65.124  1.00  0.00    -0.768 OA 
HETATM    6  C   UNL     1     -12.359  13.346  64.500  1.00  0.00    -0.360 C  
HETATM    7  O   UNL     1     -12.539  12.518  63.437  1.00  0.00    -0.690 OA 
ENDROOT
BRANCH   2   8
HETATM    8  C   UNL     1     -10.607  15.077  64.902  1.00  0.00    -0.400 C  
BRANCH   8   9
HETATM    9  C   UNL     1      -9.906  15.487  66.162  1.00  0.00    -0.342 A  
HETATM   10  C   UNL     1      -8.625  15.994  66.254  1.00  0.00    -0.328 A  
HETATM   11  N   UNL     1      -8.343  16.219  67.575  1.00  0.00    -0.155 NA 
HETATM   12  H   UNL     1      -7.460  16.590  67.929  1.00  0.00     0.000 HD 
HETATM   13  C   UNL     1      -9.420  15.873  68.358  1.00  0.00    -0.201 A  
HETATM   14  C   UNL     1     -10.413  15.395  67.500  1.00  0.00    -0.275 A  
HETATM   15  C   UNL     1     -11.628  14.943  68.064  1.00  0.00    -0.363 A  
HETATM   16  C   UNL     1     -11.798  15.013  69.448  1.00  0.00    -0.329 A  
HETATM   17  C   UNL     1     -10.798  15.499  70.278  1.00  0.00    -0.358 A  
HETATM   18  O   UNL     1     -12.959  14.601  70.035  1.00  0.00    -0.569 OA 
HETATM   19  C   UNL     1      -9.581  15.934  69.746  1.00  0.00    -0.084 A  
HETATM   20  H   UNL     1     -13.074  14.648  70.978  1.00  0.00     0.000 HD 
ENDBRANCH   8   9
ENDBRANCH   2   8
TORSDOF 2
ENDMDL
MODEL       33
REMARK 921   NORMALIZED FREE ENERGY PREDICTED BY IDOCK:   -5.64 KCAL/MOL
REMARK 922        TOTAL FREE ENERGY PREDICTED BY IDOCK:   -6.59 KCAL/MOL
REMARK 923 INTER-LIGAND FREE ENERGY PREDICTED BY IDOCK:   -6.36 KCAL/MOL
REMARK 924 INTRA-LIGAND FREE ENERGY PREDICTED BY IDOCK:   -0.23 KCAL/MOL
REMARK 927      BINDING AFFINITY PREDICTED BY RF-SCORE:    0.00 PKD
ROOT
HETATM    1  N   UNL     1     -10.784  18.230  67.494  1.00  0.00    -0.406 NA 
HETATM    2  CA  UNL     1      -9.317  18.143  67.179  1.00  0.00    -0.263 C  
HETATM    3  H1  UNL     1     -11.042  19.057  68.032  1.00  0.00     0.000 HD 
HETATM    4  H2  UNL     1     -11.102  17.383  67.964  1.00  0.00     0.000 HD 
HETATM    5  OXT UNL     1      -7.838  19.597  65.864  1.00  0.00    -0.336 OA 
HETATM    6  C   UNL     1      -8.930  19.392  66.372  1.00  0.00    -0.363 C  
HETATM    7  O   UNL     1      -9.970  20.264  66.280  1.00  0.00    -0.436 OA 
ENDROOT
BRANCH   2   8
HETATM    8  C   UNL     1      -8.928  16.896  66.367  1.00  0.00    -0.317 C  
BRANCH   8   9
HETATM    9  C   UNL     1      -9.589  15.633  66.831  1.00  0.00    -0.244 A  
HETATM   10  C   UNL     1      -9.403  15.017  68.053  1.00  0.00    -0.185 A  
HETATM   11  N   UNL     1     -10.162  13.878  68.082  1.00  0.00    -0.242 NA 
HETATM   12  H   UNL     1     -10.210  13.228  68.868  1.00  0.00     0.000 HD 
HETATM   13  C   UNL     1     -10.850  13.733  66.900  1.00  0.00    -0.285 A  
HETATM   14  C   UNL     1     -10.499  14.813  66.086  1.00  0.00    -0.311 A  
HETATM   15  C   UNL     1     -11.056  14.887  64.790  1.00  0.00    -0.395 A  
HETATM   16  C   UNL     1     -11.949  13.894  64.381  1.00  0.00    -0.450 A  
HETATM   17  C   UNL     1     -12.287  12.835  65.211  1.00  0.00    -0.546 A  
HETATM   18  O   UNL     1     -12.522  13.932  63.142  1.00  0.00    -1.121 OA 
HETATM   19  C   UNL     1     -11.736  12.730  66.491  1.00  0.00    -0.463 A  
HETATM   20  H   UNL     1     -13.130  13.256  62.864  1.00  0.00     0.000 HD 
ENDBRANCH   8   9
ENDBRANCH   2   8
TORSDOF 2
ENDMDL
MODEL       34
REMARK 921   NORMALIZED FREE ENERGY PREDICTED BY IDOCK:   -5.64 KCAL/MOL
REMARK 922        TOTAL FREE ENERGY PREDICTED BY IDOCK:   -6.59 KCAL/MOL
REMARK 923 INTER-LIGAND FREE ENERGY PREDICTED BY IDOCK:   -6.35 KCAL/MOL
REMARK 924 INTRA-LIGAND FREE ENERGY PREDICTED BY IDOCK:   -0.24 KCAL/MOL
REMARK 927      BINDING AFFINITY PREDICTED BY RF-SCORE:    0.00 PKD
ROOT
HETATM    1  N   UNL     1     -10.663  15.918  66.118  1.00  0.00    -0.301 NA 
HETATM    2  CA  UNL     1     -11.277  14.646  65.600  1.00  0.00    -0.342 C  
HETATM    3  H1  UNL     1      -9.961  16.320  65.497  1.00  0.00     0.000 HD 
HETATM    4  H2  UNL     1     -10.276  15.775  67.051  1.00  0.00     0.000 HD 
HETATM    5  OXT UNL     1     -12.619  14.177  63.599  1.00  0.00    -0.831 OA 
HETATM    6  C   UNL     1     -11.940  14.956  64.250  1.00  0.00    -0.338 C  
HETATM    7  O   UNL     1     -11.684  16.232  63.854  1.00  0.00    -0.986 OA 
ENDROOT
BRANCH   2   8
HETATM    8  C   UNL     1     -12.333  14.039  66.537  1.00  0.00    -0.442 C  
BRANCH   8   9
HETATM    9  C   UNL     1     -11.764  13.181  67.627  1.00  0.00    -0.414 A  
HETATM   10  C   UNL     1     -11.727  13.490  68.972  1.00  0.00    -0.327 A  
HETATM   11  N   UNL     1     -11.106  12.465  69.634  1.00  0.00    -0.470 NA 
HETATM   12  H   UNL     1     -10.941  12.436  70.641  1.00  0.00     0.000 HD 
HETATM   13  C   UNL     1     -10.737  11.480  68.748  1.00  0.00    -0.211 A  
HETATM   14  C   UNL     1     -11.123  11.907  67.475  1.00  0.00    -0.332 A  
HETATM   15  C   UNL     1     -10.830  11.077  66.370  1.00  0.00    -0.253 A  
HETATM   16  C   UNL     1     -10.189   9.857  66.593  1.00  0.00    -0.226 A  
HETATM   17  C   UNL     1      -9.822   9.452  67.868  1.00  0.00    -0.197 A  
HETATM   18  O   UNL     1      -9.898   9.017  65.557  1.00  0.00    -0.460 OA 
HETATM   19  C   UNL     1     -10.085  10.263  68.975  1.00  0.00    -0.225 A  
HETATM   20  H   UNL     1      -9.462   8.186  65.708  1.00  0.00     0.000 HD 
ENDBRANCH   8   9
ENDBRANCH   2   8
TORSDOF 2
ENDMDL
MODEL       35
REMARK 921   NORMALIZED FREE ENERGY PREDICTED BY IDOCK:   -5.63 KCAL/MOL
REMARK 922        TOTAL FREE ENERGY PREDICTED BY IDOCK:   -6.58 KCAL/MOL
REMARK 923 INTER-LIGAND FREE ENERGY PREDICTED BY IDOCK:   -6.58 KCAL/MOL
REMARK 924 INTRA-LIGAND FREE ENERGY PREDICTED BY IDOCK:   -0.01 KCAL/MOL
REMARK 927      BINDING AFFINITY PREDICTED BY RF-SCORE:    0.00 PKD
ROOT
HETATM    1  N   UNL     1     -12.719  10.518  70.153  1.00  0.00    -0.508 NA 
HETATM    2  CA  UNL     1     -11.977  11.825  70.110  1.00  0.00    -0.339 C  
HETATM    3  H1  UNL     1     -12.682  10.052  71.059  1.00  0.00     0.000 HD 
HETATM    4  H2  UNL     1     -12.392   9.895  69.414  1.00  0.00     0.000 HD 
HETATM    5  OXT UNL     1     -12.300  13.929  71.332  1.00  0.00    -0.348 OA 
HETATM    6  C   UNL     1     -12.593  12.756  71.165  1.00  0.00    -0.271 C  
HETATM    7  O   UNL     1     -13.531  12.109  71.908  1.00  0.00    -0.399 OA 
ENDROOT
BRANCH   2   8
HETATM    8  C   UNL     1     -12.032  12.528  68.744  1.00  0.00    -0.283 C  
BRANCH   8   9
HETATM    9  C   UNL     1     -11.344  11.781  67.642  1.00  0.00    -0.370 A  
HETATM   10  C   UNL     1     -10.502  10.697  67.794  1.00  0.00    -0.221 A  
HETATM   11  N   UNL     1     -10.057  10.318  66.556  1.00  0.00    -0.222 NA 
HETATM   12  H   UNL     1      -9.417   9.543  66.378  1.00  0.00     0.000 HD 
HETATM   13  C   UNL     1     -10.595  11.133  65.587  1.00  0.00    -0.223 A  
HETATM   14  C   UNL     1     -11.396  12.072  66.239  1.00  0.00    -0.415 A  
HETATM   15  C   UNL     1     -12.050  13.054  65.461  1.00  0.00    -0.501 A  
HETATM   16  C   UNL     1     -11.890  13.034  64.074  1.00  0.00    -0.445 A  
HETATM   17  C   UNL     1     -11.094  12.085  63.449  1.00  0.00    -0.476 A  
HETATM   18  O   UNL     1     -12.513  13.954  63.281  1.00  0.00    -1.113 OA 
HETATM   19  C   UNL     1     -10.422  11.115  64.198  1.00  0.00    -0.442 A  
HETATM   20  H   UNL     1     -12.404  13.940  62.337  1.00  0.00     0.000 HD 
ENDBRANCH   8   9
ENDBRANCH   2   8
TORSDOF 2
ENDMDL
MODEL       36
REMARK 921   NORMALIZED FREE ENERGY PREDICTED BY IDOCK:   -5.62 KCAL/MOL
REMARK 922        TOTAL FREE ENERGY PREDICTED BY IDOCK:   -6.57 KCAL/MOL
REMARK 923 INTER-LIGAND FREE ENERGY PREDICTED BY IDOCK:   -6.33 KCAL/MOL
REMARK 924 INTRA-LIGAND FREE ENERGY PREDICTED BY IDOCK:   -0.24 KCAL/MOL
REMARK 927      BINDING AFFINITY PREDICTED BY RF-SCORE:    0.00 PKD
ROOT
HETATM    1  N   UNL     1      -7.547  17.337  68.251  1.00  0.00    -0.218 NA 
HETATM    2  CA  UNL     1      -8.679  17.766  67.359  1.00  0.00    -0.235 C  
HETATM    3  H1  UNL     1      -6.694  17.882  68.127  1.00  0.00     0.000 HD 
HETATM    4  H2  UNL     1      -7.357  16.341  68.135  1.00  0.00     0.000 HD 
HETATM    5  OXT UNL     1      -9.919  19.879  67.196  1.00  0.00    -0.369 OA 
HETATM    6  C   UNL     1      -8.991  19.239  67.665  1.00  0.00    -0.298 C  
HETATM    7  O   UNL     1      -8.096  19.762  68.546  1.00  0.00    -0.315 OA 
ENDROOT
BRANCH   2   8
HETATM    8  C   UNL     1      -9.965  16.945  67.545  1.00  0.00    -0.268 C  
BRANCH   8   9
HETATM    9  C   UNL     1     -10.571  16.458  66.263  1.00  0.00    -0.243 A  
HETATM   10  C   UNL     1     -10.721  17.191  65.102  1.00  0.00     0.004 A  
HETATM   11  N   UNL     1     -11.340  16.402  64.170  1.00  0.00    -1.422 NA 
HETATM   12  H   UNL     1     -11.577  16.695  63.222  1.00  0.00     0.000 HD 
HETATM   13  C   UNL     1     -11.596  15.156  64.695  1.00  0.00    -0.357 A  
HETATM   14  C   UNL     1     -11.139  15.165  66.015  1.00  0.00    -0.312 A  
HETATM   15  C   UNL     1     -11.310  13.999  66.793  1.00  0.00    -0.346 A  
HETATM   16  C   UNL     1     -11.907  12.879  66.211  1.00  0.00    -0.416 A  
HETATM   17  C   UNL     1     -12.347  12.894  64.895  1.00  0.00    -0.532 A  
HETATM   18  O   UNL     1     -12.081  11.726  66.920  1.00  0.00    -0.566 OA 
HETATM   19  C   UNL     1     -12.205  14.041  64.110  1.00  0.00    -0.433 A  
HETATM   20  H   UNL     1     -12.488  10.964  66.523  1.00  0.00     0.000 HD 
ENDBRANCH   8   9
ENDBRANCH   2   8
TORSDOF 2
ENDMDL
MODEL       37
REMARK 921   NORMALIZED FREE ENERGY PREDICTED BY IDOCK:   -5.57 KCAL/MOL
REMARK 922        TOTAL FREE ENERGY PREDICTED BY IDOCK:   -6.51 KCAL/MOL
REMARK 923 INTER-LIGAND FREE ENERGY PREDICTED BY IDOCK:   -6.19 KCAL/MOL
REMARK 924 INTRA-LIGAND FREE ENERGY PREDICTED BY IDOCK:   -0.32 KCAL/MOL
REMARK 927      BINDING AFFINITY PREDICTED BY RF-SCORE:    0.00 PKD
ROOT
HETATM    1  N   UNL     1      -9.776  19.272  68.153  1.00  0.00    -0.340 NA 
HETATM    2  CA  UNL     1      -9.924  17.959  67.436  1.00  0.00    -0.325 C  
HETATM    3  H1  UNL     1      -9.134  19.921  67.699  1.00  0.00     0.000 HD 
HETATM    4  H2  UNL     1      -9.507  19.122  69.125  1.00  0.00     0.000 HD 
HETATM    5  OXT UNL     1     -10.770  17.405  65.199  1.00  0.00    -0.684 OA 
HETATM    6  C   UNL     1     -10.441  18.248  66.019  1.00  0.00    -0.361 C  
HETATM    7  O   UNL     1     -10.501  19.585  65.777  1.00  0.00    -0.486 OA 
ENDROOT
BRANCH   2   8
HETATM    8  C   UNL     1     -10.892  16.981  68.121  1.00  0.00    -0.338 C  
BRANCH   8   9
HETATM    9  C   UNL     1     -10.386  15.572  68.197  1.00  0.00    -0.237 A  
HETATM   10  C   UNL     1      -9.361  15.115  69.002  1.00  0.00    -0.219 A  
HETATM   11  N   UNL     1      -9.184  13.779  68.761  1.00  0.00    -0.391 NA 
HETATM   12  H   UNL     1      -8.488  13.190  69.220  1.00  0.00     0.000 HD 
HETATM   13  C   UNL     1     -10.081  13.343  67.813  1.00  0.00    -0.232 A  
HETATM   14  C   UNL     1     -10.840  14.450  67.427  1.00  0.00    -0.293 A  
HETATM   15  C   UNL     1     -11.827  14.274  66.431  1.00  0.00    -0.427 A  
HETATM   16  C   UNL     1     -12.021  13.002  65.890  1.00  0.00    -0.435 A  
HETATM   17  C   UNL     1     -11.258  11.917  66.296  1.00  0.00    -0.392 A  
HETATM   18  O   UNL     1     -12.972  12.781  64.935  1.00  0.00    -0.805 OA 
HETATM   19  C   UNL     1     -10.263  12.069  67.266  1.00  0.00    -0.221 A  
HETATM   20  H   UNL     1     -13.104  11.915  64.567  1.00  0.00     0.000 HD 
ENDBRANCH   8   9
ENDBRANCH   2   8
TORSDOF 2
ENDMDL
MODEL       38
REMARK 921   NORMALIZED FREE ENERGY PREDICTED BY IDOCK:   -5.55 KCAL/MOL
REMARK 922        TOTAL FREE ENERGY PREDICTED BY IDOCK:   -6.50 KCAL/MOL
REMARK 923 INTER-LIGAND FREE ENERGY PREDICTED BY IDOCK:   -6.25 KCAL/MOL
REMARK 924 INTRA-LIGAND FREE ENERGY PREDICTED BY IDOCK:   -0.24 KCAL/MOL
REMARK 927      BINDING AFFINITY PREDICTED BY RF-SCORE:    0.00 PKD
ROOT
HETATM    1  N   UNL     1     -14.086  15.349  70.864  1.00  0.00    -0.864 NA 
HETATM    2  CA  UNL     1     -13.113  14.624  71.752  1.00  0.00    -0.341 C  
HETATM    3  H1  UNL     1     -15.037  15.377  71.230  1.00  0.00     0.000 HD 
HETATM    4  H2  UNL     1     -14.075  14.954  69.923  1.00  0.00     0.000 HD 
HETATM    5  OXT UNL     1     -12.339  15.076  74.038  1.00  0.00    -0.574 OA 
HETATM    6  C   UNL     1     -13.092  15.337  73.113  1.00  0.00    -0.518 C  
HETATM    7  O   UNL     1     -14.028  16.323  73.170  1.00  0.00    -0.451 OA 
ENDROOT
BRANCH   2   8
HETATM    8  C   UNL     1     -11.679  14.580  71.201  1.00  0.00    -0.292 C  
BRANCH   8   9
HETATM    9  C   UNL     1     -11.600  14.367  69.719  1.00  0.00    -0.352 A  
HETATM   10  C   UNL     1     -11.895  13.197  69.046  1.00  0.00    -0.313 A  
HETATM   11  N   UNL     1     -11.673  13.399  67.710  1.00  0.00    -0.339 NA 
HETATM   12  H   UNL     1     -11.809  12.696  66.983  1.00  0.00     0.000 HD 
HETATM   13  C   UNL     1     -11.240  14.686  67.488  1.00  0.00    -0.333 A  
HETATM   14  C   UNL     1     -11.169  15.316  68.733  1.00  0.00    -0.293 A  
HETATM   15  C   UNL     1     -10.720  16.654  68.785  1.00  0.00    -0.342 A  
HETATM   16  C   UNL     1     -10.388  17.302  67.594  1.00  0.00    -0.350 A  
HETATM   17  C   UNL     1     -10.474  16.657  66.369  1.00  0.00    -0.266 A  
HETATM   18  O   UNL     1      -9.963  18.599  67.594  1.00  0.00    -0.314 OA 
HETATM   19  C   UNL     1     -10.898  15.327  66.293  1.00  0.00    -0.312 A  
HETATM   20  H   UNL     1      -9.736  19.040  66.783  1.00  0.00     0.000 HD 
ENDBRANCH   8   9
ENDBRANCH   2   8
TORSDOF 2
ENDMDL
MODEL       39
REMARK 921   NORMALIZED FREE ENERGY PREDICTED BY IDOCK:   -5.51 KCAL/MOL
REMARK 922        TOTAL FREE ENERGY PREDICTED BY IDOCK:   -6.45 KCAL/MOL
REMARK 923 INTER-LIGAND FREE ENERGY PREDICTED BY IDOCK:   -6.22 KCAL/MOL
REMARK 924 INTRA-LIGAND FREE ENERGY PREDICTED BY IDOCK:   -0.24 KCAL/MOL
REMARK 927      BINDING AFFINITY PREDICTED BY RF-SCORE:    0.00 PKD
ROOT
HETATM    1  N   UNL     1     -12.229  10.491  69.027  1.00  0.00    -0.755 NA 
HETATM    2  CA  UNL     1     -10.867   9.855  69.004  1.00  0.00    -0.215 C  
HETATM    3  H1  UNL     1     -12.930   9.947  69.530  1.00  0.00     0.000 HD 
HETATM    4  H2  UNL     1     -12.546  10.695  68.079  1.00  0.00     0.000 HD 
HETATM    5  OXT UNL     1      -9.297   9.288  70.805  1.00  0.00    -0.241 OA 
HETATM    6  C   UNL     1     -10.400   9.680  70.457  1.00  0.00    -0.295 C  
HETATM    7  O   UNL     1     -11.379  10.028  71.336  1.00  0.00    -0.339 OA 
ENDROOT
BRANCH   2   8
HETATM    8  C   UNL     1      -9.810  10.673  68.245  1.00  0.00    -0.174 C  
BRANCH   8   9
HETATM    9  C   UNL     1      -9.912  10.571  66.753  1.00  0.00    -0.252 A  
HETATM   10  C   UNL     1      -9.212   9.697  65.945  1.00  0.00    -0.194 A  
HETATM   11  N   UNL     1      -9.565   9.934  64.643  1.00  0.00    -0.383 NA 
HETATM   12  H   UNL     1      -9.193   9.430  63.837  1.00  0.00     0.000 HD 
HETATM   13  C   UNL     1     -10.491  10.949  64.578  1.00  0.00    -0.323 A  
HETATM   14  C   UNL     1     -10.719  11.381  65.887  1.00  0.00    -0.311 A  
HETATM   15  C   UNL     1     -11.621  12.448  66.095  1.00  0.00    -0.452 A  
HETATM   16  C   UNL     1     -12.266  13.013  64.992  1.00  0.00    -0.453 A  
HETATM   17  C   UNL     1     -12.027  12.561  63.703  1.00  0.00    -0.621 A  
HETATM   18  O   UNL     1     -13.156  14.036  65.146  1.00  0.00    -0.776 OA 
HETATM   19  C   UNL     1     -11.126  11.518  63.469  1.00  0.00    -0.434 A  
HETATM   20  H   UNL     1     -13.595  14.420  64.396  1.00  0.00     0.000 HD 
ENDBRANCH   8   9
ENDBRANCH   2   8
TORSDOF 2
ENDMDL
MODEL       40
REMARK 921   NORMALIZED FREE ENERGY PREDICTED BY IDOCK:   -5.51 KCAL/MOL
REMARK 922        TOTAL FREE ENERGY PREDICTED BY IDOCK:   -6.45 KCAL/MOL
REMARK 923 INTER-LIGAND FREE ENERGY PREDICTED BY IDOCK:   -6.19 KCAL/MOL
REMARK 924 INTRA-LIGAND FREE ENERGY PREDICTED BY IDOCK:   -0.26 KCAL/MOL
REMARK 927      BINDING AFFINITY PREDICTED BY RF-SCORE:    0.00 PKD
ROOT
HETATM    1  N   UNL     1     -11.226   9.509  69.464  1.00  0.00    -0.422 NA 
HETATM    2  CA  UNL     1     -11.464  10.981  69.657  1.00  0.00    -0.303 C  
HETATM    3  H1  UNL     1     -10.811   9.048  70.273  1.00  0.00     0.000 HD 
HETATM    4  H2  UNL     1     -10.664   9.343  68.629  1.00  0.00     0.000 HD 
HETATM    5  OXT UNL     1     -12.892  12.212  71.229  1.00  0.00    -0.358 OA 
HETATM    6  C   UNL     1     -12.409  11.155  70.856  1.00  0.00    -0.399 C  
HETATM    7  O   UNL     1     -12.658   9.965  71.467  1.00  0.00    -0.353 OA 
ENDROOT
BRANCH   2   8
HETATM    8  C   UNL     1     -12.089  11.676  68.437  1.00  0.00    -0.105 C  
BRANCH   8   9
HETATM    9  C   UNL     1     -11.416  12.960  68.052  1.00  0.00    -0.361 A  
HETATM   10  C   UNL     1     -10.615  13.736  68.867  1.00  0.00    -0.205 A  
HETATM   11  N   UNL     1     -10.215  14.836  68.157  1.00  0.00    -0.225 NA 
HETATM   12  H   UNL     1      -9.617  15.579  68.520  1.00  0.00     0.000 HD 
HETATM   13  C   UNL     1     -10.736  14.798  66.884  1.00  0.00    -0.308 A  
HETATM   14  C   UNL     1     -11.508  13.637  66.792  1.00  0.00    -0.370 A  
HETATM   15  C   UNL     1     -12.182  13.373  65.579  1.00  0.00    -0.499 A  
HETATM   16  C   UNL     1     -12.033  14.265  64.515  1.00  0.00    -0.462 A  
HETATM   17  C   UNL     1     -11.254  15.408  64.630  1.00  0.00    -0.374 A  
HETATM   18  O   UNL     1     -12.654  14.044  63.319  1.00  0.00    -1.073 OA 
HETATM   19  C   UNL     1     -10.592  15.700  65.825  1.00  0.00    -0.374 A  
HETATM   20  H   UNL     1     -12.552  14.652  62.596  1.00  0.00     0.000 HD 
ENDBRANCH   8   9
ENDBRANCH   2   8
TORSDOF 2
ENDMDL
MODEL       41
REMARK 921   NORMALIZED FREE ENERGY PREDICTED BY IDOCK:   -5.49 KCAL/MOL
REMARK 922        TOTAL FREE ENERGY PREDICTED BY IDOCK:   -6.43 KCAL/MOL
REMARK 923 INTER-LIGAND FREE ENERGY PREDICTED BY IDOCK:   -6.17 KCAL/MOL
REMARK 924 INTRA-LIGAND FREE ENERGY PREDICTED BY IDOCK:   -0.25 KCAL/MOL
REMARK 927      BINDING AFFINITY PREDICTED BY RF-SCORE:    0.00 PKD
ROOT
HETATM    1  N   UNL     1     -10.971   8.809  67.845  1.00  0.00    -0.491 NA 
HETATM    2  CA  UNL     1     -11.370  10.248  68.017  1.00  0.00    -0.146 C  
HETATM    3  H1  UNL     1     -11.358   8.370  67.009  1.00  0.00     0.000 HD 
HETATM    4  H2  UNL     1     -11.208   8.268  68.676  1.00  0.00     0.000 HD 
HETATM    5  OXT UNL     1     -10.946  12.237  66.642  1.00  0.00    -0.255 OA 
HETATM    6  C   UNL     1     -10.882  11.026  66.786  1.00  0.00    -0.251 C  
HETATM    7  O   UNL     1     -10.349  10.192  65.852  1.00  0.00    -0.229 OA 
ENDROOT
BRANCH   2   8
HETATM    8  C   UNL     1     -10.788  10.909  69.276  1.00  0.00    -0.286 C  
BRANCH   8   9
HETATM    9  C   UNL     1     -11.791  11.142  70.365  1.00  0.00    -0.462 A  
HETATM   10  C   UNL     1     -12.354  10.175  71.176  1.00  0.00    -0.385 A  
HETATM   11  N   UNL     1     -13.241  10.784  72.023  1.00  0.00    -0.546 NA 
HETATM   12  H   UNL     1     -13.800  10.302  72.727  1.00  0.00     0.000 HD 
HETATM   13  C   UNL     1     -13.269  12.140  71.789  1.00  0.00    -0.320 A  
HETATM   14  C   UNL     1     -12.380  12.394  70.742  1.00  0.00    -0.377 A  
HETATM   15  C   UNL     1     -12.243  13.724  70.285  1.00  0.00    -0.429 A  
HETATM   16  C   UNL     1     -12.980  14.732  70.909  1.00  0.00    -0.364 A  
HETATM   17  C   UNL     1     -13.851  14.454  71.952  1.00  0.00    -0.549 A  
HETATM   18  O   UNL     1     -12.869  16.033  70.510  1.00  0.00    -0.586 OA 
HETATM   19  C   UNL     1     -14.018  13.144  72.410  1.00  0.00    -0.497 A  
HETATM   20  H   UNL     1     -13.371  16.720  70.935  1.00  0.00     0.000 HD 
ENDBRANCH   8   9
ENDBRANCH   2   8
TORSDOF 2
ENDMDL
MODEL       42
REMARK 921   NORMALIZED FREE ENERGY PREDICTED BY IDOCK:   -5.48 KCAL/MOL
REMARK 922        TOTAL FREE ENERGY PREDICTED BY IDOCK:   -6.41 KCAL/MOL
REMARK 923 INTER-LIGAND FREE ENERGY PREDICTED BY IDOCK:   -6.21 KCAL/MOL
REMARK 924 INTRA-LIGAND FREE ENERGY PREDICTED BY IDOCK:   -0.20 KCAL/MOL
REMARK 927      BINDING AFFINITY PREDICTED BY RF-SCORE:    0.00 PKD
ROOT
HETATM    1  N   UNL     1     -12.372  14.165  63.820  1.00  0.00    -1.027 NA 
HETATM    2  CA  UNL     1     -11.493  13.468  64.820  1.00  0.00    -0.346 C  
HETATM    3  H1  UNL     1     -11.983  14.194  62.878  1.00  0.00     0.000 HD 
HETATM    4  H2  UNL     1     -12.606  15.105  64.141  1.00  0.00     0.000 HD 
HETATM    5  OXT UNL     1     -10.695  11.151  64.959  1.00  0.00    -0.289 OA 
HETATM    6  C   UNL     1     -11.275  12.026  64.337  1.00  0.00    -0.344 C  
HETATM    7  O   UNL     1     -11.823  11.829  63.107  1.00  0.00    -0.320 OA 
ENDROOT
BRANCH   2   8
HETATM    8  C   UNL     1     -12.079  13.425  66.241  1.00  0.00    -0.475 C  
BRANCH   8   9
HETATM    9  C   UNL     1     -11.607  14.534  67.132  1.00  0.00    -0.406 A  
HETATM   10  C   UNL     1     -10.882  15.642  66.740  1.00  0.00    -0.277 A  
HETATM   11  N   UNL     1     -10.625  16.405  67.847  1.00  0.00    -0.310 NA 
HETATM   12  H   UNL     1     -10.101  17.280  67.844  1.00  0.00     0.000 HD 
HETATM   13  C   UNL     1     -11.174  15.821  68.965  1.00  0.00    -0.319 A  
HETATM   14  C   UNL     1     -11.786  14.636  68.551  1.00  0.00    -0.348 A  
HETATM   15  C   UNL     1     -12.409  13.824  69.525  1.00  0.00    -0.258 A  
HETATM   16  C   UNL     1     -12.410  14.247  70.856  1.00  0.00    -0.359 A  
HETATM   17  C   UNL     1     -11.801  15.432  71.241  1.00  0.00    -0.437 A  
HETATM   18  O   UNL     1     -13.011  13.502  71.830  1.00  0.00    -0.351 OA 
HETATM   19  C   UNL     1     -11.162  16.244  70.299  1.00  0.00    -0.343 A  
HETATM   20  H   UNL     1     -13.012  13.790  72.736  1.00  0.00     0.000 HD 
ENDBRANCH   8   9
ENDBRANCH   2   8
TORSDOF 2
ENDMDL
MODEL       43
REMARK 921   NORMALIZED FREE ENERGY PREDICTED BY IDOCK:   -5.46 KCAL/MOL
REMARK 922        TOTAL FREE ENERGY PREDICTED BY IDOCK:   -6.40 KCAL/MOL
REMARK 923 INTER-LIGAND FREE ENERGY PREDICTED BY IDOCK:   -6.16 KCAL/MOL
REMARK 924 INTRA-LIGAND FREE ENERGY PREDICTED BY IDOCK:   -0.24 KCAL/MOL
REMARK 927      BINDING AFFINITY PREDICTED BY RF-SCORE:    0.00 PKD
ROOT
HETATM    1  N   UNL     1      -9.486  14.412  66.172  1.00  0.00    -0.450 NA 
HETATM    2  CA  UNL     1     -10.592  14.885  65.270  1.00  0.00    -0.401 C  
HETATM    3  H1  UNL     1      -8.551  14.622  65.823  1.00  0.00     0.000 HD 
HETATM    4  H2  UNL     1      -9.582  13.415  66.365  1.00  0.00     0.000 HD 
HETATM    5  OXT UNL     1     -11.250  17.132  64.531  1.00  0.00    -1.104 OA 
HETATM    6  C   UNL     1     -10.459  16.408  65.113  1.00  0.00    -0.192 C  
HETATM    7  O   UNL     1      -9.332  16.870  65.719  1.00  0.00    -0.521 OA 
ENDROOT
BRANCH   2   8
HETATM    8  C   UNL     1     -12.002  14.569  65.795  1.00  0.00    -0.309 C  
BRANCH   8   9
HETATM    9  C   UNL     1     -12.100  14.509  67.289  1.00  0.00    -0.298 A  
HETATM   10  C   UNL     1     -12.281  15.583  68.138  1.00  0.00     0.376 A  
HETATM   11  N   UNL     1     -12.291  15.119  69.426  1.00  0.00    -0.577 NA 
HETATM   12  H   UNL     1     -12.406  15.702  70.256  1.00  0.00     0.000 HD 
HETATM   13  C   UNL     1     -12.124  13.754  69.442  1.00  0.00    -0.328 A  
HETATM   14  C   UNL     1     -11.985  13.342  68.115  1.00  0.00    -0.356 A  
HETATM   15  C   UNL     1     -11.771  11.970  67.855  1.00  0.00    -0.393 A  
HETATM   16  C   UNL     1     -11.730  11.078  68.929  1.00  0.00    -0.330 A  
HETATM   17  C   UNL     1     -11.877  11.511  70.238  1.00  0.00    -0.431 A  
HETATM   18  O   UNL     1     -11.539   9.741  68.725  1.00  0.00    -0.481 OA 
HETATM   19  C   UNL     1     -12.072  12.866  70.522  1.00  0.00    -0.364 A  
HETATM   20  H   UNL     1     -11.511   9.134  69.456  1.00  0.00     0.000 HD 
ENDBRANCH   8   9
ENDBRANCH   2   8
TORSDOF 2
ENDMDL
MODEL       44
REMARK 921   NORMALIZED FREE ENERGY PREDICTED BY IDOCK:   -5.46 KCAL/MOL
REMARK 922        TOTAL FREE ENERGY PREDICTED BY IDOCK:   -6.39 KCAL/MOL
REMARK 923 INTER-LIGAND FREE ENERGY PREDICTED BY IDOCK:   -6.16 KCAL/MOL
REMARK 924 INTRA-LIGAND FREE ENERGY PREDICTED BY IDOCK:   -0.23 KCAL/MOL
REMARK 927      BINDING AFFINITY PREDICTED BY RF-SCORE:    0.00 PKD
ROOT
HETATM    1  N   UNL     1     -12.656  14.281  63.546  1.00  0.00    -1.015 NA 
HETATM    2  CA  UNL     1     -11.873  13.750  64.715  1.00  0.00    -0.391 C  
HETATM    3  H1  UNL     1     -12.220  14.102  62.642  1.00  0.00     0.000 HD 
HETATM    4  H2  UNL     1     -12.844  15.277  63.663  1.00  0.00     0.000 HD 
HETATM    5  OXT UNL     1     -11.233  11.467  65.351  1.00  0.00    -0.245 OA 
HETATM    6  C   UNL     1     -11.725  12.232  64.536  1.00  0.00    -0.353 C  
HETATM    7  O   UNL     1     -12.223  11.824  63.338  1.00  0.00    -0.511 OA 
ENDROOT
BRANCH   2   8
HETATM    8  C   UNL     1     -12.530  14.020  66.078  1.00  0.00    -0.489 C  
BRANCH   8   9
HETATM    9  C   UNL     1     -11.556  14.314  67.179  1.00  0.00    -0.402 A  
HETATM   10  C   UNL     1     -11.399  13.589  68.344  1.00  0.00    -0.292 A  
HETATM   11  N   UNL     1     -10.431  14.192  69.102  1.00  0.00    -0.394 NA 
HETATM   12  H   UNL     1     -10.118  13.865  70.017  1.00  0.00     0.000 HD 
HETATM   13  C   UNL     1      -9.941  15.302  68.453  1.00  0.00    -0.220 A  
HETATM   14  C   UNL     1     -10.639  15.415  67.249  1.00  0.00    -0.294 A  
HETATM   15  C   UNL     1     -10.340  16.502  66.398  1.00  0.00    -0.316 A  
HETATM   16  C   UNL     1      -9.347  17.406  66.780  1.00  0.00    -0.268 A  
HETATM   17  C   UNL     1      -8.663  17.268  67.980  1.00  0.00    -0.231 A  
HETATM   18  O   UNL     1      -9.015  18.464  65.984  1.00  0.00    -0.497 OA 
HETATM   19  C   UNL     1      -8.953  16.211  68.847  1.00  0.00    -0.247 A  
HETATM   20  H   UNL     1      -8.339  19.079  66.245  1.00  0.00     0.000 HD 
ENDBRANCH   8   9
ENDBRANCH   2   8
TORSDOF 2
ENDMDL
MODEL       45
REMARK 921   NORMALIZED FREE ENERGY PREDICTED BY IDOCK:   -5.46 KCAL/MOL
REMARK 922        TOTAL FREE ENERGY PREDICTED BY IDOCK:   -6.39 KCAL/MOL
REMARK 923 INTER-LIGAND FREE ENERGY PREDICTED BY IDOCK:   -6.17 KCAL/MOL
REMARK 924 INTRA-LIGAND FREE ENERGY PREDICTED BY IDOCK:   -0.23 KCAL/MOL
REMARK 927      BINDING AFFINITY PREDICTED BY RF-SCORE:    0.00 PKD
ROOT
HETATM    1  N   UNL     1      -6.521  18.901  67.667  1.00  0.00    -0.201 NA 
HETATM    2  CA  UNL     1      -7.988  18.916  67.337  1.00  0.00    -0.246 C  
HETATM    3  H1  UNL     1      -5.940  19.393  66.988  1.00  0.00     0.000 HD 
HETATM    4  H2  UNL     1      -6.191  17.944  67.794  1.00  0.00     0.000 HD 
HETATM    5  OXT UNL     1      -9.597  20.758  67.129  1.00  0.00    -0.433 OA 
HETATM    6  C   UNL     1      -8.445  20.381  67.274  1.00  0.00    -0.331 C  
HETATM    7  O   UNL     1      -7.393  21.234  67.408  1.00  0.00    -0.484 OA 
ENDROOT
BRANCH   2   8
HETATM    8  C   UNL     1      -8.863  18.174  68.360  1.00  0.00    -0.305 C  
BRANCH   8   9
HETATM    9  C   UNL     1      -9.065  16.720  68.053  1.00  0.00    -0.228 A  
HETATM   10  C   UNL     1      -8.599  15.657  68.801  1.00  0.00    -0.193 A  
HETATM   11  N   UNL     1      -8.967  14.495  68.177  1.00  0.00    -0.175 NA 
HETATM   12  H   UNL     1      -8.748  13.557  68.514  1.00  0.00     0.000 HD 
HETATM   13  C   UNL     1      -9.673  14.774  67.030  1.00  0.00    -0.237 A  
HETATM   14  C   UNL     1      -9.739  16.164  66.916  1.00  0.00    -0.246 A  
HETATM   15  C   UNL     1     -10.397  16.717  65.794  1.00  0.00    -0.338 A  
HETATM   16  C   UNL     1     -10.974  15.856  64.858  1.00  0.00    -0.411 A  
HETATM   17  C   UNL     1     -10.901  14.478  64.998  1.00  0.00    -0.425 A  
HETATM   18  O   UNL     1     -11.632  16.345  63.766  1.00  0.00    -1.605 OA 
HETATM   19  C   UNL     1     -10.240  13.907  66.089  1.00  0.00    -0.307 A  
HETATM   20  H   UNL     1     -12.025  15.759  63.129  1.00  0.00     0.000 HD 
ENDBRANCH   8   9
ENDBRANCH   2   8
TORSDOF 2
ENDMDL
MODEL       46
REMARK 921   NORMALIZED FREE ENERGY PREDICTED BY IDOCK:   -5.42 KCAL/MOL
REMARK 922        TOTAL FREE ENERGY PREDICTED BY IDOCK:   -6.34 KCAL/MOL
REMARK 923 INTER-LIGAND FREE ENERGY PREDICTED BY IDOCK:   -6.11 KCAL/MOL
REMARK 924 INTRA-LIGAND FREE ENERGY PREDICTED BY IDOCK:   -0.24 KCAL/MOL
REMARK 927      BINDING AFFINITY PREDICTED BY RF-SCORE:    0.00 PKD
ROOT
HETATM    1  N   UNL     1     -10.121  15.393  67.239  1.00  0.00    -0.236 NA 
HETATM    2  CA  UNL     1     -10.512  15.267  65.793  1.00  0.00    -0.349 C  
HETATM    3  H1  UNL     1      -9.334  16.020  67.401  1.00  0.00     0.000 HD 
HETATM    4  H2  UNL     1      -9.937  14.474  67.642  1.00  0.00     0.000 HD 
HETATM    5  OXT UNL     1     -11.350  16.916  64.178  1.00  0.00    -1.208 OA 
HETATM    6  C   UNL     1     -10.888  16.666  65.280  1.00  0.00    -0.183 C  
HETATM    7  O   UNL     1     -10.648  17.619  66.221  1.00  0.00    -0.315 OA 
ENDROOT
BRANCH   2   8
HETATM    8  C   UNL     1     -11.698  14.321  65.548  1.00  0.00    -0.353 C  
BRANCH   8   9
HETATM    9  C   UNL     1     -11.373  13.144  64.677  1.00  0.00    -0.363 A  
HETATM   10  C   UNL     1     -11.992  12.815  63.487  1.00  0.00    -0.555 A  
HETATM   11  N   UNL     1     -11.430  11.661  63.013  1.00  0.00    -0.813 NA 
HETATM   12  H   UNL     1     -11.702  11.191  62.148  1.00  0.00     0.000 HD 
HETATM   13  C   UNL     1     -10.445  11.224  63.868  1.00  0.00    -0.391 A  
HETATM   14  C   UNL     1     -10.396  12.127  64.933  1.00  0.00    -0.321 A  
HETATM   15  C   UNL     1      -9.473  11.887  65.976  1.00  0.00    -0.241 A  
HETATM   16  C   UNL     1      -8.634  10.774  65.893  1.00  0.00    -0.179 A  
HETATM   17  C   UNL     1      -8.698   9.896  64.821  1.00  0.00    -0.210 A  
HETATM   18  O   UNL     1      -7.718  10.510  66.870  1.00  0.00    -0.107 OA 
HETATM   19  C   UNL     1      -9.614  10.101  63.785  1.00  0.00    -0.285 A  
HETATM   20  H   UNL     1      -7.147   9.753  66.813  1.00  0.00     0.000 HD 
ENDBRANCH   8   9
ENDBRANCH   2   8
TORSDOF 2
ENDMDL
MODEL       47
REMARK 921   NORMALIZED FREE ENERGY PREDICTED BY IDOCK:   -5.40 KCAL/MOL
REMARK 922        TOTAL FREE ENERGY PREDICTED BY IDOCK:   -6.33 KCAL/MOL
REMARK 923 INTER-LIGAND FREE ENERGY PREDICTED BY IDOCK:   -6.06 KCAL/MOL
REMARK 924 INTRA-LIGAND FREE ENERGY PREDICTED BY IDOCK:   -0.27 KCAL/MOL
REMARK 927      BINDING AFFINITY PREDICTED BY RF-SCORE:    0.00 PKD
ROOT
HETATM    1  N   UNL     1      -7.923  21.236  67.290  1.00  0.00    -0.634 NA 
HETATM    2  CA  UNL     1      -8.053  19.776  66.956  1.00  0.00    -0.293 C  
HETATM    3  H1  UNL     1      -6.978  21.516  67.556  1.00  0.00     0.000 HD 
HETATM    4  H2  UNL     1      -8.592  21.500  68.013  1.00  0.00     0.000 HD 
HETATM    5  OXT UNL     1      -7.031  18.405  65.194  1.00  0.00    -0.501 OA 
HETATM    6  C   UNL     1      -7.106  19.470  65.786  1.00  0.00    -0.298 C  
HETATM    7  O   UNL     1      -6.343  20.552  65.472  1.00  0.00    -0.225 OA 
ENDROOT
BRANCH   2   8
HETATM    8  C   UNL     1      -9.476  19.353  66.556  1.00  0.00    -0.427 C  
BRANCH   8   9
HETATM    9  C   UNL     1     -10.001  18.174  67.319  1.00  0.00    -0.336 A  
HETATM   10  C   UNL     1     -10.087  18.064  68.693  1.00  0.00    -0.394 A  
HETATM   11  N   UNL     1     -10.593  16.828  68.997  1.00  0.00    -0.330 NA 
HETATM   12  H   UNL     1     -10.758  16.482  69.942  1.00  0.00     0.000 HD 
HETATM   13  C   UNL     1     -10.849  16.122  67.844  1.00  0.00    -0.332 A  
HETATM   14  C   UNL     1     -10.473  16.935  66.773  1.00  0.00    -0.260 A  
HETATM   15  C   UNL     1     -10.611  16.426  65.462  1.00  0.00    -0.346 A  
HETATM   16  C   UNL     1     -11.138  15.144  65.287  1.00  0.00    -0.383 A  
HETATM   17  C   UNL     1     -11.511  14.359  66.368  1.00  0.00    -0.365 A  
HETATM   18  O   UNL     1     -11.303  14.616  64.039  1.00  0.00    -0.588 OA 
HETATM   19  C   UNL     1     -11.367  14.833  67.675  1.00  0.00    -0.352 A  
HETATM   20  H   UNL     1     -11.661  13.744  63.920  1.00  0.00     0.000 HD 
ENDBRANCH   8   9
ENDBRANCH   2   8
TORSDOF 2
ENDMDL
MODEL       48
REMARK 921   NORMALIZED FREE ENERGY PREDICTED BY IDOCK:   -5.40 KCAL/MOL
REMARK 922        TOTAL FREE ENERGY PREDICTED BY IDOCK:   -6.33 KCAL/MOL
REMARK 923 INTER-LIGAND FREE ENERGY PREDICTED BY IDOCK:   -6.07 KCAL/MOL
REMARK 924 INTRA-LIGAND FREE ENERGY PREDICTED BY IDOCK:   -0.26 KCAL/MOL
REMARK 927      BINDING AFFINITY PREDICTED BY RF-SCORE:    0.00 PKD
ROOT
HETATM    1  N   UNL     1     -10.733  10.927  63.043  1.00  0.00    -0.746 NA 
HETATM    2  CA  UNL     1      -9.819  11.171  64.212  1.00  0.00    -0.286 C  
HETATM    3  H1  UNL     1     -10.250  10.872  62.146  1.00  0.00     0.000 HD 
HETATM    4  H2  UNL     1     -11.471  11.631  63.011  1.00  0.00     0.000 HD 
HETATM    5  OXT UNL     1      -7.983   9.843  65.155  1.00  0.00    -0.126 OA 
HETATM    6  C   UNL     1      -8.807  10.018  64.272  1.00  0.00    -0.220 C  
HETATM    7  O   UNL     1      -8.940   9.186  63.203  1.00  0.00    -0.162 OA 
ENDROOT
BRANCH   2   8
HETATM    8  C   UNL     1     -10.546  11.255  65.564  1.00  0.00    -0.306 C  
BRANCH   8   9
HETATM    9  C   UNL     1     -10.187  12.461  66.378  1.00  0.00    -0.253 A  
HETATM   10  C   UNL     1      -9.622  12.455  67.639  1.00  0.00    -0.193 A  
HETATM   11  N   UNL     1      -9.473  13.752  68.052  1.00  0.00    -0.201 NA 
HETATM   12  H   UNL     1      -9.082  14.037  68.951  1.00  0.00     0.000 HD 
HETATM   13  C   UNL     1      -9.925  14.616  67.082  1.00  0.00    -0.240 A  
HETATM   14  C   UNL     1     -10.395  13.835  66.023  1.00  0.00    -0.311 A  
HETATM   15  C   UNL     1     -10.945  14.489  64.898  1.00  0.00    -0.421 A  
HETATM   16  C   UNL     1     -10.977  15.884  64.876  1.00  0.00    -0.411 A  
HETATM   17  C   UNL     1     -10.498  16.638  65.938  1.00  0.00    -0.324 A  
HETATM   18  O   UNL     1     -11.487  16.559  63.805  1.00  0.00    -1.615 OA 
HETATM   19  C   UNL     1      -9.966  16.014  67.070  1.00  0.00    -0.257 A  
HETATM   20  H   UNL     1     -11.509  17.509  63.790  1.00  0.00     0.000 HD 
ENDBRANCH   8   9
ENDBRANCH   2   8
TORSDOF 2
ENDMDL
MODEL       49
REMARK 921   NORMALIZED FREE ENERGY PREDICTED BY IDOCK:   -5.39 KCAL/MOL
REMARK 922        TOTAL FREE ENERGY PREDICTED BY IDOCK:   -6.32 KCAL/MOL
REMARK 923 INTER-LIGAND FREE ENERGY PREDICTED BY IDOCK:   -6.07 KCAL/MOL
REMARK 924 INTRA-LIGAND FREE ENERGY PREDICTED BY IDOCK:   -0.25 KCAL/MOL
REMARK 927      BINDING AFFINITY PREDICTED BY RF-SCORE:    0.00 PKD
ROOT
HETATM    1  N   UNL     1      -8.416  10.769  69.398  1.00  0.00    -0.373 NA 
HETATM    2  CA  UNL     1      -9.655  10.018  69.799  1.00  0.00    -0.216 C  
HETATM    3  H1  UNL     1      -7.547  10.313  69.678  1.00  0.00     0.000 HD 
HETATM    4  H2  UNL     1      -8.447  11.726  69.749  1.00  0.00     0.000 HD 
HETATM    5  OXT UNL     1     -10.491   7.795  69.175  1.00  0.00    -0.216 OA 
HETATM    6  C   UNL     1      -9.599   8.629  69.145  1.00  0.00    -0.163 C  
HETATM    7  O   UNL     1      -8.415   8.430  68.505  1.00  0.00    -0.129 OA 
ENDROOT
BRANCH   2   8
HETATM    8  C   UNL     1     -10.963  10.705  69.378  1.00  0.00    -0.304 C  
BRANCH   8   9
HETATM    9  C   UNL     1     -11.875  11.038  70.521  1.00  0.00    -0.464 A  
HETATM   10  C   UNL     1     -12.365  10.150  71.458  1.00  0.00    -0.408 A  
HETATM   11  N   UNL     1     -13.181  10.836  72.317  1.00  0.00    -0.567 NA 
HETATM   12  H   UNL     1     -13.679  10.421  73.106  1.00  0.00     0.000 HD 
HETATM   13  C   UNL     1     -13.234  12.165  71.966  1.00  0.00    -0.391 A  
HETATM   14  C   UNL     1     -12.435  12.321  70.831  1.00  0.00    -0.371 A  
HETATM   15  C   UNL     1     -12.340  13.604  70.247  1.00  0.00    -0.392 A  
HETATM   16  C   UNL     1     -13.027  14.668  70.837  1.00  0.00    -0.365 A  
HETATM   17  C   UNL     1     -13.809  14.487  71.969  1.00  0.00    -0.561 A  
HETATM   18  O   UNL     1     -12.954  15.927  70.316  1.00  0.00    -0.673 OA 
HETATM   19  C   UNL     1     -13.933  13.225  72.555  1.00  0.00    -0.476 A  
HETATM   20  H   UNL     1     -13.421  16.651  70.717  1.00  0.00     0.000 HD 
ENDBRANCH   8   9
ENDBRANCH   2   8
TORSDOF 2
ENDMDL
MODEL       50
REMARK 921   NORMALIZED FREE ENERGY PREDICTED BY IDOCK:   -5.36 KCAL/MOL
REMARK 922        TOTAL FREE ENERGY PREDICTED BY IDOCK:   -6.28 KCAL/MOL
REMARK 923 INTER-LIGAND FREE ENERGY PREDICTED BY IDOCK:   -6.02 KCAL/MOL
REMARK 924 INTRA-LIGAND FREE ENERGY PREDICTED BY IDOCK:   -0.26 KCAL/MOL
REMARK 927      BINDING AFFINITY PREDICTED BY RF-SCORE:    0.00 PKD
ROOT
HETATM    1  N   UNL     1     -12.460  14.512  63.631  1.00  0.00    -1.078 NA 
HETATM    2  CA  UNL     1     -11.648  13.921  64.749  1.00  0.00    -0.374 C  
HETATM    3  H1  UNL     1     -12.510  13.923  62.800  1.00  0.00     0.000 HD 
HETATM    4  H2  UNL     1     -12.116  15.442  63.390  1.00  0.00     0.000 HD 
HETATM    5  OXT UNL     1     -11.943  11.880  66.080  1.00  0.00    -0.537 OA 
HETATM    6  C   UNL     1     -12.285  12.579  65.140  1.00  0.00    -0.448 C  
HETATM    7  O   UNL     1     -13.306  12.253  64.301  1.00  0.00    -0.777 OA 
ENDROOT
BRANCH   2   8
HETATM    8  C   UNL     1     -11.572  14.810  66.001  1.00  0.00    -0.286 C  
BRANCH   8   9
HETATM    9  C   UNL     1     -10.315  15.620  66.101  1.00  0.00    -0.329 A  
HETATM   10  C   UNL     1     -10.125  16.896  65.606  1.00  0.00    -0.150 A  
HETATM   11  N   UNL     1      -8.838  17.277  65.876  1.00  0.00    -0.541 NA 
HETATM   12  H   UNL     1      -8.429  18.176  65.616  1.00  0.00     0.000 HD 
HETATM   13  C   UNL     1      -8.175  16.275  66.546  1.00  0.00    -0.309 A  
HETATM   14  C   UNL     1      -9.071  15.214  66.689  1.00  0.00    -0.310 A  
HETATM   15  C   UNL     1      -8.623  14.037  67.328  1.00  0.00    -0.228 A  
HETATM   16  C   UNL     1      -7.313  13.987  67.811  1.00  0.00    -0.167 A  
HETATM   17  C   UNL     1      -6.444  15.058  67.661  1.00  0.00    -0.175 A  
HETATM   18  O   UNL     1      -6.840  12.875  68.447  1.00  0.00    -0.080 OA 
HETATM   19  C   UNL     1      -6.858  16.227  67.017  1.00  0.00    -0.235 A  
HETATM   20  H   UNL     1      -5.949  12.842  68.775  1.00  0.00     0.000 HD 
ENDBRANCH   8   9
ENDBRANCH   2   8
TORSDOF 2
ENDMDL
MODEL       51
REMARK 921   NORMALIZED FREE ENERGY PREDICTED BY IDOCK:   -5.36 KCAL/MOL
REMARK 922        TOTAL FREE ENERGY PREDICTED BY IDOCK:   -6.28 KCAL/MOL
REMARK 923 INTER-LIGAND FREE ENERGY PREDICTED BY IDOCK:   -6.15 KCAL/MOL
REMARK 924 INTRA-LIGAND FREE ENERGY PREDICTED BY IDOCK:   -0.13 KCAL/MOL
REMARK 927      BINDING AFFINITY PREDICTED BY RF-SCORE:    0.00 PKD
ROOT
HETATM    1  N   UNL     1     -10.280  14.127  68.269  1.00  0.00    -0.237 NA 
HETATM    2  CA  UNL     1      -9.580  15.395  67.865  1.00  0.00    -0.206 C  
HETATM    3  H1  UNL     1     -10.566  14.107  69.248  1.00  0.00     0.000 HD 
HETATM    4  H2  UNL     1      -9.706  13.314  68.047  1.00  0.00     0.000 HD 
HETATM    5  OXT UNL     1     -10.335  17.730  67.808  1.00  0.00    -0.346 OA 
HETATM    6  C   UNL     1     -10.540  16.568  68.118  1.00  0.00    -0.329 C  
HETATM    7  O   UNL     1     -11.678  16.151  68.737  1.00  0.00    -0.364 OA 
ENDROOT
BRANCH   2   8
HETATM    8  C   UNL     1      -9.149  15.425  66.390  1.00  0.00    -0.350 C  
BRANCH   8   9
HETATM    9  C   UNL     1     -10.245  15.092  65.424  1.00  0.00    -0.402 A  
HETATM   10  C   UNL     1     -11.150  15.982  64.880  1.00  0.00    -0.370 A  
HETATM   11  N   UNL     1     -12.006  15.286  64.068  1.00  0.00    -0.934 NA 
HETATM   12  H   UNL     1     -12.776  15.699  63.541  1.00  0.00     0.000 HD 
HETATM   13  C   UNL     1     -11.677  13.950  64.063  1.00  0.00    -0.288 A  
HETATM   14  C   UNL     1     -10.584  13.794  64.918  1.00  0.00    -0.427 A  
HETATM   15  C   UNL     1     -10.063  12.495  65.112  1.00  0.00    -0.266 A  
HETATM   16  C   UNL     1     -10.642  11.425  64.427  1.00  0.00    -0.341 A  
HETATM   17  C   UNL     1     -11.724  11.608  63.578  1.00  0.00    -0.384 A  
HETATM   18  O   UNL     1     -10.164  10.155  64.573  1.00  0.00    -0.332 OA 
HETATM   19  C   UNL     1     -12.268  12.880  63.383  1.00  0.00    -0.574 A  
HETATM   20  H   UNL     1     -10.559   9.427  64.107  1.00  0.00     0.000 HD 
ENDBRANCH   8   9
ENDBRANCH   2   8
TORSDOF 2
ENDMDL
MODEL       52
REMARK 921   NORMALIZED FREE ENERGY PREDICTED BY IDOCK:   -5.35 KCAL/MOL
REMARK 922        TOTAL FREE ENERGY PREDICTED BY IDOCK:   -6.27 KCAL/MOL
REMARK 923 INTER-LIGAND FREE ENERGY PREDICTED BY IDOCK:   -6.02 KCAL/MOL
REMARK 924 INTRA-LIGAND FREE ENERGY PREDICTED BY IDOCK:   -0.25 KCAL/MOL
REMARK 927      BINDING AFFINITY PREDICTED BY RF-SCORE:    0.00 PKD
ROOT
HETATM    1  N   UNL     1      -9.075  16.611  68.336  1.00  0.00    -0.218 NA 
HETATM    2  CA  UNL     1      -9.919  15.794  67.397  1.00  0.00    -0.237 C  
HETATM    3  H1  UNL     1      -8.078  16.587  68.122  1.00  0.00     0.000 HD 
HETATM    4  H2  UNL     1      -9.242  16.332  69.303  1.00  0.00     0.000 HD 
HETATM    5  OXT UNL     1     -10.319  15.975  64.982  1.00  0.00    -0.543 OA 
HETATM    6  C   UNL     1      -9.711  16.339  65.976  1.00  0.00    -0.339 C  
HETATM    7  O   UNL     1      -8.750  17.302  65.951  1.00  0.00    -0.528 OA 
ENDROOT
BRANCH   2   8
HETATM    8  C   UNL     1     -11.421  15.829  67.719  1.00  0.00    -0.175 C  
BRANCH   8   9
HETATM    9  C   UNL     1     -11.795  15.105  68.978  1.00  0.00    -0.331 A  
HETATM   10  C   UNL     1     -12.093  15.686  70.194  1.00  0.00    -0.377 A  
HETATM   11  N   UNL     1     -12.356  14.690  71.096  1.00  0.00    -0.313 NA 
HETATM   12  H   UNL     1     -12.602  14.839  72.075  1.00  0.00     0.000 HD 
HETATM   13  C   UNL     1     -12.241  13.459  70.493  1.00  0.00    -0.352 A  
HETATM   14  C   UNL     1     -11.874  13.686  69.165  1.00  0.00    -0.394 A  
HETATM   15  C   UNL     1     -11.663  12.569  68.326  1.00  0.00    -0.390 A  
HETATM   16  C   UNL     1     -11.851  11.287  68.847  1.00  0.00    -0.345 A  
HETATM   17  C   UNL     1     -12.222  11.089  70.169  1.00  0.00    -0.424 A  
HETATM   18  O   UNL     1     -11.672  10.179  68.070  1.00  0.00    -0.685 OA 
HETATM   19  C   UNL     1     -12.420  12.177  71.024  1.00  0.00    -0.369 A  
HETATM   20  H   UNL     1     -11.799   9.306  68.425  1.00  0.00     0.000 HD 
ENDBRANCH   8   9
ENDBRANCH   2   8
TORSDOF 2
ENDMDL
MODEL       53
REMARK 921   NORMALIZED FREE ENERGY PREDICTED BY IDOCK:   -5.34 KCAL/MOL
REMARK 922        TOTAL FREE ENERGY PREDICTED BY IDOCK:   -6.26 KCAL/MOL
REMARK 923 INTER-LIGAND FREE ENERGY PREDICTED BY IDOCK:   -6.00 KCAL/MOL
REMARK 924 INTRA-LIGAND FREE ENERGY PREDICTED BY IDOCK:   -0.26 KCAL/MOL
REMARK 927      BINDING AFFINITY PREDICTED BY RF-SCORE:    0.00 PKD
ROOT
HETATM    1  N   UNL     1     -13.510  11.214  72.237  1.00  0.00    -0.527 NA 
HETATM    2  CA  UNL     1     -13.112  10.221  71.181  1.00  0.00    -0.390 C  
HETATM    3  H1  UNL     1     -14.446  11.063  72.614  1.00  0.00     0.000 HD 
HETATM    4  H2  UNL     1     -13.412  12.167  71.889  1.00  0.00     0.000 HD 
HETATM    5  OXT UNL     1     -12.811   7.786  71.258  1.00  0.00    -0.303 OA 
HETATM    6  C   UNL     1     -13.169   8.817  71.803  1.00  0.00    -0.367 C  
HETATM    7  O   UNL     1     -13.670   8.857  73.068  1.00  0.00    -0.264 OA 
ENDROOT
BRANCH   2   8
HETATM    8  C   UNL     1     -11.702  10.447  70.612  1.00  0.00    -0.444 C  
BRANCH   8   9
HETATM    9  C   UNL     1     -11.668  11.308  69.385  1.00  0.00    -0.409 A  
HETATM   10  C   UNL     1     -11.547  10.866  68.082  1.00  0.00    -0.241 A  
HETATM   11  N   UNL     1     -11.528  11.957  67.255  1.00  0.00    -0.415 NA 
HETATM   12  H   UNL     1     -11.443  11.917  66.239  1.00  0.00     0.000 HD 
HETATM   13  C   UNL     1     -11.641  13.114  67.991  1.00  0.00    -0.334 A  
HETATM   14  C   UNL     1     -11.715  12.740  69.335  1.00  0.00    -0.380 A  
HETATM   15  C   UNL     1     -11.810  13.757  70.311  1.00  0.00    -0.342 A  
HETATM   16  C   UNL     1     -11.849  15.090  69.897  1.00  0.00    -0.324 A  
HETATM   17  C   UNL     1     -11.780  15.435  68.554  1.00  0.00    -0.355 A  
HETATM   18  O   UNL     1     -11.953  16.105  70.803  1.00  0.00    -0.491 OA 
HETATM   19  C   UNL     1     -11.668  14.448  67.571  1.00  0.00    -0.416 A  
HETATM   20  H   UNL     1     -11.980  17.013  70.521  1.00  0.00     0.000 HD 
ENDBRANCH   8   9
ENDBRANCH   2   8
TORSDOF 2
ENDMDL
MODEL       54
REMARK 921   NORMALIZED FREE ENERGY PREDICTED BY IDOCK:   -5.34 KCAL/MOL
REMARK 922        TOTAL FREE ENERGY PREDICTED BY IDOCK:   -6.26 KCAL/MOL
REMARK 923 INTER-LIGAND FREE ENERGY PREDICTED BY IDOCK:   -6.01 KCAL/MOL
REMARK 924 INTRA-LIGAND FREE ENERGY PREDICTED BY IDOCK:   -0.25 KCAL/MOL
REMARK 927      BINDING AFFINITY PREDICTED BY RF-SCORE:    0.00 PKD
ROOT
HETATM    1  N   UNL     1     -13.298  14.151  65.459  1.00  0.00    -0.666 NA 
HETATM    2  CA  UNL     1     -12.150  14.123  64.489  1.00  0.00    -0.468 C  
HETATM    3  H1  UNL     1     -14.205  13.966  65.031  1.00  0.00     0.000 HD 
HETATM    4  H2  UNL     1     -13.315  15.033  65.970  1.00  0.00     0.000 HD 
HETATM    5  OXT UNL     1     -11.244  12.328  63.080  1.00  0.00    -0.370 OA 
HETATM    6  C   UNL     1     -12.110  12.731  63.841  1.00  0.00    -0.486 C  
HETATM    7  O   UNL     1     -13.174  11.975  64.226  1.00  0.00    -0.710 OA 
ENDROOT
BRANCH   2   8
HETATM    8  C   UNL     1     -10.783  14.402  65.134  1.00  0.00    -0.413 C  
BRANCH   8   9
HETATM    9  C   UNL     1     -10.645  15.781  65.705  1.00  0.00    -0.369 A  
HETATM   10  C   UNL     1     -10.565  16.957  64.986  1.00  0.00     0.024 A  
HETATM   11  N   UNL     1     -10.420  17.994  65.868  1.00  0.00    -0.549 NA 
HETATM   12  H   UNL     1     -10.334  18.977  65.604  1.00  0.00     0.000 HD 
HETATM   13  C   UNL     1     -10.408  17.523  67.160  1.00  0.00    -0.330 A  
HETATM   14  C   UNL     1     -10.532  16.133  67.091  1.00  0.00    -0.305 A  
HETATM   15  C   UNL     1     -10.519  15.396  68.296  1.00  0.00    -0.241 A  
HETATM   16  C   UNL     1     -10.406  16.083  69.507  1.00  0.00    -0.278 A  
HETATM   17  C   UNL     1     -10.291  17.465  69.549  1.00  0.00    -0.011 A  
HETATM   18  O   UNL     1     -10.403  15.414  70.697  1.00  0.00    -0.439 OA 
HETATM   19  C   UNL     1     -10.284  18.215  68.369  1.00  0.00    -0.401 A  
HETATM   20  H   UNL     1     -10.326  15.882  71.521  1.00  0.00     0.000 HD 
ENDBRANCH   8   9
ENDBRANCH   2   8
TORSDOF 2
ENDMDL
MODEL       55
REMARK 921   NORMALIZED FREE ENERGY PREDICTED BY IDOCK:   -5.33 KCAL/MOL
REMARK 922        TOTAL FREE ENERGY PREDICTED BY IDOCK:   -6.25 KCAL/MOL
REMARK 923 INTER-LIGAND FREE ENERGY PREDICTED BY IDOCK:   -5.99 KCAL/MOL
REMARK 924 INTRA-LIGAND FREE ENERGY PREDICTED BY IDOCK:   -0.26 KCAL/MOL
REMARK 927      BINDING AFFINITY PREDICTED BY RF-SCORE:    0.00 PKD
ROOT
HETATM    1  N   UNL     1     -11.655  11.939  66.550  1.00  0.00    -0.519 NA 
HETATM    2  CA  UNL     1     -11.122  12.835  65.466  1.00  0.00    -0.285 C  
HETATM    3  H1  UNL     1     -12.318  11.239  66.218  1.00  0.00     0.000 HD 
HETATM    4  H2  UNL     1     -12.063  12.492  67.304  1.00  0.00     0.000 HD 
HETATM    5  OXT UNL     1      -9.788  12.359  63.461  1.00  0.00    -0.354 OA 
HETATM    6  C   UNL     1     -10.421  11.952  64.423  1.00  0.00    -0.311 C  
HETATM    7  O   UNL     1     -10.583  10.631  64.703  1.00  0.00    -0.296 OA 
ENDROOT
BRANCH   2   8
HETATM    8  C   UNL     1     -10.122  13.890  65.966  1.00  0.00    -0.324 C  
BRANCH   8   9
HETATM    9  C   UNL     1     -10.468  15.295  65.573  1.00  0.00    -0.396 A  
HETATM   10  C   UNL     1     -11.192  15.676  64.460  1.00  0.00    -0.325 A  
HETATM   11  N   UNL     1     -11.268  17.043  64.441  1.00  0.00    -1.144 NA 
HETATM   12  H   UNL     1     -11.745  17.591  63.724  1.00  0.00     0.000 HD 
HETATM   13  C   UNL     1     -10.609  17.572  65.527  1.00  0.00    -0.092 A  
HETATM   14  C   UNL     1     -10.082  16.499  66.249  1.00  0.00    -0.347 A  
HETATM   15  C   UNL     1      -9.327  16.778  67.410  1.00  0.00    -0.233 A  
HETATM   16  C   UNL     1      -9.156  18.107  67.803  1.00  0.00    -0.263 A  
HETATM   17  C   UNL     1      -9.697  19.154  67.072  1.00  0.00    -0.389 A  
HETATM   18  O   UNL     1      -8.446  18.422  68.926  1.00  0.00    -0.263 OA 
HETATM   19  C   UNL     1     -10.432  18.906  65.910  1.00  0.00    -0.450 A  
HETATM   20  H   UNL     1      -8.330  19.327  69.193  1.00  0.00     0.000 HD 
ENDBRANCH   8   9
ENDBRANCH   2   8
TORSDOF 2
ENDMDL
MODEL       56
REMARK 921   NORMALIZED FREE ENERGY PREDICTED BY IDOCK:   -5.33 KCAL/MOL
REMARK 922        TOTAL FREE ENERGY PREDICTED BY IDOCK:   -6.25 KCAL/MOL
REMARK 923 INTER-LIGAND FREE ENERGY PREDICTED BY IDOCK:   -6.18 KCAL/MOL
REMARK 924 INTRA-LIGAND FREE ENERGY PREDICTED BY IDOCK:   -0.07 KCAL/MOL
REMARK 927      BINDING AFFINITY PREDICTED BY RF-SCORE:    0.00 PKD
ROOT
HETATM    1  N   UNL     1     -13.075  12.727  65.299  1.00  0.00    -0.570 NA 
HETATM    2  CA  UNL     1     -12.589  14.114  65.614  1.00  0.00    -0.470 C  
HETATM    3  H1  UNL     1     -13.912  12.705  64.716  1.00  0.00     0.000 HD 
HETATM    4  H2  UNL     1     -13.222  12.194  66.157  1.00  0.00     0.000 HD 
HETATM    5  OXT UNL     1     -11.767  15.924  64.174  1.00  0.00    -0.479 OA 
HETATM    6  C   UNL     1     -12.278  14.820  64.286  1.00  0.00    -0.379 C  
HETATM    7  O   UNL     1     -12.639  14.054  63.221  1.00  0.00    -0.801 OA 
ENDROOT
BRANCH   2   8
HETATM    8  C   UNL     1     -11.329  14.147  66.494  1.00  0.00    -0.348 C  
BRANCH   8   9
HETATM    9  C   UNL     1     -11.436  13.335  67.749  1.00  0.00    -0.354 A  
HETATM   10  C   UNL     1     -11.784  13.808  68.999  1.00  0.00    -0.331 A  
HETATM   11  N   UNL     1     -11.743  12.763  69.883  1.00  0.00    -0.484 NA 
HETATM   12  H   UNL     1     -11.952  12.833  70.879  1.00  0.00     0.000 HD 
HETATM   13  C   UNL     1     -11.378  11.605  69.236  1.00  0.00    -0.290 A  
HETATM   14  C   UNL     1     -11.163  11.935  67.895  1.00  0.00    -0.325 A  
HETATM   15  C   UNL     1     -10.748  10.914  67.011  1.00  0.00    -0.323 A  
HETATM   16  C   UNL     1     -10.591   9.617  67.502  1.00  0.00    -0.277 A  
HETATM   17  C   UNL     1     -10.817   9.314  68.836  1.00  0.00    -0.128 A  
HETATM   18  O   UNL     1     -10.204   8.597  66.681  1.00  0.00    -0.282 OA 
HETATM   19  C   UNL     1     -11.211  10.309  69.735  1.00  0.00    -0.339 A  
HETATM   20  H   UNL     1     -10.097   7.713  67.015  1.00  0.00     0.000 HD 
ENDBRANCH   8   9
ENDBRANCH   2   8
TORSDOF 2
ENDMDL
MODEL       57
REMARK 921   NORMALIZED FREE ENERGY PREDICTED BY IDOCK:   -5.32 KCAL/MOL
REMARK 922        TOTAL FREE ENERGY PREDICTED BY IDOCK:   -6.24 KCAL/MOL
REMARK 923 INTER-LIGAND FREE ENERGY PREDICTED BY IDOCK:   -5.95 KCAL/MOL
REMARK 924 INTRA-LIGAND FREE ENERGY PREDICTED BY IDOCK:   -0.29 KCAL/MOL
REMARK 927      BINDING AFFINITY PREDICTED BY RF-SCORE:    0.00 PKD
ROOT
HETATM    1  N   UNL     1      -9.044  14.271  66.348  1.00  0.00    -0.473 NA 
HETATM    2  CA  UNL     1      -9.562  13.681  67.630  1.00  0.00    -0.221 C  
HETATM    3  H1  UNL     1      -8.030  14.379  66.324  1.00  0.00     0.000 HD 
HETATM    4  H2  UNL     1      -9.504  15.159  66.150  1.00  0.00     0.000 HD 
HETATM    5  OXT UNL     1      -9.192  11.498  68.692  1.00  0.00    -0.186 OA 
HETATM    6  C   UNL     1      -8.918  12.298  67.810  1.00  0.00    -0.177 C  
HETATM    7  O   UNL     1      -7.988  12.056  66.847  1.00  0.00    -0.162 OA 
ENDROOT
BRANCH   2   8
HETATM    8  C   UNL     1     -11.090  13.518  67.667  1.00  0.00    -0.290 C  
BRANCH   8   9
HETATM    9  C   UNL     1     -11.761  14.281  68.769  1.00  0.00    -0.378 A  
HETATM   10  C   UNL     1     -11.906  15.653  68.839  1.00  0.00    -0.352 A  
HETATM   11  N   UNL     1     -12.548  15.960  70.009  1.00  0.00    -0.572 NA 
HETATM   12  H   UNL     1     -12.781  16.905  70.316  1.00  0.00     0.000 HD 
HETATM   13  C   UNL     1     -12.834  14.812  70.712  1.00  0.00    -0.361 A  
HETATM   14  C   UNL     1     -12.338  13.741  69.966  1.00  0.00    -0.364 A  
HETATM   15  C   UNL     1     -12.481  12.436  70.487  1.00  0.00    -0.270 A  
HETATM   16  C   UNL     1     -13.130  12.264  71.712  1.00  0.00    -0.344 A  
HETATM   17  C   UNL     1     -13.620  13.345  72.430  1.00  0.00    -0.708 A  
HETATM   18  O   UNL     1     -13.304  11.021  72.248  1.00  0.00    -0.633 OA 
HETATM   19  C   UNL     1     -13.475  14.648  71.944  1.00  0.00    -0.461 A  
HETATM   20  H   UNL     1     -13.745  10.905  73.081  1.00  0.00     0.000 HD 
ENDBRANCH   8   9
ENDBRANCH   2   8
TORSDOF 2
ENDMDL
MODEL       58
REMARK 921   NORMALIZED FREE ENERGY PREDICTED BY IDOCK:   -5.31 KCAL/MOL
REMARK 922        TOTAL FREE ENERGY PREDICTED BY IDOCK:   -6.23 KCAL/MOL
REMARK 923 INTER-LIGAND FREE ENERGY PREDICTED BY IDOCK:   -6.05 KCAL/MOL
REMARK 924 INTRA-LIGAND FREE ENERGY PREDICTED BY IDOCK:   -0.18 KCAL/MOL
REMARK 927      BINDING AFFINITY PREDICTED BY RF-SCORE:    0.00 PKD
ROOT
HETATM    1  N   UNL     1      -9.678  14.061  65.619  1.00  0.00    -0.516 NA 
HETATM    2  CA  UNL     1     -11.031  13.433  65.803  1.00  0.00    -0.277 C  
HETATM    3  H1  UNL     1      -9.412  14.190  64.643  1.00  0.00     0.000 HD 
HETATM    4  H2  UNL     1      -8.964  13.529  66.118  1.00  0.00     0.000 HD 
HETATM    5  OXT UNL     1     -13.281  14.187  65.174  1.00  0.00    -0.743 OA 
HETATM    6  C   UNL     1     -12.071  14.341  65.129  1.00  0.00    -0.410 C  
HETATM    7  O   UNL     1     -11.475  15.368  64.465  1.00  0.00    -0.394 OA 
ENDROOT
BRANCH   2   8
HETATM    8  C   UNL     1     -11.432  13.237  67.274  1.00  0.00    -0.378 C  
BRANCH   8   9
HETATM    9  C   UNL     1     -11.039  11.908  67.844  1.00  0.00    -0.297 A  
HETATM   10  C   UNL     1     -10.195  10.986  67.256  1.00  0.00    -0.199 A  
HETATM   11  N   UNL     1     -10.111   9.893  68.076  1.00  0.00    -0.163 NA 
HETATM   12  H   UNL     1      -9.556   9.059  67.881  1.00  0.00     0.000 HD 
HETATM   13  C   UNL     1     -10.882  10.079  69.200  1.00  0.00    -0.222 A  
HETATM   14  C   UNL     1     -11.491  11.331  69.077  1.00  0.00    -0.369 A  
HETATM   15  C   UNL     1     -12.367  11.756  70.100  1.00  0.00    -0.272 A  
HETATM   16  C   UNL     1     -12.572  10.923  71.203  1.00  0.00    -0.428 A  
HETATM   17  C   UNL     1     -11.950   9.688  71.305  1.00  0.00    -0.462 A  
HETATM   18  O   UNL     1     -13.399  11.298  72.222  1.00  0.00    -0.625 OA 
HETATM   19  C   UNL     1     -11.093   9.237  70.297  1.00  0.00    -0.289 A  
HETATM   20  H   UNL     1     -13.539  10.732  72.972  1.00  0.00     0.000 HD 
ENDBRANCH   8   9
ENDBRANCH   2   8
TORSDOF 2
ENDMDL
MODEL       59
REMARK 921   NORMALIZED FREE ENERGY PREDICTED BY IDOCK:   -5.25 KCAL/MOL
REMARK 922        TOTAL FREE ENERGY PREDICTED BY IDOCK:   -6.16 KCAL/MOL
REMARK 923 INTER-LIGAND FREE ENERGY PREDICTED BY IDOCK:   -5.87 KCAL/MOL
REMARK 924 INTRA-LIGAND FREE ENERGY PREDICTED BY IDOCK:   -0.29 KCAL/MOL
REMARK 927      BINDING AFFINITY PREDICTED BY RF-SCORE:    0.00 PKD
ROOT
HETATM    1  N   UNL     1     -10.088  14.569  69.673  1.00  0.00    -0.424 NA 
HETATM    2  CA  UNL     1      -8.943  15.369  69.117  1.00  0.00    -0.245 C  
HETATM    3  H1  UNL     1     -10.534  14.996  70.486  1.00  0.00     0.000 HD 
HETATM    4  H2  UNL     1      -9.792  13.617  69.886  1.00  0.00     0.000 HD 
HETATM    5  OXT UNL     1      -8.845  17.615  68.131  1.00  0.00    -0.253 OA 
HETATM    6  C   UNL     1      -9.481  16.749  68.711  1.00  0.00    -0.259 C  
HETATM    7  O   UNL     1     -10.784  16.899  69.075  1.00  0.00    -0.328 OA 
ENDROOT
BRANCH   2   8
HETATM    8  C   UNL     1      -8.271  14.726  67.893  1.00  0.00    -0.154 C  
BRANCH   8   9
HETATM    9  C   UNL     1      -9.173  13.829  67.100  1.00  0.00    -0.245 A  
HETATM   10  C   UNL     1      -9.257  12.455  67.209  1.00  0.00    -0.187 A  
HETATM   11  N   UNL     1     -10.175  12.004  66.298  1.00  0.00    -0.217 NA 
HETATM   12  H   UNL     1     -10.430  11.025  66.163  1.00  0.00     0.000 HD 
HETATM   13  C   UNL     1     -10.703  13.060  65.592  1.00  0.00    -0.275 A  
HETATM   14  C   UNL     1     -10.082  14.220  66.062  1.00  0.00    -0.333 A  
HETATM   15  C   UNL     1     -10.433  15.455  65.474  1.00  0.00    -0.402 A  
HETATM   16  C   UNL     1     -11.399  15.474  64.465  1.00  0.00    -0.314 A  
HETATM   17  C   UNL     1     -12.005  14.308  64.021  1.00  0.00    -0.328 A  
HETATM   18  O   UNL     1     -11.779  16.646  63.878  1.00  0.00    -1.487 OA 
HETATM   19  C   UNL     1     -11.663  13.071  64.574  1.00  0.00    -0.419 A  
HETATM   20  H   UNL     1     -12.436  16.658  63.191  1.00  0.00     0.000 HD 
ENDBRANCH   8   9
ENDBRANCH   2   8
TORSDOF 2
ENDMDL
MODEL       60
REMARK 921   NORMALIZED FREE ENERGY PREDICTED BY IDOCK:   -5.25 KCAL/MOL
REMARK 922        TOTAL FREE ENERGY PREDICTED BY IDOCK:   -6.16 KCAL/MOL
REMARK 923 INTER-LIGAND FREE ENERGY PREDICTED BY IDOCK:   -5.95 KCAL/MOL
REMARK 924 INTRA-LIGAND FREE ENERGY PREDICTED BY IDOCK:   -0.21 KCAL/MOL
REMARK 927      BINDING AFFINITY PREDICTED BY RF-SCORE:    0.00 PKD
ROOT
HETATM    1  N   UNL     1      -9.995  17.856  69.029  1.00  0.00    -0.318 NA 
HETATM    2  CA  UNL     1     -10.096  17.317  67.629  1.00  0.00    -0.313 C  
HETATM    3  H1  UNL     1      -9.290  18.585  69.141  1.00  0.00     0.000 HD 
HETATM    4  H2  UNL     1      -9.838  17.100  69.695  1.00  0.00     0.000 HD 
HETATM    5  OXT UNL     1     -10.704  18.388  65.506  1.00  0.00    -0.588 OA 
HETATM    6  C   UNL     1     -10.447  18.485  66.695  1.00  0.00    -0.398 C  
HETATM    7  O   UNL     1     -10.445  19.670  67.363  1.00  0.00    -0.424 OA 
ENDROOT
BRANCH   2   8
HETATM    8  C   UNL     1     -11.158  16.219  67.460  1.00  0.00    -0.140 C  
BRANCH   8   9
HETATM    9  C   UNL     1     -10.686  15.025  66.686  1.00  0.00    -0.312 A  
HETATM   10  C   UNL     1      -9.954  15.050  65.515  1.00  0.00    -0.356 A  
HETATM   11  N   UNL     1      -9.745  13.759  65.108  1.00  0.00    -0.574 NA 
HETATM   12  H   UNL     1      -9.233  13.488  64.268  1.00  0.00     0.000 HD 
HETATM   13  C   UNL     1     -10.322  12.881  65.996  1.00  0.00    -0.283 A  
HETATM   14  C   UNL     1     -10.935  13.646  66.990  1.00  0.00    -0.298 A  
HETATM   15  C   UNL     1     -11.631  12.976  68.021  1.00  0.00    -0.383 A  
HETATM   16  C   UNL     1     -11.660  11.580  68.020  1.00  0.00    -0.300 A  
HETATM   17  C   UNL     1     -11.037  10.842  67.023  1.00  0.00    -0.271 A  
HETATM   18  O   UNL     1     -12.309  10.889  69.003  1.00  0.00    -0.705 OA 
HETATM   19  C   UNL     1     -10.358  11.482  65.983  1.00  0.00    -0.290 A  
HETATM   20  H   UNL     1     -12.329   9.939  69.001  1.00  0.00     0.000 HD 
ENDBRANCH   8   9
ENDBRANCH   2   8
TORSDOF 2
ENDMDL
MODEL       61
REMARK 921   NORMALIZED FREE ENERGY PREDICTED BY IDOCK:   -5.25 KCAL/MOL
REMARK 922        TOTAL FREE ENERGY PREDICTED BY IDOCK:   -6.15 KCAL/MOL
REMARK 923 INTER-LIGAND FREE ENERGY PREDICTED BY IDOCK:   -5.84 KCAL/MOL
REMARK 924 INTRA-LIGAND FREE ENERGY PREDICTED BY IDOCK:   -0.31 KCAL/MOL
REMARK 927      BINDING AFFINITY PREDICTED BY RF-SCORE:    0.00 PKD
ROOT
HETATM    1  N   UNL     1     -10.708  16.276  68.473  1.00  0.00    -0.289 NA 
HETATM    2  CA  UNL     1     -10.629  15.566  67.150  1.00  0.00    -0.300 C  
HETATM    3  H1  UNL     1      -9.905  16.875  68.669  1.00  0.00     0.000 HD 
HETATM    4  H2  UNL     1     -10.851  15.609  69.231  1.00  0.00     0.000 HD 
HETATM    5  OXT UNL     1     -10.553  16.407  64.845  1.00  0.00    -0.677 OA 
HETATM    6  C   UNL     1     -10.531  16.629  66.046  1.00  0.00    -0.298 C  
HETATM    7  O   UNL     1     -10.420  17.879  66.571  1.00  0.00    -0.355 OA 
ENDROOT
BRANCH   2   8
HETATM    8  C   UNL     1     -11.838  14.663  66.855  1.00  0.00    -0.345 C  
BRANCH   8   9
HETATM    9  C   UNL     1     -11.542  13.196  66.942  1.00  0.00    -0.417 A  
HETATM   10  C   UNL     1     -11.891  12.354  67.980  1.00  0.00    -0.316 A  
HETATM   11  N   UNL     1     -11.419  11.100  67.697  1.00  0.00    -0.500 NA 
HETATM   12  H   UNL     1     -11.534  10.284  68.298  1.00  0.00     0.000 HD 
HETATM   13  C   UNL     1     -10.768  11.099  66.485  1.00  0.00    -0.260 A  
HETATM   14  C   UNL     1     -10.815  12.405  65.993  1.00  0.00    -0.308 A  
HETATM   15  C   UNL     1     -10.185  12.681  64.758  1.00  0.00    -0.307 A  
HETATM   16  C   UNL     1      -9.564  11.638  64.069  1.00  0.00    -0.136 A  
HETATM   17  C   UNL     1      -9.537  10.347  64.576  1.00  0.00    -0.369 A  
HETATM   18  O   UNL     1      -8.955  11.854  62.866  1.00  0.00    -0.643 OA 
HETATM   19  C   UNL     1     -10.137  10.052  65.804  1.00  0.00    -0.320 A  
HETATM   20  H   UNL     1      -8.532  11.144  62.397  1.00  0.00     0.000 HD 
ENDBRANCH   8   9
ENDBRANCH   2   8
TORSDOF 2
ENDMDL
MODEL       62
REMARK 921   NORMALIZED FREE ENERGY PREDICTED BY IDOCK:   -5.24 KCAL/MOL
REMARK 922        TOTAL FREE ENERGY PREDICTED BY IDOCK:   -6.15 KCAL/MOL
REMARK 923 INTER-LIGAND FREE ENERGY PREDICTED BY IDOCK:   -5.92 KCAL/MOL
REMARK 924 INTRA-LIGAND FREE ENERGY PREDICTED BY IDOCK:   -0.23 KCAL/MOL
REMARK 927      BINDING AFFINITY PREDICTED BY RF-SCORE:    0.00 PKD
ROOT
HETATM    1  N   UNL     1     -10.517   9.057  71.541  1.00  0.00    -0.315 NA 
HETATM    2  CA  UNL     1     -11.929   9.560  71.658  1.00  0.00    -0.401 C  
HETATM    3  H1  UNL     1     -10.241   8.423  72.291  1.00  0.00     0.000 HD 
HETATM    4  H2  UNL     1      -9.863   9.837  71.472  1.00  0.00     0.000 HD 
HETATM    5  OXT UNL     1     -14.088   8.392  71.615  1.00  0.00    -0.398 OA 
HETATM    6  C   UNL     1     -12.868   8.344  71.640  1.00  0.00    -0.334 C  
HETATM    7  O   UNL     1     -12.168   7.178  71.649  1.00  0.00    -0.312 OA 
ENDROOT
BRANCH   2   8
HETATM    8  C   UNL     1     -12.345  10.516  70.529  1.00  0.00    -0.432 C  
BRANCH   8   9
HETATM    9  C   UNL     1     -12.617  11.919  70.983  1.00  0.00    -0.381 A  
HETATM   10  C   UNL     1     -13.282  12.287  72.136  1.00  0.00    -0.361 A  
HETATM   11  N   UNL     1     -13.349  13.654  72.178  1.00  0.00    -0.453 NA 
HETATM   12  H   UNL     1     -13.792  14.194  72.922  1.00  0.00     0.000 HD 
HETATM   13  C   UNL     1     -12.733  14.196  71.073  1.00  0.00    -0.362 A  
HETATM   14  C   UNL     1     -12.276  13.129  70.295  1.00  0.00    -0.376 A  
HETATM   15  C   UNL     1     -11.623  13.419  69.076  1.00  0.00    -0.358 A  
HETATM   16  C   UNL     1     -11.438  14.753  68.708  1.00  0.00    -0.301 A  
HETATM   17  C   UNL     1     -11.896  15.794  69.503  1.00  0.00    -0.359 A  
HETATM   18  O   UNL     1     -10.801  15.081  67.547  1.00  0.00    -0.281 OA 
HETATM   19  C   UNL     1     -12.561  15.534  70.704  1.00  0.00    -0.493 A  
HETATM   20  H   UNL     1     -10.676  15.989  67.296  1.00  0.00     0.000 HD 
ENDBRANCH   8   9
ENDBRANCH   2   8
TORSDOF 2
ENDMDL
MODEL       63
REMARK 921   NORMALIZED FREE ENERGY PREDICTED BY IDOCK:   -5.20 KCAL/MOL
REMARK 922        TOTAL FREE ENERGY PREDICTED BY IDOCK:   -6.11 KCAL/MOL
REMARK 923 INTER-LIGAND FREE ENERGY PREDICTED BY IDOCK:   -5.93 KCAL/MOL
REMARK 924 INTRA-LIGAND FREE ENERGY PREDICTED BY IDOCK:   -0.18 KCAL/MOL
REMARK 927      BINDING AFFINITY PREDICTED BY RF-SCORE:    0.00 PKD
ROOT
HETATM    1  N   UNL     1     -12.980  16.006  70.431  1.00  0.00    -0.612 NA 
HETATM    2  CA  UNL     1     -13.346  14.561  70.621  1.00  0.00    -0.093 C  
HETATM    3  H1  UNL     1     -13.779  16.640  70.442  1.00  0.00     0.000 HD 
HETATM    4  H2  UNL     1     -12.436  16.130  69.577  1.00  0.00     0.000 HD 
HETATM    5  OXT UNL     1     -14.402  13.375  72.493  1.00  0.00    -0.692 OA 
HETATM    6  C   UNL     1     -14.059  14.426  71.975  1.00  0.00    -0.530 C  
HETATM    7  O   UNL     1     -14.263  15.642  72.550  1.00  0.00    -0.557 OA 
ENDROOT
BRANCH   2   8
HETATM    8  C   UNL     1     -12.142  13.606  70.604  1.00  0.00    -0.398 C  
BRANCH   8   9
HETATM    9  C   UNL     1     -11.858  13.003  69.261  1.00  0.00    -0.370 A  
HETATM   10  C   UNL     1     -12.028  13.621  68.038  1.00  0.00    -0.350 A  
HETATM   11  N   UNL     1     -11.684  12.733  67.054  1.00  0.00    -0.362 NA 
HETATM   12  H   UNL     1     -11.720  12.929  66.052  1.00  0.00     0.000 HD 
HETATM   13  C   UNL     1     -11.283  11.539  67.608  1.00  0.00    -0.281 A  
HETATM   14  C   UNL     1     -11.396  11.672  68.994  1.00  0.00    -0.337 A  
HETATM   15  C   UNL     1     -11.066  10.563  69.804  1.00  0.00    -0.354 A  
HETATM   16  C   UNL     1     -10.620   9.389  69.193  1.00  0.00    -0.218 A  
HETATM   17  C   UNL     1     -10.510   9.285  67.814  1.00  0.00    -0.313 A  
HETATM   18  O   UNL     1     -10.277   8.296  69.937  1.00  0.00    -0.193 OA 
HETATM   19  C   UNL     1     -10.848  10.362  66.990  1.00  0.00    -0.269 A  
HETATM   20  H   UNL     1      -9.973   7.497  69.521  1.00  0.00     0.000 HD 
ENDBRANCH   8   9
ENDBRANCH   2   8
TORSDOF 2
ENDMDL
MODEL       64
REMARK 921   NORMALIZED FREE ENERGY PREDICTED BY IDOCK:   -5.20 KCAL/MOL
REMARK 922        TOTAL FREE ENERGY PREDICTED BY IDOCK:   -6.11 KCAL/MOL
REMARK 923 INTER-LIGAND FREE ENERGY PREDICTED BY IDOCK:   -5.84 KCAL/MOL
REMARK 924 INTRA-LIGAND FREE ENERGY PREDICTED BY IDOCK:   -0.27 KCAL/MOL
REMARK 927      BINDING AFFINITY PREDICTED BY RF-SCORE:    0.00 PKD
ROOT
HETATM    1  N   UNL     1     -13.268  11.343  72.157  1.00  0.00    -0.556 NA 
HETATM    2  CA  UNL     1     -12.940  10.207  71.229  1.00  0.00    -0.413 C  
HETATM    3  H1  UNL     1     -14.269  11.488  72.294  1.00  0.00     0.000 HD 
HETATM    4  H2  UNL     1     -12.820  12.204  71.843  1.00  0.00     0.000 HD 
HETATM    5  OXT UNL     1     -13.383   7.797  71.377  1.00  0.00    -0.321 OA 
HETATM    6  C   UNL     1     -13.544   8.923  71.819  1.00  0.00    -0.412 C  
HETATM    7  O   UNL     1     -14.294   9.191  72.922  1.00  0.00    -0.519 OA 
ENDROOT
BRANCH   2   8
HETATM    8  C   UNL     1     -11.433   9.988  71.022  1.00  0.00    -0.463 C  
BRANCH   8   9
HETATM    9  C   UNL     1     -11.020   9.889  69.584  1.00  0.00    -0.285 A  
HETATM   10  C   UNL     1     -10.428   8.799  68.978  1.00  0.00    -0.203 A  
HETATM   11  N   UNL     1     -10.183   9.112  67.668  1.00  0.00    -0.221 NA 
HETATM   12  H   UNL     1      -9.747   8.486  66.990  1.00  0.00     0.000 HD 
HETATM   13  C   UNL     1     -10.609  10.392  67.397  1.00  0.00    -0.269 A  
HETATM   14  C   UNL     1     -11.126  10.913  68.585  1.00  0.00    -0.305 A  
HETATM   15  C   UNL     1     -11.611  12.240  68.582  1.00  0.00    -0.372 A  
HETATM   16  C   UNL     1     -11.577  12.969  67.392  1.00  0.00    -0.356 A  
HETATM   17  C   UNL     1     -11.064  12.426  66.223  1.00  0.00    -0.344 A  
HETATM   18  O   UNL     1     -12.047  14.249  67.338  1.00  0.00    -0.498 OA 
HETATM   19  C   UNL     1     -10.562  11.122  66.204  1.00  0.00    -0.305 A  
HETATM   20  H   UNL     1     -12.024  14.746  66.528  1.00  0.00     0.000 HD 
ENDBRANCH   8   9
ENDBRANCH   2   8
TORSDOF 2
ENDMDL
MODEL       65
REMARK 921   NORMALIZED FREE ENERGY PREDICTED BY IDOCK:   -5.19 KCAL/MOL
REMARK 922        TOTAL FREE ENERGY PREDICTED BY IDOCK:   -6.09 KCAL/MOL
REMARK 923 INTER-LIGAND FREE ENERGY PREDICTED BY IDOCK:   -5.76 KCAL/MOL
REMARK 924 INTRA-LIGAND FREE ENERGY PREDICTED BY IDOCK:   -0.33 KCAL/MOL
REMARK 927      BINDING AFFINITY PREDICTED BY RF-SCORE:    0.00 PKD
ROOT
HETATM    1  N   UNL     1     -11.698  13.024  65.868  1.00  0.00    -0.373 NA 
HETATM    2  CA  UNL     1     -11.703  13.850  67.124  1.00  0.00    -0.388 C  
HETATM    3  H1  UNL     1     -12.279  13.404  65.121  1.00  0.00     0.000 HD 
HETATM    4  H2  UNL     1     -11.961  12.060  66.071  1.00  0.00     0.000 HD 
HETATM    5  OXT UNL     1     -10.967  16.149  67.570  1.00  0.00    -0.313 OA 
HETATM    6  C   UNL     1     -11.188  15.254  66.770  1.00  0.00    -0.241 C  
HETATM    7  O   UNL     1     -10.995  15.387  65.430  1.00  0.00    -0.346 OA 
ENDROOT
BRANCH   2   8
HETATM    8  C   UNL     1     -10.828  13.277  68.250  1.00  0.00    -0.276 C  
BRANCH   8   9
HETATM    9  C   UNL     1     -11.596  12.855  69.467  1.00  0.00    -0.348 A  
HETATM   10  C   UNL     1     -12.110  11.596  69.710  1.00  0.00    -0.289 A  
HETATM   11  N   UNL     1     -12.764  11.622  70.912  1.00  0.00    -0.300 NA 
HETATM   12  H   UNL     1     -13.242  10.824  71.334  1.00  0.00     0.000 HD 
HETATM   13  C   UNL     1     -12.685  12.876  71.471  1.00  0.00    -0.239 A  
HETATM   14  C   UNL     1     -11.970  13.678  70.579  1.00  0.00    -0.353 A  
HETATM   15  C   UNL     1     -11.770  15.037  70.909  1.00  0.00    -0.376 A  
HETATM   16  C   UNL     1     -12.272  15.520  72.119  1.00  0.00    -0.404 A  
HETATM   17  C   UNL     1     -12.974  14.700  72.992  1.00  0.00    -0.610 A  
HETATM   18  O   UNL     1     -12.091  16.822  72.486  1.00  0.00    -0.469 OA 
HETATM   19  C   UNL     1     -13.201  13.357  72.680  1.00  0.00    -0.436 A  
HETATM   20  H   UNL     1     -12.434  17.150  73.310  1.00  0.00     0.000 HD 
ENDBRANCH   8   9
ENDBRANCH   2   8
TORSDOF 2
ENDMDL
MODEL       66
REMARK 921   NORMALIZED FREE ENERGY PREDICTED BY IDOCK:   -5.16 KCAL/MOL
REMARK 922        TOTAL FREE ENERGY PREDICTED BY IDOCK:   -6.06 KCAL/MOL
REMARK 923 INTER-LIGAND FREE ENERGY PREDICTED BY IDOCK:   -5.98 KCAL/MOL
REMARK 924 INTRA-LIGAND FREE ENERGY PREDICTED BY IDOCK:   -0.08 KCAL/MOL
REMARK 927      BINDING AFFINITY PREDICTED BY RF-SCORE:    0.00 PKD
ROOT
HETATM    1  N   UNL     1      -8.618   7.261  67.978  1.00  0.00    -0.125 NA 
HETATM    2  CA  UNL     1      -9.245   6.725  69.234  1.00  0.00    -0.141 C  
HETATM    3  H1  UNL     1      -8.688   6.630  67.179  1.00  0.00     0.000 HD 
HETATM    4  H2  UNL     1      -7.647   7.523  68.145  1.00  0.00     0.000 HD 
HETATM    5  OXT UNL     1     -11.562   6.118  69.774  1.00  0.00    -0.405 OA 
HETATM    6  C   UNL     1     -10.732   6.461  68.948  1.00  0.00    -0.288 C  
HETATM    7  O   UNL     1     -11.026   6.665  67.635  1.00  0.00    -0.293 OA 
ENDROOT
BRANCH   2   8
HETATM    8  C   UNL     1      -9.141   7.675  70.438  1.00  0.00    -0.152 C  
BRANCH   8   9
HETATM    9  C   UNL     1      -9.884   8.965  70.266  1.00  0.00    -0.211 A  
HETATM   10  C   UNL     1      -9.511  10.018  69.453  1.00  0.00    -0.223 A  
HETATM   11  N   UNL     1     -10.434  11.020  69.594  1.00  0.00    -0.447 NA 
HETATM   12  H   UNL     1     -10.400  11.917  69.108  1.00  0.00     0.000 HD 
HETATM   13  C   UNL     1     -11.414  10.643  70.482  1.00  0.00    -0.317 A  
HETATM   14  C   UNL     1     -11.088   9.363  70.934  1.00  0.00    -0.389 A  
HETATM   15  C   UNL     1     -11.933   8.751  71.888  1.00  0.00    -0.435 A  
HETATM   16  C   UNL     1     -13.068   9.438  72.324  1.00  0.00    -0.428 A  
HETATM   17  C   UNL     1     -13.373  10.707  71.854  1.00  0.00    -0.454 A  
HETATM   18  O   UNL     1     -13.920   8.881  73.234  1.00  0.00    -1.203 OA 
HETATM   19  C   UNL     1     -12.544  11.340  70.924  1.00  0.00    -0.467 A  
HETATM   20  H   UNL     1     -14.692   9.348  73.531  1.00  0.00     0.000 HD 
ENDBRANCH   8   9
ENDBRANCH   2   8
TORSDOF 2
ENDMDL
MODEL       67
REMARK 921   NORMALIZED FREE ENERGY PREDICTED BY IDOCK:   -5.15 KCAL/MOL
REMARK 922        TOTAL FREE ENERGY PREDICTED BY IDOCK:   -6.05 KCAL/MOL
REMARK 923 INTER-LIGAND FREE ENERGY PREDICTED BY IDOCK:   -5.72 KCAL/MOL
REMARK 924 INTRA-LIGAND FREE ENERGY PREDICTED BY IDOCK:   -0.33 KCAL/MOL
REMARK 927      BINDING AFFINITY PREDICTED BY RF-SCORE:    0.00 PKD
ROOT
HETATM    1  N   UNL     1     -10.084  10.371  62.412  1.00  0.00    -0.717 NA 
HETATM    2  CA  UNL     1      -9.773  11.201  63.627  1.00  0.00    -0.317 C  
HETATM    3  H1  UNL     1      -9.257  10.071  61.894  1.00  0.00     0.000 HD 
HETATM    4  H2  UNL     1     -10.733  10.863  61.798  1.00  0.00     0.000 HD 
HETATM    5  OXT UNL     1      -8.535  10.687  65.683  1.00  0.00    -0.171 OA 
HETATM    6  C   UNL     1      -8.889  10.361  64.561  1.00  0.00    -0.207 C  
HETATM    7  O   UNL     1      -8.543   9.179  63.984  1.00  0.00    -0.193 OA 
ENDROOT
BRANCH   2   8
HETATM    8  C   UNL     1     -11.018  11.654  64.406  1.00  0.00    -0.399 C  
BRANCH   8   9
HETATM    9  C   UNL     1     -11.248  13.135  64.385  1.00  0.00    -0.403 A  
HETATM   10  C   UNL     1     -12.154  13.808  63.588  1.00  0.00    -0.279 A  
HETATM   11  N   UNL     1     -12.043  15.148  63.845  1.00  0.00    -0.957 NA 
HETATM   12  H   UNL     1     -12.594  15.877  63.390  1.00  0.00     0.000 HD 
HETATM   13  C   UNL     1     -11.081  15.372  64.802  1.00  0.00    -0.403 A  
HETATM   14  C   UNL     1     -10.552  14.127  65.151  1.00  0.00    -0.414 A  
HETATM   15  C   UNL     1      -9.514  14.082  66.109  1.00  0.00    -0.210 A  
HETATM   16  C   UNL     1      -9.075  15.276  66.686  1.00  0.00    -0.282 A  
HETATM   17  C   UNL     1      -9.621  16.499  66.327  1.00  0.00    -0.333 A  
HETATM   18  O   UNL     1      -8.084  15.280  67.625  1.00  0.00    -0.138 OA 
HETATM   19  C   UNL     1     -10.636  16.572  65.368  1.00  0.00    -0.293 A  
HETATM   20  H   UNL     1      -7.785  16.092  68.017  1.00  0.00     0.000 HD 
ENDBRANCH   8   9
ENDBRANCH   2   8
TORSDOF 2
ENDMDL
MODEL       68
REMARK 921   NORMALIZED FREE ENERGY PREDICTED BY IDOCK:   -5.13 KCAL/MOL
REMARK 922        TOTAL FREE ENERGY PREDICTED BY IDOCK:   -6.03 KCAL/MOL
REMARK 923 INTER-LIGAND FREE ENERGY PREDICTED BY IDOCK:   -5.77 KCAL/MOL
REMARK 924 INTRA-LIGAND FREE ENERGY PREDICTED BY IDOCK:   -0.26 KCAL/MOL
REMARK 927      BINDING AFFINITY PREDICTED BY RF-SCORE:    0.00 PKD
ROOT
HETATM    1  N   UNL     1     -12.331  13.606  67.498  1.00  0.00    -0.366 NA 
HETATM    2  CA  UNL     1     -12.140  14.707  68.503  1.00  0.00    -0.194 C  
HETATM    3  H1  UNL     1     -12.823  13.898  66.654  1.00  0.00     0.000 HD 
HETATM    4  H2  UNL     1     -12.797  12.806  67.926  1.00  0.00     0.000 HD 
HETATM    5  OXT UNL     1     -10.912  16.830  68.388  1.00  0.00    -0.355 OA 
HETATM    6  C   UNL     1     -11.334  15.829  67.831  1.00  0.00    -0.277 C  
HETATM    7  O   UNL     1     -11.132  15.570  66.511  1.00  0.00    -0.287 OA 
ENDROOT
BRANCH   2   8
HETATM    8  C   UNL     1     -11.399  14.267  69.776  1.00  0.00    -0.279 C  
BRANCH   8   9
HETATM    9  C   UNL     1     -12.197  13.365  70.668  1.00  0.00    -0.427 A  
HETATM   10  C   UNL     1     -13.076  13.764  71.656  1.00  0.00    -0.375 A  
HETATM   11  N   UNL     1     -13.582  12.645  72.261  1.00  0.00    -0.538 NA 
HETATM   12  H   UNL     1     -14.254  12.651  73.029  1.00  0.00     0.000 HD 
HETATM   13  C   UNL     1     -13.055  11.512  71.686  1.00  0.00    -0.373 A  
HETATM   14  C   UNL     1     -12.169  11.931  70.691  1.00  0.00    -0.424 A  
HETATM   15  C   UNL     1     -11.467  10.948  69.959  1.00  0.00    -0.411 A  
HETATM   16  C   UNL     1     -11.701   9.600  70.240  1.00  0.00    -0.155 A  
HETATM   17  C   UNL     1     -12.592   9.210  71.229  1.00  0.00    -0.351 A  
HETATM   18  O   UNL     1     -11.056   8.616  69.549  1.00  0.00    -0.425 OA 
HETATM   19  C   UNL     1     -13.286  10.164  71.979  1.00  0.00    -0.534 A  
HETATM   20  H   UNL     1     -11.216   7.698  69.740  1.00  0.00     0.000 HD 
ENDBRANCH   8   9
ENDBRANCH   2   8
TORSDOF 2
ENDMDL
MODEL       69
REMARK 921   NORMALIZED FREE ENERGY PREDICTED BY IDOCK:   -5.13 KCAL/MOL
REMARK 922        TOTAL FREE ENERGY PREDICTED BY IDOCK:   -6.03 KCAL/MOL
REMARK 923 INTER-LIGAND FREE ENERGY PREDICTED BY IDOCK:   -5.71 KCAL/MOL
REMARK 924 INTRA-LIGAND FREE ENERGY PREDICTED BY IDOCK:   -0.32 KCAL/MOL
REMARK 927      BINDING AFFINITY PREDICTED BY RF-SCORE:    0.00 PKD
ROOT
HETATM    1  N   UNL     1     -11.424  12.471  70.008  1.00  0.00    -0.526 NA 
HETATM    2  CA  UNL     1     -11.560  13.920  69.629  1.00  0.00    -0.286 C  
HETATM    3  H1  UNL     1     -11.171  12.321  70.984  1.00  0.00     0.000 HD 
HETATM    4  H2  UNL     1     -10.765  11.999  69.389  1.00  0.00     0.000 HD 
HETATM    5  OXT UNL     1     -13.086  15.677  70.410  1.00  0.00    -0.379 OA 
HETATM    6  C   UNL     1     -12.647  14.542  70.517  1.00  0.00    -0.351 C  
HETATM    7  O   UNL     1     -13.083  13.661  71.458  1.00  0.00    -0.344 OA 
ENDROOT
BRANCH   2   8
HETATM    8  C   UNL     1     -11.941  14.146  68.157  1.00  0.00    -0.367 C  
BRANCH   8   9
HETATM    9  C   UNL     1     -10.856  14.769  67.332  1.00  0.00    -0.300 A  
HETATM   10  C   UNL     1     -10.126  14.145  66.340  1.00  0.00    -0.293 A  
HETATM   11  N   UNL     1      -9.216  15.040  65.845  1.00  0.00    -0.489 NA 
HETATM   12  H   UNL     1      -8.544  14.840  65.103  1.00  0.00     0.000 HD 
HETATM   13  C   UNL     1      -9.337  16.249  66.490  1.00  0.00    -0.271 A  
HETATM   14  C   UNL     1     -10.349  16.106  67.442  1.00  0.00    -0.294 A  
HETATM   15  C   UNL     1     -10.656  17.210  68.268  1.00  0.00    -0.375 A  
HETATM   16  C   UNL     1      -9.955  18.404  68.088  1.00  0.00    -0.364 A  
HETATM   17  C   UNL     1      -8.958  18.523  67.131  1.00  0.00    -0.281 A  
HETATM   18  O   UNL     1     -10.226  19.502  68.854  1.00  0.00    -0.544 OA 
HETATM   19  C   UNL     1      -8.624  17.439  66.313  1.00  0.00    -0.246 A  
HETATM   20  H   UNL     1      -9.749  20.314  68.731  1.00  0.00     0.000 HD 
ENDBRANCH   8   9
ENDBRANCH   2   8
TORSDOF 2
ENDMDL
MODEL       70
REMARK 921   NORMALIZED FREE ENERGY PREDICTED BY IDOCK:   -5.09 KCAL/MOL
REMARK 922        TOTAL FREE ENERGY PREDICTED BY IDOCK:   -5.99 KCAL/MOL
REMARK 923 INTER-LIGAND FREE ENERGY PREDICTED BY IDOCK:   -5.76 KCAL/MOL
REMARK 924 INTRA-LIGAND FREE ENERGY PREDICTED BY IDOCK:   -0.23 KCAL/MOL
REMARK 927      BINDING AFFINITY PREDICTED BY RF-SCORE:    0.00 PKD
ROOT
HETATM    1  N   UNL     1     -10.128  11.951  63.024  1.00  0.00    -0.564 NA 
HETATM    2  CA  UNL     1     -10.242  11.838  64.519  1.00  0.00    -0.284 C  
HETATM    3  H1  UNL     1      -9.173  11.863  62.675  1.00  0.00     0.000 HD 
HETATM    4  H2  UNL     1     -10.552  12.818  62.697  1.00  0.00     0.000 HD 
HETATM    5  OXT UNL     1      -9.727   9.999  66.063  1.00  0.00    -0.206 OA 
HETATM    6  C   UNL     1      -9.693  10.464  64.934  1.00  0.00    -0.309 C  
HETATM    7  O   UNL     1      -9.158   9.804  63.872  1.00  0.00    -0.240 OA 
ENDROOT
BRANCH   2   8
HETATM    8  C   UNL     1     -11.680  11.970  65.046  1.00  0.00    -0.316 C  
BRANCH   8   9
HETATM    9  C   UNL     1     -11.811  12.844  66.257  1.00  0.00    -0.477 A  
HETATM   10  C   UNL     1     -11.879  14.223  66.262  1.00  0.00    -0.406 A  
HETATM   11  N   UNL     1     -11.967  14.647  67.561  1.00  0.00    -0.534 NA 
HETATM   12  H   UNL     1     -12.026  15.622  67.855  1.00  0.00     0.000 HD 
HETATM   13  C   UNL     1     -11.962  13.568  68.415  1.00  0.00    -0.343 A  
HETATM   14  C   UNL     1     -11.850  12.421  67.626  1.00  0.00    -0.363 A  
HETATM   15  C   UNL     1     -11.795  11.164  68.270  1.00  0.00    -0.260 A  
HETATM   16  C   UNL     1     -11.878  11.115  69.663  1.00  0.00    -0.348 A  
HETATM   17  C   UNL     1     -11.997  12.269  70.424  1.00  0.00    -0.349 A  
HETATM   18  O   UNL     1     -11.844   9.923  70.328  1.00  0.00    -0.350 OA 
HETATM   19  C   UNL     1     -12.035  13.525  69.812  1.00  0.00    -0.405 A  
HETATM   20  H   UNL     1     -11.900   9.890  71.276  1.00  0.00     0.000 HD 
ENDBRANCH   8   9
ENDBRANCH   2   8
TORSDOF 2
ENDMDL
MODEL       71
REMARK 921   NORMALIZED FREE ENERGY PREDICTED BY IDOCK:   -5.09 KCAL/MOL
REMARK 922        TOTAL FREE ENERGY PREDICTED BY IDOCK:   -5.98 KCAL/MOL
REMARK 923 INTER-LIGAND FREE ENERGY PREDICTED BY IDOCK:   -5.73 KCAL/MOL
REMARK 924 INTRA-LIGAND FREE ENERGY PREDICTED BY IDOCK:   -0.25 KCAL/MOL
REMARK 927      BINDING AFFINITY PREDICTED BY RF-SCORE:    0.00 PKD
ROOT
HETATM    1  N   UNL     1      -9.293  12.701  68.661  1.00  0.00    -0.402 NA 
HETATM    2  CA  UNL     1     -10.712  12.309  68.355  1.00  0.00    -0.234 C  
HETATM    3  H1  UNL     1      -8.605  11.992  68.409  1.00  0.00     0.000 HD 
HETATM    4  H2  UNL     1      -9.197  12.962  69.642  1.00  0.00     0.000 HD 
HETATM    5  OXT UNL     1     -11.846  11.802  66.237  1.00  0.00    -0.501 OA 
HETATM    6  C   UNL     1     -10.815  12.043  66.845  1.00  0.00    -0.259 C  
HETATM    7  O   UNL     1      -9.596  12.114  66.246  1.00  0.00    -0.229 OA 
ENDROOT
BRANCH   2   8
HETATM    8  C   UNL     1     -11.750  13.378  68.735  1.00  0.00    -0.377 C  
BRANCH   8   9
HETATM    9  C   UNL     1     -11.238  14.785  68.651  1.00  0.00    -0.288 A  
HETATM   10  C   UNL     1     -10.830  15.568  69.712  1.00  0.00    -0.296 A  
HETATM   11  N   UNL     1     -10.460  16.794  69.227  1.00  0.00    -0.328 NA 
HETATM   12  H   UNL     1     -10.119  17.569  69.798  1.00  0.00     0.000 HD 
HETATM   13  C   UNL     1     -10.612  16.831  67.860  1.00  0.00    -0.350 A  
HETATM   14  C   UNL     1     -11.114  15.588  67.470  1.00  0.00    -0.305 A  
HETATM   15  C   UNL     1     -11.387  15.374  66.100  1.00  0.00    -0.082 A  
HETATM   16  C   UNL     1     -11.125  16.400  65.190  1.00  0.00    -0.170 A  
HETATM   17  C   UNL     1     -10.619  17.624  65.603  1.00  0.00    -0.137 A  
HETATM   18  O   UNL     1     -11.360  16.234  63.856  1.00  0.00    -1.415 OA 
HETATM   19  C   UNL     1     -10.357  17.867  66.955  1.00  0.00    -0.358 A  
HETATM   20  H   UNL     1     -11.181  16.933  63.237  1.00  0.00     0.000 HD 
ENDBRANCH   8   9
ENDBRANCH   2   8
TORSDOF 2
ENDMDL
MODEL       72
REMARK 921   NORMALIZED FREE ENERGY PREDICTED BY IDOCK:   -5.02 KCAL/MOL
REMARK 922        TOTAL FREE ENERGY PREDICTED BY IDOCK:   -5.90 KCAL/MOL
REMARK 923 INTER-LIGAND FREE ENERGY PREDICTED BY IDOCK:   -5.67 KCAL/MOL
REMARK 924 INTRA-LIGAND FREE ENERGY PREDICTED BY IDOCK:   -0.23 KCAL/MOL
REMARK 927      BINDING AFFINITY PREDICTED BY RF-SCORE:    0.00 PKD
ROOT
HETATM    1  N   UNL     1     -10.110  15.106  68.018  1.00  0.00    -0.221 NA 
HETATM    2  CA  UNL     1     -11.580  14.885  68.242  1.00  0.00    -0.334 C  
HETATM    3  H1  UNL     1      -9.761  15.985  68.402  1.00  0.00     0.000 HD 
HETATM    4  H2  UNL     1      -9.882  15.033  67.027  1.00  0.00     0.000 HD 
HETATM    5  OXT UNL     1     -12.902  14.641  70.296  1.00  0.00    -0.316 OA 
HETATM    6  C   UNL     1     -11.836  14.893  69.756  1.00  0.00    -0.315 C  
HETATM    7  O   UNL     1     -10.709  15.214  70.447  1.00  0.00    -0.256 OA 
ENDROOT
BRANCH   2   8
HETATM    8  C   UNL     1     -12.106  13.562  67.663  1.00  0.00    -0.321 C  
BRANCH   8   9
HETATM    9  C   UNL     1     -11.851  13.391  66.196  1.00  0.00    -0.427 A  
HETATM   10  C   UNL     1     -12.240  14.259  65.194  1.00  0.00    -0.421 A  
HETATM   11  N   UNL     1     -11.845  13.737  63.992  1.00  0.00    -0.598 NA 
HETATM   12  H   UNL     1     -12.008  14.173  63.084  1.00  0.00     0.000 HD 
HETATM   13  C   UNL     1     -11.195  12.539  64.183  1.00  0.00    -0.382 A  
HETATM   14  C   UNL     1     -11.197  12.286  65.557  1.00  0.00    -0.376 A  
HETATM   15  C   UNL     1     -10.607  11.089  66.021  1.00  0.00    -0.275 A  
HETATM   16  C   UNL     1     -10.028  10.218  65.096  1.00  0.00    -0.325 A  
HETATM   17  C   UNL     1     -10.033  10.496  63.737  1.00  0.00    -0.324 A  
HETATM   18  O   UNL     1      -9.435   9.057  65.499  1.00  0.00    -0.365 OA 
HETATM   19  C   UNL     1     -10.626  11.665  63.251  1.00  0.00    -0.420 A  
HETATM   20  H   UNL     1      -9.040   8.464  64.869  1.00  0.00     0.000 HD 
ENDBRANCH   8   9
ENDBRANCH   2   8
TORSDOF 2
ENDMDL
MODEL       73
REMARK 921   NORMALIZED FREE ENERGY PREDICTED BY IDOCK:   -5.02 KCAL/MOL
REMARK 922        TOTAL FREE ENERGY PREDICTED BY IDOCK:   -5.90 KCAL/MOL
REMARK 923 INTER-LIGAND FREE ENERGY PREDICTED BY IDOCK:   -5.61 KCAL/MOL
REMARK 924 INTRA-LIGAND FREE ENERGY PREDICTED BY IDOCK:   -0.29 KCAL/MOL
REMARK 927      BINDING AFFINITY PREDICTED BY RF-SCORE:    0.00 PKD
ROOT
HETATM    1  N   UNL     1     -11.586  11.808  70.319  1.00  0.00    -0.517 NA 
HETATM    2  CA  UNL     1     -12.095  10.444  70.693  1.00  0.00    -0.348 C  
HETATM    3  H1  UNL     1     -12.315  12.450  70.007  1.00  0.00     0.000 HD 
HETATM    4  H2  UNL     1     -10.848  11.736  69.618  1.00  0.00     0.000 HD 
HETATM    5  OXT UNL     1     -13.651   9.704  72.442  1.00  0.00    -0.433 OA 
HETATM    6  C   UNL     1     -13.116  10.614  71.829  1.00  0.00    -0.466 C  
HETATM    7  O   UNL     1     -13.357  11.928  72.085  1.00  0.00    -0.503 OA 
ENDROOT
BRANCH   2   8
HETATM    8  C   UNL     1     -10.998   9.476  71.162  1.00  0.00    -0.438 C  
BRANCH   8   9
HETATM    9  C   UNL     1     -11.044   8.131  70.500  1.00  0.00    -0.257 A  
HETATM   10  C   UNL     1     -11.329   6.928  71.117  1.00  0.00    -0.290 A  
HETATM   11  N   UNL     1     -11.245   5.932  70.181  1.00  0.00    -0.332 NA 
HETATM   12  H   UNL     1     -11.405   4.942  70.367  1.00  0.00     0.000 HD 
HETATM   13  C   UNL     1     -10.914   6.458  68.954  1.00  0.00    -0.346 A  
HETATM   14  C   UNL     1     -10.766   7.837  69.125  1.00  0.00    -0.139 A  
HETATM   15  C   UNL     1     -10.396   8.617  68.006  1.00  0.00    -0.277 A  
HETATM   16  C   UNL     1     -10.217   7.987  66.773  1.00  0.00    -0.297 A  
HETATM   17  C   UNL     1     -10.377   6.617  66.628  1.00  0.00    -0.215 A  
HETATM   18  O   UNL     1      -9.873   8.702  65.662  1.00  0.00    -0.443 OA 
HETATM   19  C   UNL     1     -10.725   5.821  67.723  1.00  0.00    -0.306 A  
HETATM   20  H   UNL     1      -9.750   8.274  64.823  1.00  0.00     0.000 HD 
ENDBRANCH   8   9
ENDBRANCH   2   8
TORSDOF 2
ENDMDL
MODEL       74
REMARK 921   NORMALIZED FREE ENERGY PREDICTED BY IDOCK:   -5.00 KCAL/MOL
REMARK 922        TOTAL FREE ENERGY PREDICTED BY IDOCK:   -5.88 KCAL/MOL
REMARK 923 INTER-LIGAND FREE ENERGY PREDICTED BY IDOCK:   -5.56 KCAL/MOL
REMARK 924 INTRA-LIGAND FREE ENERGY PREDICTED BY IDOCK:   -0.32 KCAL/MOL
REMARK 927      BINDING AFFINITY PREDICTED BY RF-SCORE:    0.00 PKD
ROOT
HETATM    1  N   UNL     1      -9.574  11.077  62.383  1.00  0.00    -0.579 NA 
HETATM    2  CA  UNL     1      -9.794  11.232  63.862  1.00  0.00    -0.300 C  
HETATM    3  H1  UNL     1      -8.596  10.960  62.121  1.00  0.00     0.000 HD 
HETATM    4  H2  UNL     1      -9.991  11.856  61.874  1.00  0.00     0.000 HD 
HETATM    5  OXT UNL     1      -9.354   9.721  65.747  1.00  0.00    -0.186 OA 
HETATM    6  C   UNL     1      -9.249   9.975  64.557  1.00  0.00    -0.262 C  
HETATM    7  O   UNL     1      -8.624   9.152  63.672  1.00  0.00    -0.200 OA 
ENDROOT
BRANCH   2   8
HETATM    8  C   UNL     1     -11.269  11.409  64.258  1.00  0.00    -0.306 C  
BRANCH   8   9
HETATM    9  C   UNL     1     -11.550  12.664  65.027  1.00  0.00    -0.384 A  
HETATM   10  C   UNL     1     -11.849  13.901  64.489  1.00  0.00    -0.426 A  
HETATM   11  N   UNL     1     -12.012  14.791  65.517  1.00  0.00    -0.250 NA 
HETATM   12  H   UNL     1     -12.236  15.780  65.402  1.00  0.00     0.000 HD 
HETATM   13  C   UNL     1     -11.831  14.161  66.726  1.00  0.00    -0.425 A  
HETATM   14  C   UNL     1     -11.524  12.826  66.452  1.00  0.00    -0.409 A  
HETATM   15  C   UNL     1     -11.262  11.960  67.537  1.00  0.00    -0.359 A  
HETATM   16  C   UNL     1     -11.343  12.462  68.837  1.00  0.00    -0.294 A  
HETATM   17  C   UNL     1     -11.657  13.791  69.084  1.00  0.00    -0.363 A  
HETATM   18  O   UNL     1     -11.112  11.659  69.917  1.00  0.00    -0.472 OA 
HETATM   19  C   UNL     1     -11.902  14.672  68.027  1.00  0.00    -0.343 A  
HETATM   20  H   UNL     1     -11.167  12.001  70.802  1.00  0.00     0.000 HD 
ENDBRANCH   8   9
ENDBRANCH   2   8
TORSDOF 2
ENDMDL
MODEL       75
REMARK 921   NORMALIZED FREE ENERGY PREDICTED BY IDOCK:   -5.00 KCAL/MOL
REMARK 922        TOTAL FREE ENERGY PREDICTED BY IDOCK:   -5.88 KCAL/MOL
REMARK 923 INTER-LIGAND FREE ENERGY PREDICTED BY IDOCK:   -5.63 KCAL/MOL
REMARK 924 INTRA-LIGAND FREE ENERGY PREDICTED BY IDOCK:   -0.25 KCAL/MOL
REMARK 927      BINDING AFFINITY PREDICTED BY RF-SCORE:    0.00 PKD
ROOT
HETATM    1  N   UNL     1      -9.754  12.349  65.667  1.00  0.00    -0.374 NA 
HETATM    2  CA  UNL     1     -10.811  12.554  66.716  1.00  0.00    -0.249 C  
HETATM    3  H1  UNL     1      -8.930  11.852  66.002  1.00  0.00     0.000 HD 
HETATM    4  H2  UNL     1      -9.490  13.240  65.246  1.00  0.00     0.000 HD 
HETATM    5  OXT UNL     1     -12.161  10.961  68.008  1.00  0.00    -0.563 OA 
HETATM    6  C   UNL     1     -11.248  11.171  67.225  1.00  0.00    -0.277 C  
HETATM    7  O   UNL     1     -10.486  10.182  66.685  1.00  0.00    -0.228 OA 
ENDROOT
BRANCH   2   8
HETATM    8  C   UNL     1     -12.054  13.304  66.211  1.00  0.00    -0.472 C  
BRANCH   8   9
HETATM    9  C   UNL     1     -11.754  14.632  65.585  1.00  0.00    -0.304 A  
HETATM   10  C   UNL     1     -11.824  14.933  64.238  1.00  0.00    -0.297 A  
HETATM   11  N   UNL     1     -11.450  16.239  64.067  1.00  0.00    -1.521 NA 
HETATM   12  H   UNL     1     -11.408  16.721  63.169  1.00  0.00     0.000 HD 
HETATM   13  C   UNL     1     -11.139  16.808  65.280  1.00  0.00     0.007 A  
HETATM   14  C   UNL     1     -11.306  15.819  66.252  1.00  0.00     0.146 A  
HETATM   15  C   UNL     1     -11.021  16.144  67.597  1.00  0.00    -0.268 A  
HETATM   16  C   UNL     1     -10.607  17.442  67.906  1.00  0.00    -0.383 A  
HETATM   17  C   UNL     1     -10.456  18.408  66.922  1.00  0.00    -0.419 A  
HETATM   18  O   UNL     1     -10.334  17.805  69.193  1.00  0.00    -0.382 OA 
HETATM   19  C   UNL     1     -10.715  18.107  65.582  1.00  0.00    -0.045 A  
HETATM   20  H   UNL     1     -10.052  18.688  69.403  1.00  0.00     0.000 HD 
ENDBRANCH   8   9
ENDBRANCH   2   8
TORSDOF 2
ENDMDL
MODEL       76
REMARK 921   NORMALIZED FREE ENERGY PREDICTED BY IDOCK:   -4.99 KCAL/MOL
REMARK 922        TOTAL FREE ENERGY PREDICTED BY IDOCK:   -5.87 KCAL/MOL
REMARK 923 INTER-LIGAND FREE ENERGY PREDICTED BY IDOCK:   -5.64 KCAL/MOL
REMARK 924 INTRA-LIGAND FREE ENERGY PREDICTED BY IDOCK:   -0.23 KCAL/MOL
REMARK 927      BINDING AFFINITY PREDICTED BY RF-SCORE:    0.00 PKD
ROOT
HETATM    1  N   UNL     1     -11.349  13.690  66.474  1.00  0.00    -0.311 NA 
HETATM    2  CA  UNL     1     -11.485  15.072  65.898  1.00  0.00    -0.224 C  
HETATM    3  H1  UNL     1     -12.236  13.200  66.587  1.00  0.00     0.000 HD 
HETATM    4  H2  UNL     1     -10.840  13.718  67.357  1.00  0.00     0.000 HD 
HETATM    5  OXT UNL     1     -12.325  15.863  63.731  1.00  0.00    -0.791 OA 
HETATM    6  C   UNL     1     -12.153  14.947  64.520  1.00  0.00    -0.407 C  
HETATM    7  O   UNL     1     -12.537  13.666  64.270  1.00  0.00    -0.640 OA 
ENDROOT
BRANCH   2   8
HETATM    8  C   UNL     1     -10.148  15.811  65.728  1.00  0.00    -0.399 C  
BRANCH   8   9
HETATM    9  C   UNL     1      -9.891  16.857  66.770  1.00  0.00    -0.284 A  
HETATM   10  C   UNL     1     -10.752  17.228  67.783  1.00  0.00    -0.333 A  
HETATM   11  N   UNL     1     -10.164  18.232  68.505  1.00  0.00    -0.391 NA 
HETATM   12  H   UNL     1     -10.584  18.695  69.312  1.00  0.00     0.000 HD 
HETATM   13  C   UNL     1      -8.924  18.527  67.988  1.00  0.00    -0.301 A  
HETATM   14  C   UNL     1      -8.729  17.690  66.886  1.00  0.00    -0.262 A  
HETATM   15  C   UNL     1      -7.528  17.814  66.152  1.00  0.00    -0.322 A  
HETATM   16  C   UNL     1      -6.576  18.747  66.567  1.00  0.00    -0.195 A  
HETATM   17  C   UNL     1      -6.790  19.562  67.669  1.00  0.00    -0.261 A  
HETATM   18  O   UNL     1      -5.395  18.892  65.897  1.00  0.00    -0.147 OA 
HETATM   19  C   UNL     1      -7.978  19.471  68.401  1.00  0.00    -0.374 A  
HETATM   20  H   UNL     1      -4.747  19.527  66.179  1.00  0.00     0.000 HD 
ENDBRANCH   8   9
ENDBRANCH   2   8
TORSDOF 2
ENDMDL
MODEL       77
REMARK 921   NORMALIZED FREE ENERGY PREDICTED BY IDOCK:   -4.97 KCAL/MOL
REMARK 922        TOTAL FREE ENERGY PREDICTED BY IDOCK:   -5.85 KCAL/MOL
REMARK 923 INTER-LIGAND FREE ENERGY PREDICTED BY IDOCK:   -5.58 KCAL/MOL
REMARK 924 INTRA-LIGAND FREE ENERGY PREDICTED BY IDOCK:   -0.27 KCAL/MOL
REMARK 927      BINDING AFFINITY PREDICTED BY RF-SCORE:    0.00 PKD
ROOT
HETATM    1  N   UNL     1     -10.200   9.654  68.379  1.00  0.00    -0.180 NA 
HETATM    2  CA  UNL     1     -10.083   9.067  66.999  1.00  0.00    -0.250 C  
HETATM    3  H1  UNL     1     -10.832   9.141  68.994  1.00  0.00     0.000 HD 
HETATM    4  H2  UNL     1     -10.467  10.637  68.329  1.00  0.00     0.000 HD 
HETATM    5  OXT UNL     1      -9.261   6.891  66.214  1.00  0.00    -0.160 OA 
HETATM    6  C   UNL     1      -9.568   7.626  67.139  1.00  0.00    -0.162 C  
HETATM    7  O   UNL     1      -9.483   7.255  68.445  1.00  0.00    -0.142 OA 
ENDROOT
BRANCH   2   8
HETATM    8  C   UNL     1      -9.131   9.840  66.072  1.00  0.00    -0.201 C  
BRANCH   8   9
HETATM    9  C   UNL     1      -9.815  10.528  64.930  1.00  0.00    -0.379 A  
HETATM   10  C   UNL     1      -9.654  10.238  63.589  1.00  0.00    -0.277 A  
HETATM   11  N   UNL     1     -10.428  11.104  62.864  1.00  0.00    -0.778 NA 
HETATM   12  H   UNL     1     -10.495  11.114  61.845  1.00  0.00     0.000 HD 
HETATM   13  C   UNL     1     -11.101  11.960  63.704  1.00  0.00    -0.440 A  
HETATM   14  C   UNL     1     -10.725  11.633  65.009  1.00  0.00    -0.351 A  
HETATM   15  C   UNL     1     -11.263  12.391  66.073  1.00  0.00    -0.374 A  
HETATM   16  C   UNL     1     -12.164  13.418  65.784  1.00  0.00    -0.458 A  
HETATM   17  C   UNL     1     -12.527  13.718  64.479  1.00  0.00    -0.329 A  
HETATM   18  O   UNL     1     -12.719  14.168  66.780  1.00  0.00    -0.510 OA 
HETATM   19  C   UNL     1     -11.995  12.995  63.408  1.00  0.00    -0.592 A  
HETATM   20  H   UNL     1     -13.332  14.867  66.583  1.00  0.00     0.000 HD 
ENDBRANCH   8   9
ENDBRANCH   2   8
TORSDOF 2
ENDMDL
MODEL       78
REMARK 921   NORMALIZED FREE ENERGY PREDICTED BY IDOCK:   -4.97 KCAL/MOL
REMARK 922        TOTAL FREE ENERGY PREDICTED BY IDOCK:   -5.85 KCAL/MOL
REMARK 923 INTER-LIGAND FREE ENERGY PREDICTED BY IDOCK:   -5.64 KCAL/MOL
REMARK 924 INTRA-LIGAND FREE ENERGY PREDICTED BY IDOCK:   -0.20 KCAL/MOL
REMARK 927      BINDING AFFINITY PREDICTED BY RF-SCORE:    0.00 PKD
ROOT
HETATM    1  N   UNL     1     -12.095  10.611  68.267  1.00  0.00    -0.789 NA 
HETATM    2  CA  UNL     1     -11.680  11.875  68.966  1.00  0.00    -0.331 C  
HETATM    3  H1  UNL     1     -11.783   9.759  68.734  1.00  0.00     0.000 HD 
HETATM    4  H2  UNL     1     -11.785  10.620  67.295  1.00  0.00     0.000 HD 
HETATM    5  OXT UNL     1     -12.220  12.765  71.190  1.00  0.00    -0.247 OA 
HETATM    6  C   UNL     1     -12.274  11.850  70.383  1.00  0.00    -0.314 C  
HETATM    7  O   UNL     1     -12.888  10.664  70.641  1.00  0.00    -0.355 OA 
ENDROOT
BRANCH   2   8
HETATM    8  C   UNL     1     -12.148  13.159  68.262  1.00  0.00    -0.217 C  
BRANCH   8   9
HETATM    9  C   UNL     1     -11.118  13.776  67.365  1.00  0.00    -0.312 A  
HETATM   10  C   UNL     1     -10.441  13.140  66.343  1.00  0.00    -0.282 A  
HETATM   11  N   UNL     1      -9.569  14.034  65.781  1.00  0.00    -0.515 NA 
HETATM   12  H   UNL     1      -8.940  13.826  65.005  1.00  0.00     0.000 HD 
HETATM   13  C   UNL     1      -9.662  15.252  66.413  1.00  0.00    -0.285 A  
HETATM   14  C   UNL     1     -10.616  15.118  67.424  1.00  0.00    -0.271 A  
HETATM   15  C   UNL     1     -10.883  16.234  68.249  1.00  0.00    -0.340 A  
HETATM   16  C   UNL     1     -10.203  17.429  68.009  1.00  0.00    -0.345 A  
HETATM   17  C   UNL     1      -9.264  17.539  66.993  1.00  0.00    -0.253 A  
HETATM   18  O   UNL     1     -10.438  18.537  68.772  1.00  0.00    -0.420 OA 
HETATM   19  C   UNL     1      -8.969  16.444  66.175  1.00  0.00    -0.367 A  
HETATM   20  H   UNL     1      -9.975  19.351  68.608  1.00  0.00     0.000 HD 
ENDBRANCH   8   9
ENDBRANCH   2   8
TORSDOF 2
ENDMDL
MODEL       79
REMARK 921   NORMALIZED FREE ENERGY PREDICTED BY IDOCK:   -4.95 KCAL/MOL
REMARK 922        TOTAL FREE ENERGY PREDICTED BY IDOCK:   -5.83 KCAL/MOL
REMARK 923 INTER-LIGAND FREE ENERGY PREDICTED BY IDOCK:   -5.64 KCAL/MOL
REMARK 924 INTRA-LIGAND FREE ENERGY PREDICTED BY IDOCK:   -0.18 KCAL/MOL
REMARK 927      BINDING AFFINITY PREDICTED BY RF-SCORE:    0.00 PKD
ROOT
HETATM    1  N   UNL     1     -12.137  10.964  68.380  1.00  0.00    -0.818 NA 
HETATM    2  CA  UNL     1     -11.149   9.944  67.887  1.00  0.00    -0.152 C  
HETATM    3  H1  UNL     1     -12.873  10.575  68.969  1.00  0.00     0.000 HD 
HETATM    4  H2  UNL     1     -12.539  11.481  67.598  1.00  0.00     0.000 HD 
HETATM    5  OXT UNL     1      -9.576   8.484  69.080  1.00  0.00    -0.163 OA 
HETATM    6  C   UNL     1     -10.497   9.285  69.112  1.00  0.00    -0.217 C  
HETATM    7  O   UNL     1     -11.073   9.711  70.269  1.00  0.00    -0.243 OA 
ENDROOT
BRANCH   2   8
HETATM    8  C   UNL     1     -10.040  10.529  66.999  1.00  0.00    -0.259 C  
BRANCH   8   9
HETATM    9  C   UNL     1      -9.921  12.022  67.071  1.00  0.00    -0.218 A  
HETATM   10  C   UNL     1      -9.263  12.741  68.050  1.00  0.00    -0.208 A  
HETATM   11  N   UNL     1      -9.405  14.075  67.776  1.00  0.00    -0.198 NA 
HETATM   12  H   UNL     1      -9.019  14.831  68.342  1.00  0.00     0.000 HD 
HETATM   13  C   UNL     1     -10.143  14.249  66.628  1.00  0.00    -0.273 A  
HETATM   14  C   UNL     1     -10.495  12.978  66.170  1.00  0.00    -0.289 A  
HETATM   15  C   UNL     1     -11.289  12.879  65.005  1.00  0.00    -0.338 A  
HETATM   16  C   UNL     1     -11.670  14.050  64.345  1.00  0.00    -0.397 A  
HETATM   17  C   UNL     1     -11.301  15.301  64.818  1.00  0.00    -0.396 A  
HETATM   18  O   UNL     1     -12.424  14.003  63.209  1.00  0.00    -1.139 OA 
HETATM   19  C   UNL     1     -10.531  15.425  65.978  1.00  0.00    -0.333 A  
HETATM   20  H   UNL     1     -12.684  14.799  62.760  1.00  0.00     0.000 HD 
ENDBRANCH   8   9
ENDBRANCH   2   8
TORSDOF 2
ENDMDL
MODEL       80
REMARK 921   NORMALIZED FREE ENERGY PREDICTED BY IDOCK:   -4.94 KCAL/MOL
REMARK 922        TOTAL FREE ENERGY PREDICTED BY IDOCK:   -5.81 KCAL/MOL
REMARK 923 INTER-LIGAND FREE ENERGY PREDICTED BY IDOCK:   -5.49 KCAL/MOL
REMARK 924 INTRA-LIGAND FREE ENERGY PREDICTED BY IDOCK:   -0.32 KCAL/MOL
REMARK 927      BINDING AFFINITY PREDICTED BY RF-SCORE:    0.00 PKD
ROOT
HETATM    1  N   UNL     1     -11.278   6.872  68.243  1.00  0.00    -0.529 NA 
HETATM    2  CA  UNL     1     -10.625   7.725  67.191  1.00  0.00    -0.331 C  
HETATM    3  H1  UNL     1     -11.743   6.043  67.872  1.00  0.00     0.000 HD 
HETATM    4  H2  UNL     1     -11.926   7.425  68.803  1.00  0.00     0.000 HD 
HETATM    5  OXT UNL     1      -8.796   7.267  65.619  1.00  0.00    -0.119 OA 
HETATM    6  C   UNL     1      -9.582   6.865  66.463  1.00  0.00    -0.143 C  
HETATM    7  O   UNL     1      -9.629   5.571  66.881  1.00  0.00    -0.127 OA 
ENDROOT
BRANCH   2   8
HETATM    8  C   UNL     1      -9.926   8.975  67.749  1.00  0.00    -0.235 C  
BRANCH   8   9
HETATM    9  C   UNL     1     -10.610  10.264  67.406  1.00  0.00    -0.324 A  
HETATM   10  C   UNL     1     -11.371  11.036  68.263  1.00  0.00    -0.299 A  
HETATM   11  N   UNL     1     -11.843  12.116  67.566  1.00  0.00    -0.553 NA 
HETATM   12  H   UNL     1     -12.437  12.848  67.957  1.00  0.00     0.000 HD 
HETATM   13  C   UNL     1     -11.402  12.074  66.264  1.00  0.00    -0.357 A  
HETATM   14  C   UNL     1     -10.637  10.913  66.128  1.00  0.00    -0.270 A  
HETATM   15  C   UNL     1     -10.083  10.617  64.862  1.00  0.00    -0.402 A  
HETATM   16  C   UNL     1     -10.301  11.504  63.806  1.00  0.00    -0.399 A  
HETATM   17  C   UNL     1     -11.059  12.654  63.969  1.00  0.00    -0.453 A  
HETATM   18  O   UNL     1      -9.774  11.267  62.569  1.00  0.00    -0.574 OA 
HETATM   19  C   UNL     1     -11.632  12.960  65.206  1.00  0.00    -0.376 A  
HETATM   20  H   UNL     1      -9.922  11.870  61.850  1.00  0.00     0.000 HD 
ENDBRANCH   8   9
ENDBRANCH   2   8
TORSDOF 2
ENDMDL
MODEL       81
REMARK 921   NORMALIZED FREE ENERGY PREDICTED BY IDOCK:   -4.92 KCAL/MOL
REMARK 922        TOTAL FREE ENERGY PREDICTED BY IDOCK:   -5.80 KCAL/MOL
REMARK 923 INTER-LIGAND FREE ENERGY PREDICTED BY IDOCK:   -5.79 KCAL/MOL
REMARK 924 INTRA-LIGAND FREE ENERGY PREDICTED BY IDOCK:   -0.01 KCAL/MOL
REMARK 927      BINDING AFFINITY PREDICTED BY RF-SCORE:    0.00 PKD
ROOT
HETATM    1  N   UNL     1      -9.702   4.865  72.633  1.00  0.00    -0.148 NA 
HETATM    2  CA  UNL     1     -10.125   5.894  71.622  1.00  0.00    -0.190 C  
HETATM    3  H1  UNL     1     -10.341   4.073  72.709  1.00  0.00     0.000 HD 
HETATM    4  H2  UNL     1      -9.557   5.297  73.546  1.00  0.00     0.000 HD 
HETATM    5  OXT UNL     1     -10.429   5.766  69.189  1.00  0.00    -0.223 OA 
HETATM    6  C   UNL     1     -10.213   5.205  70.252  1.00  0.00    -0.271 C  
HETATM    7  O   UNL     1     -10.009   3.864  70.359  1.00  0.00    -0.162 OA 
ENDROOT
BRANCH   2   8
HETATM    8  C   UNL     1      -9.163   7.087  71.508  1.00  0.00    -0.153 C  
BRANCH   8   9
HETATM    9  C   UNL     1      -9.811   8.354  71.037  1.00  0.00    -0.232 A  
HETATM   10  C   UNL     1      -9.282   9.253  70.132  1.00  0.00    -0.225 A  
HETATM   11  N   UNL     1     -10.165  10.289  69.985  1.00  0.00    -0.412 NA 
HETATM   12  H   UNL     1     -10.022  11.096  69.377  1.00  0.00     0.000 HD 
HETATM   13  C   UNL     1     -11.273  10.087  70.775  1.00  0.00    -0.352 A  
HETATM   14  C   UNL     1     -11.074   8.886  71.460  1.00  0.00    -0.397 A  
HETATM   15  C   UNL     1     -12.067   8.458  72.369  1.00  0.00    -0.443 A  
HETATM   16  C   UNL     1     -13.216   9.236  72.531  1.00  0.00    -0.366 A  
HETATM   17  C   UNL     1     -13.392  10.422  71.832  1.00  0.00    -0.469 A  
HETATM   18  O   UNL     1     -14.208   8.856  73.387  1.00  0.00    -1.241 OA 
HETATM   19  C   UNL     1     -12.416  10.876  70.941  1.00  0.00    -0.507 A  
HETATM   20  H   UNL     1     -14.989   9.386  73.497  1.00  0.00     0.000 HD 
ENDBRANCH   8   9
ENDBRANCH   2   8
TORSDOF 2
ENDMDL
MODEL       82
REMARK 921   NORMALIZED FREE ENERGY PREDICTED BY IDOCK:   -4.91 KCAL/MOL
REMARK 922        TOTAL FREE ENERGY PREDICTED BY IDOCK:   -5.78 KCAL/MOL
REMARK 923 INTER-LIGAND FREE ENERGY PREDICTED BY IDOCK:   -5.51 KCAL/MOL
REMARK 924 INTRA-LIGAND FREE ENERGY PREDICTED BY IDOCK:   -0.27 KCAL/MOL
REMARK 927      BINDING AFFINITY PREDICTED BY RF-SCORE:    0.00 PKD
ROOT
HETATM    1  N   UNL     1      -8.440  12.402  68.174  1.00  0.00    -0.174 NA 
HETATM    2  CA  UNL     1      -9.034  11.097  68.624  1.00  0.00    -0.162 C  
HETATM    3  H1  UNL     1      -7.420  12.405  68.153  1.00  0.00     0.000 HD 
HETATM    4  H2  UNL     1      -8.789  13.172  68.744  1.00  0.00     0.000 HD 
HETATM    5  OXT UNL     1      -8.935   8.839  67.666  1.00  0.00    -0.134 OA 
HETATM    6  C   UNL     1      -8.562  10.001  67.657  1.00  0.00    -0.118 C  
HETATM    7  O   UNL     1      -7.661  10.487  66.761  1.00  0.00    -0.106 OA 
ENDROOT
BRANCH   2   8
HETATM    8  C   UNL     1     -10.571  11.091  68.657  1.00  0.00    -0.225 C  
BRANCH   8   9
HETATM    9  C   UNL     1     -11.203  12.262  67.966  1.00  0.00    -0.321 A  
HETATM   10  C   UNL     1     -11.721  13.386  68.577  1.00  0.00    -0.357 A  
HETATM   11  N   UNL     1     -12.229  14.209  67.608  1.00  0.00    -0.574 NA 
HETATM   12  H   UNL     1     -12.677  15.110  67.783  1.00  0.00     0.000 HD 
HETATM   13  C   UNL     1     -12.050  13.649  66.365  1.00  0.00    -0.433 A  
HETATM   14  C   UNL     1     -11.421  12.416  66.557  1.00  0.00    -0.427 A  
HETATM   15  C   UNL     1     -11.145  11.618  65.425  1.00  0.00    -0.299 A  
HETATM   16  C   UNL     1     -11.488  12.099  64.159  1.00  0.00    -0.387 A  
HETATM   17  C   UNL     1     -12.106  13.330  63.994  1.00  0.00    -0.508 A  
HETATM   18  O   UNL     1     -11.228  11.369  63.036  1.00  0.00    -0.821 OA 
HETATM   19  C   UNL     1     -12.406  14.130  65.100  1.00  0.00    -0.460 A  
HETATM   20  H   UNL     1     -11.462  11.696  62.174  1.00  0.00     0.000 HD 
ENDBRANCH   8   9
ENDBRANCH   2   8
TORSDOF 2
ENDMDL
MODEL       83
REMARK 921   NORMALIZED FREE ENERGY PREDICTED BY IDOCK:   -4.91 KCAL/MOL
REMARK 922        TOTAL FREE ENERGY PREDICTED BY IDOCK:   -5.77 KCAL/MOL
REMARK 923 INTER-LIGAND FREE ENERGY PREDICTED BY IDOCK:   -5.45 KCAL/MOL
REMARK 924 INTRA-LIGAND FREE ENERGY PREDICTED BY IDOCK:   -0.33 KCAL/MOL
REMARK 927      BINDING AFFINITY PREDICTED BY RF-SCORE:    0.00 PKD
ROOT
HETATM    1  N   UNL     1     -13.752   8.934  72.951  1.00  0.00    -0.913 NA 
HETATM    2  CA  UNL     1     -13.053   8.858  71.622  1.00  0.00    -0.357 C  
HETATM    3  H1  UNL     1     -14.623   8.405  72.990  1.00  0.00     0.000 HD 
HETATM    4  H2  UNL     1     -13.910   9.906  73.218  1.00  0.00     0.000 HD 
HETATM    5  OXT UNL     1     -12.089   6.966  70.390  1.00  0.00    -0.318 OA 
HETATM    6  C   UNL     1     -12.741   7.381  71.335  1.00  0.00    -0.369 C  
HETATM    7  O   UNL     1     -13.282   6.567  72.281  1.00  0.00    -0.041 OA 
ENDROOT
BRANCH   2   8
HETATM    8  C   UNL     1     -11.741   9.656  71.561  1.00  0.00    -0.472 C  
BRANCH   8   9
HETATM    9  C   UNL     1     -11.709  10.701  70.487  1.00  0.00    -0.451 A  
HETATM   10  C   UNL     1     -12.204  11.987  70.586  1.00  0.00    -0.316 A  
HETATM   11  N   UNL     1     -12.009  12.618  69.387  1.00  0.00    -0.289 NA 
HETATM   12  H   UNL     1     -12.284  13.580  69.182  1.00  0.00     0.000 HD 
HETATM   13  C   UNL     1     -11.388  11.772  68.498  1.00  0.00    -0.273 A  
HETATM   14  C   UNL     1     -11.200  10.553  69.155  1.00  0.00    -0.314 A  
HETATM   15  C   UNL     1     -10.599   9.491  68.443  1.00  0.00    -0.261 A  
HETATM   16  C   UNL     1     -10.196   9.706  67.123  1.00  0.00    -0.243 A  
HETATM   17  C   UNL     1     -10.388  10.928  66.495  1.00  0.00    -0.299 A  
HETATM   18  O   UNL     1      -9.599   8.713  66.400  1.00  0.00    -0.209 OA 
HETATM   19  C   UNL     1     -10.997  11.988  67.173  1.00  0.00    -0.320 A  
HETATM   20  H   UNL     1      -9.325   8.859  65.502  1.00  0.00     0.000 HD 
ENDBRANCH   8   9
ENDBRANCH   2   8
TORSDOF 2
ENDMDL
MODEL       84
REMARK 921   NORMALIZED FREE ENERGY PREDICTED BY IDOCK:   -4.90 KCAL/MOL
REMARK 922        TOTAL FREE ENERGY PREDICTED BY IDOCK:   -5.77 KCAL/MOL
REMARK 923 INTER-LIGAND FREE ENERGY PREDICTED BY IDOCK:   -5.51 KCAL/MOL
REMARK 924 INTRA-LIGAND FREE ENERGY PREDICTED BY IDOCK:   -0.26 KCAL/MOL
REMARK 927      BINDING AFFINITY PREDICTED BY RF-SCORE:    0.00 PKD
ROOT
HETATM    1  N   UNL     1      -7.838  16.679  68.174  1.00  0.00    -0.170 NA 
HETATM    2  CA  UNL     1      -7.830  15.250  68.641  1.00  0.00    -0.142 C  
HETATM    3  H1  UNL     1      -7.870  17.361  68.932  1.00  0.00     0.000 HD 
HETATM    4  H2  UNL     1      -8.601  16.837  67.517  1.00  0.00     0.000 HD 
HETATM    5  OXT UNL     1      -6.223  13.983  69.998  1.00  0.00    -0.136 OA 
HETATM    6  C   UNL     1      -6.594  15.049  69.532  1.00  0.00    -0.155 C  
HETATM    7  O   UNL     1      -5.940  16.223  69.743  1.00  0.00    -0.170 OA 
ENDROOT
BRANCH   2   8
HETATM    8  C   UNL     1      -7.782  14.221  67.500  1.00  0.00    -0.208 C  
BRANCH   8   9
HETATM    9  C   UNL     1      -9.104  13.580  67.198  1.00  0.00    -0.232 A  
HETATM   10  C   UNL     1      -9.566  12.384  67.711  1.00  0.00    -0.202 A  
HETATM   11  N   UNL     1     -10.799  12.131  67.173  1.00  0.00    -0.235 NA 
HETATM   12  H   UNL     1     -11.368  11.309  67.379  1.00  0.00     0.000 HD 
HETATM   13  C   UNL     1     -11.163  13.145  66.317  1.00  0.00    -0.301 A  
HETATM   14  C   UNL     1     -10.111  14.064  66.299  1.00  0.00    -0.307 A  
HETATM   15  C   UNL     1     -10.224  15.199  65.466  1.00  0.00    -0.405 A  
HETATM   16  C   UNL     1     -11.388  15.371  64.713  1.00  0.00    -0.376 A  
HETATM   17  C   UNL     1     -12.421  14.447  64.754  1.00  0.00    -0.371 A  
HETATM   18  O   UNL     1     -11.547  16.460  63.905  1.00  0.00    -1.564 OA 
HETATM   19  C   UNL     1     -12.326  13.307  65.557  1.00  0.00    -0.533 A  
HETATM   20  H   UNL     1     -12.339  16.576  63.392  1.00  0.00     0.000 HD 
ENDBRANCH   8   9
ENDBRANCH   2   8
TORSDOF 2
ENDMDL
MODEL       85
REMARK 921   NORMALIZED FREE ENERGY PREDICTED BY IDOCK:   -4.89 KCAL/MOL
REMARK 922        TOTAL FREE ENERGY PREDICTED BY IDOCK:   -5.76 KCAL/MOL
REMARK 923 INTER-LIGAND FREE ENERGY PREDICTED BY IDOCK:   -5.51 KCAL/MOL
REMARK 924 INTRA-LIGAND FREE ENERGY PREDICTED BY IDOCK:   -0.25 KCAL/MOL
REMARK 927      BINDING AFFINITY PREDICTED BY RF-SCORE:    0.00 PKD
ROOT
HETATM    1  N   UNL     1     -11.822  13.054  66.857  1.00  0.00    -0.382 NA 
HETATM    2  CA  UNL     1     -11.770  14.125  65.804  1.00  0.00    -0.359 C  
HETATM    3  H1  UNL     1     -12.767  12.752  67.093  1.00  0.00     0.000 HD 
HETATM    4  H2  UNL     1     -11.320  13.349  67.694  1.00  0.00     0.000 HD 
HETATM    5  OXT UNL     1     -12.482  14.143  63.454  1.00  0.00    -0.797 OA 
HETATM    6  C   UNL     1     -12.439  13.576  64.534  1.00  0.00    -0.291 C  
HETATM    7  O   UNL     1     -12.986  12.350  64.755  1.00  0.00    -0.786 OA 
ENDROOT
BRANCH   2   8
HETATM    8  C   UNL     1     -10.346  14.581  65.448  1.00  0.00    -0.405 C  
BRANCH   8   9
HETATM    9  C   UNL     1     -10.089  16.037  65.697  1.00  0.00    -0.384 A  
HETATM   10  C   UNL     1     -10.983  17.069  65.494  1.00  0.00     0.026 A  
HETATM   11  N   UNL     1     -10.363  18.248  65.812  1.00  0.00    -0.618 NA 
HETATM   12  H   UNL     1     -10.795  19.170  65.749  1.00  0.00     0.000 HD 
HETATM   13  C   UNL     1      -9.073  18.010  66.228  1.00  0.00    -0.178 A  
HETATM   14  C   UNL     1      -8.866  16.631  66.152  1.00  0.00    -0.323 A  
HETATM   15  C   UNL     1      -7.595  16.122  66.504  1.00  0.00    -0.168 A  
HETATM   16  C   UNL     1      -6.607  17.010  66.934  1.00  0.00    -0.216 A  
HETATM   17  C   UNL     1      -6.841  18.376  67.007  1.00  0.00    -0.207 A  
HETATM   18  O   UNL     1      -5.370  16.563  67.297  1.00  0.00    -0.133 OA 
HETATM   19  C   UNL     1      -8.084  18.906  66.647  1.00  0.00    -0.290 A  
HETATM   20  H   UNL     1      -4.697  17.168  67.590  1.00  0.00     0.000 HD 
ENDBRANCH   8   9
ENDBRANCH   2   8
TORSDOF 2
ENDMDL
MODEL       86
REMARK 921   NORMALIZED FREE ENERGY PREDICTED BY IDOCK:   -4.86 KCAL/MOL
REMARK 922        TOTAL FREE ENERGY PREDICTED BY IDOCK:   -5.73 KCAL/MOL
REMARK 923 INTER-LIGAND FREE ENERGY PREDICTED BY IDOCK:   -5.51 KCAL/MOL
REMARK 924 INTRA-LIGAND FREE ENERGY PREDICTED BY IDOCK:   -0.21 KCAL/MOL
REMARK 927      BINDING AFFINITY PREDICTED BY RF-SCORE:    0.00 PKD
ROOT
HETATM    1  N   UNL     1     -11.288  10.128  68.344  1.00  0.00    -0.508 NA 
HETATM    2  CA  UNL     1     -12.112  11.222  68.964  1.00  0.00    -0.257 C  
HETATM    3  H1  UNL     1     -11.404  10.045  67.334  1.00  0.00     0.000 HD 
HETATM    4  H2  UNL     1     -11.474   9.235  68.801  1.00  0.00     0.000 HD 
HETATM    5  OXT UNL     1     -12.096  13.657  68.650  1.00  0.00    -0.360 OA 
HETATM    6  C   UNL     1     -11.700  12.552  68.314  1.00  0.00    -0.340 C  
HETATM    7  O   UNL     1     -10.817  12.353  67.298  1.00  0.00    -0.231 OA 
ENDROOT
BRANCH   2   8
HETATM    8  C   UNL     1     -11.938  11.347  70.486  1.00  0.00    -0.451 C  
BRANCH   8   9
HETATM    9  C   UNL     1     -12.174  10.071  71.236  1.00  0.00    -0.498 A  
HETATM   10  C   UNL     1     -13.387   9.621  71.718  1.00  0.00    -0.419 A  
HETATM   11  N   UNL     1     -13.181   8.433  72.366  1.00  0.00    -0.565 NA 
HETATM   12  H   UNL     1     -13.910   7.882  72.822  1.00  0.00     0.000 HD 
HETATM   13  C   UNL     1     -11.850   8.087  72.315  1.00  0.00    -0.369 A  
HETATM   14  C   UNL     1     -11.188   9.104  71.624  1.00  0.00    -0.447 A  
HETATM   15  C   UNL     1      -9.789   9.002  71.456  1.00  0.00    -0.381 A  
HETATM   16  C   UNL     1      -9.128   7.882  71.963  1.00  0.00    -0.148 A  
HETATM   17  C   UNL     1      -9.810   6.881  72.640  1.00  0.00    -0.184 A  
HETATM   18  O   UNL     1      -7.779   7.734  71.812  1.00  0.00    -0.081 OA 
HETATM   19  C   UNL     1     -11.191   6.968  72.835  1.00  0.00    -0.273 A  
HETATM   20  H   UNL     1      -7.329   6.972  72.158  1.00  0.00     0.000 HD 
ENDBRANCH   8   9
ENDBRANCH   2   8
TORSDOF 2
ENDMDL
MODEL       87
REMARK 921   NORMALIZED FREE ENERGY PREDICTED BY IDOCK:   -4.85 KCAL/MOL
REMARK 922        TOTAL FREE ENERGY PREDICTED BY IDOCK:   -5.71 KCAL/MOL
REMARK 923 INTER-LIGAND FREE ENERGY PREDICTED BY IDOCK:   -5.44 KCAL/MOL
REMARK 924 INTRA-LIGAND FREE ENERGY PREDICTED BY IDOCK:   -0.27 KCAL/MOL
REMARK 927      BINDING AFFINITY PREDICTED BY RF-SCORE:    0.00 PKD
ROOT
HETATM    1  N   UNL     1     -12.923  14.025  64.973  1.00  0.00    -0.742 NA 
HETATM    2  CA  UNL     1     -11.610  13.297  64.885  1.00  0.00    -0.325 C  
HETATM    3  H1  UNL     1     -13.263  14.373  64.076  1.00  0.00     0.000 HD 
HETATM    4  H2  UNL     1     -12.869  14.781  65.654  1.00  0.00     0.000 HD 
HETATM    5  OXT UNL     1     -10.957  11.241  63.713  1.00  0.00    -0.387 OA 
HETATM    6  C   UNL     1     -11.792  12.104  63.934  1.00  0.00    -0.466 C  
HETATM    7  O   UNL     1     -13.024  12.114  63.357  1.00  0.00    -0.776 OA 
ENDROOT
BRANCH   2   8
HETATM    8  C   UNL     1     -11.097  12.773  66.236  1.00  0.00    -0.321 C  
BRANCH   8   9
HETATM    9  C   UNL     1      -9.751  13.304  66.627  1.00  0.00    -0.270 A  
HETATM   10  C   UNL     1      -8.594  12.564  66.773  1.00  0.00    -0.109 A  
HETATM   11  N   UNL     1      -7.589  13.407  67.165  1.00  0.00    -0.371 NA 
HETATM   12  H   UNL     1      -6.626  13.122  67.348  1.00  0.00     0.000 HD 
HETATM   13  C   UNL     1      -8.062  14.694  67.276  1.00  0.00    -0.206 A  
HETATM   14  C   UNL     1      -9.422  14.659  66.959  1.00  0.00    -0.249 A  
HETATM   15  C   UNL     1     -10.158  15.863  67.024  1.00  0.00    -0.268 A  
HETATM   16  C   UNL     1      -9.497  17.041  67.378  1.00  0.00    -0.242 A  
HETATM   17  C   UNL     1      -8.143  17.050  67.681  1.00  0.00    -0.190 A  
HETATM   18  O   UNL     1     -10.165  18.231  67.441  1.00  0.00    -0.335 OA 
HETATM   19  C   UNL     1      -7.397  15.869  67.642  1.00  0.00    -0.180 A  
HETATM   20  H   UNL     1      -9.714  19.032  67.682  1.00  0.00     0.000 HD 
ENDBRANCH   8   9
ENDBRANCH   2   8
TORSDOF 2
ENDMDL
MODEL       88
REMARK 921   NORMALIZED FREE ENERGY PREDICTED BY IDOCK:   -4.82 KCAL/MOL
REMARK 922        TOTAL FREE ENERGY PREDICTED BY IDOCK:   -5.68 KCAL/MOL
REMARK 923 INTER-LIGAND FREE ENERGY PREDICTED BY IDOCK:   -5.44 KCAL/MOL
REMARK 924 INTRA-LIGAND FREE ENERGY PREDICTED BY IDOCK:   -0.25 KCAL/MOL
REMARK 927      BINDING AFFINITY PREDICTED BY RF-SCORE:    0.00 PKD
ROOT
HETATM    1  N   UNL     1      -9.653  16.293  69.274  1.00  0.00    -0.244 NA 
HETATM    2  CA  UNL     1      -9.829  15.224  68.231  1.00  0.00    -0.218 C  
HETATM    3  H1  UNL     1      -8.712  16.686  69.307  1.00  0.00     0.000 HD 
HETATM    4  H2  UNL     1      -9.930  15.947  70.193  1.00  0.00     0.000 HD 
HETATM    5  OXT UNL     1      -9.647  15.282  65.784  1.00  0.00    -0.334 OA 
HETATM    6  C   UNL     1      -9.508  15.840  66.861  1.00  0.00    -0.228 C  
HETATM    7  O   UNL     1      -9.046  17.113  66.987  1.00  0.00    -0.220 OA 
ENDROOT
BRANCH   2   8
HETATM    8  C   UNL     1     -11.246  14.630  68.181  1.00  0.00    -0.304 C  
BRANCH   8   9
HETATM    9  C   UNL     1     -11.316  13.181  68.557  1.00  0.00    -0.321 A  
HETATM   10  C   UNL     1     -10.826  12.122  67.817  1.00  0.00    -0.224 A  
HETATM   11  N   UNL     1     -11.109  10.961  68.484  1.00  0.00    -0.235 NA 
HETATM   12  H   UNL     1     -10.862  10.026  68.158  1.00  0.00     0.000 HD 
HETATM   13  C   UNL     1     -11.774  11.235  69.657  1.00  0.00    -0.350 A  
HETATM   14  C   UNL     1     -11.933  12.621  69.724  1.00  0.00    -0.365 A  
HETATM   15  C   UNL     1     -12.619  13.166  70.832  1.00  0.00    -0.377 A  
HETATM   16  C   UNL     1     -13.089  12.305  71.826  1.00  0.00    -0.344 A  
HETATM   17  C   UNL     1     -12.912  10.932  71.739  1.00  0.00    -0.557 A  
HETATM   18  O   UNL     1     -13.744  12.788  72.922  1.00  0.00    -0.676 OA 
HETATM   19  C   UNL     1     -12.253  10.367  70.644  1.00  0.00    -0.441 A  
HETATM   20  H   UNL     1     -14.064  12.201  73.598  1.00  0.00     0.000 HD 
ENDBRANCH   8   9
ENDBRANCH   2   8
TORSDOF 2
ENDMDL
MODEL       89
REMARK 921   NORMALIZED FREE ENERGY PREDICTED BY IDOCK:   -4.81 KCAL/MOL
REMARK 922        TOTAL FREE ENERGY PREDICTED BY IDOCK:   -5.66 KCAL/MOL
REMARK 923 INTER-LIGAND FREE ENERGY PREDICTED BY IDOCK:   -5.46 KCAL/MOL
REMARK 924 INTRA-LIGAND FREE ENERGY PREDICTED BY IDOCK:   -0.20 KCAL/MOL
REMARK 927      BINDING AFFINITY PREDICTED BY RF-SCORE:    0.00 PKD
ROOT
HETATM    1  N   UNL     1     -10.961  13.606  68.757  1.00  0.00    -0.258 NA 
HETATM    2  CA  UNL     1     -10.937  12.423  67.830  1.00  0.00    -0.228 C  
HETATM    3  H1  UNL     1     -10.372  14.382  68.453  1.00  0.00     0.000 HD 
HETATM    4  H2  UNL     1     -10.719  13.324  69.707  1.00  0.00     0.000 HD 
HETATM    5  OXT UNL     1     -11.622  12.169  65.487  1.00  0.00    -0.359 OA 
HETATM    6  C   UNL     1     -11.421  12.892  66.450  1.00  0.00    -0.341 C  
HETATM    7  O   UNL     1     -11.612  14.239  66.423  1.00  0.00    -0.346 OA 
ENDROOT
BRANCH   2   8
HETATM    8  C   UNL     1     -11.823  11.254  68.289  1.00  0.00    -0.299 C  
BRANCH   8   9
HETATM    9  C   UNL     1     -11.103  10.223  69.106  1.00  0.00    -0.283 A  
HETATM   10  C   UNL     1      -9.881   9.654  68.806  1.00  0.00    -0.165 A  
HETATM   11  N   UNL     1      -9.579   8.741  69.781  1.00  0.00    -0.169 NA 
HETATM   12  H   UNL     1      -8.733   8.172  69.806  1.00  0.00     0.000 HD 
HETATM   13  C   UNL     1     -10.581   8.702  70.723  1.00  0.00    -0.210 A  
HETATM   14  C   UNL     1     -11.561   9.611  70.319  1.00  0.00    -0.255 A  
HETATM   15  C   UNL     1     -12.723   9.743  71.111  1.00  0.00    -0.433 A  
HETATM   16  C   UNL     1     -12.838   8.981  72.275  1.00  0.00    -0.406 A  
HETATM   17  C   UNL     1     -11.847   8.089  72.659  1.00  0.00    -0.380 A  
HETATM   18  O   UNL     1     -13.937   9.085  73.078  1.00  0.00    -1.039 OA 
HETATM   19  C   UNL     1     -10.696   7.927  71.883  1.00  0.00    -0.290 A  
HETATM   20  H   UNL     1     -14.015   8.566  73.870  1.00  0.00     0.000 HD 
ENDBRANCH   8   9
ENDBRANCH   2   8
TORSDOF 2
ENDMDL
MODEL       90
REMARK 921   NORMALIZED FREE ENERGY PREDICTED BY IDOCK:   -4.80 KCAL/MOL
REMARK 922        TOTAL FREE ENERGY PREDICTED BY IDOCK:   -5.66 KCAL/MOL
REMARK 923 INTER-LIGAND FREE ENERGY PREDICTED BY IDOCK:   -5.40 KCAL/MOL
REMARK 924 INTRA-LIGAND FREE ENERGY PREDICTED BY IDOCK:   -0.25 KCAL/MOL
REMARK 927      BINDING AFFINITY PREDICTED BY RF-SCORE:    0.00 PKD
ROOT
HETATM    1  N   UNL     1      -9.295   4.402  69.327  1.00  0.00    -0.141 NA 
HETATM    2  CA  UNL     1     -10.324   5.486  69.168  1.00  0.00    -0.248 C  
HETATM    3  H1  UNL     1      -9.513   3.547  68.817  1.00  0.00     0.000 HD 
HETATM    4  H2  UNL     1      -9.135   4.201  70.314  1.00  0.00     0.000 HD 
HETATM    5  OXT UNL     1     -11.099   6.727  67.196  1.00  0.00    -0.384 OA 
HETATM    6  C   UNL     1     -10.432   5.822  67.672  1.00  0.00    -0.235 C  
HETATM    7  O   UNL     1      -9.674   4.979  66.920  1.00  0.00    -0.141 OA 
ENDROOT
BRANCH   2   8
HETATM    8  C   UNL     1      -9.996   6.776  69.937  1.00  0.00    -0.184 C  
BRANCH   8   9
HETATM    9  C   UNL     1     -11.139   7.317  70.742  1.00  0.00    -0.290 A  
HETATM   10  C   UNL     1     -12.001   6.580  71.530  1.00  0.00    -0.329 A  
HETATM   11  N   UNL     1     -12.921   7.433  72.078  1.00  0.00    -0.505 NA 
HETATM   12  H   UNL     1     -13.680   7.152  72.700  1.00  0.00     0.000 HD 
HETATM   13  C   UNL     1     -12.677   8.724  71.668  1.00  0.00    -0.348 A  
HETATM   14  C   UNL     1     -11.572   8.681  70.815  1.00  0.00    -0.273 A  
HETATM   15  C   UNL     1     -11.128   9.888  70.230  1.00  0.00    -0.368 A  
HETATM   16  C   UNL     1     -11.793  11.076  70.543  1.00  0.00    -0.367 A  
HETATM   17  C   UNL     1     -12.885  11.092  71.399  1.00  0.00    -0.548 A  
HETATM   18  O   UNL     1     -11.391  12.267  70.012  1.00  0.00    -0.511 OA 
HETATM   19  C   UNL     1     -13.354   9.909  71.976  1.00  0.00    -0.532 A  
HETATM   20  H   UNL     1     -11.844  13.075  70.225  1.00  0.00     0.000 HD 
ENDBRANCH   8   9
ENDBRANCH   2   8
TORSDOF 2
ENDMDL
MODEL       91
REMARK 921   NORMALIZED FREE ENERGY PREDICTED BY IDOCK:   -4.79 KCAL/MOL
REMARK 922        TOTAL FREE ENERGY PREDICTED BY IDOCK:   -5.64 KCAL/MOL
REMARK 923 INTER-LIGAND FREE ENERGY PREDICTED BY IDOCK:   -5.41 KCAL/MOL
REMARK 924 INTRA-LIGAND FREE ENERGY PREDICTED BY IDOCK:   -0.23 KCAL/MOL
REMARK 927      BINDING AFFINITY PREDICTED BY RF-SCORE:    0.00 PKD
ROOT
HETATM    1  N   UNL     1      -9.550   8.790  72.336  1.00  0.00    -0.281 NA 
HETATM    2  CA  UNL     1     -10.949   8.241  72.282  1.00  0.00    -0.348 C  
HETATM    3  H1  UNL     1      -9.085   8.648  73.233  1.00  0.00     0.000 HD 
HETATM    4  H2  UNL     1      -9.542   9.777  72.079  1.00  0.00     0.000 HD 
HETATM    5  OXT UNL     1     -11.816   5.954  72.498  1.00  0.00    -0.295 OA 
HETATM    6  C   UNL     1     -10.877   6.732  72.564  1.00  0.00    -0.239 C  
HETATM    7  O   UNL     1      -9.615   6.350  72.897  1.00  0.00    -0.153 OA 
ENDROOT
BRANCH   2   8
HETATM    8  C   UNL     1     -11.650   8.454  70.931  1.00  0.00    -0.288 C  
BRANCH   8   9
HETATM    9  C   UNL     1     -11.447   9.818  70.344  1.00  0.00    -0.347 A  
HETATM   10  C   UNL     1     -10.606  10.138  69.297  1.00  0.00    -0.230 A  
HETATM   11  N   UNL     1     -10.683  11.487  69.077  1.00  0.00    -0.264 NA 
HETATM   12  H   UNL     1     -10.160  11.993  68.361  1.00  0.00     0.000 HD 
HETATM   13  C   UNL     1     -11.566  12.064  69.960  1.00  0.00    -0.195 A  
HETATM   14  C   UNL     1     -12.052  11.043  70.780  1.00  0.00    -0.467 A  
HETATM   15  C   UNL     1     -12.967  11.380  71.802  1.00  0.00    -0.519 A  
HETATM   16  C   UNL     1     -13.367  12.711  71.939  1.00  0.00    -0.387 A  
HETATM   17  C   UNL     1     -12.875  13.705  71.107  1.00  0.00    -0.399 A  
HETATM   18  O   UNL     1     -14.260  13.080  72.903  1.00  0.00    -0.602 OA 
HETATM   19  C   UNL     1     -11.955  13.400  70.100  1.00  0.00    -0.396 A  
HETATM   20  H   UNL     1     -14.532  13.986  72.996  1.00  0.00     0.000 HD 
ENDBRANCH   8   9
ENDBRANCH   2   8
TORSDOF 2
ENDMDL
MODEL       92
REMARK 921   NORMALIZED FREE ENERGY PREDICTED BY IDOCK:   -4.79 KCAL/MOL
REMARK 922        TOTAL FREE ENERGY PREDICTED BY IDOCK:   -5.64 KCAL/MOL
REMARK 923 INTER-LIGAND FREE ENERGY PREDICTED BY IDOCK:   -5.38 KCAL/MOL
REMARK 924 INTRA-LIGAND FREE ENERGY PREDICTED BY IDOCK:   -0.26 KCAL/MOL
REMARK 927      BINDING AFFINITY PREDICTED BY RF-SCORE:    0.00 PKD
ROOT
HETATM    1  N   UNL     1      -8.665  12.645  67.728  1.00  0.00    -0.168 NA 
HETATM    2  CA  UNL     1      -9.470  12.781  66.466  1.00  0.00    -0.253 C  
HETATM    3  H1  UNL     1      -7.790  13.169  67.718  1.00  0.00     0.000 HD 
HETATM    4  H2  UNL     1      -8.493  11.662  67.939  1.00  0.00     0.000 HD 
HETATM    5  OXT UNL     1     -10.518  14.728  65.398  1.00  0.00    -0.325 OA 
HETATM    6  C   UNL     1      -9.794  14.270  66.268  1.00  0.00    -0.307 C  
HETATM    7  O   UNL     1      -9.171  15.040  67.201  1.00  0.00    -0.200 OA 
ENDROOT
BRANCH   2   8
HETATM    8  C   UNL     1     -10.789  11.991  66.479  1.00  0.00    -0.314 C  
BRANCH   8   9
HETATM    9  C   UNL     1     -11.199  11.508  67.838  1.00  0.00    -0.344 A  
HETATM   10  C   UNL     1     -11.136  10.206  68.294  1.00  0.00    -0.227 A  
HETATM   11  N   UNL     1     -11.625  10.172  69.572  1.00  0.00    -0.432 NA 
HETATM   12  H   UNL     1     -11.697   9.331  70.147  1.00  0.00     0.000 HD 
HETATM   13  C   UNL     1     -12.007  11.432  69.971  1.00  0.00    -0.363 A  
HETATM   14  C   UNL     1     -11.765  12.292  68.897  1.00  0.00    -0.380 A  
HETATM   15  C   UNL     1     -12.101  13.657  69.041  1.00  0.00    -0.348 A  
HETATM   16  C   UNL     1     -12.636  14.097  70.253  1.00  0.00    -0.306 A  
HETATM   17  C   UNL     1     -12.860  13.223  71.307  1.00  0.00    -0.398 A  
HETATM   18  O   UNL     1     -12.962  15.409  70.442  1.00  0.00    -0.620 OA 
HETATM   19  C   UNL     1     -12.553  11.865  71.183  1.00  0.00    -0.390 A  
HETATM   20  H   UNL     1     -13.327  15.709  71.267  1.00  0.00     0.000 HD 
ENDBRANCH   8   9
ENDBRANCH   2   8
TORSDOF 2
ENDMDL
MODEL       93
REMARK 921   NORMALIZED FREE ENERGY PREDICTED BY IDOCK:   -4.77 KCAL/MOL
REMARK 922        TOTAL FREE ENERGY PREDICTED BY IDOCK:   -5.63 KCAL/MOL
REMARK 923 INTER-LIGAND FREE ENERGY PREDICTED BY IDOCK:   -5.83 KCAL/MOL
REMARK 924 INTRA-LIGAND FREE ENERGY PREDICTED BY IDOCK:    0.20 KCAL/MOL
REMARK 927      BINDING AFFINITY PREDICTED BY RF-SCORE:    0.00 PKD
ROOT
HETATM    1  N   UNL     1     -14.049   7.700  71.161  1.00  0.00    -0.661 NA 
HETATM    2  CA  UNL     1     -13.004   8.760  71.370  1.00  0.00    -0.268 C  
HETATM    3  H1  UNL     1     -13.738   6.923  70.578  1.00  0.00     0.000 HD 
HETATM    4  H2  UNL     1     -14.905   8.109  70.787  1.00  0.00     0.000 HD 
HETATM    5  OXT UNL     1     -10.798   8.689  72.445  1.00  0.00    -0.343 OA 
HETATM    6  C   UNL     1     -11.788   8.101  72.040  1.00  0.00    -0.338 C  
HETATM    7  O   UNL     1     -11.947   6.754  72.139  1.00  0.00    -0.299 OA 
ENDROOT
BRANCH   2   8
HETATM    8  C   UNL     1     -13.472   9.931  72.248  1.00  0.00    -0.397 C  
BRANCH   8   9
HETATM    9  C   UNL     1     -13.096  11.282  71.718  1.00  0.00    -0.527 A  
HETATM   10  C   UNL     1     -13.406  12.499  72.293  1.00  0.00    -0.370 A  
HETATM   11  N   UNL     1     -12.910  13.494  71.494  1.00  0.00    -0.361 NA 
HETATM   12  H   UNL     1     -13.000  14.493  71.681  1.00  0.00     0.000 HD 
HETATM   13  C   UNL     1     -12.272  12.954  70.401  1.00  0.00    -0.304 A  
HETATM   14  C   UNL     1     -12.385  11.565  70.505  1.00  0.00    -0.432 A  
HETATM   15  C   UNL     1     -11.829  10.767  69.480  1.00  0.00    -0.380 A  
HETATM   16  C   UNL     1     -11.171  11.392  68.419  1.00  0.00    -0.263 A  
HETATM   17  C   UNL     1     -11.066  12.773  68.343  1.00  0.00    -0.293 A  
HETATM   18  O   UNL     1     -10.607  10.661  67.414  1.00  0.00    -0.222 OA 
HETATM   19  C   UNL     1     -11.623  13.585  69.335  1.00  0.00    -0.369 A  
HETATM   20  H   UNL     1     -10.159  11.086  66.691  1.00  0.00     0.000 HD 
ENDBRANCH   8   9
ENDBRANCH   2   8
TORSDOF 2
ENDMDL
MODEL       94
REMARK 921   NORMALIZED FREE ENERGY PREDICTED BY IDOCK:   -4.76 KCAL/MOL
REMARK 922        TOTAL FREE ENERGY PREDICTED BY IDOCK:   -5.61 KCAL/MOL
REMARK 923 INTER-LIGAND FREE ENERGY PREDICTED BY IDOCK:   -5.41 KCAL/MOL
REMARK 924 INTRA-LIGAND FREE ENERGY PREDICTED BY IDOCK:   -0.20 KCAL/MOL
REMARK 927      BINDING AFFINITY PREDICTED BY RF-SCORE:    0.00 PKD
ROOT
HETATM    1  N   UNL     1     -12.314  13.983  67.369  1.00  0.00    -0.529 NA 
HETATM    2  CA  UNL     1     -11.843  14.795  66.194  1.00  0.00    -0.199 C  
HETATM    3  H1  UNL     1     -13.324  14.006  67.509  1.00  0.00     0.000 HD 
HETATM    4  H2  UNL     1     -11.828  14.266  68.219  1.00  0.00     0.000 HD 
HETATM    5  OXT UNL     1     -12.293  14.602  63.789  1.00  0.00    -0.720 OA 
HETATM    6  C   UNL     1     -12.525  14.243  64.933  1.00  0.00    -0.390 C  
HETATM    7  O   UNL     1     -13.434  13.280  65.242  1.00  0.00    -0.452 OA 
ENDROOT
BRANCH   2   8
HETATM    8  C   UNL     1     -10.321  14.761  65.983  1.00  0.00    -0.318 C  
BRANCH   8   9
HETATM    9  C   UNL     1      -9.685  13.447  66.326  1.00  0.00    -0.280 A  
HETATM   10  C   UNL     1      -9.035  13.139  67.505  1.00  0.00    -0.197 A  
HETATM   11  N   UNL     1      -8.572  11.853  67.420  1.00  0.00    -0.157 NA 
HETATM   12  H   UNL     1      -8.050  11.371  68.153  1.00  0.00     0.000 HD 
HETATM   13  C   UNL     1      -8.912  11.304  66.205  1.00  0.00    -0.197 A  
HETATM   14  C   UNL     1      -9.599  12.286  65.489  1.00  0.00    -0.112 A  
HETATM   15  C   UNL     1     -10.039  11.980  64.182  1.00  0.00    -0.340 A  
HETATM   16  C   UNL     1      -9.792  10.706  63.666  1.00  0.00    -0.333 A  
HETATM   17  C   UNL     1      -9.113   9.745  64.402  1.00  0.00    -0.296 A  
HETATM   18  O   UNL     1     -10.211  10.361  62.414  1.00  0.00    -0.722 OA 
HETATM   19  C   UNL     1      -8.652  10.030  65.690  1.00  0.00    -0.166 A  
HETATM   20  H   UNL     1     -10.043   9.494  62.063  1.00  0.00     0.000 HD 
ENDBRANCH   8   9
ENDBRANCH   2   8
TORSDOF 2
ENDMDL
MODEL       95
REMARK 921   NORMALIZED FREE ENERGY PREDICTED BY IDOCK:   -4.75 KCAL/MOL
REMARK 922        TOTAL FREE ENERGY PREDICTED BY IDOCK:   -5.60 KCAL/MOL
REMARK 923 INTER-LIGAND FREE ENERGY PREDICTED BY IDOCK:   -5.32 KCAL/MOL
REMARK 924 INTRA-LIGAND FREE ENERGY PREDICTED BY IDOCK:   -0.29 KCAL/MOL
REMARK 927      BINDING AFFINITY PREDICTED BY RF-SCORE:    0.00 PKD
ROOT
HETATM    1  N   UNL     1      -7.504  20.226  67.366  1.00  0.00    -0.292 NA 
HETATM    2  CA  UNL     1      -8.560  19.165  67.231  1.00  0.00    -0.282 C  
HETATM    3  H1  UNL     1      -7.569  20.967  66.668  1.00  0.00     0.000 HD 
HETATM    4  H2  UNL     1      -6.573  19.809  67.360  1.00  0.00     0.000 HD 
HETATM    5  OXT UNL     1     -11.007  19.265  67.404  1.00  0.00    -0.484 OA 
HETATM    6  C   UNL     1      -9.933  19.843  67.364  1.00  0.00    -0.423 C  
HETATM    7  O   UNL     1      -9.811  21.196  67.440  1.00  0.00    -0.312 OA 
ENDROOT
BRANCH   2   8
HETATM    8  C   UNL     1      -8.461  18.050  68.283  1.00  0.00    -0.293 C  
BRANCH   8   9
HETATM    9  C   UNL     1      -8.841  16.692  67.773  1.00  0.00    -0.206 A  
HETATM   10  C   UNL     1      -8.201  15.990  66.770  1.00  0.00    -0.272 A  
HETATM   11  N   UNL     1      -8.864  14.807  66.580  1.00  0.00    -0.433 NA 
HETATM   12  H   UNL     1      -8.605  14.097  65.894  1.00  0.00     0.000 HD 
HETATM   13  C   UNL     1      -9.929  14.713  67.445  1.00  0.00    -0.231 A  
HETATM   14  C   UNL     1      -9.950  15.890  68.198  1.00  0.00    -0.222 A  
HETATM   15  C   UNL     1     -10.977  16.058  69.154  1.00  0.00    -0.297 A  
HETATM   16  C   UNL     1     -11.914  15.036  69.325  1.00  0.00    -0.289 A  
HETATM   17  C   UNL     1     -11.867  13.874  68.569  1.00  0.00    -0.401 A  
HETATM   18  O   UNL     1     -12.916  15.149  70.246  1.00  0.00    -0.610 OA 
HETATM   19  C   UNL     1     -10.872  13.692  67.605  1.00  0.00    -0.268 A  
HETATM   20  H   UNL     1     -13.554  14.454  70.363  1.00  0.00     0.000 HD 
ENDBRANCH   8   9
ENDBRANCH   2   8
TORSDOF 2
ENDMDL
MODEL       96
REMARK 921   NORMALIZED FREE ENERGY PREDICTED BY IDOCK:   -4.72 KCAL/MOL
REMARK 922        TOTAL FREE ENERGY PREDICTED BY IDOCK:   -5.56 KCAL/MOL
REMARK 923 INTER-LIGAND FREE ENERGY PREDICTED BY IDOCK:   -5.23 KCAL/MOL
REMARK 924 INTRA-LIGAND FREE ENERGY PREDICTED BY IDOCK:   -0.33 KCAL/MOL
REMARK 927      BINDING AFFINITY PREDICTED BY RF-SCORE:    0.00 PKD
ROOT
HETATM    1  N   UNL     1      -9.122  11.513  64.125  1.00  0.00    -0.409 NA 
HETATM    2  CA  UNL     1      -9.805  11.890  65.409  1.00  0.00    -0.233 C  
HETATM    3  H1  UNL     1      -8.310  10.908  64.251  1.00  0.00     0.000 HD 
HETATM    4  H2  UNL     1      -8.869  12.347  63.595  1.00  0.00     0.000 HD 
HETATM    5  OXT UNL     1     -10.939  10.536  67.115  1.00  0.00    -0.282 OA 
HETATM    6  C   UNL     1     -10.262  10.596  66.101  1.00  0.00    -0.248 C  
HETATM    7  O   UNL     1      -9.821   9.496  65.433  1.00  0.00    -0.302 OA 
ENDROOT
BRANCH   2   8
HETATM    8  C   UNL     1     -11.028  12.801  65.220  1.00  0.00    -0.314 C  
BRANCH   8   9
HETATM    9  C   UNL     1     -10.880  14.160  65.836  1.00  0.00    -0.294 A  
HETATM   10  C   UNL     1     -10.547  15.324  65.171  1.00  0.00    -0.430 A  
HETATM   11  N   UNL     1     -10.486  16.342  66.086  1.00  0.00    -0.329 NA 
HETATM   12  H   UNL     1     -10.257  17.311  65.866  1.00  0.00     0.000 HD 
HETATM   13  C   UNL     1     -10.779  15.869  67.344  1.00  0.00    -0.313 A  
HETATM   14  C   UNL     1     -11.017  14.498  67.223  1.00  0.00    -0.307 A  
HETATM   15  C   UNL     1     -11.316  13.762  68.391  1.00  0.00    -0.326 A  
HETATM   16  C   UNL     1     -11.387  14.433  69.613  1.00  0.00    -0.263 A  
HETATM   17  C   UNL     1     -11.154  15.797  69.706  1.00  0.00    -0.322 A  
HETATM   18  O   UNL     1     -11.687  13.765  70.765  1.00  0.00    -0.513 OA 
HETATM   19  C   UNL     1     -10.838  16.544  68.568  1.00  0.00    -0.349 A  
HETATM   20  H   UNL     1     -11.735  14.221  71.597  1.00  0.00     0.000 HD 
ENDBRANCH   8   9
ENDBRANCH   2   8
TORSDOF 2
ENDMDL
MODEL       97
REMARK 921   NORMALIZED FREE ENERGY PREDICTED BY IDOCK:   -4.71 KCAL/MOL
REMARK 922        TOTAL FREE ENERGY PREDICTED BY IDOCK:   -5.56 KCAL/MOL
REMARK 923 INTER-LIGAND FREE ENERGY PREDICTED BY IDOCK:   -5.33 KCAL/MOL
REMARK 924 INTRA-LIGAND FREE ENERGY PREDICTED BY IDOCK:   -0.22 KCAL/MOL
REMARK 927      BINDING AFFINITY PREDICTED BY RF-SCORE:    0.00 PKD
ROOT
HETATM    1  N   UNL     1     -12.535  14.723  69.508  1.00  0.00    -0.567 NA 
HETATM    2  CA  UNL     1     -11.430  14.112  68.693  1.00  0.00    -0.299 C  
HETATM    3  H1  UNL     1     -12.220  15.449  70.152  1.00  0.00     0.000 HD 
HETATM    4  H2  UNL     1     -13.054  14.001  70.008  1.00  0.00     0.000 HD 
HETATM    5  OXT UNL     1      -9.899  15.076  67.034  1.00  0.00    -0.232 OA 
HETATM    6  C   UNL     1     -10.765  15.233  67.879  1.00  0.00    -0.275 C  
HETATM    7  O   UNL     1     -11.270  16.452  68.212  1.00  0.00    -0.355 OA 
ENDROOT
BRANCH   2   8
HETATM    8  C   UNL     1     -11.904  13.018  67.722  1.00  0.00    -0.395 C  
BRANCH   8   9
HETATM    9  C   UNL     1     -11.576  11.624  68.165  1.00  0.00    -0.389 A  
HETATM   10  C   UNL     1     -11.867  11.070  69.396  1.00  0.00    -0.335 A  
HETATM   11  N   UNL     1     -11.383   9.789  69.419  1.00  0.00    -0.430 NA 
HETATM   12  H   UNL     1     -11.457   9.151  70.212  1.00  0.00     0.000 HD 
HETATM   13  C   UNL     1     -10.781   9.486  68.220  1.00  0.00    -0.194 A  
HETATM   14  C   UNL     1     -10.872  10.624  67.415  1.00  0.00    -0.353 A  
HETATM   15  C   UNL     1     -10.299  10.583  66.125  1.00  0.00    -0.276 A  
HETATM   16  C   UNL     1      -9.686   9.405  65.695  1.00  0.00    -0.266 A  
HETATM   17  C   UNL     1      -9.614   8.285  66.511  1.00  0.00    -0.312 A  
HETATM   18  O   UNL     1      -9.130   9.314  64.451  1.00  0.00    -0.394 OA 
HETATM   19  C   UNL     1     -10.157   8.306  67.798  1.00  0.00    -0.262 A  
HETATM   20  H   UNL     1      -8.712   8.512  64.159  1.00  0.00     0.000 HD 
ENDBRANCH   8   9
ENDBRANCH   2   8
TORSDOF 2
ENDMDL
MODEL       98
REMARK 921   NORMALIZED FREE ENERGY PREDICTED BY IDOCK:   -4.71 KCAL/MOL
REMARK 922        TOTAL FREE ENERGY PREDICTED BY IDOCK:   -5.55 KCAL/MOL
REMARK 923 INTER-LIGAND FREE ENERGY PREDICTED BY IDOCK:   -5.30 KCAL/MOL
REMARK 924 INTRA-LIGAND FREE ENERGY PREDICTED BY IDOCK:   -0.25 KCAL/MOL
REMARK 927      BINDING AFFINITY PREDICTED BY RF-SCORE:    0.00 PKD
ROOT
HETATM    1  N   UNL     1     -12.999  10.316  70.089  1.00  0.00    -0.549 NA 
HETATM    2  CA  UNL     1     -11.870  10.738  69.191  1.00  0.00    -0.275 C  
HETATM    3  H1  UNL     1     -13.080   9.306  70.205  1.00  0.00     0.000 HD 
HETATM    4  H2  UNL     1     -13.882  10.711  69.764  1.00  0.00     0.000 HD 
HETATM    5  OXT UNL     1      -9.438  10.454  69.381  1.00  0.00    -0.216 OA 
HETATM    6  C   UNL     1     -10.560  10.210  69.796  1.00  0.00    -0.260 C  
HETATM    7  O   UNL     1     -10.798   9.424  70.881  1.00  0.00    -0.267 OA 
ENDROOT
BRANCH   2   8
HETATM    8  C   UNL     1     -11.748  12.260  69.014  1.00  0.00    -0.376 C  
BRANCH   8   9
HETATM    9  C   UNL     1     -11.416  12.689  67.617  1.00  0.00    -0.390 A  
HETATM   10  C   UNL     1     -11.326  11.867  66.511  1.00  0.00    -0.341 A  
HETATM   11  N   UNL     1     -10.976  12.633  65.431  1.00  0.00    -0.280 NA 
HETATM   12  H   UNL     1     -10.837  12.278  64.484  1.00  0.00     0.000 HD 
HETATM   13  C   UNL     1     -10.838  13.950  65.805  1.00  0.00    -0.289 A  
HETATM   14  C   UNL     1     -11.093  14.015  67.177  1.00  0.00    -0.313 A  
HETATM   15  C   UNL     1     -10.989  15.269  67.820  1.00  0.00    -0.312 A  
HETATM   16  C   UNL     1     -10.660  16.393  67.060  1.00  0.00    -0.260 A  
HETATM   17  C   UNL     1     -10.418  16.302  65.697  1.00  0.00    -0.386 A  
HETATM   18  O   UNL     1     -10.562  17.627  67.637  1.00  0.00    -0.369 OA 
HETATM   19  C   UNL     1     -10.497  15.071  65.041  1.00  0.00    -0.415 A  
HETATM   20  H   UNL     1     -10.338  18.392  67.120  1.00  0.00     0.000 HD 
ENDBRANCH   8   9
ENDBRANCH   2   8
TORSDOF 2
ENDMDL
MODEL       99
REMARK 921   NORMALIZED FREE ENERGY PREDICTED BY IDOCK:   -4.70 KCAL/MOL
REMARK 922        TOTAL FREE ENERGY PREDICTED BY IDOCK:   -5.54 KCAL/MOL
REMARK 923 INTER-LIGAND FREE ENERGY PREDICTED BY IDOCK:   -5.29 KCAL/MOL
REMARK 924 INTRA-LIGAND FREE ENERGY PREDICTED BY IDOCK:   -0.25 KCAL/MOL
REMARK 927      BINDING AFFINITY PREDICTED BY RF-SCORE:    0.00 PKD
ROOT
HETATM    1  N   UNL     1      -9.863  19.737  67.513  1.00  0.00    -0.365 NA 
HETATM    2  CA  UNL     1      -9.604  18.284  67.803  1.00  0.00    -0.283 C  
HETATM    3  H1  UNL     1      -9.477  20.372  68.212  1.00  0.00     0.000 HD 
HETATM    4  H2  UNL     1     -10.861  19.905  67.387  1.00  0.00     0.000 HD 
HETATM    5  OXT UNL     1      -7.519  17.001  67.983  1.00  0.00    -0.173 OA 
HETATM    6  C   UNL     1      -8.083  18.077  67.866  1.00  0.00    -0.243 C  
HETATM    7  O   UNL     1      -7.418  19.260  67.768  1.00  0.00    -0.248 OA 
ENDROOT
BRANCH   2   8
HETATM    8  C   UNL     1     -10.185  17.326  66.751  1.00  0.00    -0.318 C  
BRANCH   8   9
HETATM    9  C   UNL     1     -10.836  16.105  67.329  1.00  0.00    -0.235 A  
HETATM   10  C   UNL     1     -11.516  16.034  68.529  1.00  0.00    -0.357 A  
HETATM   11  N   UNL     1     -11.936  14.744  68.712  1.00  0.00    -0.500 NA 
HETATM   12  H   UNL     1     -12.462  14.411  69.521  1.00  0.00     0.000 HD 
HETATM   13  C   UNL     1     -11.549  13.962  67.648  1.00  0.00    -0.348 A  
HETATM   14  C   UNL     1     -10.842  14.785  66.769  1.00  0.00    -0.316 A  
HETATM   15  C   UNL     1     -10.306  14.211  65.595  1.00  0.00    -0.348 A  
HETATM   16  C   UNL     1     -10.523  12.854  65.346  1.00  0.00    -0.292 A  
HETATM   17  C   UNL     1     -11.235  12.059  66.233  1.00  0.00    -0.394 A  
HETATM   18  O   UNL     1     -10.036  12.260  64.218  1.00  0.00    -0.442 OA 
HETATM   19  C   UNL     1     -11.759  12.599  67.410  1.00  0.00    -0.432 A  
HETATM   20  H   UNL     1     -10.183  11.336  64.049  1.00  0.00     0.000 HD 
ENDBRANCH   8   9
ENDBRANCH   2   8
TORSDOF 2
ENDMDL
MODEL      100
REMARK 921   NORMALIZED FREE ENERGY PREDICTED BY IDOCK:   -4.62 KCAL/MOL
REMARK 922        TOTAL FREE ENERGY PREDICTED BY IDOCK:   -5.46 KCAL/MOL
REMARK 923 INTER-LIGAND FREE ENERGY PREDICTED BY IDOCK:   -5.24 KCAL/MOL
REMARK 924 INTRA-LIGAND FREE ENERGY PREDICTED BY IDOCK:   -0.22 KCAL/MOL
REMARK 927      BINDING AFFINITY PREDICTED BY RF-SCORE:    0.00 PKD
ROOT
HETATM    1  N   UNL     1      -8.811  11.174  69.249  1.00  0.00    -0.379 NA 
HETATM    2  CA  UNL     1      -9.433  10.621  67.997  1.00  0.00    -0.158 C  
HETATM    3  H1  UNL     1      -7.806  11.333  69.175  1.00  0.00     0.000 HD 
HETATM    4  H2  UNL     1      -9.022  10.577  70.049  1.00  0.00     0.000 HD 
HETATM    5  OXT UNL     1      -9.632  11.540  65.729  1.00  0.00    -0.224 OA 
HETATM    6  C   UNL     1      -9.179  11.622  66.859  1.00  0.00    -0.184 C  
HETATM    7  O   UNL     1      -8.375  12.641  67.267  1.00  0.00    -0.176 OA 
ENDROOT
BRANCH   2   8
HETATM    8  C   UNL     1     -10.947  10.381  68.108  1.00  0.00    -0.334 C  
BRANCH   8   9
HETATM    9  C   UNL     1     -11.549  10.851  69.398  1.00  0.00    -0.387 A  
HETATM   10  C   UNL     1     -11.904  10.056  70.469  1.00  0.00    -0.303 A  
HETATM   11  N   UNL     1     -12.442  10.855  71.442  1.00  0.00    -0.369 NA 
HETATM   12  H   UNL     1     -12.792  10.525  72.342  1.00  0.00     0.000 HD 
HETATM   13  C   UNL     1     -12.444  12.169  71.032  1.00  0.00    -0.269 A  
HETATM   14  C   UNL     1     -11.903  12.197  69.744  1.00  0.00    -0.397 A  
HETATM   15  C   UNL     1     -11.817  13.440  69.079  1.00  0.00    -0.378 A  
HETATM   16  C   UNL     1     -12.252  14.591  69.738  1.00  0.00    -0.312 A  
HETATM   17  C   UNL     1     -12.779  14.537  71.020  1.00  0.00    -0.413 A  
HETATM   18  O   UNL     1     -12.175  15.816  69.139  1.00  0.00    -0.556 OA 
HETATM   19  C   UNL     1     -12.892  13.317  71.693  1.00  0.00    -0.397 A  
HETATM   20  H   UNL     1     -12.472  16.599  69.588  1.00  0.00     0.000 HD 
ENDBRANCH   8   9
ENDBRANCH   2   8
TORSDOF 2
ENDMDL
MODEL      101
REMARK 921   NORMALIZED FREE ENERGY PREDICTED BY IDOCK:   -4.62 KCAL/MOL
REMARK 922        TOTAL FREE ENERGY PREDICTED BY IDOCK:   -5.46 KCAL/MOL
REMARK 923 INTER-LIGAND FREE ENERGY PREDICTED BY IDOCK:   -5.31 KCAL/MOL
REMARK 924 INTRA-LIGAND FREE ENERGY PREDICTED BY IDOCK:   -0.14 KCAL/MOL
REMARK 927      BINDING AFFINITY PREDICTED BY RF-SCORE:    0.00 PKD
ROOT
HETATM    1  N   UNL     1     -11.865  12.715  70.543  1.00  0.00    -0.531 NA 
HETATM    2  CA  UNL     1     -12.045  14.154  70.937  1.00  0.00    -0.344 C  
HETATM    3  H1  UNL     1     -11.571  12.110  71.310  1.00  0.00     0.000 HD 
HETATM    4  H2  UNL     1     -11.220  12.635  69.756  1.00  0.00     0.000 HD 
HETATM    5  OXT UNL     1     -13.575  15.235  72.523  1.00  0.00    -0.422 OA 
HETATM    6  C   UNL     1     -13.110  14.214  72.042  1.00  0.00    -0.387 C  
HETATM    7  O   UNL     1     -13.491  12.967  72.430  1.00  0.00    -0.566 OA 
ENDROOT
BRANCH   2   8
HETATM    8  C   UNL     1     -12.487  15.066  69.781  1.00  0.00    -0.216 C  
BRANCH   8   9
HETATM    9  C   UNL     1     -11.640  14.949  68.550  1.00  0.00    -0.347 A  
HETATM   10  C   UNL     1     -11.862  14.097  67.486  1.00  0.00    -0.401 A  
HETATM   11  N   UNL     1     -10.855  14.271  66.575  1.00  0.00    -0.300 NA 
HETATM   12  H   UNL     1     -10.770  13.764  65.694  1.00  0.00     0.000 HD 
HETATM   13  C   UNL     1      -9.972  15.229  67.019  1.00  0.00    -0.234 A  
HETATM   14  C   UNL     1     -10.430  15.663  68.265  1.00  0.00    -0.252 A  
HETATM   15  C   UNL     1      -9.676  16.638  68.955  1.00  0.00    -0.260 A  
HETATM   16  C   UNL     1      -8.520  17.146  68.359  1.00  0.00    -0.241 A  
HETATM   17  C   UNL     1      -8.091  16.703  67.116  1.00  0.00    -0.211 A  
HETATM   18  O   UNL     1      -7.768  18.100  68.982  1.00  0.00    -0.231 OA 
HETATM   19  C   UNL     1      -8.809  15.726  66.421  1.00  0.00    -0.371 A  
HETATM   20  H   UNL     1      -6.981  18.445  68.576  1.00  0.00     0.000 HD 
ENDBRANCH   8   9
ENDBRANCH   2   8
TORSDOF 2
ENDMDL
MODEL      102
REMARK 921   NORMALIZED FREE ENERGY PREDICTED BY IDOCK:   -4.61 KCAL/MOL
REMARK 922        TOTAL FREE ENERGY PREDICTED BY IDOCK:   -5.44 KCAL/MOL
REMARK 923 INTER-LIGAND FREE ENERGY PREDICTED BY IDOCK:   -5.22 KCAL/MOL
REMARK 924 INTRA-LIGAND FREE ENERGY PREDICTED BY IDOCK:   -0.23 KCAL/MOL
REMARK 927      BINDING AFFINITY PREDICTED BY RF-SCORE:    0.00 PKD
ROOT
HETATM    1  N   UNL     1      -9.711  13.385  67.422  1.00  0.00    -0.217 NA 
HETATM    2  CA  UNL     1      -9.806  12.287  68.445  1.00  0.00    -0.199 C  
HETATM    3  H1  UNL     1      -8.817  13.876  67.425  1.00  0.00     0.000 HD 
HETATM    4  H2  UNL     1     -10.483  14.044  67.530  1.00  0.00     0.000 HD 
HETATM    5  OXT UNL     1      -8.537  10.205  68.728  1.00  0.00    -0.119 OA 
HETATM    6  C   UNL     1      -8.690  11.272  68.155  1.00  0.00    -0.155 C  
HETATM    7  O   UNL     1      -7.874  11.706  67.157  1.00  0.00    -0.148 OA 
ENDROOT
BRANCH   2   8
HETATM    8  C   UNL     1     -11.153  11.547  68.441  1.00  0.00    -0.288 C  
BRANCH   8   9
HETATM    9  C   UNL     1     -11.862  11.559  69.762  1.00  0.00    -0.429 A  
HETATM   10  C   UNL     1     -12.271  10.450  70.478  1.00  0.00    -0.323 A  
HETATM   11  N   UNL     1     -12.902  10.879  71.615  1.00  0.00    -0.449 NA 
HETATM   12  H   UNL     1     -13.306  10.266  72.324  1.00  0.00     0.000 HD 
HETATM   13  C   UNL     1     -12.911  12.253  71.665  1.00  0.00    -0.311 A  
HETATM   14  C   UNL     1     -12.279  12.711  70.507  1.00  0.00    -0.383 A  
HETATM   15  C   UNL     1     -12.180  14.105  70.301  1.00  0.00    -0.416 A  
HETATM   16  C   UNL     1     -12.696  14.969  71.269  1.00  0.00    -0.348 A  
HETATM   17  C   UNL     1     -13.314  14.489  72.415  1.00  0.00    -0.526 A  
HETATM   18  O   UNL     1     -12.611  16.324  71.119  1.00  0.00    -0.487 OA 
HETATM   19  C   UNL     1     -13.440  13.114  72.633  1.00  0.00    -0.419 A  
HETATM   20  H   UNL     1     -12.963  16.912  71.778  1.00  0.00     0.000 HD 
ENDBRANCH   8   9
ENDBRANCH   2   8
TORSDOF 2
ENDMDL
MODEL      103
REMARK 921   NORMALIZED FREE ENERGY PREDICTED BY IDOCK:   -4.59 KCAL/MOL
REMARK 922        TOTAL FREE ENERGY PREDICTED BY IDOCK:   -5.43 KCAL/MOL
REMARK 923 INTER-LIGAND FREE ENERGY PREDICTED BY IDOCK:   -5.25 KCAL/MOL
REMARK 924 INTRA-LIGAND FREE ENERGY PREDICTED BY IDOCK:   -0.17 KCAL/MOL
REMARK 927      BINDING AFFINITY PREDICTED BY RF-SCORE:    0.00 PKD
ROOT
HETATM    1  N   UNL     1     -12.185  14.460  67.017  1.00  0.00    -0.563 NA 
HETATM    2  CA  UNL     1     -11.222  13.487  66.397  1.00  0.00    -0.307 C  
HETATM    3  H1  UNL     1     -11.875  15.431  66.978  1.00  0.00     0.000 HD 
HETATM    4  H2  UNL     1     -12.399  14.190  67.977  1.00  0.00     0.000 HD 
HETATM    5  OXT UNL     1     -10.396  13.246  64.097  1.00  0.00    -0.407 OA 
HETATM    6  C   UNL     1     -11.033  13.880  64.924  1.00  0.00    -0.386 C  
HETATM    7  O   UNL     1     -11.678  15.043  64.636  1.00  0.00    -0.414 OA 
ENDROOT
BRANCH   2   8
HETATM    8  C   UNL     1     -11.688  12.024  66.456  1.00  0.00    -0.330 C  
BRANCH   8   9
HETATM    9  C   UNL     1     -11.181  11.267  67.647  1.00  0.00    -0.357 A  
HETATM   10  C   UNL     1     -11.010  11.772  68.922  1.00  0.00    -0.239 A  
HETATM   11  N   UNL     1     -10.504  10.778  69.716  1.00  0.00    -0.436 NA 
HETATM   12  H   UNL     1     -10.279  10.880  70.706  1.00  0.00     0.000 HD 
HETATM   13  C   UNL     1     -10.343   9.622  68.988  1.00  0.00    -0.205 A  
HETATM   14  C   UNL     1     -10.745   9.902  67.680  1.00  0.00    -0.339 A  
HETATM   15  C   UNL     1     -10.650   8.875  66.714  1.00  0.00    -0.212 A  
HETATM   16  C   UNL     1     -10.183   7.619  67.106  1.00  0.00    -0.290 A  
HETATM   17  C   UNL     1      -9.796   7.365  68.413  1.00  0.00    -0.165 A  
HETATM   18  O   UNL     1     -10.087   6.593  66.210  1.00  0.00    -0.415 OA 
HETATM   19  C   UNL     1      -9.863   8.369  69.384  1.00  0.00    -0.185 A  
HETATM   20  H   UNL     1      -9.769   5.739  66.477  1.00  0.00     0.000 HD 
ENDBRANCH   8   9
ENDBRANCH   2   8
TORSDOF 2
ENDMDL
MODEL      104
REMARK 921   NORMALIZED FREE ENERGY PREDICTED BY IDOCK:   -4.59 KCAL/MOL
REMARK 922        TOTAL FREE ENERGY PREDICTED BY IDOCK:   -5.42 KCAL/MOL
REMARK 923 INTER-LIGAND FREE ENERGY PREDICTED BY IDOCK:   -5.09 KCAL/MOL
REMARK 924 INTRA-LIGAND FREE ENERGY PREDICTED BY IDOCK:   -0.33 KCAL/MOL
REMARK 927      BINDING AFFINITY PREDICTED BY RF-SCORE:    0.00 PKD
ROOT
HETATM    1  N   UNL     1     -10.228  10.266  66.501  1.00  0.00    -0.228 NA 
HETATM    2  CA  UNL     1     -10.545  10.974  67.789  1.00  0.00    -0.211 C  
HETATM    3  H1  UNL     1      -9.438   9.624  66.566  1.00  0.00     0.000 HD 
HETATM    4  H2  UNL     1     -10.083  10.939  65.748  1.00  0.00     0.000 HD 
HETATM    5  OXT UNL     1     -11.265  10.134  69.980  1.00  0.00    -0.259 OA 
HETATM    6  C   UNL     1     -10.867   9.909  68.849  1.00  0.00    -0.210 C  
HETATM    7  O   UNL     1     -10.658   8.654  68.368  1.00  0.00    -0.197 OA 
ENDROOT
BRANCH   2   8
HETATM    8  C   UNL     1     -11.735  11.942  67.691  1.00  0.00    -0.346 C  
BRANCH   8   9
HETATM    9  C   UNL     1     -11.412  13.351  68.092  1.00  0.00    -0.339 A  
HETATM   10  C   UNL     1     -10.778  14.296  67.310  1.00  0.00    -0.277 A  
HETATM   11  N   UNL     1     -10.646  15.445  68.043  1.00  0.00    -0.257 NA 
HETATM   12  H   UNL     1     -10.208  16.304  67.708  1.00  0.00     0.000 HD 
HETATM   13  C   UNL     1     -11.188  15.275  69.296  1.00  0.00    -0.284 A  
HETATM   14  C   UNL     1     -11.664  13.964  69.363  1.00  0.00    -0.367 A  
HETATM   15  C   UNL     1     -12.251  13.523  70.571  1.00  0.00    -0.433 A  
HETATM   16  C   UNL     1     -12.353  14.417  71.639  1.00  0.00    -0.341 A  
HETATM   17  C   UNL     1     -11.878  15.717  71.544  1.00  0.00    -0.514 A  
HETATM   18  O   UNL     1     -12.925  14.040  72.819  1.00  0.00    -0.435 OA 
HETATM   19  C   UNL     1     -11.277  16.172  70.367  1.00  0.00    -0.394 A  
HETATM   20  H   UNL     1     -12.994  14.648  73.546  1.00  0.00     0.000 HD 
ENDBRANCH   8   9
ENDBRANCH   2   8
TORSDOF 2
ENDMDL
MODEL      105
REMARK 921   NORMALIZED FREE ENERGY PREDICTED BY IDOCK:   -4.56 KCAL/MOL
REMARK 922        TOTAL FREE ENERGY PREDICTED BY IDOCK:   -5.38 KCAL/MOL
REMARK 923 INTER-LIGAND FREE ENERGY PREDICTED BY IDOCK:   -5.31 KCAL/MOL
REMARK 924 INTRA-LIGAND FREE ENERGY PREDICTED BY IDOCK:   -0.07 KCAL/MOL
REMARK 927      BINDING AFFINITY PREDICTED BY RF-SCORE:    0.00 PKD
ROOT
HETATM    1  N   UNL     1     -13.084  14.657  70.327  1.00  0.00    -0.555 NA 
HETATM    2  CA  UNL     1     -11.781  14.007  69.953  1.00  0.00    -0.303 C  
HETATM    3  H1  UNL     1     -12.981  15.596  70.714  1.00  0.00     0.000 HD 
HETATM    4  H2  UNL     1     -13.613  14.062  70.964  1.00  0.00     0.000 HD 
HETATM    5  OXT UNL     1     -10.062  14.617  68.310  1.00  0.00    -0.218 OA 
HETATM    6  C   UNL     1     -11.091  14.895  68.906  1.00  0.00    -0.257 C  
HETATM    7  O   UNL     1     -11.777  16.053  68.710  1.00  0.00    -0.385 OA 
ENDROOT
BRANCH   2   8
HETATM    8  C   UNL     1     -11.936  12.593  69.370  1.00  0.00    -0.318 C  
BRANCH   8   9
HETATM    9  C   UNL     1     -12.150  11.526  70.401  1.00  0.00    -0.471 A  
HETATM   10  C   UNL     1     -13.148  11.503  71.355  1.00  0.00    -0.258 A  
HETATM   11  N   UNL     1     -12.988  10.379  72.121  1.00  0.00    -0.464 NA 
HETATM   12  H   UNL     1     -13.588  10.116  72.904  1.00  0.00     0.000 HD 
HETATM   13  C   UNL     1     -11.902   9.656  71.684  1.00  0.00    -0.384 A  
HETATM   14  C   UNL     1     -11.345  10.359  70.613  1.00  0.00    -0.411 A  
HETATM   15  C   UNL     1     -10.188   9.835  69.996  1.00  0.00    -0.308 A  
HETATM   16  C   UNL     1      -9.660   8.628  70.461  1.00  0.00    -0.181 A  
HETATM   17  C   UNL     1     -10.237   7.946  71.523  1.00  0.00    -0.232 A  
HETATM   18  O   UNL     1      -8.551   8.077  69.886  1.00  0.00    -0.132 OA 
HETATM   19  C   UNL     1     -11.372   8.453  72.162  1.00  0.00    -0.437 A  
HETATM   20  H   UNL     1      -8.192   7.256  70.203  1.00  0.00     0.000 HD 
ENDBRANCH   8   9
ENDBRANCH   2   8
TORSDOF 2
ENDMDL
MODEL      106
REMARK 921   NORMALIZED FREE ENERGY PREDICTED BY IDOCK:   -4.55 KCAL/MOL
REMARK 922        TOTAL FREE ENERGY PREDICTED BY IDOCK:   -5.38 KCAL/MOL
REMARK 923 INTER-LIGAND FREE ENERGY PREDICTED BY IDOCK:   -5.11 KCAL/MOL
REMARK 924 INTRA-LIGAND FREE ENERGY PREDICTED BY IDOCK:   -0.27 KCAL/MOL
REMARK 927      BINDING AFFINITY PREDICTED BY RF-SCORE:    0.00 PKD
ROOT
HETATM    1  N   UNL     1      -9.810   6.991  70.293  1.00  0.00    -0.176 NA 
HETATM    2  CA  UNL     1     -10.773   6.898  71.444  1.00  0.00    -0.221 C  
HETATM    3  H1  UNL     1      -8.834   6.858  70.559  1.00  0.00     0.000 HD 
HETATM    4  H2  UNL     1      -9.930   7.873  69.795  1.00  0.00     0.000 HD 
HETATM    5  OXT UNL     1     -11.322   5.054  72.970  1.00  0.00    -0.299 OA 
HETATM    6  C   UNL     1     -10.622   5.506  72.077  1.00  0.00    -0.228 C  
HETATM    7  O   UNL     1      -9.599   4.812  71.509  1.00  0.00    -0.146 OA 
ENDROOT
BRANCH   2   8
HETATM    8  C   UNL     1     -12.243   7.098  71.045  1.00  0.00    -0.384 C  
BRANCH   8   9
HETATM    9  C   UNL     1     -12.841   8.382  71.534  1.00  0.00    -0.322 A  
HETATM   10  C   UNL     1     -13.845   8.508  72.475  1.00  0.00    -0.225 A  
HETATM   11  N   UNL     1     -14.130   9.838  72.628  1.00  0.00    -0.603 NA 
HETATM   12  H   UNL     1     -14.837  10.215  73.260  1.00  0.00     0.000 HD 
HETATM   13  C   UNL     1     -13.326  10.595  71.806  1.00  0.00    -0.334 A  
HETATM   14  C   UNL     1     -12.516   9.707  71.095  1.00  0.00    -0.421 A  
HETATM   15  C   UNL     1     -11.607  10.237  70.151  1.00  0.00    -0.376 A  
HETATM   16  C   UNL     1     -11.537  11.621  69.983  1.00  0.00    -0.255 A  
HETATM   17  C   UNL     1     -12.348  12.482  70.708  1.00  0.00    -0.376 A  
HETATM   18  O   UNL     1     -10.664  12.178  69.093  1.00  0.00    -0.381 OA 
HETATM   19  C   UNL     1     -13.268  11.982  71.634  1.00  0.00    -0.361 A  
HETATM   20  H   UNL     1     -10.616  13.120  68.979  1.00  0.00     0.000 HD 
ENDBRANCH   8   9
ENDBRANCH   2   8
TORSDOF 2
ENDMDL
MODEL      107
REMARK 921   NORMALIZED FREE ENERGY PREDICTED BY IDOCK:   -4.55 KCAL/MOL
REMARK 922        TOTAL FREE ENERGY PREDICTED BY IDOCK:   -5.38 KCAL/MOL
REMARK 923 INTER-LIGAND FREE ENERGY PREDICTED BY IDOCK:   -5.15 KCAL/MOL
REMARK 924 INTRA-LIGAND FREE ENERGY PREDICTED BY IDOCK:   -0.23 KCAL/MOL
REMARK 927      BINDING AFFINITY PREDICTED BY RF-SCORE:    0.00 PKD
ROOT
HETATM    1  N   UNL     1      -8.655   9.789  70.380  1.00  0.00    -0.291 NA 
HETATM    2  CA  UNL     1     -10.146   9.679  70.542  1.00  0.00    -0.274 C  
HETATM    3  H1  UNL     1      -8.194  10.294  71.136  1.00  0.00     0.000 HD 
HETATM    4  H2  UNL     1      -8.422  10.202  69.477  1.00  0.00     0.000 HD 
HETATM    5  OXT UNL     1     -11.527   8.597  72.259  1.00  0.00    -0.365 OA 
HETATM    6  C   UNL     1     -10.427   8.946  71.863  1.00  0.00    -0.345 C  
HETATM    7  O   UNL     1      -9.279   8.719  72.557  1.00  0.00    -0.347 OA 
ENDROOT
BRANCH   2   8
HETATM    8  C   UNL     1     -10.842   8.918  69.403  1.00  0.00    -0.133 C  
BRANCH   8   9
HETATM    9  C   UNL     1     -10.587   9.488  68.040  1.00  0.00    -0.282 A  
HETATM   10  C   UNL     1      -9.944   8.851  66.997  1.00  0.00    -0.233 A  
HETATM   11  N   UNL     1      -9.887   9.712  65.934  1.00  0.00    -0.278 NA 
HETATM   12  H   UNL     1      -9.460   9.498  65.032  1.00  0.00     0.000 HD 
HETATM   13  C   UNL     1     -10.488  10.907  66.256  1.00  0.00    -0.245 A  
HETATM   14  C   UNL     1     -10.924  10.803  67.579  1.00  0.00    -0.372 A  
HETATM   15  C   UNL     1     -11.558  11.920  68.167  1.00  0.00    -0.400 A  
HETATM   16  C   UNL     1     -11.745  13.072  67.400  1.00  0.00    -0.374 A  
HETATM   17  C   UNL     1     -11.308  13.148  66.086  1.00  0.00    -0.343 A  
HETATM   18  O   UNL     1     -12.365  14.171  67.922  1.00  0.00    -0.553 OA 
HETATM   19  C   UNL     1     -10.662  12.063  65.487  1.00  0.00    -0.318 A  
HETATM   20  H   UNL     1     -12.492  14.955  67.400  1.00  0.00     0.000 HD 
ENDBRANCH   8   9
ENDBRANCH   2   8
TORSDOF 2
ENDMDL
MODEL      108
REMARK 921   NORMALIZED FREE ENERGY PREDICTED BY IDOCK:   -4.54 KCAL/MOL
REMARK 922        TOTAL FREE ENERGY PREDICTED BY IDOCK:   -5.36 KCAL/MOL
REMARK 923 INTER-LIGAND FREE ENERGY PREDICTED BY IDOCK:   -5.12 KCAL/MOL
REMARK 924 INTRA-LIGAND FREE ENERGY PREDICTED BY IDOCK:   -0.24 KCAL/MOL
REMARK 927      BINDING AFFINITY PREDICTED BY RF-SCORE:    0.00 PKD
ROOT
HETATM    1  N   UNL     1     -11.959  13.523  67.292  1.00  0.00    -0.376 NA 
HETATM    2  CA  UNL     1     -11.585  14.482  66.196  1.00  0.00    -0.365 C  
HETATM    3  H1  UNL     1     -12.921  13.621  67.616  1.00  0.00     0.000 HD 
HETATM    4  H2  UNL     1     -11.308  13.599  68.073  1.00  0.00     0.000 HD 
HETATM    5  OXT UNL     1     -12.443  14.769  63.913  1.00  0.00    -0.811 OA 
HETATM    6  C   UNL     1     -12.529  14.236  65.008  1.00  0.00    -0.400 C  
HETATM    7  O   UNL     1     -13.493  13.328  65.322  1.00  0.00    -0.452 OA 
ENDROOT
BRANCH   2   8
HETATM    8  C   UNL     1     -10.136  14.335  65.707  1.00  0.00    -0.356 C  
BRANCH   8   9
HETATM    9  C   UNL     1      -9.109  14.832  66.679  1.00  0.00    -0.300 A  
HETATM   10  C   UNL     1      -8.381  14.059  67.563  1.00  0.00    -0.192 A  
HETATM   11  N   UNL     1      -7.571  14.886  68.294  1.00  0.00    -0.107 NA 
HETATM   12  H   UNL     1      -6.928  14.577  69.024  1.00  0.00     0.000 HD 
HETATM   13  C   UNL     1      -7.748  16.194  67.904  1.00  0.00    -0.137 A  
HETATM   14  C   UNL     1      -8.720  16.194  66.901  1.00  0.00    -0.253 A  
HETATM   15  C   UNL     1      -9.108  17.433  66.343  1.00  0.00    -0.274 A  
HETATM   16  C   UNL     1      -8.493  18.601  66.796  1.00  0.00    -0.286 A  
HETATM   17  C   UNL     1      -7.525  18.573  67.789  1.00  0.00    -0.240 A  
HETATM   18  O   UNL     1      -8.826  19.819  66.277  1.00  0.00    -0.360 OA 
HETATM   19  C   UNL     1      -7.136  17.362  68.370  1.00  0.00    -0.212 A  
HETATM   20  H   UNL     1      -8.407  20.614  66.585  1.00  0.00     0.000 HD 
ENDBRANCH   8   9
ENDBRANCH   2   8
TORSDOF 2
ENDMDL
MODEL      109
REMARK 921   NORMALIZED FREE ENERGY PREDICTED BY IDOCK:   -4.53 KCAL/MOL
REMARK 922        TOTAL FREE ENERGY PREDICTED BY IDOCK:   -5.35 KCAL/MOL
REMARK 923 INTER-LIGAND FREE ENERGY PREDICTED BY IDOCK:   -5.48 KCAL/MOL
REMARK 924 INTRA-LIGAND FREE ENERGY PREDICTED BY IDOCK:    0.13 KCAL/MOL
REMARK 927      BINDING AFFINITY PREDICTED BY RF-SCORE:    0.00 PKD
ROOT
HETATM    1  N   UNL     1      -9.564  18.626  68.047  1.00  0.00    -0.304 NA 
HETATM    2  CA  UNL     1      -9.834  17.416  68.897  1.00  0.00    -0.286 C  
HETATM    3  H1  UNL     1      -8.792  19.202  68.382  1.00  0.00     0.000 HD 
HETATM    4  H2  UNL     1     -10.410  19.186  67.942  1.00  0.00     0.000 HD 
HETATM    5  OXT UNL     1      -8.456  15.455  69.431  1.00  0.00    -0.244 OA 
HETATM    6  C   UNL     1      -8.559  16.559  68.919  1.00  0.00    -0.241 C  
HETATM    7  O   UNL     1      -7.532  17.183  68.282  1.00  0.00    -0.200 OA 
ENDROOT
BRANCH   2   8
HETATM    8  C   UNL     1     -10.998  16.548  68.394  1.00  0.00    -0.348 C  
BRANCH   8   9
HETATM    9  C   UNL     1     -10.812  16.020  67.003  1.00  0.00    -0.227 A  
HETATM   10  C   UNL     1     -10.454  16.758  65.892  1.00  0.00    -0.301 A  
HETATM   11  N   UNL     1     -10.414  15.919  64.811  1.00  0.00    -0.674 NA 
HETATM   12  H   UNL     1     -10.180  16.205  63.859  1.00  0.00     0.000 HD 
HETATM   13  C   UNL     1     -10.735  14.637  65.190  1.00  0.00    -0.414 A  
HETATM   14  C   UNL     1     -11.005  14.670  66.560  1.00  0.00    -0.318 A  
HETATM   15  C   UNL     1     -11.391  13.470  67.199  1.00  0.00    -0.346 A  
HETATM   16  C   UNL     1     -11.465  12.297  66.444  1.00  0.00    -0.378 A  
HETATM   17  C   UNL     1     -11.185  12.289  65.086  1.00  0.00    -0.369 A  
HETATM   18  O   UNL     1     -11.820  11.111  67.021  1.00  0.00    -0.411 OA 
HETATM   19  C   UNL     1     -10.819  13.467  64.428  1.00  0.00    -0.422 A  
HETATM   20  H   UNL     1     -11.870  10.313  66.508  1.00  0.00     0.000 HD 
ENDBRANCH   8   9
ENDBRANCH   2   8
TORSDOF 2
ENDMDL
MODEL      110
REMARK 921   NORMALIZED FREE ENERGY PREDICTED BY IDOCK:   -4.52 KCAL/MOL
REMARK 922        TOTAL FREE ENERGY PREDICTED BY IDOCK:   -5.35 KCAL/MOL
REMARK 923 INTER-LIGAND FREE ENERGY PREDICTED BY IDOCK:   -5.05 KCAL/MOL
REMARK 924 INTRA-LIGAND FREE ENERGY PREDICTED BY IDOCK:   -0.30 KCAL/MOL
REMARK 927      BINDING AFFINITY PREDICTED BY RF-SCORE:    0.00 PKD
ROOT
HETATM    1  N   UNL     1      -8.431   7.964  65.027  1.00  0.00    -0.324 NA 
HETATM    2  CA  UNL     1      -8.711   9.402  65.366  1.00  0.00    -0.166 C  
HETATM    3  H1  UNL     1      -7.438   7.744  64.947  1.00  0.00     0.000 HD 
HETATM    4  H2  UNL     1      -8.928   7.692  64.178  1.00  0.00     0.000 HD 
HETATM    5  OXT UNL     1      -8.140  10.758  67.330  1.00  0.00    -0.111 OA 
HETATM    6  C   UNL     1      -8.033   9.713  66.708  1.00  0.00    -0.105 C  
HETATM    7  O   UNL     1      -7.284   8.662  67.140  1.00  0.00    -0.075 OA 
ENDROOT
BRANCH   2   8
HETATM    8  C   UNL     1     -10.207   9.734  65.485  1.00  0.00    -0.114 C  
BRANCH   8   9
HETATM    9  C   UNL     1     -10.618  10.977  64.756  1.00  0.00    -0.350 A  
HETATM   10  C   UNL     1     -10.497  11.205  63.399  1.00  0.00    -0.317 A  
HETATM   11  N   UNL     1     -10.959  12.465  63.129  1.00  0.00    -0.688 NA 
HETATM   12  H   UNL     1     -10.981  12.893  62.202  1.00  0.00     0.000 HD 
HETATM   13  C   UNL     1     -11.388  13.073  64.286  1.00  0.00    -0.376 A  
HETATM   14  C   UNL     1     -11.173  12.169  65.329  1.00  0.00    -0.381 A  
HETATM   15  C   UNL     1     -11.509  12.566  66.642  1.00  0.00    -0.417 A  
HETATM   16  C   UNL     1     -12.062  13.832  66.845  1.00  0.00    -0.413 A  
HETATM   17  C   UNL     1     -12.273  14.709  65.791  1.00  0.00    -0.168 A  
HETATM   18  O   UNL     1     -12.415  14.253  68.095  1.00  0.00    -0.560 OA 
HETATM   19  C   UNL     1     -11.932  14.347  64.485  1.00  0.00    -0.487 A  
HETATM   20  H   UNL     1     -12.792  15.114  68.233  1.00  0.00     0.000 HD 
ENDBRANCH   8   9
ENDBRANCH   2   8
TORSDOF 2
ENDMDL
MODEL      111
REMARK 921   NORMALIZED FREE ENERGY PREDICTED BY IDOCK:   -4.52 KCAL/MOL
REMARK 922        TOTAL FREE ENERGY PREDICTED BY IDOCK:   -5.35 KCAL/MOL
REMARK 923 INTER-LIGAND FREE ENERGY PREDICTED BY IDOCK:   -5.06 KCAL/MOL
REMARK 924 INTRA-LIGAND FREE ENERGY PREDICTED BY IDOCK:   -0.29 KCAL/MOL
REMARK 927      BINDING AFFINITY PREDICTED BY RF-SCORE:    0.00 PKD
ROOT
HETATM    1  N   UNL     1      -9.547  10.069  66.461  1.00  0.00    -0.178 NA 
HETATM    2  CA  UNL     1     -10.703  10.676  67.205  1.00  0.00    -0.285 C  
HETATM    3  H1  UNL     1      -9.798   9.687  65.549  1.00  0.00     0.000 HD 
HETATM    4  H2  UNL     1      -9.085   9.361  67.032  1.00  0.00     0.000 HD 
HETATM    5  OXT UNL     1     -12.163  12.580  66.684  1.00  0.00    -0.552 OA 
HETATM    6  C   UNL     1     -11.281  11.809  66.342  1.00  0.00    -0.323 C  
HETATM    7  O   UNL     1     -10.677  11.860  65.124  1.00  0.00    -0.273 OA 
ENDROOT
BRANCH   2   8
HETATM    8  C   UNL     1     -10.326  11.252  68.579  1.00  0.00    -0.217 C  
BRANCH   8   9
HETATM    9  C   UNL     1     -11.342  10.993  69.651  1.00  0.00    -0.363 A  
HETATM   10  C   UNL     1     -12.212  11.919  70.191  1.00  0.00    -0.241 A  
HETATM   11  N   UNL     1     -12.957  11.300  71.158  1.00  0.00    -0.329 NA 
HETATM   12  H   UNL     1     -13.677  11.755  71.721  1.00  0.00     0.000 HD 
HETATM   13  C   UNL     1     -12.597   9.976  71.263  1.00  0.00    -0.393 A  
HETATM   14  C   UNL     1     -11.573   9.756  70.339  1.00  0.00    -0.327 A  
HETATM   15  C   UNL     1     -11.001   8.466  70.265  1.00  0.00    -0.236 A  
HETATM   16  C   UNL     1     -11.494   7.459  71.097  1.00  0.00    -0.279 A  
HETATM   17  C   UNL     1     -12.517   7.702  72.002  1.00  0.00    -0.301 A  
HETATM   18  O   UNL     1     -10.982   6.195  71.051  1.00  0.00    -0.267 OA 
HETATM   19  C   UNL     1     -13.087   8.974  72.107  1.00  0.00    -0.496 A  
HETATM   20  H   UNL     1     -11.317   5.510  71.617  1.00  0.00     0.000 HD 
ENDBRANCH   8   9
ENDBRANCH   2   8
TORSDOF 2
ENDMDL
MODEL      112
REMARK 921   NORMALIZED FREE ENERGY PREDICTED BY IDOCK:   -4.52 KCAL/MOL
REMARK 922        TOTAL FREE ENERGY PREDICTED BY IDOCK:   -5.34 KCAL/MOL
REMARK 923 INTER-LIGAND FREE ENERGY PREDICTED BY IDOCK:   -5.17 KCAL/MOL
REMARK 924 INTRA-LIGAND FREE ENERGY PREDICTED BY IDOCK:   -0.17 KCAL/MOL
REMARK 927      BINDING AFFINITY PREDICTED BY RF-SCORE:    0.00 PKD
ROOT
HETATM    1  N   UNL     1     -13.220  15.729  70.588  1.00  0.00    -0.759 NA 
HETATM    2  CA  UNL     1     -13.031  14.253  70.371  1.00  0.00    -0.124 C  
HETATM    3  H1  UNL     1     -14.109  15.972  71.026  1.00  0.00     0.000 HD 
HETATM    4  H2  UNL     1     -13.101  16.238  69.712  1.00  0.00     0.000 HD 
HETATM    5  OXT UNL     1     -12.894  12.376  71.947  1.00  0.00    -0.301 OA 
HETATM    6  C   UNL     1     -13.106  13.560  71.740  1.00  0.00    -0.387 C  
HETATM    7  O   UNL     1     -13.439  14.440  72.723  1.00  0.00    -0.486 OA 
ENDROOT
BRANCH   2   8
HETATM    8  C   UNL     1     -11.692  13.887  69.711  1.00  0.00    -0.372 C  
BRANCH   8   9
HETATM    9  C   UNL     1     -11.746  13.819  68.214  1.00  0.00    -0.394 A  
HETATM   10  C   UNL     1     -12.258  14.787  67.372  1.00  0.00     0.049 A  
HETATM   11  N   UNL     1     -12.149  14.340  66.083  1.00  0.00    -0.416 NA 
HETATM   12  H   UNL     1     -12.455  14.857  65.258  1.00  0.00     0.000 HD 
HETATM   13  C   UNL     1     -11.568  13.093  66.059  1.00  0.00    -0.353 A  
HETATM   14  C   UNL     1     -11.317  12.732  67.384  1.00  0.00    -0.363 A  
HETATM   15  C   UNL     1     -10.741  11.467  67.639  1.00  0.00    -0.255 A  
HETATM   16  C   UNL     1     -10.424  10.640  66.560  1.00  0.00    -0.224 A  
HETATM   17  C   UNL     1     -10.677  11.025  65.251  1.00  0.00    -0.234 A  
HETATM   18  O   UNL     1      -9.853   9.415  66.756  1.00  0.00    -0.186 OA 
HETATM   19  C   UNL     1     -11.263  12.263  64.974  1.00  0.00    -0.367 A  
HETATM   20  H   UNL     1      -9.637   8.852  66.022  1.00  0.00     0.000 HD 
ENDBRANCH   8   9
ENDBRANCH   2   8
TORSDOF 2
ENDMDL
MODEL      113
REMARK 921   NORMALIZED FREE ENERGY PREDICTED BY IDOCK:   -4.51 KCAL/MOL
REMARK 922        TOTAL FREE ENERGY PREDICTED BY IDOCK:   -5.34 KCAL/MOL
REMARK 923 INTER-LIGAND FREE ENERGY PREDICTED BY IDOCK:   -5.09 KCAL/MOL
REMARK 924 INTRA-LIGAND FREE ENERGY PREDICTED BY IDOCK:   -0.25 KCAL/MOL
REMARK 927      BINDING AFFINITY PREDICTED BY RF-SCORE:    0.00 PKD
ROOT
HETATM    1  N   UNL     1      -9.041  13.726  66.273  1.00  0.00    -0.485 NA 
HETATM    2  CA  UNL     1     -10.402  13.585  66.896  1.00  0.00    -0.265 C  
HETATM    3  H1  UNL     1      -8.933  13.215  65.397  1.00  0.00     0.000 HD 
HETATM    4  H2  UNL     1      -8.314  13.460  66.936  1.00  0.00     0.000 HD 
HETATM    5  OXT UNL     1     -12.635  14.237  66.109  1.00  0.00    -0.436 OA 
HETATM    6  C   UNL     1     -11.440  14.109  65.892  1.00  0.00    -0.338 C  
HETATM    7  O   UNL     1     -10.861  14.431  64.703  1.00  0.00    -0.392 OA 
ENDROOT
BRANCH   2   8
HETATM    8  C   UNL     1     -10.566  14.354  68.216  1.00  0.00    -0.243 C  
BRANCH   8   9
HETATM    9  C   UNL     1      -9.514  15.395  68.453  1.00  0.00    -0.200 A  
HETATM   10  C   UNL     1      -8.345  15.225  69.168  1.00  0.00    -0.233 A  
HETATM   11  N   UNL     1      -7.666  16.414  69.177  1.00  0.00    -0.237 NA 
HETATM   12  H   UNL     1      -6.770  16.571  69.639  1.00  0.00     0.000 HD 
HETATM   13  C   UNL     1      -8.366  17.367  68.473  1.00  0.00    -0.271 A  
HETATM   14  C   UNL     1      -9.539  16.762  68.018  1.00  0.00    -0.234 A  
HETATM   15  C   UNL     1     -10.457  17.544  67.282  1.00  0.00    -0.327 A  
HETATM   16  C   UNL     1     -10.147  18.879  67.017  1.00  0.00    -0.354 A  
HETATM   17  C   UNL     1      -8.971  19.455  67.475  1.00  0.00    -0.358 A  
HETATM   18  O   UNL     1     -10.997  19.669  66.298  1.00  0.00    -0.372 OA 
HETATM   19  C   UNL     1      -8.056  18.708  68.221  1.00  0.00    -0.339 A  
HETATM   20  H   UNL     1     -10.786  20.578  66.118  1.00  0.00     0.000 HD 
ENDBRANCH   8   9
ENDBRANCH   2   8
TORSDOF 2
ENDMDL
MODEL      114
REMARK 921   NORMALIZED FREE ENERGY PREDICTED BY IDOCK:   -4.50 KCAL/MOL
REMARK 922        TOTAL FREE ENERGY PREDICTED BY IDOCK:   -5.33 KCAL/MOL
REMARK 923 INTER-LIGAND FREE ENERGY PREDICTED BY IDOCK:   -5.12 KCAL/MOL
REMARK 924 INTRA-LIGAND FREE ENERGY PREDICTED BY IDOCK:   -0.20 KCAL/MOL
REMARK 927      BINDING AFFINITY PREDICTED BY RF-SCORE:    0.00 PKD
ROOT
HETATM    1  N   UNL     1     -11.280  16.529  69.892  1.00  0.00    -0.403 NA 
HETATM    2  CA  UNL     1     -10.865  15.703  68.706  1.00  0.00    -0.262 C  
HETATM    3  H1  UNL     1     -10.587  17.221  70.176  1.00  0.00     0.000 HD 
HETATM    4  H2  UNL     1     -11.530  15.928  70.677  1.00  0.00     0.000 HD 
HETATM    5  OXT UNL     1     -10.363  16.319  66.383  1.00  0.00    -0.296 OA 
HETATM    6  C   UNL     1     -10.616  16.658  67.528  1.00  0.00    -0.311 C  
HETATM    7  O   UNL     1     -10.718  17.958  67.915  1.00  0.00    -0.392 OA 
ENDROOT
BRANCH   2   8
HETATM    8  C   UNL     1     -11.908  14.660  68.277  1.00  0.00    -0.333 C  
BRANCH   8   9
HETATM    9  C   UNL     1     -11.783  13.343  68.983  1.00  0.00    -0.368 A  
HETATM   10  C   UNL     1     -12.087  13.096  70.307  1.00  0.00    -0.328 A  
HETATM   11  N   UNL     1     -11.813  11.781  70.575  1.00  0.00    -0.500 NA 
HETATM   12  H   UNL     1     -11.942  11.331  71.482  1.00  0.00     0.000 HD 
HETATM   13  C   UNL     1     -11.337  11.154  69.447  1.00  0.00    -0.283 A  
HETATM   14  C   UNL     1     -11.292  12.113  68.432  1.00  0.00    -0.336 A  
HETATM   15  C   UNL     1     -10.808  11.726  67.163  1.00  0.00    -0.303 A  
HETATM   16  C   UNL     1     -10.417  10.400  66.964  1.00  0.00    -0.251 A  
HETATM   17  C   UNL     1     -10.477   9.465  67.987  1.00  0.00    -0.278 A  
HETATM   18  O   UNL     1      -9.955   9.978  65.750  1.00  0.00    -0.258 OA 
HETATM   19  C   UNL     1     -10.936   9.827  69.257  1.00  0.00    -0.222 A  
HETATM   20  H   UNL     1      -9.689   9.076  65.615  1.00  0.00     0.000 HD 
ENDBRANCH   8   9
ENDBRANCH   2   8
TORSDOF 2
ENDMDL
MODEL      115
REMARK 921   NORMALIZED FREE ENERGY PREDICTED BY IDOCK:   -4.49 KCAL/MOL
REMARK 922        TOTAL FREE ENERGY PREDICTED BY IDOCK:   -5.31 KCAL/MOL
REMARK 923 INTER-LIGAND FREE ENERGY PREDICTED BY IDOCK:   -5.03 KCAL/MOL
REMARK 924 INTRA-LIGAND FREE ENERGY PREDICTED BY IDOCK:   -0.28 KCAL/MOL
REMARK 927      BINDING AFFINITY PREDICTED BY RF-SCORE:    0.00 PKD
ROOT
HETATM    1  N   UNL     1      -9.017  10.458  65.817  1.00  0.00    -0.162 NA 
HETATM    2  CA  UNL     1      -9.620  10.291  67.184  1.00  0.00    -0.168 C  
HETATM    3  H1  UNL     1      -8.025  10.224  65.772  1.00  0.00     0.000 HD 
HETATM    4  H2  UNL     1      -9.179  11.402  65.466  1.00  0.00     0.000 HD 
HETATM    5  OXT UNL     1      -9.906   8.315  68.613  1.00  0.00    -0.167 OA 
HETATM    6  C   UNL     1      -9.443   8.823  67.604  1.00  0.00    -0.141 C  
HETATM    7  O   UNL     1      -8.700   8.135  66.696  1.00  0.00    -0.128 OA 
ENDROOT
BRANCH   2   8
HETATM    8  C   UNL     1     -11.114  10.644  67.253  1.00  0.00    -0.313 C  
BRANCH   8   9
HETATM    9  C   UNL     1     -11.426  11.818  68.132  1.00  0.00    -0.382 A  
HETATM   10  C   UNL     1     -11.161  13.143  67.846  1.00  0.00    -0.262 A  
HETATM   11  N   UNL     1     -11.570  13.904  68.907  1.00  0.00    -0.292 NA 
HETATM   12  H   UNL     1     -11.489  14.920  68.963  1.00  0.00     0.000 HD 
HETATM   13  C   UNL     1     -12.107  13.104  69.889  1.00  0.00    -0.287 A  
HETATM   14  C   UNL     1     -12.016  11.785  69.438  1.00  0.00    -0.361 A  
HETATM   15  C   UNL     1     -12.480  10.752  70.283  1.00  0.00    -0.395 A  
HETATM   16  C   UNL     1     -13.030  11.088  71.522  1.00  0.00    -0.448 A  
HETATM   17  C   UNL     1     -13.114  12.407  71.944  1.00  0.00    -0.471 A  
HETATM   18  O   UNL     1     -13.503  10.125  72.365  1.00  0.00    -0.620 OA 
HETATM   19  C   UNL     1     -12.646  13.445  71.134  1.00  0.00    -0.430 A  
HETATM   20  H   UNL     1     -13.877  10.354  73.209  1.00  0.00     0.000 HD 
ENDBRANCH   8   9
ENDBRANCH   2   8
TORSDOF 2
ENDMDL
MODEL      116
REMARK 921   NORMALIZED FREE ENERGY PREDICTED BY IDOCK:   -4.47 KCAL/MOL
REMARK 922        TOTAL FREE ENERGY PREDICTED BY IDOCK:   -5.28 KCAL/MOL
REMARK 923 INTER-LIGAND FREE ENERGY PREDICTED BY IDOCK:   -5.04 KCAL/MOL
REMARK 924 INTRA-LIGAND FREE ENERGY PREDICTED BY IDOCK:   -0.25 KCAL/MOL
REMARK 927      BINDING AFFINITY PREDICTED BY RF-SCORE:    0.00 PKD
ROOT
HETATM    1  N   UNL     1     -11.914  12.630  70.315  1.00  0.00    -0.502 NA 
HETATM    2  CA  UNL     1     -12.254  11.172  70.452  1.00  0.00    -0.369 C  
HETATM    3  H1  UNL     1     -12.728  13.237  70.223  1.00  0.00     0.000 HD 
HETATM    4  H2  UNL     1     -11.267  12.776  69.540  1.00  0.00     0.000 HD 
HETATM    5  OXT UNL     1     -13.506   9.941  72.168  1.00  0.00    -0.429 OA 
HETATM    6  C   UNL     1     -13.133  11.005  71.701  1.00  0.00    -0.438 C  
HETATM    7  O   UNL     1     -13.450  12.210  72.247  1.00  0.00    -0.491 OA 
ENDROOT
BRANCH   2   8
HETATM    8  C   UNL     1     -11.028  10.256  70.591  1.00  0.00    -0.287 C  
BRANCH   8   9
HETATM    9  C   UNL     1     -10.746   9.422  69.377  1.00  0.00    -0.234 A  
HETATM   10  C   UNL     1     -10.782   8.043  69.310  1.00  0.00    -0.129 A  
HETATM   11  N   UNL     1     -10.439   7.663  68.039  1.00  0.00    -0.281 NA 
HETATM   12  H   UNL     1     -10.383   6.698  67.714  1.00  0.00     0.000 HD 
HETATM   13  C   UNL     1     -10.183   8.771  67.264  1.00  0.00    -0.263 A  
HETATM   14  C   UNL     1     -10.352   9.891  68.081  1.00  0.00    -0.232 A  
HETATM   15  C   UNL     1     -10.118  11.169  67.526  1.00  0.00    -0.210 A  
HETATM   16  C   UNL     1      -9.751  11.265  66.182  1.00  0.00    -0.220 A  
HETATM   17  C   UNL     1      -9.597  10.137  65.390  1.00  0.00    -0.325 A  
HETATM   18  O   UNL     1      -9.529  12.479  65.599  1.00  0.00    -0.428 OA 
HETATM   19  C   UNL     1      -9.804   8.861  65.921  1.00  0.00    -0.200 A  
HETATM   20  H   UNL     1      -9.279  12.545  64.684  1.00  0.00     0.000 HD 
ENDBRANCH   8   9
ENDBRANCH   2   8
TORSDOF 2
ENDMDL
MODEL      117
REMARK 921   NORMALIZED FREE ENERGY PREDICTED BY IDOCK:   -4.44 KCAL/MOL
REMARK 922        TOTAL FREE ENERGY PREDICTED BY IDOCK:   -5.26 KCAL/MOL
REMARK 923 INTER-LIGAND FREE ENERGY PREDICTED BY IDOCK:   -5.10 KCAL/MOL
REMARK 924 INTRA-LIGAND FREE ENERGY PREDICTED BY IDOCK:   -0.16 KCAL/MOL
REMARK 927      BINDING AFFINITY PREDICTED BY RF-SCORE:    0.00 PKD
ROOT
HETATM    1  N   UNL     1      -8.236   9.135  67.474  1.00  0.00    -0.108 NA 
HETATM    2  CA  UNL     1      -9.285   8.919  66.419  1.00  0.00    -0.189 C  
HETATM    3  H1  UNL     1      -7.287   8.935  67.159  1.00  0.00     0.000 HD 
HETATM    4  H2  UNL     1      -8.456   8.598  68.313  1.00  0.00     0.000 HD 
HETATM    5  OXT UNL     1      -9.661   9.996  64.245  1.00  0.00    -0.296 OA 
HETATM    6  C   UNL     1      -8.961   9.840  65.232  1.00  0.00    -0.193 C  
HETATM    7  O   UNL     1      -7.776  10.482  65.414  1.00  0.00    -0.149 OA 
ENDROOT
BRANCH   2   8
HETATM    8  C   UNL     1     -10.716   9.219  66.893  1.00  0.00    -0.164 C  
BRANCH   8   9
HETATM    9  C   UNL     1     -10.851  10.498  67.663  1.00  0.00    -0.355 A  
HETATM   10  C   UNL     1     -10.582  10.673  69.006  1.00  0.00    -0.219 A  
HETATM   11  N   UNL     1     -10.853  11.974  69.335  1.00  0.00    -0.452 NA 
HETATM   12  H   UNL     1     -10.745  12.375  70.268  1.00  0.00     0.000 HD 
HETATM   13  C   UNL     1     -11.292  12.664  68.229  1.00  0.00    -0.295 A  
HETATM   14  C   UNL     1     -11.316  11.760  67.165  1.00  0.00    -0.387 A  
HETATM   15  C   UNL     1     -11.761  12.217  65.904  1.00  0.00    -0.451 A  
HETATM   16  C   UNL     1     -12.136  13.555  65.764  1.00  0.00    -0.433 A  
HETATM   17  C   UNL     1     -12.096  14.435  66.836  1.00  0.00    -0.386 A  
HETATM   18  O   UNL     1     -12.559  14.044  64.562  1.00  0.00    -0.635 OA 
HETATM   19  C   UNL     1     -11.677  14.003  68.097  1.00  0.00    -0.387 A  
HETATM   20  H   UNL     1     -12.814  14.955  64.467  1.00  0.00     0.000 HD 
ENDBRANCH   8   9
ENDBRANCH   2   8
TORSDOF 2
ENDMDL
MODEL      118
REMARK 921   NORMALIZED FREE ENERGY PREDICTED BY IDOCK:   -4.43 KCAL/MOL
REMARK 922        TOTAL FREE ENERGY PREDICTED BY IDOCK:   -5.24 KCAL/MOL
REMARK 923 INTER-LIGAND FREE ENERGY PREDICTED BY IDOCK:   -5.03 KCAL/MOL
REMARK 924 INTRA-LIGAND FREE ENERGY PREDICTED BY IDOCK:   -0.21 KCAL/MOL
REMARK 927      BINDING AFFINITY PREDICTED BY RF-SCORE:    0.00 PKD
ROOT
HETATM    1  N   UNL     1     -12.994   7.844  71.067  1.00  0.00    -0.534 NA 
HETATM    2  CA  UNL     1     -11.599   7.764  70.512  1.00  0.00    -0.158 C  
HETATM    3  H1  UNL     1     -13.471   6.944  71.116  1.00  0.00     0.000 HD 
HETATM    4  H2  UNL     1     -13.551   8.517  70.542  1.00  0.00     0.000 HD 
HETATM    5  OXT UNL     1      -9.584   6.614  71.315  1.00  0.00    -0.169 OA 
HETATM    6  C   UNL     1     -10.782   6.826  71.414  1.00  0.00    -0.224 C  
HETATM    7  O   UNL     1     -11.565   6.248  72.365  1.00  0.00    -0.291 OA 
ENDROOT
BRANCH   2   8
HETATM    8  C   UNL     1     -10.879   9.121  70.438  1.00  0.00    -0.285 C  
BRANCH   8   9
HETATM    9  C   UNL     1     -10.887   9.744  69.075  1.00  0.00    -0.223 A  
HETATM   10  C   UNL     1     -10.493   9.137  67.899  1.00  0.00    -0.237 A  
HETATM   11  N   UNL     1     -10.624  10.043  66.880  1.00  0.00    -0.220 NA 
HETATM   12  H   UNL     1     -10.398   9.859  65.902  1.00  0.00     0.000 HD 
HETATM   13  C   UNL     1     -11.103  11.239  67.364  1.00  0.00    -0.297 A  
HETATM   14  C   UNL     1     -11.264  11.088  68.744  1.00  0.00    -0.327 A  
HETATM   15  C   UNL     1     -11.725  12.194  69.492  1.00  0.00    -0.402 A  
HETATM   16  C   UNL     1     -12.022  13.384  68.824  1.00  0.00    -0.324 A  
HETATM   17  C   UNL     1     -11.860  13.506  67.452  1.00  0.00    -0.423 A  
HETATM   18  O   UNL     1     -12.483  14.475  69.504  1.00  0.00    -0.526 OA 
HETATM   19  C   UNL     1     -11.389  12.432  66.692  1.00  0.00    -0.394 A  
HETATM   20  H   UNL     1     -12.685  15.285  69.050  1.00  0.00     0.000 HD 
ENDBRANCH   8   9
ENDBRANCH   2   8
TORSDOF 2
ENDMDL
MODEL      119
REMARK 921   NORMALIZED FREE ENERGY PREDICTED BY IDOCK:   -4.42 KCAL/MOL
REMARK 922        TOTAL FREE ENERGY PREDICTED BY IDOCK:   -5.23 KCAL/MOL
REMARK 923 INTER-LIGAND FREE ENERGY PREDICTED BY IDOCK:   -5.01 KCAL/MOL
REMARK 924 INTRA-LIGAND FREE ENERGY PREDICTED BY IDOCK:   -0.22 KCAL/MOL
REMARK 927      BINDING AFFINITY PREDICTED BY RF-SCORE:    0.00 PKD
ROOT
HETATM    1  N   UNL     1      -9.438  12.618  67.214  1.00  0.00    -0.193 NA 
HETATM    2  CA  UNL     1     -10.595  12.569  68.173  1.00  0.00    -0.226 C  
HETATM    3  H1  UNL     1      -8.759  11.870  67.348  1.00  0.00     0.000 HD 
HETATM    4  H2  UNL     1      -8.980  13.529  67.250  1.00  0.00     0.000 HD 
HETATM    5  OXT UNL     1     -12.349  10.890  68.533  1.00  0.00    -0.490 OA 
HETATM    6  C   UNL     1     -11.309  11.222  67.987  1.00  0.00    -0.304 C  
HETATM    7  O   UNL     1     -10.636  10.422  67.116  1.00  0.00    -0.241 OA 
ENDROOT
BRANCH   2   8
HETATM    8  C   UNL     1     -11.619  13.698  67.973  1.00  0.00    -0.368 C  
BRANCH   8   9
HETATM    9  C   UNL     1     -11.236  14.995  68.620  1.00  0.00    -0.289 A  
HETATM   10  C   UNL     1     -11.697  15.468  69.833  1.00  0.00    -0.352 A  
HETATM   11  N   UNL     1     -11.133  16.695  70.060  1.00  0.00    -0.435 NA 
HETATM   12  H   UNL     1     -11.305  17.272  70.884  1.00  0.00     0.000 HD 
HETATM   13  C   UNL     1     -10.302  17.038  69.019  1.00  0.00    -0.330 A  
HETATM   14  C   UNL     1     -10.357  15.996  68.090  1.00  0.00    -0.260 A  
HETATM   15  C   UNL     1      -9.605  16.117  66.900  1.00  0.00    -0.243 A  
HETATM   16  C   UNL     1      -8.820  17.256  66.709  1.00  0.00    -0.247 A  
HETATM   17  C   UNL     1      -8.777  18.273  67.651  1.00  0.00    -0.261 A  
HETATM   18  O   UNL     1      -8.066  17.409  65.581  1.00  0.00    -0.485 OA 
HETATM   19  C   UNL     1      -9.527  18.187  68.827  1.00  0.00    -0.285 A  
HETATM   20  H   UNL     1      -7.532  18.184  65.451  1.00  0.00     0.000 HD 
ENDBRANCH   8   9
ENDBRANCH   2   8
TORSDOF 2
ENDMDL
MODEL      120
REMARK 921   NORMALIZED FREE ENERGY PREDICTED BY IDOCK:   -4.42 KCAL/MOL
REMARK 922        TOTAL FREE ENERGY PREDICTED BY IDOCK:   -5.23 KCAL/MOL
REMARK 923 INTER-LIGAND FREE ENERGY PREDICTED BY IDOCK:   -5.02 KCAL/MOL
REMARK 924 INTRA-LIGAND FREE ENERGY PREDICTED BY IDOCK:   -0.21 KCAL/MOL
REMARK 927      BINDING AFFINITY PREDICTED BY RF-SCORE:    0.00 PKD
ROOT
HETATM    1  N   UNL     1      -8.927  10.016  70.314  1.00  0.00    -0.341 NA 
HETATM    2  CA  UNL     1     -10.394   9.824  70.050  1.00  0.00    -0.263 C  
HETATM    3  H1  UNL     1      -8.704  10.211  71.290  1.00  0.00     0.000 HD 
HETATM    4  H2  UNL     1      -8.545  10.741  69.707  1.00  0.00     0.000 HD 
HETATM    5  OXT UNL     1     -11.996   8.151  70.865  1.00  0.00    -0.275 OA 
HETATM    6  C   UNL     1     -10.880   8.645  70.907  1.00  0.00    -0.239 C  
HETATM    7  O   UNL     1      -9.898   8.198  71.736  1.00  0.00    -0.168 OA 
ENDROOT
BRANCH   2   8
HETATM    8  C   UNL     1     -10.729   9.530  68.579  1.00  0.00    -0.222 C  
BRANCH   8   9
HETATM    9  C   UNL     1     -11.125  10.741  67.788  1.00  0.00    -0.381 A  
HETATM   10  C   UNL     1     -11.864  11.812  68.251  1.00  0.00    -0.271 A  
HETATM   11  N   UNL     1     -12.034  12.697  67.221  1.00  0.00    -0.467 NA 
HETATM   12  H   UNL     1     -12.547  13.577  67.286  1.00  0.00     0.000 HD 
HETATM   13  C   UNL     1     -11.415  12.231  66.084  1.00  0.00    -0.374 A  
HETATM   14  C   UNL     1     -10.847  10.995  66.405  1.00  0.00    -0.253 A  
HETATM   15  C   UNL     1     -10.166  10.285  65.390  1.00  0.00    -0.312 A  
HETATM   16  C   UNL     1     -10.068  10.853  64.118  1.00  0.00    -0.355 A  
HETATM   17  C   UNL     1     -10.635  12.085  63.828  1.00  0.00    -0.478 A  
HETATM   18  O   UNL     1      -9.408  10.209  63.111  1.00  0.00    -0.280 OA 
HETATM   19  C   UNL     1     -11.328  12.799  64.809  1.00  0.00    -0.346 A  
HETATM   20  H   UNL     1      -9.341  10.596  62.245  1.00  0.00     0.000 HD 
ENDBRANCH   8   9
ENDBRANCH   2   8
TORSDOF 2
ENDMDL
MODEL      121
REMARK 921   NORMALIZED FREE ENERGY PREDICTED BY IDOCK:   -4.42 KCAL/MOL
REMARK 922        TOTAL FREE ENERGY PREDICTED BY IDOCK:   -5.23 KCAL/MOL
REMARK 923 INTER-LIGAND FREE ENERGY PREDICTED BY IDOCK:   -4.95 KCAL/MOL
REMARK 924 INTRA-LIGAND FREE ENERGY PREDICTED BY IDOCK:   -0.28 KCAL/MOL
REMARK 927      BINDING AFFINITY PREDICTED BY RF-SCORE:    0.00 PKD
ROOT
HETATM    1  N   UNL     1      -9.552  12.282  65.530  1.00  0.00    -0.412 NA 
HETATM    2  CA  UNL     1      -9.748  11.404  66.734  1.00  0.00    -0.198 C  
HETATM    3  H1  UNL     1      -8.575  12.403  65.261  1.00  0.00     0.000 HD 
HETATM    4  H2  UNL     1     -10.000  13.188  65.669  1.00  0.00     0.000 HD 
HETATM    5  OXT UNL     1      -9.231   9.037  67.131  1.00  0.00    -0.131 OA 
HETATM    6  C   UNL     1      -9.155  10.023  66.415  1.00  0.00    -0.149 C  
HETATM    7  O   UNL     1      -8.523  10.021  65.210  1.00  0.00    -0.139 OA 
ENDROOT
BRANCH   2   8
HETATM    8  C   UNL     1     -11.220  11.222  67.139  1.00  0.00    -0.344 C  
BRANCH   8   9
HETATM    9  C   UNL     1     -11.543  11.725  68.513  1.00  0.00    -0.380 A  
HETATM   10  C   UNL     1     -11.908  10.953  69.599  1.00  0.00    -0.344 A  
HETATM   11  N   UNL     1     -12.144  11.785  70.661  1.00  0.00    -0.424 NA 
HETATM   12  H   UNL     1     -12.434  11.478  71.590  1.00  0.00     0.000 HD 
HETATM   13  C   UNL     1     -11.936  13.095  70.295  1.00  0.00    -0.292 A  
HETATM   14  C   UNL     1     -11.572  13.092  68.947  1.00  0.00    -0.355 A  
HETATM   15  C   UNL     1     -11.326  14.331  68.314  1.00  0.00    -0.314 A  
HETATM   16  C   UNL     1     -11.433  15.505  69.062  1.00  0.00    -0.352 A  
HETATM   17  C   UNL     1     -11.790  15.480  70.403  1.00  0.00    -0.379 A  
HETATM   18  O   UNL     1     -11.191  16.723  68.497  1.00  0.00    -0.319 OA 
HETATM   19  C   UNL     1     -12.056  14.269  71.047  1.00  0.00    -0.416 A  
HETATM   20  H   UNL     1     -11.264  17.522  69.006  1.00  0.00     0.000 HD 
ENDBRANCH   8   9
ENDBRANCH   2   8
TORSDOF 2
ENDMDL
MODEL      122
REMARK 921   NORMALIZED FREE ENERGY PREDICTED BY IDOCK:   -4.41 KCAL/MOL
REMARK 922        TOTAL FREE ENERGY PREDICTED BY IDOCK:   -5.22 KCAL/MOL
REMARK 923 INTER-LIGAND FREE ENERGY PREDICTED BY IDOCK:   -5.09 KCAL/MOL
REMARK 924 INTRA-LIGAND FREE ENERGY PREDICTED BY IDOCK:   -0.13 KCAL/MOL
REMARK 927      BINDING AFFINITY PREDICTED BY RF-SCORE:    0.00 PKD
ROOT
HETATM    1  N   UNL     1     -12.101  10.467  68.778  1.00  0.00    -0.772 NA 
HETATM    2  CA  UNL     1     -10.826   9.919  69.355  1.00  0.00    -0.237 C  
HETATM    3  H1  UNL     1     -12.914   9.869  68.930  1.00  0.00     0.000 HD 
HETATM    4  H2  UNL     1     -11.987  10.671  67.785  1.00  0.00     0.000 HD 
HETATM    5  OXT UNL     1     -10.162   9.415  71.664  1.00  0.00    -0.283 OA 
HETATM    6  C   UNL     1     -11.027   9.743  70.868  1.00  0.00    -0.341 C  
HETATM    7  O   UNL     1     -12.312  10.009  71.230  1.00  0.00    -0.337 OA 
ENDROOT
BRANCH   2   8
HETATM    8  C   UNL     1      -9.601  10.819  69.126  1.00  0.00    -0.169 C  
BRANCH   8   9
HETATM    9  C   UNL     1      -9.667  11.634  67.869  1.00  0.00    -0.181 A  
HETATM   10  C   UNL     1      -9.152  11.276  66.638  1.00  0.00    -0.179 A  
HETATM   11  N   UNL     1      -9.392  12.297  65.757  1.00  0.00    -0.427 NA 
HETATM   12  H   UNL     1      -9.113  12.297  64.775  1.00  0.00     0.000 HD 
HETATM   13  C   UNL     1     -10.062  13.321  66.385  1.00  0.00    -0.290 A  
HETATM   14  C   UNL     1     -10.236  12.941  67.718  1.00  0.00    -0.224 A  
HETATM   15  C   UNL     1     -10.882  13.841  68.594  1.00  0.00    -0.280 A  
HETATM   16  C   UNL     1     -11.340  15.061  68.093  1.00  0.00    -0.330 A  
HETATM   17  C   UNL     1     -11.161  15.412  66.763  1.00  0.00    -0.244 A  
HETATM   18  O   UNL     1     -11.982  15.956  68.900  1.00  0.00    -0.476 OA 
HETATM   19  C   UNL     1     -10.509  14.547  65.880  1.00  0.00    -0.322 A  
HETATM   20  H   UNL     1     -12.293  16.787  68.559  1.00  0.00     0.000 HD 
ENDBRANCH   8   9
ENDBRANCH   2   8
TORSDOF 2
ENDMDL
MODEL      123
REMARK 921   NORMALIZED FREE ENERGY PREDICTED BY IDOCK:   -4.41 KCAL/MOL
REMARK 922        TOTAL FREE ENERGY PREDICTED BY IDOCK:   -5.22 KCAL/MOL
REMARK 923 INTER-LIGAND FREE ENERGY PREDICTED BY IDOCK:   -4.99 KCAL/MOL
REMARK 924 INTRA-LIGAND FREE ENERGY PREDICTED BY IDOCK:   -0.23 KCAL/MOL
REMARK 927      BINDING AFFINITY PREDICTED BY RF-SCORE:    0.00 PKD
ROOT
HETATM    1  N   UNL     1     -11.461   4.579  65.094  1.00  0.00    -1.109 NA 
HETATM    2  CA  UNL     1     -10.271   5.048  65.884  1.00  0.00    -0.178 C  
HETATM    3  H1  UNL     1     -11.290   4.512  64.091  1.00  0.00     0.000 HD 
HETATM    4  H2  UNL     1     -12.271   5.169  65.281  1.00  0.00     0.000 HD 
HETATM    5  OXT UNL     1      -8.043   4.072  66.217  1.00  0.00    -0.097 OA 
HETATM    6  C   UNL     1      -9.124   4.054  65.650  1.00  0.00    -0.142 C  
HETATM    7  O   UNL     1      -9.460   3.121  64.718  1.00  0.00    -0.148 OA 
ENDROOT
BRANCH   2   8
HETATM    8  C   UNL     1     -10.528   5.150  67.396  1.00  0.00    -0.172 C  
BRANCH   8   9
HETATM    9  C   UNL     1     -10.704   6.553  67.894  1.00  0.00    -0.357 A  
HETATM   10  C   UNL     1     -10.620   7.704  67.135  1.00  0.00    -0.340 A  
HETATM   11  N   UNL     1     -10.813   8.780  67.959  1.00  0.00    -0.476 NA 
HETATM   12  H   UNL     1     -10.799   9.755  67.659  1.00  0.00     0.000 HD 
HETATM   13  C   UNL     1     -11.029   8.359  69.251  1.00  0.00     0.046 A  
HETATM   14  C   UNL     1     -10.951   6.964  69.245  1.00  0.00    -0.260 A  
HETATM   15  C   UNL     1     -11.113   6.277  70.470  1.00  0.00    -0.399 A  
HETATM   16  C   UNL     1     -11.365   7.013  71.629  1.00  0.00    -0.257 A  
HETATM   17  C   UNL     1     -11.444   8.398  71.607  1.00  0.00    -0.349 A  
HETATM   18  O   UNL     1     -11.541   6.391  72.832  1.00  0.00    -0.475 OA 
HETATM   19  C   UNL     1     -11.271   9.101  70.411  1.00  0.00    -0.279 A  
HETATM   20  H   UNL     1     -11.713   6.892  73.621  1.00  0.00     0.000 HD 
ENDBRANCH   8   9
ENDBRANCH   2   8
TORSDOF 2
ENDMDL
MODEL      124
REMARK 921   NORMALIZED FREE ENERGY PREDICTED BY IDOCK:   -4.40 KCAL/MOL
REMARK 922        TOTAL FREE ENERGY PREDICTED BY IDOCK:   -5.21 KCAL/MOL
REMARK 923 INTER-LIGAND FREE ENERGY PREDICTED BY IDOCK:   -5.49 KCAL/MOL
REMARK 924 INTRA-LIGAND FREE ENERGY PREDICTED BY IDOCK:    0.28 KCAL/MOL
REMARK 927      BINDING AFFINITY PREDICTED BY RF-SCORE:    0.00 PKD
ROOT
HETATM    1  N   UNL     1     -11.069  10.013  71.176  1.00  0.00    -0.289 NA 
HETATM    2  CA  UNL     1     -12.048   8.941  71.571  1.00  0.00    -0.330 C  
HETATM    3  H1  UNL     1     -11.403  10.621  70.428  1.00  0.00     0.000 HD 
HETATM    4  H2  UNL     1     -10.168   9.603  70.931  1.00  0.00     0.000 HD 
HETATM    5  OXT UNL     1     -14.307   9.063  72.525  1.00  0.00    -0.570 OA 
HETATM    6  C   UNL     1     -13.340   9.628  72.039  1.00  0.00    -0.457 C  
HETATM    7  O   UNL     1     -13.281  10.974  71.850  1.00  0.00    -0.473 OA 
ENDROOT
BRANCH   2   8
HETATM    8  C   UNL     1     -11.546   8.024  72.698  1.00  0.00    -0.448 C  
BRANCH   8   9
HETATM    9  C   UNL     1     -10.872   6.775  72.216  1.00  0.00    -0.263 A  
HETATM   10  C   UNL     1     -10.205   5.854  73.000  1.00  0.00    -0.192 A  
HETATM   11  N   UNL     1      -9.708   4.872  72.185  1.00  0.00    -0.158 NA 
HETATM   12  H   UNL     1      -9.169   4.067  72.504  1.00  0.00     0.000 HD 
HETATM   13  C   UNL     1     -10.041   5.127  70.875  1.00  0.00    -0.232 A  
HETATM   14  C   UNL     1     -10.760   6.324  70.859  1.00  0.00    -0.314 A  
HETATM   15  C   UNL     1     -11.200   6.828  69.615  1.00  0.00    -0.345 A  
HETATM   16  C   UNL     1     -10.922   6.101  68.455  1.00  0.00    -0.320 A  
HETATM   17  C   UNL     1     -10.212   4.910  68.498  1.00  0.00    -0.105 A  
HETATM   18  O   UNL     1     -11.340   6.541  67.232  1.00  0.00    -0.704 OA 
HETATM   19  C   UNL     1      -9.750   4.400  69.715  1.00  0.00    -0.291 A  
HETATM   20  H   UNL     1     -11.151   6.047  66.443  1.00  0.00     0.000 HD 
ENDBRANCH   8   9
ENDBRANCH   2   8
TORSDOF 2
ENDMDL
MODEL      125
REMARK 921   NORMALIZED FREE ENERGY PREDICTED BY IDOCK:   -4.40 KCAL/MOL
REMARK 922        TOTAL FREE ENERGY PREDICTED BY IDOCK:   -5.21 KCAL/MOL
REMARK 923 INTER-LIGAND FREE ENERGY PREDICTED BY IDOCK:   -5.06 KCAL/MOL
REMARK 924 INTRA-LIGAND FREE ENERGY PREDICTED BY IDOCK:   -0.15 KCAL/MOL
REMARK 927      BINDING AFFINITY PREDICTED BY RF-SCORE:    0.00 PKD
ROOT
HETATM    1  N   UNL     1      -9.051  12.718  66.320  1.00  0.00    -0.434 NA 
HETATM    2  CA  UNL     1     -10.266  13.528  65.964  1.00  0.00    -0.305 C  
HETATM    3  H1  UNL     1      -8.171  13.136  66.017  1.00  0.00     0.000 HD 
HETATM    4  H2  UNL     1      -9.137  11.766  65.964  1.00  0.00     0.000 HD 
HETATM    5  OXT UNL     1     -10.980  15.781  66.630  1.00  0.00    -0.286 OA 
HETATM    6  C   UNL     1     -10.127  14.907  66.626  1.00  0.00    -0.258 C  
HETATM    7  O   UNL     1      -8.916  15.046  67.231  1.00  0.00    -0.181 OA 
ENDROOT
BRANCH   2   8
HETATM    8  C   UNL     1     -11.591  12.898  66.420  1.00  0.00    -0.425 C  
BRANCH   8   9
HETATM    9  C   UNL     1     -11.610  12.491  67.863  1.00  0.00    -0.403 A  
HETATM   10  C   UNL     1     -11.904  13.308  68.937  1.00  0.00    -0.327 A  
HETATM   11  N   UNL     1     -11.788  12.572  70.085  1.00  0.00    -0.510 NA 
HETATM   12  H   UNL     1     -11.947  12.931  71.027  1.00  0.00     0.000 HD 
HETATM   13  C   UNL     1     -11.428  11.278  69.787  1.00  0.00    -0.310 A  
HETATM   14  C   UNL     1     -11.294  11.199  68.399  1.00  0.00    -0.357 A  
HETATM   15  C   UNL     1     -10.899   9.967  67.831  1.00  0.00    -0.323 A  
HETATM   16  C   UNL     1     -10.682   8.874  68.672  1.00  0.00    -0.078 A  
HETATM   17  C   UNL     1     -10.829   8.977  70.048  1.00  0.00    -0.247 A  
HETATM   18  O   UNL     1     -10.313   7.660  68.167  1.00  0.00    -0.197 OA 
HETATM   19  C   UNL     1     -11.201  10.189  70.636  1.00  0.00    -0.418 A  
HETATM   20  H   UNL     1     -10.165   6.916  68.740  1.00  0.00     0.000 HD 
ENDBRANCH   8   9
ENDBRANCH   2   8
TORSDOF 2
ENDMDL
MODEL      126
REMARK 921   NORMALIZED FREE ENERGY PREDICTED BY IDOCK:   -4.39 KCAL/MOL
REMARK 922        TOTAL FREE ENERGY PREDICTED BY IDOCK:   -5.20 KCAL/MOL
REMARK 923 INTER-LIGAND FREE ENERGY PREDICTED BY IDOCK:   -4.95 KCAL/MOL
REMARK 924 INTRA-LIGAND FREE ENERGY PREDICTED BY IDOCK:   -0.25 KCAL/MOL
REMARK 927      BINDING AFFINITY PREDICTED BY RF-SCORE:    0.00 PKD
ROOT
HETATM    1  N   UNL     1     -10.346  19.561  68.067  1.00  0.00    -0.435 NA 
HETATM    2  CA  UNL     1     -10.121  19.135  66.643  1.00  0.00    -0.395 C  
HETATM    3  H1  UNL     1     -11.290  19.378  68.408  1.00  0.00     0.000 HD 
HETATM    4  H2  UNL     1     -10.105  20.544  68.190  1.00  0.00     0.000 HD 
HETATM    5  OXT UNL     1     -10.204  16.932  65.563  1.00  0.00    -0.580 OA 
HETATM    6  C   UNL     1     -10.390  17.625  66.551  1.00  0.00    -0.337 C  
HETATM    7  O   UNL     1     -10.865  17.135  67.727  1.00  0.00    -0.348 OA 
ENDROOT
BRANCH   2   8
HETATM    8  C   UNL     1      -8.700  19.412  66.127  1.00  0.00    -0.294 C  
BRANCH   8   9
HETATM    9  C   UNL     1      -7.708  19.726  67.206  1.00  0.00    -0.297 A  
HETATM   10  C   UNL     1      -7.149  20.962  67.464  1.00  0.00    -0.335 A  
HETATM   11  N   UNL     1      -6.273  20.830  68.508  1.00  0.00    -0.328 NA 
HETATM   12  H   UNL     1      -5.718  21.590  68.904  1.00  0.00     0.000 HD 
HETATM   13  C   UNL     1      -6.248  19.527  68.948  1.00  0.00    -0.258 A  
HETATM   14  C   UNL     1      -7.128  18.804  68.139  1.00  0.00    -0.269 A  
HETATM   15  C   UNL     1      -7.267  17.417  68.368  1.00  0.00    -0.223 A  
HETATM   16  C   UNL     1      -6.540  16.828  69.405  1.00  0.00    -0.228 A  
HETATM   17  C   UNL     1      -5.678  17.569  70.199  1.00  0.00    -0.230 A  
HETATM   18  O   UNL     1      -6.653  15.494  69.673  1.00  0.00    -0.160 OA 
HETATM   19  C   UNL     1      -5.509  18.939  69.980  1.00  0.00    -0.233 A  
HETATM   20  H   UNL     1      -6.159  15.093  70.378  1.00  0.00     0.000 HD 
ENDBRANCH   8   9
ENDBRANCH   2   8
TORSDOF 2
ENDMDL
MODEL      127
REMARK 921   NORMALIZED FREE ENERGY PREDICTED BY IDOCK:   -4.39 KCAL/MOL
REMARK 922        TOTAL FREE ENERGY PREDICTED BY IDOCK:   -5.19 KCAL/MOL
REMARK 923 INTER-LIGAND FREE ENERGY PREDICTED BY IDOCK:   -5.00 KCAL/MOL
REMARK 924 INTRA-LIGAND FREE ENERGY PREDICTED BY IDOCK:   -0.19 KCAL/MOL
REMARK 927      BINDING AFFINITY PREDICTED BY RF-SCORE:    0.00 PKD
ROOT
HETATM    1  N   UNL     1     -12.121  10.203  69.697  1.00  0.00    -0.496 NA 
HETATM    2  CA  UNL     1     -13.072  10.448  70.835  1.00  0.00    -0.330 C  
HETATM    3  H1  UNL     1     -12.273  10.812  68.893  1.00  0.00     0.000 HD 
HETATM    4  H2  UNL     1     -12.145   9.223  69.414  1.00  0.00     0.000 HD 
HETATM    5  OXT UNL     1     -13.446  12.415  72.256  1.00  0.00    -0.541 OA 
HETATM    6  C   UNL     1     -12.903  11.907  71.288  1.00  0.00    -0.290 C  
HETATM    7  O   UNL     1     -12.051  12.583  70.471  1.00  0.00    -0.365 OA 
ENDROOT
BRANCH   2   8
HETATM    8  C   UNL     1     -12.844   9.530  72.046  1.00  0.00    -0.499 C  
BRANCH   8   9
HETATM    9  C   UNL     1     -12.124   8.256  71.721  1.00  0.00    -0.364 A  
HETATM   10  C   UNL     1     -12.700   7.088  71.264  1.00  0.00    -0.351 A  
HETATM   11  N   UNL     1     -11.714   6.150  71.112  1.00  0.00    -0.222 NA 
HETATM   12  H   UNL     1     -11.863   5.193  70.790  1.00  0.00     0.000 HD 
HETATM   13  C   UNL     1     -10.493   6.682  71.458  1.00  0.00    -0.215 A  
HETATM   14  C   UNL     1     -10.720   8.000  71.860  1.00  0.00    -0.311 A  
HETATM   15  C   UNL     1      -9.617   8.769  72.296  1.00  0.00    -0.270 A  
HETATM   16  C   UNL     1      -8.345   8.192  72.287  1.00  0.00    -0.158 A  
HETATM   17  C   UNL     1      -8.146   6.882  71.876  1.00  0.00    -0.100 A  
HETATM   18  O   UNL     1      -7.249   8.900  72.686  1.00  0.00    -0.337 OA 
HETATM   19  C   UNL     1      -9.223   6.095  71.458  1.00  0.00    -0.152 A  
HETATM   20  H   UNL     1      -6.384   8.507  72.680  1.00  0.00     0.000 HD 
ENDBRANCH   8   9
ENDBRANCH   2   8
TORSDOF 2
ENDMDL
MODEL      128
REMARK 921   NORMALIZED FREE ENERGY PREDICTED BY IDOCK:   -4.38 KCAL/MOL
REMARK 922        TOTAL FREE ENERGY PREDICTED BY IDOCK:   -5.19 KCAL/MOL
REMARK 923 INTER-LIGAND FREE ENERGY PREDICTED BY IDOCK:   -4.94 KCAL/MOL
REMARK 924 INTRA-LIGAND FREE ENERGY PREDICTED BY IDOCK:   -0.24 KCAL/MOL
REMARK 927      BINDING AFFINITY PREDICTED BY RF-SCORE:    0.00 PKD
ROOT
HETATM    1  N   UNL     1      -9.268   9.368  66.739  1.00  0.00    -0.138 NA 
HETATM    2  CA  UNL     1     -10.271  10.464  66.971  1.00  0.00    -0.225 C  
HETATM    3  H1  UNL     1      -9.574   8.664  66.066  1.00  0.00     0.000 HD 
HETATM    4  H2  UNL     1      -9.005   8.929  67.621  1.00  0.00     0.000 HD 
HETATM    5  OXT UNL     1     -11.220  12.155  65.465  1.00  0.00    -0.313 OA 
HETATM    6  C   UNL     1     -10.536  11.157  65.625  1.00  0.00    -0.248 C  
HETATM    7  O   UNL     1      -9.899  10.519  64.606  1.00  0.00    -0.288 OA 
ENDROOT
BRANCH   2   8
HETATM    8  C   UNL     1      -9.812  11.524  67.985  1.00  0.00    -0.192 C  
BRANCH   8   9
HETATM    9  C   UNL     1     -10.834  11.855  69.030  1.00  0.00    -0.235 A  
HETATM   10  C   UNL     1     -11.366  13.104  69.283  1.00  0.00    -0.253 A  
HETATM   11  N   UNL     1     -12.244  12.995  70.328  1.00  0.00    -0.329 NA 
HETATM   12  H   UNL     1     -12.778  13.770  70.725  1.00  0.00     0.000 HD 
HETATM   13  C   UNL     1     -12.306  11.693  70.766  1.00  0.00    -0.358 A  
HETATM   14  C   UNL     1     -11.419  10.954  69.980  1.00  0.00    -0.411 A  
HETATM   15  C   UNL     1     -11.272   9.574  70.248  1.00  0.00    -0.307 A  
HETATM   16  C   UNL     1     -12.032   9.000  71.269  1.00  0.00    -0.312 A  
HETATM   17  C   UNL     1     -12.912   9.755  72.031  1.00  0.00    -0.515 A  
HETATM   18  O   UNL     1     -11.934   7.668  71.555  1.00  0.00    -0.282 OA 
HETATM   19  C   UNL     1     -13.062  11.125  71.797  1.00  0.00    -0.536 A  
HETATM   20  H   UNL     1     -12.451   7.278  72.249  1.00  0.00     0.000 HD 
ENDBRANCH   8   9
ENDBRANCH   2   8
TORSDOF 2
ENDMDL
MODEL      129
REMARK 921   NORMALIZED FREE ENERGY PREDICTED BY IDOCK:   -4.38 KCAL/MOL
REMARK 922        TOTAL FREE ENERGY PREDICTED BY IDOCK:   -5.18 KCAL/MOL
REMARK 923 INTER-LIGAND FREE ENERGY PREDICTED BY IDOCK:   -4.91 KCAL/MOL
REMARK 924 INTRA-LIGAND FREE ENERGY PREDICTED BY IDOCK:   -0.27 KCAL/MOL
REMARK 927      BINDING AFFINITY PREDICTED BY RF-SCORE:    0.00 PKD
ROOT
HETATM    1  N   UNL     1     -11.378  16.499  68.669  1.00  0.00    -0.308 NA 
HETATM    2  CA  UNL     1     -11.566  15.008  68.655  1.00  0.00    -0.325 C  
HETATM    3  H1  UNL     1     -12.251  17.025  68.708  1.00  0.00     0.000 HD 
HETATM    4  H2  UNL     1     -10.815  16.797  67.872  1.00  0.00     0.000 HD 
HETATM    5  OXT UNL     1     -12.548  13.469  70.297  1.00  0.00    -0.254 OA 
HETATM    6  C   UNL     1     -12.317  14.612  69.935  1.00  0.00    -0.294 C  
HETATM    7  O   UNL     1     -12.700  15.709  70.643  1.00  0.00    -0.454 OA 
ENDROOT
BRANCH   2   8
HETATM    8  C   UNL     1     -10.250  14.214  68.595  1.00  0.00    -0.238 C  
BRANCH   8   9
HETATM    9  C   UNL     1     -10.059  13.441  67.324  1.00  0.00    -0.238 A  
HETATM   10  C   UNL     1      -9.758  13.971  66.085  1.00  0.00    -0.280 A  
HETATM   11  N   UNL     1      -9.692  12.945  65.181  1.00  0.00    -0.499 NA 
HETATM   12  H   UNL     1      -9.488  13.056  64.187  1.00  0.00     0.000 HD 
HETATM   13  C   UNL     1      -9.941  11.744  65.804  1.00  0.00    -0.238 A  
HETATM   14  C   UNL     1     -10.190  12.024  67.149  1.00  0.00    -0.221 A  
HETATM   15  C   UNL     1     -10.504  10.950  68.012  1.00  0.00    -0.222 A  
HETATM   16  C   UNL     1     -10.529   9.653  67.496  1.00  0.00    -0.262 A  
HETATM   17  C   UNL     1     -10.270   9.401  66.156  1.00  0.00    -0.264 A  
HETATM   18  O   UNL     1     -10.813   8.584  68.295  1.00  0.00    -0.436 OA 
HETATM   19  C   UNL     1      -9.976  10.448  65.279  1.00  0.00    -0.376 A  
HETATM   20  H   UNL     1     -10.831   7.701  67.943  1.00  0.00     0.000 HD 
ENDBRANCH   8   9
ENDBRANCH   2   8
TORSDOF 2
ENDMDL
MODEL      130
REMARK 921   NORMALIZED FREE ENERGY PREDICTED BY IDOCK:   -4.35 KCAL/MOL
REMARK 922        TOTAL FREE ENERGY PREDICTED BY IDOCK:   -5.16 KCAL/MOL
REMARK 923 INTER-LIGAND FREE ENERGY PREDICTED BY IDOCK:   -5.10 KCAL/MOL
REMARK 924 INTRA-LIGAND FREE ENERGY PREDICTED BY IDOCK:   -0.06 KCAL/MOL
REMARK 927      BINDING AFFINITY PREDICTED BY RF-SCORE:    0.00 PKD
ROOT
HETATM    1  N   UNL     1     -11.500  14.214  70.293  1.00  0.00    -0.476 NA 
HETATM    2  CA  UNL     1     -12.024  13.762  68.958  1.00  0.00    -0.360 C  
HETATM    3  H1  UNL     1     -11.972  13.785  71.089  1.00  0.00     0.000 HD 
HETATM    4  H2  UNL     1     -11.530  15.231  70.365  1.00  0.00     0.000 HD 
HETATM    5  OXT UNL     1     -12.068  11.555  67.883  1.00  0.00    -0.630 OA 
HETATM    6  C   UNL     1     -11.843  12.239  68.869  1.00  0.00    -0.303 C  
HETATM    7  O   UNL     1     -11.387  11.725  70.044  1.00  0.00    -0.193 OA 
ENDROOT
BRANCH   2   8
HETATM    8  C   UNL     1     -11.314  14.410  67.759  1.00  0.00    -0.331 C  
BRANCH   8   9
HETATM    9  C   UNL     1     -10.041  15.120  68.111  1.00  0.00    -0.222 A  
HETATM   10  C   UNL     1      -8.870  14.528  68.543  1.00  0.00    -0.182 A  
HETATM   11  N   UNL     1      -7.952  15.514  68.785  1.00  0.00    -0.150 NA 
HETATM   12  H   UNL     1      -7.000  15.356  69.118  1.00  0.00     0.000 HD 
HETATM   13  C   UNL     1      -8.495  16.748  68.514  1.00  0.00    -0.244 A  
HETATM   14  C   UNL     1      -9.813  16.535  68.103  1.00  0.00    -0.244 A  
HETATM   15  C   UNL     1     -10.608  17.659  67.788  1.00  0.00    -0.380 A  
HETATM   16  C   UNL     1     -10.044  18.933  67.876  1.00  0.00    -0.371 A  
HETATM   17  C   UNL     1      -8.730  19.118  68.281  1.00  0.00    -0.375 A  
HETATM   18  O   UNL     1     -10.770  20.047  67.568  1.00  0.00    -0.332 OA 
HETATM   19  C   UNL     1      -7.928  18.023  68.615  1.00  0.00    -0.303 A  
HETATM   20  H   UNL     1     -10.386  20.914  67.628  1.00  0.00     0.000 HD 
ENDBRANCH   8   9
ENDBRANCH   2   8
TORSDOF 2
ENDMDL
MODEL      131
REMARK 921   NORMALIZED FREE ENERGY PREDICTED BY IDOCK:   -4.33 KCAL/MOL
REMARK 922        TOTAL FREE ENERGY PREDICTED BY IDOCK:   -5.13 KCAL/MOL
REMARK 923 INTER-LIGAND FREE ENERGY PREDICTED BY IDOCK:   -4.88 KCAL/MOL
REMARK 924 INTRA-LIGAND FREE ENERGY PREDICTED BY IDOCK:   -0.25 KCAL/MOL
REMARK 927      BINDING AFFINITY PREDICTED BY RF-SCORE:    0.00 PKD
ROOT
HETATM    1  N   UNL     1     -12.414  12.682  71.043  1.00  0.00    -0.335 NA 
HETATM    2  CA  UNL     1     -12.409  14.149  71.372  1.00  0.00    -0.344 C  
HETATM    3  H1  UNL     1     -12.274  12.077  71.852  1.00  0.00     0.000 HD 
HETATM    4  H2  UNL     1     -11.729  12.474  70.317  1.00  0.00     0.000 HD 
HETATM    5  OXT UNL     1     -13.881  15.513  72.785  1.00  0.00    -0.529 OA 
HETATM    6  C   UNL     1     -13.537  14.414  72.381  1.00  0.00    -0.480 C  
HETATM    7  O   UNL     1     -14.128  13.254  72.777  1.00  0.00    -0.691 OA 
ENDROOT
BRANCH   2   8
HETATM    8  C   UNL     1     -12.619  15.061  70.152  1.00  0.00    -0.312 C  
BRANCH   8   9
HETATM    9  C   UNL     1     -11.347  15.562  69.536  1.00  0.00    -0.317 A  
HETATM   10  C   UNL     1     -10.834  16.839  69.649  1.00  0.00    -0.204 A  
HETATM   11  N   UNL     1      -9.675  16.904  68.922  1.00  0.00    -0.260 NA 
HETATM   12  H   UNL     1      -9.090  17.736  68.830  1.00  0.00     0.000 HD 
HETATM   13  C   UNL     1      -9.412  15.689  68.333  1.00  0.00    -0.196 A  
HETATM   14  C   UNL     1     -10.454  14.828  68.688  1.00  0.00    -0.250 A  
HETATM   15  C   UNL     1     -10.436  13.509  68.183  1.00  0.00    -0.249 A  
HETATM   16  C   UNL     1      -9.371  13.110  67.372  1.00  0.00    -0.213 A  
HETATM   17  C   UNL     1      -8.345  13.982  67.041  1.00  0.00    -0.127 A  
HETATM   18  O   UNL     1      -9.305  11.841  66.873  1.00  0.00    -0.183 OA 
HETATM   19  C   UNL     1      -8.349  15.298  67.513  1.00  0.00    -0.191 A  
HETATM   20  H   UNL     1      -8.580  11.569  66.321  1.00  0.00     0.000 HD 
ENDBRANCH   8   9
ENDBRANCH   2   8
TORSDOF 2
ENDMDL
MODEL      132
REMARK 921   NORMALIZED FREE ENERGY PREDICTED BY IDOCK:   -4.32 KCAL/MOL
REMARK 922        TOTAL FREE ENERGY PREDICTED BY IDOCK:   -5.12 KCAL/MOL
REMARK 923 INTER-LIGAND FREE ENERGY PREDICTED BY IDOCK:   -5.02 KCAL/MOL
REMARK 924 INTRA-LIGAND FREE ENERGY PREDICTED BY IDOCK:   -0.10 KCAL/MOL
REMARK 927      BINDING AFFINITY PREDICTED BY RF-SCORE:    0.00 PKD
ROOT
HETATM    1  N   UNL     1      -8.283  17.878  65.768  1.00  0.00    -0.506 NA 
HETATM    2  CA  UNL     1      -8.965  17.884  67.108  1.00  0.00    -0.251 C  
HETATM    3  H1  UNL     1      -7.315  18.199  65.795  1.00  0.00     0.000 HD 
HETATM    4  H2  UNL     1      -8.821  18.417  65.089  1.00  0.00     0.000 HD 
HETATM    5  OXT UNL     1      -8.499  16.658  69.183  1.00  0.00    -0.216 OA 
HETATM    6  C   UNL     1      -8.171  16.964  68.048  1.00  0.00    -0.203 C  
HETATM    7  O   UNL     1      -7.034  16.512  67.454  1.00  0.00    -0.127 OA 
ENDROOT
BRANCH   2   8
HETATM    8  C   UNL     1     -10.423  17.402  67.068  1.00  0.00    -0.284 C  
BRANCH   8   9
HETATM    9  C   UNL     1     -10.589  15.994  66.580  1.00  0.00    -0.297 A  
HETATM   10  C   UNL     1     -10.340  15.540  65.300  1.00  0.00    -0.386 A  
HETATM   11  N   UNL     1     -10.637  14.204  65.250  1.00  0.00    -0.349 NA 
HETATM   12  H   UNL     1     -10.547  13.617  64.420  1.00  0.00     0.000 HD 
HETATM   13  C   UNL     1     -11.075  13.767  66.478  1.00  0.00    -0.306 A  
HETATM   14  C   UNL     1     -11.070  14.872  67.332  1.00  0.00    -0.325 A  
HETATM   15  C   UNL     1     -11.508  14.694  68.664  1.00  0.00    -0.326 A  
HETATM   16  C   UNL     1     -11.905  13.422  69.081  1.00  0.00    -0.336 A  
HETATM   17  C   UNL     1     -11.893  12.339  68.214  1.00  0.00    -0.367 A  
HETATM   18  O   UNL     1     -12.323  13.200  70.361  1.00  0.00    -0.328 OA 
HETATM   19  C   UNL     1     -11.482  12.492  66.887  1.00  0.00    -0.416 A  
HETATM   20  H   UNL     1     -12.593  12.334  70.645  1.00  0.00     0.000 HD 
ENDBRANCH   8   9
ENDBRANCH   2   8
TORSDOF 2
ENDMDL
MODEL      133
REMARK 921   NORMALIZED FREE ENERGY PREDICTED BY IDOCK:   -4.31 KCAL/MOL
REMARK 922        TOTAL FREE ENERGY PREDICTED BY IDOCK:   -5.11 KCAL/MOL
REMARK 923 INTER-LIGAND FREE ENERGY PREDICTED BY IDOCK:   -4.87 KCAL/MOL
REMARK 924 INTRA-LIGAND FREE ENERGY PREDICTED BY IDOCK:   -0.24 KCAL/MOL
REMARK 927      BINDING AFFINITY PREDICTED BY RF-SCORE:    0.00 PKD
ROOT
HETATM    1  N   UNL     1     -11.731  14.482  66.401  1.00  0.00    -0.376 NA 
HETATM    2  CA  UNL     1     -11.283  13.458  65.396  1.00  0.00    -0.288 C  
HETATM    3  H1  UNL     1     -11.572  15.446  66.108  1.00  0.00     0.000 HD 
HETATM    4  H2  UNL     1     -11.299  14.306  67.309  1.00  0.00     0.000 HD 
HETATM    5  OXT UNL     1     -12.013  12.997  63.097  1.00  0.00    -0.534 OA 
HETATM    6  C   UNL     1     -12.055  13.706  64.091  1.00  0.00    -0.435 C  
HETATM    7  O   UNL     1     -12.815  14.831  64.172  1.00  0.00    -0.678 OA 
ENDROOT
BRANCH   2   8
HETATM    8  C   UNL     1     -11.522  12.005  65.837  1.00  0.00    -0.392 C  
BRANCH   8   9
HETATM    9  C   UNL     1     -10.353  11.095  65.606  1.00  0.00    -0.311 A  
HETATM   10  C   UNL     1      -9.338  11.288  64.689  1.00  0.00    -0.135 A  
HETATM   11  N   UNL     1      -8.479  10.225  64.766  1.00  0.00    -0.169 NA 
HETATM   12  H   UNL     1      -7.641  10.109  64.196  1.00  0.00     0.000 HD 
HETATM   13  C   UNL     1      -8.907   9.334  65.724  1.00  0.00    -0.177 A  
HETATM   14  C   UNL     1     -10.091   9.845  66.259  1.00  0.00    -0.311 A  
HETATM   15  C   UNL     1     -10.756   9.097  67.256  1.00  0.00    -0.224 A  
HETATM   16  C   UNL     1     -10.195   7.892  67.684  1.00  0.00    -0.226 A  
HETATM   17  C   UNL     1      -9.013   7.409  67.141  1.00  0.00    -0.134 A  
HETATM   18  O   UNL     1     -10.794   7.142  68.654  1.00  0.00    -0.350 OA 
HETATM   19  C   UNL     1      -8.346   8.122  66.140  1.00  0.00    -0.126 A  
HETATM   20  H   UNL     1     -10.412   6.322  68.945  1.00  0.00     0.000 HD 
ENDBRANCH   8   9
ENDBRANCH   2   8
TORSDOF 2
ENDMDL
MODEL      134
REMARK 921   NORMALIZED FREE ENERGY PREDICTED BY IDOCK:   -4.31 KCAL/MOL
REMARK 922        TOTAL FREE ENERGY PREDICTED BY IDOCK:   -5.11 KCAL/MOL
REMARK 923 INTER-LIGAND FREE ENERGY PREDICTED BY IDOCK:   -4.87 KCAL/MOL
REMARK 924 INTRA-LIGAND FREE ENERGY PREDICTED BY IDOCK:   -0.24 KCAL/MOL
REMARK 927      BINDING AFFINITY PREDICTED BY RF-SCORE:    0.00 PKD
ROOT
HETATM    1  N   UNL     1     -13.519  10.016  70.335  1.00  0.00    -0.466 NA 
HETATM    2  CA  UNL     1     -12.051   9.706  70.429  1.00  0.00    -0.051 C  
HETATM    3  H1  UNL     1     -14.106   9.196  70.184  1.00  0.00     0.000 HD 
HETATM    4  H2  UNL     1     -13.692  10.718  69.615  1.00  0.00     0.000 HD 
HETATM    5  OXT UNL     1     -10.766   8.355  72.027  1.00  0.00    -0.267 OA 
HETATM    6  C   UNL     1     -11.846   8.736  71.603  1.00  0.00    -0.330 C  
HETATM    7  O   UNL     1     -13.035   8.344  72.134  1.00  0.00    -0.339 OA 
ENDROOT
BRANCH   2   8
HETATM    8  C   UNL     1     -11.166  10.942  70.655  1.00  0.00     0.058 C  
BRANCH   8   9
HETATM    9  C   UNL     1     -11.571  12.140  69.850  1.00  0.00    -0.297 A  
HETATM   10  C   UNL     1     -12.202  13.270  70.332  1.00  0.00    -0.332 A  
HETATM   11  N   UNL     1     -12.424  14.121  69.282  1.00  0.00    -0.497 NA 
HETATM   12  H   UNL     1     -12.879  15.032  69.355  1.00  0.00     0.000 HD 
HETATM   13  C   UNL     1     -11.944  13.573  68.115  1.00  0.00    -0.341 A  
HETATM   14  C   UNL     1     -11.416  12.321  68.436  1.00  0.00    -0.356 A  
HETATM   15  C   UNL     1     -10.877  11.531  67.396  1.00  0.00    -0.294 A  
HETATM   16  C   UNL     1     -10.873  12.040  66.095  1.00  0.00    -0.286 A  
HETATM   17  C   UNL     1     -11.398  13.290  65.803  1.00  0.00    -0.328 A  
HETATM   18  O   UNL     1     -10.351  11.318  65.060  1.00  0.00    -0.271 OA 
HETATM   19  C   UNL     1     -11.952  14.083  66.812  1.00  0.00    -0.473 A  
HETATM   20  H   UNL     1     -10.348  11.664  64.175  1.00  0.00     0.000 HD 
ENDBRANCH   8   9
ENDBRANCH   2   8
TORSDOF 2
ENDMDL
MODEL      135
REMARK 921   NORMALIZED FREE ENERGY PREDICTED BY IDOCK:   -4.31 KCAL/MOL
REMARK 922        TOTAL FREE ENERGY PREDICTED BY IDOCK:   -5.11 KCAL/MOL
REMARK 923 INTER-LIGAND FREE ENERGY PREDICTED BY IDOCK:   -4.87 KCAL/MOL
REMARK 924 INTRA-LIGAND FREE ENERGY PREDICTED BY IDOCK:   -0.24 KCAL/MOL
REMARK 927      BINDING AFFINITY PREDICTED BY RF-SCORE:    0.00 PKD
ROOT
HETATM    1  N   UNL     1     -12.292  10.611  69.052  1.00  0.00    -0.779 NA 
HETATM    2  CA  UNL     1     -10.873  10.116  69.031  1.00  0.00    -0.224 C  
HETATM    3  H1  UNL     1     -12.966   9.919  69.379  1.00  0.00     0.000 HD 
HETATM    4  H2  UNL     1     -12.561  10.969  68.136  1.00  0.00     0.000 HD 
HETATM    5  OXT UNL     1      -9.383   9.349  70.825  1.00  0.00    -0.253 OA 
HETATM    6  C   UNL     1     -10.494   9.702  70.461  1.00  0.00    -0.303 C  
HETATM    7  O   UNL     1     -11.562   9.781  71.299  1.00  0.00    -0.345 OA 
ENDROOT
BRANCH   2   8
HETATM    8  C   UNL     1      -9.857  11.158  68.538  1.00  0.00    -0.199 C  
BRANCH   8   9
HETATM    9  C   UNL     1     -10.083  11.615  67.128  1.00  0.00    -0.227 A  
HETATM   10  C   UNL     1     -10.673  12.802  66.740  1.00  0.00    -0.260 A  
HETATM   11  N   UNL     1     -10.720  12.835  65.372  1.00  0.00    -0.278 NA 
HETATM   12  H   UNL     1     -11.110  13.599  64.820  1.00  0.00     0.000 HD 
HETATM   13  C   UNL     1     -10.165  11.690  64.849  1.00  0.00    -0.270 A  
HETATM   14  C   UNL     1      -9.770  10.895  65.928  1.00  0.00    -0.269 A  
HETATM   15  C   UNL     1      -9.188   9.636  65.658  1.00  0.00    -0.270 A  
HETATM   16  C   UNL     1      -9.010   9.245  64.329  1.00  0.00    -0.096 A  
HETATM   17  C   UNL     1      -9.406  10.056  63.275  1.00  0.00    -0.296 A  
HETATM   18  O   UNL     1      -8.440   8.043  64.021  1.00  0.00    -0.380 OA 
HETATM   19  C   UNL     1     -10.000  11.298  63.516  1.00  0.00    -0.417 A  
HETATM   20  H   UNL     1      -8.319   7.777  63.116  1.00  0.00     0.000 HD 
ENDBRANCH   8   9
ENDBRANCH   2   8
TORSDOF 2
ENDMDL
MODEL      136
REMARK 921   NORMALIZED FREE ENERGY PREDICTED BY IDOCK:   -4.29 KCAL/MOL
REMARK 922        TOTAL FREE ENERGY PREDICTED BY IDOCK:   -5.09 KCAL/MOL
REMARK 923 INTER-LIGAND FREE ENERGY PREDICTED BY IDOCK:   -4.92 KCAL/MOL
REMARK 924 INTRA-LIGAND FREE ENERGY PREDICTED BY IDOCK:   -0.17 KCAL/MOL
REMARK 927      BINDING AFFINITY PREDICTED BY RF-SCORE:    0.00 PKD
ROOT
HETATM    1  N   UNL     1      -9.039  12.870  67.897  1.00  0.00    -0.192 NA 
HETATM    2  CA  UNL     1     -10.126  13.206  66.914  1.00  0.00    -0.245 C  
HETATM    3  H1  UNL     1      -8.294  13.566  67.944  1.00  0.00     0.000 HD 
HETATM    4  H2  UNL     1      -8.653  11.945  67.704  1.00  0.00     0.000 HD 
HETATM    5  OXT UNL     1     -11.715  15.074  66.812  1.00  0.00    -0.288 OA 
HETATM    6  C   UNL     1     -10.740  14.552  67.329  1.00  0.00    -0.287 C  
HETATM    7  O   UNL     1     -10.061  15.106  68.370  1.00  0.00    -0.218 OA 
ENDROOT
BRANCH   2   8
HETATM    8  C   UNL     1     -11.247  12.157  66.843  1.00  0.00    -0.375 C  
BRANCH   8   9
HETATM    9  C   UNL     1     -11.001  10.940  67.682  1.00  0.00    -0.350 A  
HETATM   10  C   UNL     1     -10.344   9.793  67.282  1.00  0.00    -0.248 A  
HETATM   11  N   UNL     1     -10.350   8.905  68.325  1.00  0.00    -0.205 NA 
HETATM   12  H   UNL     1      -9.935   7.973  68.301  1.00  0.00     0.000 HD 
HETATM   13  C   UNL     1     -10.996   9.450  69.411  1.00  0.00    -0.145 A  
HETATM   14  C   UNL     1     -11.431  10.723  69.033  1.00  0.00    -0.368 A  
HETATM   15  C   UNL     1     -12.155  11.492  69.972  1.00  0.00    -0.408 A  
HETATM   16  C   UNL     1     -12.388  10.962  71.243  1.00  0.00    -0.343 A  
HETATM   17  C   UNL     1     -11.939   9.698  71.595  1.00  0.00    -0.470 A  
HETATM   18  O   UNL     1     -13.071  11.674  72.186  1.00  0.00    -0.471 OA 
HETATM   19  C   UNL     1     -11.237   8.910  70.679  1.00  0.00    -0.308 A  
HETATM   20  H   UNL     1     -13.229  11.314  73.051  1.00  0.00     0.000 HD 
ENDBRANCH   8   9
ENDBRANCH   2   8
TORSDOF 2
ENDMDL
MODEL      137
REMARK 921   NORMALIZED FREE ENERGY PREDICTED BY IDOCK:   -4.28 KCAL/MOL
REMARK 922        TOTAL FREE ENERGY PREDICTED BY IDOCK:   -5.08 KCAL/MOL
REMARK 923 INTER-LIGAND FREE ENERGY PREDICTED BY IDOCK:   -4.85 KCAL/MOL
REMARK 924 INTRA-LIGAND FREE ENERGY PREDICTED BY IDOCK:   -0.23 KCAL/MOL
REMARK 927      BINDING AFFINITY PREDICTED BY RF-SCORE:    0.00 PKD
ROOT
HETATM    1  N   UNL     1     -11.486  16.460  69.811  1.00  0.00    -0.338 NA 
HETATM    2  CA  UNL     1     -11.648  15.435  68.724  1.00  0.00    -0.368 C  
HETATM    3  H1  UNL     1     -12.240  16.457  70.498  1.00  0.00     0.000 HD 
HETATM    4  H2  UNL     1     -11.368  17.391  69.412  1.00  0.00     0.000 HD 
HETATM    5  OXT UNL     1     -11.728  12.982  68.790  1.00  0.00    -0.285 OA 
HETATM    6  C   UNL     1     -11.703  14.049  69.384  1.00  0.00    -0.315 C  
HETATM    7  O   UNL     1     -11.715  14.147  70.741  1.00  0.00    -0.269 OA 
ENDROOT
BRANCH   2   8
HETATM    8  C   UNL     1     -10.511  15.439  67.689  1.00  0.00    -0.272 C  
BRANCH   8   9
HETATM    9  C   UNL     1     -10.295  16.765  67.023  1.00  0.00    -0.300 A  
HETATM   10  C   UNL     1     -10.941  17.224  65.892  1.00  0.00     0.168 A  
HETATM   11  N   UNL     1     -10.448  18.463  65.585  1.00  0.00    -0.619 NA 
HETATM   12  H   UNL     1     -10.748  19.031  64.792  1.00  0.00     0.000 HD 
HETATM   13  C   UNL     1      -9.489  18.834  66.499  1.00  0.00    -0.338 A  
HETATM   14  C   UNL     1      -9.359  17.780  67.407  1.00  0.00    -0.252 A  
HETATM   15  C   UNL     1      -8.407  17.900  68.444  1.00  0.00    -0.307 A  
HETATM   16  C   UNL     1      -7.651  19.071  68.535  1.00  0.00    -0.329 A  
HETATM   17  C   UNL     1      -7.804  20.106  67.624  1.00  0.00    -0.335 A  
HETATM   18  O   UNL     1      -6.729  19.237  69.528  1.00  0.00    -0.308 OA 
HETATM   19  C   UNL     1      -8.726  20.004  66.579  1.00  0.00    -0.384 A  
HETATM   20  H   UNL     1      -6.215  20.034  69.590  1.00  0.00     0.000 HD 
ENDBRANCH   8   9
ENDBRANCH   2   8
TORSDOF 2
ENDMDL
MODEL      138
REMARK 921   NORMALIZED FREE ENERGY PREDICTED BY IDOCK:   -4.27 KCAL/MOL
REMARK 922        TOTAL FREE ENERGY PREDICTED BY IDOCK:   -5.07 KCAL/MOL
REMARK 923 INTER-LIGAND FREE ENERGY PREDICTED BY IDOCK:   -4.86 KCAL/MOL
REMARK 924 INTRA-LIGAND FREE ENERGY PREDICTED BY IDOCK:   -0.21 KCAL/MOL
REMARK 927      BINDING AFFINITY PREDICTED BY RF-SCORE:    0.00 PKD
ROOT
HETATM    1  N   UNL     1      -7.982  11.983  66.648  1.00  0.00    -0.370 NA 
HETATM    2  CA  UNL     1      -8.042  10.520  66.990  1.00  0.00    -0.118 C  
HETATM    3  H1  UNL     1      -7.146  12.454  66.994  1.00  0.00     0.000 HD 
HETATM    4  H2  UNL     1      -8.823  12.462  66.971  1.00  0.00     0.000 HD 
HETATM    5  OXT UNL     1      -6.591   8.638  66.374  1.00  0.00    -0.061 OA 
HETATM    6  C   UNL     1      -6.809   9.839  66.377  1.00  0.00    -0.088 C  
HETATM    7  O   UNL     1      -5.967  10.750  65.819  1.00  0.00    -0.129 OA 
ENDROOT
BRANCH   2   8
HETATM    8  C   UNL     1      -9.302   9.810  66.469  1.00  0.00    -0.207 C  
BRANCH   8   9
HETATM    9  C   UNL     1      -9.826  10.361  65.177  1.00  0.00    -0.378 A  
HETATM   10  C   UNL     1      -9.444   9.969  63.909  1.00  0.00    -0.220 A  
HETATM   11  N   UNL     1     -10.130  10.727  62.998  1.00  0.00    -0.662 NA 
HETATM   12  H   UNL     1     -10.037  10.648  61.985  1.00  0.00     0.000 HD 
HETATM   13  C   UNL     1     -10.963  11.611  63.644  1.00  0.00    -0.431 A  
HETATM   14  C   UNL     1     -10.783  11.416  65.015  1.00  0.00    -0.340 A  
HETATM   15  C   UNL     1     -11.513  12.230  65.911  1.00  0.00    -0.428 A  
HETATM   16  C   UNL     1     -12.400  13.177  65.394  1.00  0.00    -0.481 A  
HETATM   17  C   UNL     1     -12.565  13.346  64.027  1.00  0.00    -0.192 A  
HETATM   18  O   UNL     1     -13.136  13.975  66.222  1.00  0.00    -0.406 OA 
HETATM   19  C   UNL     1     -11.842  12.566  63.121  1.00  0.00    -0.346 A  
HETATM   20  H   UNL     1     -13.739  14.620  65.870  1.00  0.00     0.000 HD 
ENDBRANCH   8   9
ENDBRANCH   2   8
TORSDOF 2
ENDMDL
MODEL      139
REMARK 921   NORMALIZED FREE ENERGY PREDICTED BY IDOCK:   -4.21 KCAL/MOL
REMARK 922        TOTAL FREE ENERGY PREDICTED BY IDOCK:   -5.00 KCAL/MOL
REMARK 923 INTER-LIGAND FREE ENERGY PREDICTED BY IDOCK:   -4.76 KCAL/MOL
REMARK 924 INTRA-LIGAND FREE ENERGY PREDICTED BY IDOCK:   -0.24 KCAL/MOL
REMARK 927      BINDING AFFINITY PREDICTED BY RF-SCORE:    0.00 PKD
ROOT
HETATM    1  N   UNL     1     -10.593  18.146  68.098  1.00  0.00    -0.347 NA 
HETATM    2  CA  UNL     1      -9.098  17.987  68.095  1.00  0.00    -0.276 C  
HETATM    3  H1  UNL     1     -10.918  18.998  67.642  1.00  0.00     0.000 HD 
HETATM    4  H2  UNL     1     -10.959  18.085  69.048  1.00  0.00     0.000 HD 
HETATM    5  OXT UNL     1      -7.482  17.756  66.261  1.00  0.00    -0.252 OA 
HETATM    6  C   UNL     1      -8.625  17.971  66.634  1.00  0.00    -0.263 C  
HETATM    7  O   UNL     1      -9.652  18.224  65.778  1.00  0.00    -0.478 OA 
ENDROOT
BRANCH   2   8
HETATM    8  C   UNL     1      -8.607  16.702  68.782  1.00  0.00    -0.261 C  
BRANCH   8   9
HETATM    9  C   UNL     1      -9.576  15.561  68.711  1.00  0.00    -0.208 A  
HETATM   10  C   UNL     1      -9.727  14.684  67.654  1.00  0.00    -0.214 A  
HETATM   11  N   UNL     1     -10.730  13.805  67.963  1.00  0.00    -0.246 NA 
HETATM   12  H   UNL     1     -11.052  13.051  67.355  1.00  0.00     0.000 HD 
HETATM   13  C   UNL     1     -11.241  14.082  69.209  1.00  0.00    -0.261 A  
HETATM   14  C   UNL     1     -10.547  15.191  69.699  1.00  0.00    -0.274 A  
HETATM   15  C   UNL     1     -10.904  15.701  70.968  1.00  0.00    -0.168 A  
HETATM   16  C   UNL     1     -11.916  15.066  71.691  1.00  0.00    -0.366 A  
HETATM   17  C   UNL     1     -12.586  13.961  71.184  1.00  0.00    -0.446 A  
HETATM   18  O   UNL     1     -12.285  15.515  72.926  1.00  0.00    -0.364 OA 
HETATM   19  C   UNL     1     -12.264  13.449  69.924  1.00  0.00    -0.337 A  
HETATM   20  H   UNL     1     -12.974  15.083  73.418  1.00  0.00     0.000 HD 
ENDBRANCH   8   9
ENDBRANCH   2   8
TORSDOF 2
ENDMDL
MODEL      140
REMARK 921   NORMALIZED FREE ENERGY PREDICTED BY IDOCK:   -4.16 KCAL/MOL
REMARK 922        TOTAL FREE ENERGY PREDICTED BY IDOCK:   -4.95 KCAL/MOL
REMARK 923 INTER-LIGAND FREE ENERGY PREDICTED BY IDOCK:   -4.92 KCAL/MOL
REMARK 924 INTRA-LIGAND FREE ENERGY PREDICTED BY IDOCK:   -0.03 KCAL/MOL
REMARK 927      BINDING AFFINITY PREDICTED BY RF-SCORE:    0.00 PKD
ROOT
HETATM    1  N   UNL     1      -6.744  17.651  66.253  1.00  0.00    -0.255 NA 
HETATM    2  CA  UNL     1      -7.388  18.706  67.109  1.00  0.00    -0.210 C  
HETATM    3  H1  UNL     1      -5.788  17.872  65.975  1.00  0.00     0.000 HD 
HETATM    4  H2  UNL     1      -7.319  17.453  65.434  1.00  0.00     0.000 HD 
HETATM    5  OXT UNL     1      -6.823  19.573  69.335  1.00  0.00    -0.332 OA 
HETATM    6  C   UNL     1      -6.537  18.873  68.377  1.00  0.00    -0.240 C  
HETATM    7  O   UNL     1      -5.401  18.128  68.312  1.00  0.00    -0.161 OA 
ENDROOT
BRANCH   2   8
HETATM    8  C   UNL     1      -8.829  18.373  67.528  1.00  0.00    -0.267 C  
BRANCH   8   9
HETATM    9  C   UNL     1      -9.631  17.681  66.467  1.00  0.00    -0.301 A  
HETATM   10  C   UNL     1     -10.512  18.281  65.589  1.00  0.00    -0.095 A  
HETATM   11  N   UNL     1     -11.063  17.310  64.797  1.00  0.00    -0.920 NA 
HETATM   12  H   UNL     1     -11.751  17.476  64.062  1.00  0.00     0.000 HD 
HETATM   13  C   UNL     1     -10.555  16.076  65.134  1.00  0.00    -0.370 A  
HETATM   14  C   UNL     1      -9.663  16.274  66.191  1.00  0.00    -0.357 A  
HETATM   15  C   UNL     1      -9.019  15.147  66.747  1.00  0.00    -0.293 A  
HETATM   16  C   UNL     1      -9.278  13.885  66.206  1.00  0.00    -0.088 A  
HETATM   17  C   UNL     1     -10.163  13.716  65.151  1.00  0.00    -0.349 A  
HETATM   18  O   UNL     1      -8.668  12.769  66.702  1.00  0.00    -0.369 OA 
HETATM   19  C   UNL     1     -10.827  14.814  64.596  1.00  0.00    -0.312 A  
HETATM   20  H   UNL     1      -8.844  11.911  66.334  1.00  0.00     0.000 HD 
ENDBRANCH   8   9
ENDBRANCH   2   8
TORSDOF 2
ENDMDL
MODEL      141
REMARK 921   NORMALIZED FREE ENERGY PREDICTED BY IDOCK:   -4.16 KCAL/MOL
REMARK 922        TOTAL FREE ENERGY PREDICTED BY IDOCK:   -4.94 KCAL/MOL
REMARK 923 INTER-LIGAND FREE ENERGY PREDICTED BY IDOCK:   -4.72 KCAL/MOL
REMARK 924 INTRA-LIGAND FREE ENERGY PREDICTED BY IDOCK:   -0.22 KCAL/MOL
REMARK 927      BINDING AFFINITY PREDICTED BY RF-SCORE:    0.00 PKD
ROOT
HETATM    1  N   UNL     1      -9.417   8.108  72.876  1.00  0.00    -0.270 NA 
HETATM    2  CA  UNL     1     -10.674   7.386  73.274  1.00  0.00    -0.391 C  
HETATM    3  H1  UNL     1      -8.632   7.949  73.507  1.00  0.00     0.000 HD 
HETATM    4  H2  UNL     1      -9.595   9.107  72.769  1.00  0.00     0.000 HD 
HETATM    5  OXT UNL     1     -11.187   4.995  73.488  1.00  0.00    -0.321 OA 
HETATM    6  C   UNL     1     -10.368   5.881  73.303  1.00  0.00    -0.217 C  
HETATM    7  O   UNL     1      -9.046   5.641  73.087  1.00  0.00    -0.128 OA 
ENDROOT
BRANCH   2   8
HETATM    8  C   UNL     1     -11.858   7.626  72.323  1.00  0.00    -0.354 C  
BRANCH   8   9
HETATM    9  C   UNL     1     -11.457   8.007  70.930  1.00  0.00    -0.291 A  
HETATM   10  C   UNL     1     -10.949   7.158  69.967  1.00  0.00    -0.262 A  
HETATM   11  N   UNL     1     -10.683   7.890  68.841  1.00  0.00    -0.393 NA 
HETATM   12  H   UNL     1     -10.297   7.511  67.976  1.00  0.00     0.000 HD 
HETATM   13  C   UNL     1     -11.013   9.211  69.043  1.00  0.00    -0.008 A  
HETATM   14  C   UNL     1     -11.488   9.319  70.352  1.00  0.00    -0.255 A  
HETATM   15  C   UNL     1     -11.872  10.594  70.824  1.00  0.00    -0.459 A  
HETATM   16  C   UNL     1     -11.786  11.688  69.961  1.00  0.00    -0.321 A  
HETATM   17  C   UNL     1     -11.317  11.553  68.662  1.00  0.00    -0.330 A  
HETATM   18  O   UNL     1     -12.159  12.937  70.368  1.00  0.00    -0.395 OA 
HETATM   19  C   UNL     1     -10.914  10.305  68.177  1.00  0.00    -0.328 A  
HETATM   20  H   UNL     1     -12.100  13.681  69.781  1.00  0.00     0.000 HD 
ENDBRANCH   8   9
ENDBRANCH   2   8
TORSDOF 2
ENDMDL
MODEL      142
REMARK 921   NORMALIZED FREE ENERGY PREDICTED BY IDOCK:   -4.16 KCAL/MOL
REMARK 922        TOTAL FREE ENERGY PREDICTED BY IDOCK:   -4.94 KCAL/MOL
REMARK 923 INTER-LIGAND FREE ENERGY PREDICTED BY IDOCK:   -4.64 KCAL/MOL
REMARK 924 INTRA-LIGAND FREE ENERGY PREDICTED BY IDOCK:   -0.29 KCAL/MOL
REMARK 927      BINDING AFFINITY PREDICTED BY RF-SCORE:    0.00 PKD
ROOT
HETATM    1  N   UNL     1     -10.927   9.399  68.533  1.00  0.00    -0.454 NA 
HETATM    2  CA  UNL     1     -10.977  10.727  67.830  1.00  0.00    -0.297 C  
HETATM    3  H1  UNL     1     -11.484   8.672  68.084  1.00  0.00     0.000 HD 
HETATM    4  H2  UNL     1     -11.195   9.502  69.512  1.00  0.00     0.000 HD 
HETATM    5  OXT UNL     1     -10.263  11.414  65.584  1.00  0.00    -0.232 OA 
HETATM    6  C   UNL     1     -10.454  10.526  66.399  1.00  0.00    -0.192 C  
HETATM    7  O   UNL     1     -10.216   9.212  66.140  1.00  0.00    -0.272 OA 
ENDROOT
BRANCH   2   8
HETATM    8  C   UNL     1     -10.140  11.823  68.507  1.00  0.00    -0.212 C  
BRANCH   8   9
HETATM    9  C   UNL     1     -10.838  13.145  68.621  1.00  0.00    -0.287 A  
HETATM   10  C   UNL     1     -12.036  13.382  69.265  1.00  0.00    -0.317 A  
HETATM   11  N   UNL     1     -12.349  14.707  69.122  1.00  0.00    -0.573 NA 
HETATM   12  H   UNL     1     -13.186  15.153  69.499  1.00  0.00     0.000 HD 
HETATM   13  C   UNL     1     -11.374  15.352  68.397  1.00  0.00    -0.339 A  
HETATM   14  C   UNL     1     -10.417  14.393  68.054  1.00  0.00    -0.237 A  
HETATM   15  C   UNL     1      -9.310  14.798  67.274  1.00  0.00    -0.211 A  
HETATM   16  C   UNL     1      -9.202  16.138  66.898  1.00  0.00    -0.225 A  
HETATM   17  C   UNL     1     -10.163  17.072  67.257  1.00  0.00    -0.310 A  
HETATM   18  O   UNL     1      -8.143  16.577  66.156  1.00  0.00    -0.323 OA 
HETATM   19  C   UNL     1     -11.277  16.693  68.012  1.00  0.00    -0.164 A  
HETATM   20  H   UNL     1      -8.070  17.489  65.900  1.00  0.00     0.000 HD 
ENDBRANCH   8   9
ENDBRANCH   2   8
TORSDOF 2
ENDMDL
MODEL      143
REMARK 921   NORMALIZED FREE ENERGY PREDICTED BY IDOCK:   -4.14 KCAL/MOL
REMARK 922        TOTAL FREE ENERGY PREDICTED BY IDOCK:   -4.92 KCAL/MOL
REMARK 923 INTER-LIGAND FREE ENERGY PREDICTED BY IDOCK:   -4.69 KCAL/MOL
REMARK 924 INTRA-LIGAND FREE ENERGY PREDICTED BY IDOCK:   -0.23 KCAL/MOL
REMARK 927      BINDING AFFINITY PREDICTED BY RF-SCORE:    0.00 PKD
ROOT
HETATM    1  N   UNL     1      -9.662  15.693  65.457  1.00  0.00    -0.325 NA 
HETATM    2  CA  UNL     1     -10.631  14.571  65.208  1.00  0.00    -0.383 C  
HETATM    3  H1  UNL     1      -9.271  16.098  64.606  1.00  0.00     0.000 HD 
HETATM    4  H2  UNL     1      -8.917  15.392  66.086  1.00  0.00     0.000 HD 
HETATM    5  OXT UNL     1     -12.795  14.508  64.051  1.00  0.00    -0.672 OA 
HETATM    6  C   UNL     1     -11.783  15.121  64.354  1.00  0.00    -0.295 C  
HETATM    7  O   UNL     1     -11.546  16.404  63.969  1.00  0.00    -1.071 OA 
ENDROOT
BRANCH   2   8
HETATM    8  C   UNL     1     -11.220  13.961  66.490  1.00  0.00    -0.327 C  
BRANCH   8   9
HETATM    9  C   UNL     1     -10.616  12.644  66.875  1.00  0.00    -0.256 A  
HETATM   10  C   UNL     1     -11.272  11.429  66.923  1.00  0.00    -0.264 A  
HETATM   11  N   UNL     1     -10.384  10.475  67.343  1.00  0.00    -0.210 NA 
HETATM   12  H   UNL     1     -10.606   9.487  67.471  1.00  0.00     0.000 HD 
HETATM   13  C   UNL     1      -9.150  11.039  67.569  1.00  0.00    -0.137 A  
HETATM   14  C   UNL     1      -9.267  12.404  67.298  1.00  0.00    -0.187 A  
HETATM   15  C   UNL     1      -8.132  13.226  67.480  1.00  0.00    -0.187 A  
HETATM   16  C   UNL     1      -6.935  12.641  67.901  1.00  0.00    -0.110 A  
HETATM   17  C   UNL     1      -6.843  11.281  68.157  1.00  0.00    -0.067 A  
HETATM   18  O   UNL     1      -5.810  13.393  68.077  1.00  0.00    -0.099 OA 
HETATM   19  C   UNL     1      -7.957  10.450  68.001  1.00  0.00    -0.105 A  
HETATM   20  H   UNL     1      -4.995  12.995  68.364  1.00  0.00     0.000 HD 
ENDBRANCH   8   9
ENDBRANCH   2   8
TORSDOF 2
ENDMDL
MODEL      144
REMARK 921   NORMALIZED FREE ENERGY PREDICTED BY IDOCK:   -4.13 KCAL/MOL
REMARK 922        TOTAL FREE ENERGY PREDICTED BY IDOCK:   -4.91 KCAL/MOL
REMARK 923 INTER-LIGAND FREE ENERGY PREDICTED BY IDOCK:   -5.90 KCAL/MOL
REMARK 924 INTRA-LIGAND FREE ENERGY PREDICTED BY IDOCK:    0.99 KCAL/MOL
REMARK 927      BINDING AFFINITY PREDICTED BY RF-SCORE:    0.00 PKD
ROOT
HETATM    1  N   UNL     1     -11.758  14.880  73.414  1.00  0.00    -0.175 NA 
HETATM    2  CA  UNL     1     -12.365  15.790  72.384  1.00  0.00    -0.456 C  
HETATM    3  H1  UNL     1     -12.344  14.737  74.237  1.00  0.00     0.000 HD 
HETATM    4  H2  UNL     1     -10.832  15.212  73.686  1.00  0.00     0.000 HD 
HETATM    5  OXT UNL     1     -14.406  15.598  71.033  1.00  0.00    -0.428 OA 
HETATM    6  C   UNL     1     -13.698  15.174  71.933  1.00  0.00    -0.474 C  
HETATM    7  O   UNL     1     -14.005  14.069  72.665  1.00  0.00    -0.654 OA 
ENDROOT
BRANCH   2   8
HETATM    8  C   UNL     1     -11.482  16.006  71.145  1.00  0.00    -0.470 C  
BRANCH   8   9
HETATM    9  C   UNL     1     -11.555  14.896  70.140  1.00  0.00    -0.333 A  
HETATM   10  C   UNL     1     -11.852  13.573  70.406  1.00  0.00    -0.220 A  
HETATM   11  N   UNL     1     -11.793  12.872  69.231  1.00  0.00    -0.314 NA 
HETATM   12  H   UNL     1     -11.966  11.871  69.140  1.00  0.00     0.000 HD 
HETATM   13  C   UNL     1     -11.468  13.712  68.191  1.00  0.00    -0.313 A  
HETATM   14  C   UNL     1     -11.297  14.988  68.732  1.00  0.00    -0.306 A  
HETATM   15  C   UNL     1     -10.928  16.042  67.866  1.00  0.00    -0.327 A  
HETATM   16  C   UNL     1     -10.772  15.774  66.504  1.00  0.00    -0.283 A  
HETATM   17  C   UNL     1     -10.954  14.498  65.991  1.00  0.00    -0.324 A  
HETATM   18  O   UNL     1     -10.430  16.763  65.628  1.00  0.00    -0.470 OA 
HETATM   19  C   UNL     1     -11.302  13.436  66.830  1.00  0.00    -0.353 A  
HETATM   20  H   UNL     1     -10.323  16.580  64.701  1.00  0.00     0.000 HD 
ENDBRANCH   8   9
ENDBRANCH   2   8
TORSDOF 2
ENDMDL
MODEL      145
REMARK 921   NORMALIZED FREE ENERGY PREDICTED BY IDOCK:   -4.10 KCAL/MOL
REMARK 922        TOTAL FREE ENERGY PREDICTED BY IDOCK:   -4.87 KCAL/MOL
REMARK 923 INTER-LIGAND FREE ENERGY PREDICTED BY IDOCK:   -4.69 KCAL/MOL
REMARK 924 INTRA-LIGAND FREE ENERGY PREDICTED BY IDOCK:   -0.18 KCAL/MOL
REMARK 927      BINDING AFFINITY PREDICTED BY RF-SCORE:    0.00 PKD
ROOT
HETATM    1  N   UNL     1      -6.724  19.053  68.367  1.00  0.00    -0.245 NA 
HETATM    2  CA  UNL     1      -6.426  18.943  66.898  1.00  0.00    -0.187 C  
HETATM    3  H1  UNL     1      -6.110  19.696  68.867  1.00  0.00     0.000 HD 
HETATM    4  H2  UNL     1      -6.713  18.132  68.806  1.00  0.00     0.000 HD 
HETATM    5  OXT UNL     1      -6.501  20.599  65.087  1.00  0.00    -0.268 OA 
HETATM    6  C   UNL     1      -6.572  20.341  66.278  1.00  0.00    -0.224 C  
HETATM    7  O   UNL     1      -6.803  21.283  67.232  1.00  0.00    -0.492 OA 
ENDROOT
BRANCH   2   8
HETATM    8  C   UNL     1      -7.352  17.974  66.145  1.00  0.00    -0.317 C  
BRANCH   8   9
HETATM    9  C   UNL     1      -8.717  17.839  66.749  1.00  0.00    -0.273 A  
HETATM   10  C   UNL     1      -9.696  18.813  66.778  1.00  0.00    -0.329 A  
HETATM   11  N   UNL     1     -10.785  18.311  67.439  1.00  0.00    -0.397 NA 
HETATM   12  H   UNL     1     -11.652  18.823  67.608  1.00  0.00     0.000 HD 
HETATM   13  C   UNL     1     -10.544  17.019  67.843  1.00  0.00    -0.365 A  
HETATM   14  C   UNL     1      -9.246  16.698  67.437  1.00  0.00    -0.216 A  
HETATM   15  C   UNL     1      -8.739  15.419  67.758  1.00  0.00    -0.167 A  
HETATM   16  C   UNL     1      -9.557  14.520  68.445  1.00  0.00    -0.213 A  
HETATM   17  C   UNL     1     -10.845  14.861  68.831  1.00  0.00    -0.253 A  
HETATM   18  O   UNL     1      -9.114  13.269  68.765  1.00  0.00    -0.385 OA 
HETATM   19  C   UNL     1     -11.364  16.126  68.541  1.00  0.00    -0.359 A  
HETATM   20  H   UNL     1      -9.672  12.657  69.232  1.00  0.00     0.000 HD 
ENDBRANCH   8   9
ENDBRANCH   2   8
TORSDOF 2
ENDMDL
MODEL      146
REMARK 921   NORMALIZED FREE ENERGY PREDICTED BY IDOCK:   -4.05 KCAL/MOL
REMARK 922        TOTAL FREE ENERGY PREDICTED BY IDOCK:   -4.81 KCAL/MOL
REMARK 923 INTER-LIGAND FREE ENERGY PREDICTED BY IDOCK:   -4.59 KCAL/MOL
REMARK 924 INTRA-LIGAND FREE ENERGY PREDICTED BY IDOCK:   -0.23 KCAL/MOL
REMARK 927      BINDING AFFINITY PREDICTED BY RF-SCORE:    0.00 PKD
ROOT
HETATM    1  N   UNL     1     -11.794  11.890  70.258  1.00  0.00    -0.479 NA 
HETATM    2  CA  UNL     1     -12.233  10.489  70.583  1.00  0.00    -0.352 C  
HETATM    3  H1  UNL     1     -12.558  12.510  69.988  1.00  0.00     0.000 HD 
HETATM    4  H2  UNL     1     -11.069  11.882  69.542  1.00  0.00     0.000 HD 
HETATM    5  OXT UNL     1     -13.716   9.604  72.328  1.00  0.00    -0.417 OA 
HETATM    6  C   UNL     1     -13.236  10.563  71.744  1.00  0.00    -0.417 C  
HETATM    7  O   UNL     1     -13.532  11.853  72.061  1.00  0.00    -0.431 OA 
ENDROOT
BRANCH   2   8
HETATM    8  C   UNL     1     -11.083   9.554  70.989  1.00  0.00    -0.433 C  
BRANCH   8   9
HETATM    9  C   UNL     1     -10.780   8.483  69.985  1.00  0.00    -0.234 A  
HETATM   10  C   UNL     1     -10.718   8.644  68.615  1.00  0.00    -0.051 A  
HETATM   11  N   UNL     1     -10.444   7.428  68.048  1.00  0.00    -0.235 NA 
HETATM   12  H   UNL     1     -10.346   7.259  67.047  1.00  0.00     0.000 HD 
HETATM   13  C   UNL     1     -10.317   6.466  69.024  1.00  0.00    -0.199 A  
HETATM   14  C   UNL     1     -10.538   7.095  70.251  1.00  0.00    -0.245 A  
HETATM   15  C   UNL     1     -10.492   6.311  71.426  1.00  0.00    -0.264 A  
HETATM   16  C   UNL     1     -10.204   4.949  71.318  1.00  0.00    -0.178 A  
HETATM   17  C   UNL     1      -9.981   4.350  70.087  1.00  0.00    -0.249 A  
HETATM   18  O   UNL     1     -10.135   4.155  72.427  1.00  0.00    -0.166 OA 
HETATM   19  C   UNL     1     -10.040   5.100  68.909  1.00  0.00    -0.237 A  
HETATM   20  H   UNL     1      -9.940   3.228  72.354  1.00  0.00     0.000 HD 
ENDBRANCH   8   9
ENDBRANCH   2   8
TORSDOF 2
ENDMDL
MODEL      147
REMARK 921   NORMALIZED FREE ENERGY PREDICTED BY IDOCK:   -4.03 KCAL/MOL
REMARK 922        TOTAL FREE ENERGY PREDICTED BY IDOCK:   -4.80 KCAL/MOL
REMARK 923 INTER-LIGAND FREE ENERGY PREDICTED BY IDOCK:   -4.59 KCAL/MOL
REMARK 924 INTRA-LIGAND FREE ENERGY PREDICTED BY IDOCK:   -0.21 KCAL/MOL
REMARK 927      BINDING AFFINITY PREDICTED BY RF-SCORE:    0.00 PKD
ROOT
HETATM    1  N   UNL     1     -10.135  18.340  68.061  1.00  0.00    -0.345 NA 
HETATM    2  CA  UNL     1      -8.903  17.897  67.322  1.00  0.00    -0.243 C  
HETATM    3  H1  UNL     1      -9.984  19.143  68.672  1.00  0.00     0.000 HD 
HETATM    4  H2  UNL     1     -10.540  17.563  68.583  1.00  0.00     0.000 HD 
HETATM    5  OXT UNL     1      -7.494  19.035  65.665  1.00  0.00    -0.466 OA 
HETATM    6  C   UNL     1      -8.412  19.076  66.468  1.00  0.00    -0.314 C  
HETATM    7  O   UNL     1      -9.141  20.199  66.710  1.00  0.00    -0.339 OA 
ENDROOT
BRANCH   2   8
HETATM    8  C   UNL     1      -9.130  16.687  66.402  1.00  0.00    -0.325 C  
BRANCH   8   9
HETATM    9  C   UNL     1      -8.577  15.400  66.936  1.00  0.00    -0.291 A  
HETATM   10  C   UNL     1      -7.292  15.194  67.398  1.00  0.00    -0.205 A  
HETATM   11  N   UNL     1      -7.173  13.882  67.773  1.00  0.00    -0.148 NA 
HETATM   12  H   UNL     1      -6.324  13.457  68.149  1.00  0.00     0.000 HD 
HETATM   13  C   UNL     1      -8.361  13.219  67.570  1.00  0.00    -0.186 A  
HETATM   14  C   UNL     1      -9.259  14.142  67.031  1.00  0.00    -0.249 A  
HETATM   15  C   UNL     1     -10.561  13.700  66.702  1.00  0.00    -0.277 A  
HETATM   16  C   UNL     1     -10.905  12.370  66.949  1.00  0.00    -0.251 A  
HETATM   17  C   UNL     1      -9.996  11.474  67.493  1.00  0.00    -0.207 A  
HETATM   18  O   UNL     1     -12.155  11.902  66.661  1.00  0.00    -0.587 OA 
HETATM   19  C   UNL     1      -8.697  11.882  67.810  1.00  0.00    -0.158 A  
HETATM   20  H   UNL     1     -12.389  10.997  66.829  1.00  0.00     0.000 HD 
ENDBRANCH   8   9
ENDBRANCH   2   8
TORSDOF 2
ENDMDL
MODEL      148
REMARK 921   NORMALIZED FREE ENERGY PREDICTED BY IDOCK:   -4.00 KCAL/MOL
REMARK 922        TOTAL FREE ENERGY PREDICTED BY IDOCK:   -4.77 KCAL/MOL
REMARK 923 INTER-LIGAND FREE ENERGY PREDICTED BY IDOCK:   -4.51 KCAL/MOL
REMARK 924 INTRA-LIGAND FREE ENERGY PREDICTED BY IDOCK:   -0.26 KCAL/MOL
REMARK 927      BINDING AFFINITY PREDICTED BY RF-SCORE:    0.00 PKD
ROOT
HETATM    1  N   UNL     1     -12.540   9.753  70.743  1.00  0.00    -0.489 NA 
HETATM    2  CA  UNL     1     -11.831  10.958  70.191  1.00  0.00    -0.353 C  
HETATM    3  H1  UNL     1     -12.412   9.622  71.747  1.00  0.00     0.000 HD 
HETATM    4  H2  UNL     1     -12.267   8.912  70.235  1.00  0.00     0.000 HD 
HETATM    5  OXT UNL     1     -12.088  13.356  70.649  1.00  0.00    -0.346 OA 
HETATM    6  C   UNL     1     -12.370  12.200  70.918  1.00  0.00    -0.273 C  
HETATM    7  O   UNL     1     -13.225  11.855  71.918  1.00  0.00    -0.482 OA 
ENDROOT
BRANCH   2   8
HETATM    8  C   UNL     1     -12.022  11.155  68.679  1.00  0.00    -0.289 C  
BRANCH   8   9
HETATM    9  C   UNL     1     -10.756  11.458  67.936  1.00  0.00    -0.242 A  
HETATM   10  C   UNL     1     -10.123  12.684  67.870  1.00  0.00    -0.222 A  
HETATM   11  N   UNL     1      -9.016  12.557  67.075  1.00  0.00    -0.206 NA 
HETATM   12  H   UNL     1      -8.367  13.312  66.852  1.00  0.00     0.000 HD 
HETATM   13  C   UNL     1      -8.903  11.264  66.619  1.00  0.00    -0.175 A  
HETATM   14  C   UNL     1      -9.991  10.552  67.130  1.00  0.00    -0.234 A  
HETATM   15  C   UNL     1     -10.125   9.189  66.784  1.00  0.00    -0.341 A  
HETATM   16  C   UNL     1      -9.157   8.601  65.966  1.00  0.00    -0.204 A  
HETATM   17  C   UNL     1      -8.082   9.329  65.476  1.00  0.00    -0.113 A  
HETATM   18  O   UNL     1      -9.239   7.284  65.616  1.00  0.00    -0.385 OA 
HETATM   19  C   UNL     1      -7.937  10.683  65.790  1.00  0.00    -0.152 A  
HETATM   20  H   UNL     1      -8.580   6.884  65.060  1.00  0.00     0.000 HD 
ENDBRANCH   8   9
ENDBRANCH   2   8
TORSDOF 2
ENDMDL
MODEL      149
REMARK 921   NORMALIZED FREE ENERGY PREDICTED BY IDOCK:   -4.00 KCAL/MOL
REMARK 922        TOTAL FREE ENERGY PREDICTED BY IDOCK:   -4.76 KCAL/MOL
REMARK 923 INTER-LIGAND FREE ENERGY PREDICTED BY IDOCK:   -4.50 KCAL/MOL
REMARK 924 INTRA-LIGAND FREE ENERGY PREDICTED BY IDOCK:   -0.26 KCAL/MOL
REMARK 927      BINDING AFFINITY PREDICTED BY RF-SCORE:    0.00 PKD
ROOT
HETATM    1  N   UNL     1      -9.792  12.822  64.847  1.00  0.00    -0.511 NA 
HETATM    2  CA  UNL     1      -9.499  12.309  66.229  1.00  0.00    -0.231 C  
HETATM    3  H1  UNL     1      -9.283  12.336  64.109  1.00  0.00     0.000 HD 
HETATM    4  H2  UNL     1      -9.626  13.827  64.795  1.00  0.00     0.000 HD 
HETATM    5  OXT UNL     1      -9.866  10.115  67.268  1.00  0.00    -0.171 OA 
HETATM    6  C   UNL     1      -9.879  10.820  66.272  1.00  0.00    -0.215 C  
HETATM    7  O   UNL     1     -10.247  10.368  65.043  1.00  0.00    -0.324 OA 
ENDROOT
BRANCH   2   8
HETATM    8  C   UNL     1     -10.266  13.041  67.341  1.00  0.00    -0.231 C  
BRANCH   8   9
HETATM    9  C   UNL     1      -9.576  14.269  67.854  1.00  0.00    -0.221 A  
HETATM   10  C   UNL     1      -8.709  14.329  68.928  1.00  0.00    -0.027 A  
HETATM   11  N   UNL     1      -8.314  15.630  69.092  1.00  0.00    -0.234 NA 
HETATM   12  H   UNL     1      -7.675  15.958  69.817  1.00  0.00     0.000 HD 
HETATM   13  C   UNL     1      -8.902  16.430  68.140  1.00  0.00    -0.192 A  
HETATM   14  C   UNL     1      -9.713  15.607  67.356  1.00  0.00    -0.222 A  
HETATM   15  C   UNL     1     -10.458  16.197  66.310  1.00  0.00    -0.321 A  
HETATM   16  C   UNL     1     -10.338  17.570  66.086  1.00  0.00    -0.329 A  
HETATM   17  C   UNL     1      -9.520  18.365  66.876  1.00  0.00    -0.291 A  
HETATM   18  O   UNL     1     -11.028  18.181  65.079  1.00  0.00    -0.726 OA 
HETATM   19  C   UNL     1      -8.786  17.808  67.927  1.00  0.00    -0.251 A  
HETATM   20  H   UNL     1     -10.946  19.115  64.927  1.00  0.00     0.000 HD 
ENDBRANCH   8   9
ENDBRANCH   2   8
TORSDOF 2
ENDMDL
MODEL      150
REMARK 921   NORMALIZED FREE ENERGY PREDICTED BY IDOCK:   -3.98 KCAL/MOL
REMARK 922        TOTAL FREE ENERGY PREDICTED BY IDOCK:   -4.74 KCAL/MOL
REMARK 923 INTER-LIGAND FREE ENERGY PREDICTED BY IDOCK:   -4.49 KCAL/MOL
REMARK 924 INTRA-LIGAND FREE ENERGY PREDICTED BY IDOCK:   -0.25 KCAL/MOL
REMARK 927      BINDING AFFINITY PREDICTED BY RF-SCORE:    0.00 PKD
ROOT
HETATM    1  N   UNL     1     -11.674   9.328  70.370  1.00  0.00    -0.441 NA 
HETATM    2  CA  UNL     1     -11.693  10.831  70.326  1.00  0.00    -0.352 C  
HETATM    3  H1  UNL     1     -11.410   8.944  71.277  1.00  0.00     0.000 HD 
HETATM    4  H2  UNL     1     -11.073   8.955  69.635  1.00  0.00     0.000 HD 
HETATM    5  OXT UNL     1     -13.043  12.483  71.541  1.00  0.00    -0.381 OA 
HETATM    6  C   UNL     1     -12.701  11.323  71.376  1.00  0.00    -0.396 C  
HETATM    7  O   UNL     1     -13.188  10.290  72.117  1.00  0.00    -0.452 OA 
ENDROOT
BRANCH   2   8
HETATM    8  C   UNL     1     -12.090  11.409  68.959  1.00  0.00    -0.316 C  
BRANCH   8   9
HETATM    9  C   UNL     1     -11.378  12.679  68.601  1.00  0.00    -0.331 A  
HETATM   10  C   UNL     1     -11.938  13.940  68.546  1.00  0.00    -0.359 A  
HETATM   11  N   UNL     1     -10.969  14.826  68.157  1.00  0.00    -0.260 NA 
HETATM   12  H   UNL     1     -11.112  15.829  68.031  1.00  0.00     0.000 HD 
HETATM   13  C   UNL     1      -9.776  14.171  67.958  1.00  0.00    -0.226 A  
HETATM   14  C   UNL     1     -10.004  12.817  68.214  1.00  0.00    -0.230 A  
HETATM   15  C   UNL     1      -8.930  11.913  68.054  1.00  0.00    -0.185 A  
HETATM   16  C   UNL     1      -7.682  12.407  67.669  1.00  0.00    -0.151 A  
HETATM   17  C   UNL     1      -7.480  13.758  67.427  1.00  0.00    -0.142 A  
HETATM   18  O   UNL     1      -6.613  11.573  67.515  1.00  0.00    -0.071 OA 
HETATM   19  C   UNL     1      -8.531  14.670  67.562  1.00  0.00    -0.200 A  
HETATM   20  H   UNL     1      -5.763  11.909  67.253  1.00  0.00     0.000 HD 
ENDBRANCH   8   9
ENDBRANCH   2   8
TORSDOF 2
ENDMDL
MODEL      151
REMARK 921   NORMALIZED FREE ENERGY PREDICTED BY IDOCK:   -3.98 KCAL/MOL
REMARK 922        TOTAL FREE ENERGY PREDICTED BY IDOCK:   -4.74 KCAL/MOL
REMARK 923 INTER-LIGAND FREE ENERGY PREDICTED BY IDOCK:   -4.52 KCAL/MOL
REMARK 924 INTRA-LIGAND FREE ENERGY PREDICTED BY IDOCK:   -0.22 KCAL/MOL
REMARK 927      BINDING AFFINITY PREDICTED BY RF-SCORE:    0.00 PKD
ROOT
HETATM    1  N   UNL     1      -9.944  12.885  64.682  1.00  0.00    -0.563 NA 
HETATM    2  CA  UNL     1      -9.735  11.789  65.689  1.00  0.00    -0.233 C  
HETATM    3  H1  UNL     1      -9.318  12.832  63.878  1.00  0.00     0.000 HD 
HETATM    4  H2  UNL     1      -9.879  13.800  65.128  1.00  0.00     0.000 HD 
HETATM    5  OXT UNL     1      -9.972   9.351  65.524  1.00  0.00    -0.281 OA 
HETATM    6  C   UNL     1      -9.961  10.444  64.981  1.00  0.00    -0.330 C  
HETATM    7  O   UNL     1     -10.160  10.615  63.646  1.00  0.00    -0.326 OA 
ENDROOT
BRANCH   2   8
HETATM    8  C   UNL     1     -10.677  11.868  66.901  1.00  0.00    -0.285 C  
BRANCH   8   9
HETATM    9  C   UNL     1     -10.927  13.263  67.392  1.00  0.00    -0.287 A  
HETATM   10  C   UNL     1     -12.135  13.932  67.364  1.00  0.00    -0.345 A  
HETATM   11  N   UNL     1     -11.945  15.188  67.876  1.00  0.00    -0.467 NA 
HETATM   12  H   UNL     1     -12.673  15.897  67.970  1.00  0.00     0.000 HD 
HETATM   13  C   UNL     1     -10.631  15.357  68.247  1.00  0.00    -0.253 A  
HETATM   14  C   UNL     1      -9.962  14.169  67.941  1.00  0.00    -0.231 A  
HETATM   15  C   UNL     1      -8.576  14.092  68.204  1.00  0.00    -0.181 A  
HETATM   16  C   UNL     1      -7.934  15.191  68.778  1.00  0.00    -0.162 A  
HETATM   17  C   UNL     1      -8.623  16.357  69.079  1.00  0.00    -0.230 A  
HETATM   18  O   UNL     1      -6.599  15.156  69.061  1.00  0.00    -0.103 OA 
HETATM   19  C   UNL     1      -9.991  16.465  68.812  1.00  0.00    -0.246 A  
HETATM   20  H   UNL     1      -6.163  15.905  69.452  1.00  0.00     0.000 HD 
ENDBRANCH   8   9
ENDBRANCH   2   8
TORSDOF 2
ENDMDL
MODEL      152
REMARK 921   NORMALIZED FREE ENERGY PREDICTED BY IDOCK:   -3.96 KCAL/MOL
REMARK 922        TOTAL FREE ENERGY PREDICTED BY IDOCK:   -4.72 KCAL/MOL
REMARK 923 INTER-LIGAND FREE ENERGY PREDICTED BY IDOCK:   -4.59 KCAL/MOL
REMARK 924 INTRA-LIGAND FREE ENERGY PREDICTED BY IDOCK:   -0.13 KCAL/MOL
REMARK 927      BINDING AFFINITY PREDICTED BY RF-SCORE:    0.00 PKD
ROOT
HETATM    1  N   UNL     1     -11.097  10.881  66.715  1.00  0.00    -0.210 NA 
HETATM    2  CA  UNL     1      -9.814  10.771  67.489  1.00  0.00    -0.172 C  
HETATM    3  H1  UNL     1     -11.036  10.527  65.760  1.00  0.00     0.000 HD 
HETATM    4  H2  UNL     1     -11.438  11.843  66.719  1.00  0.00     0.000 HD 
HETATM    5  OXT UNL     1      -8.484   8.826  68.179  1.00  0.00    -0.128 OA 
HETATM    6  C   UNL     1      -9.419   9.287  67.544  1.00  0.00    -0.132 C  
HETATM    7  O   UNL     1     -10.255   8.525  66.788  1.00  0.00    -0.276 OA 
ENDROOT
BRANCH   2   8
HETATM    8  C   UNL     1      -9.906  11.306  68.927  1.00  0.00    -0.153 C  
BRANCH   8   9
HETATM    9  C   UNL     1     -11.017  10.704  69.734  1.00  0.00    -0.340 A  
HETATM   10  C   UNL     1     -12.360  11.009  69.626  1.00  0.00    -0.234 A  
HETATM   11  N   UNL     1     -13.047  10.268  70.551  1.00  0.00    -0.554 NA 
HETATM   12  H   UNL     1     -14.057  10.300  70.691  1.00  0.00     0.000 HD 
HETATM   13  C   UNL     1     -12.179   9.475  71.266  1.00  0.00    -0.348 A  
HETATM   14  C   UNL     1     -10.894   9.737  70.786  1.00  0.00    -0.403 A  
HETATM   15  C   UNL     1      -9.804   9.062  71.379  1.00  0.00    -0.381 A  
HETATM   16  C   UNL     1     -10.053   8.145  72.402  1.00  0.00    -0.285 A  
HETATM   17  C   UNL     1     -11.340   7.897  72.856  1.00  0.00    -0.399 A  
HETATM   18  O   UNL     1      -9.033   7.459  72.996  1.00  0.00    -0.129 OA 
HETATM   19  C   UNL     1     -12.434   8.565  72.298  1.00  0.00    -0.448 A  
HETATM   20  H   UNL     1      -9.203   6.835  73.692  1.00  0.00     0.000 HD 
ENDBRANCH   8   9
ENDBRANCH   2   8
TORSDOF 2
ENDMDL
MODEL      153
REMARK 921   NORMALIZED FREE ENERGY PREDICTED BY IDOCK:   -3.96 KCAL/MOL
REMARK 922        TOTAL FREE ENERGY PREDICTED BY IDOCK:   -4.72 KCAL/MOL
REMARK 923 INTER-LIGAND FREE ENERGY PREDICTED BY IDOCK:   -4.74 KCAL/MOL
REMARK 924 INTRA-LIGAND FREE ENERGY PREDICTED BY IDOCK:    0.02 KCAL/MOL
REMARK 927      BINDING AFFINITY PREDICTED BY RF-SCORE:    0.00 PKD
ROOT
HETATM    1  N   UNL     1     -10.127   9.885  64.387  1.00  0.00    -0.405 NA 
HETATM    2  CA  UNL     1      -8.882  10.569  64.878  1.00  0.00    -0.192 C  
HETATM    3  H1  UNL     1     -10.100   9.638  63.397  1.00  0.00     0.000 HD 
HETATM    4  H2  UNL     1     -10.952  10.449  64.593  1.00  0.00     0.000 HD 
HETATM    5  OXT UNL     1      -6.550   9.815  65.015  1.00  0.00    -0.086 OA 
HETATM    6  C   UNL     1      -7.696   9.621  64.643  1.00  0.00    -0.130 C  
HETATM    7  O   UNL     1      -8.080   8.509  63.959  1.00  0.00    -0.153 OA 
ENDROOT
BRANCH   2   8
HETATM    8  C   UNL     1      -8.923  10.941  66.369  1.00  0.00    -0.186 C  
BRANCH   8   9
HETATM    9  C   UNL     1      -9.082  12.409  66.629  1.00  0.00    -0.204 A  
HETATM   10  C   UNL     1      -8.435  13.138  67.607  1.00  0.00    -0.194 A  
HETATM   11  N   UNL     1      -8.869  14.435  67.538  1.00  0.00    -0.183 NA 
HETATM   12  H   UNL     1      -8.555  15.189  68.149  1.00  0.00     0.000 HD 
HETATM   13  C   UNL     1      -9.790  14.575  66.526  1.00  0.00    -0.285 A  
HETATM   14  C   UNL     1      -9.957  13.316  65.945  1.00  0.00    -0.280 A  
HETATM   15  C   UNL     1     -10.882  13.181  64.886  1.00  0.00    -0.348 A  
HETATM   16  C   UNL     1     -11.574  14.311  64.445  1.00  0.00    -0.344 A  
HETATM   17  C   UNL     1     -11.385  15.553  65.034  1.00  0.00    -0.301 A  
HETATM   18  O   UNL     1     -12.467  14.232  63.415  1.00  0.00    -1.125 OA 
HETATM   19  C   UNL     1     -10.489  15.708  66.095  1.00  0.00    -0.327 A  
HETATM   20  H   UNL     1     -12.938  15.001  63.116  1.00  0.00     0.000 HD 
ENDBRANCH   8   9
ENDBRANCH   2   8
TORSDOF 2
ENDMDL
MODEL      154
REMARK 921   NORMALIZED FREE ENERGY PREDICTED BY IDOCK:   -3.94 KCAL/MOL
REMARK 922        TOTAL FREE ENERGY PREDICTED BY IDOCK:   -4.69 KCAL/MOL
REMARK 923 INTER-LIGAND FREE ENERGY PREDICTED BY IDOCK:   -4.40 KCAL/MOL
REMARK 924 INTRA-LIGAND FREE ENERGY PREDICTED BY IDOCK:   -0.29 KCAL/MOL
REMARK 927      BINDING AFFINITY PREDICTED BY RF-SCORE:    0.00 PKD
ROOT
HETATM    1  N   UNL     1      -8.950   7.252  67.739  1.00  0.00    -0.127 NA 
HETATM    2  CA  UNL     1      -9.397   8.254  68.766  1.00  0.00    -0.143 C  
HETATM    3  H1  UNL     1      -9.011   7.590  66.778  1.00  0.00     0.000 HD 
HETATM    4  H2  UNL     1      -9.463   6.377  67.844  1.00  0.00     0.000 HD 
HETATM    5  OXT UNL     1      -8.530  10.470  69.372  1.00  0.00    -0.154 OA 
HETATM    6  C   UNL     1      -8.510   9.501  68.629  1.00  0.00    -0.119 C  
HETATM    7  O   UNL     1      -7.673   9.398  67.562  1.00  0.00    -0.091 OA 
ENDROOT
BRANCH   2   8
HETATM    8  C   UNL     1      -9.306   7.746  70.214  1.00  0.00    -0.156 C  
BRANCH   8   9
HETATM    9  C   UNL     1     -10.634   7.587  70.891  1.00  0.00    -0.227 A  
HETATM   10  C   UNL     1     -11.199   6.398  71.310  1.00  0.00    -0.292 A  
HETATM   11  N   UNL     1     -12.424   6.671  71.856  1.00  0.00    -0.445 NA 
HETATM   12  H   UNL     1     -13.060   5.972  72.243  1.00  0.00     0.000 HD 
HETATM   13  C   UNL     1     -12.677   8.022  71.810  1.00  0.00    -0.329 A  
HETATM   14  C   UNL     1     -11.577   8.624  71.194  1.00  0.00    -0.330 A  
HETATM   15  C   UNL     1     -11.598  10.023  70.998  1.00  0.00    -0.476 A  
HETATM   16  C   UNL     1     -12.703  10.751  71.445  1.00  0.00    -0.439 A  
HETATM   17  C   UNL     1     -13.780  10.130  72.060  1.00  0.00    -0.204 A  
HETATM   18  O   UNL     1     -12.761  12.106  71.290  1.00  0.00    -0.366 OA 
HETATM   19  C   UNL     1     -13.791   8.745  72.249  1.00  0.00    -0.505 A  
HETATM   20  H   UNL     1     -13.513  12.602  71.594  1.00  0.00     0.000 HD 
ENDBRANCH   8   9
ENDBRANCH   2   8
TORSDOF 2
ENDMDL
MODEL      155
REMARK 921   NORMALIZED FREE ENERGY PREDICTED BY IDOCK:   -3.93 KCAL/MOL
REMARK 922        TOTAL FREE ENERGY PREDICTED BY IDOCK:   -4.69 KCAL/MOL
REMARK 923 INTER-LIGAND FREE ENERGY PREDICTED BY IDOCK:   -4.40 KCAL/MOL
REMARK 924 INTRA-LIGAND FREE ENERGY PREDICTED BY IDOCK:   -0.28 KCAL/MOL
REMARK 927      BINDING AFFINITY PREDICTED BY RF-SCORE:    0.00 PKD
ROOT
HETATM    1  N   UNL     1      -8.889  13.937  66.576  1.00  0.00    -0.458 NA 
HETATM    2  CA  UNL     1      -9.121  13.040  67.760  1.00  0.00    -0.200 C  
HETATM    3  H1  UNL     1      -8.113  14.588  66.696  1.00  0.00     0.000 HD 
HETATM    4  H2  UNL     1      -9.743  14.439  66.333  1.00  0.00     0.000 HD 
HETATM    5  OXT UNL     1      -7.709  11.333  68.818  1.00  0.00    -0.127 OA 
HETATM    6  C   UNL     1      -7.838  12.231  68.000  1.00  0.00    -0.147 C  
HETATM    7  O   UNL     1      -6.836  12.634  67.172  1.00  0.00    -0.132 OA 
ENDROOT
BRANCH   2   8
HETATM    8  C   UNL     1     -10.291  12.060  67.579  1.00  0.00    -0.217 C  
BRANCH   8   9
HETATM    9  C   UNL     1     -11.046  11.768  68.841  1.00  0.00    -0.297 A  
HETATM   10  C   UNL     1     -11.792  12.672  69.572  1.00  0.00    -0.312 A  
HETATM   11  N   UNL     1     -12.301  12.026  70.667  1.00  0.00    -0.345 NA 
HETATM   12  H   UNL     1     -12.888  12.460  71.380  1.00  0.00     0.000 HD 
HETATM   13  C   UNL     1     -11.906  10.708  70.669  1.00  0.00    -0.363 A  
HETATM   14  C   UNL     1     -11.103  10.519  69.542  1.00  0.00    -0.320 A  
HETATM   15  C   UNL     1     -10.542   9.241  69.324  1.00  0.00    -0.234 A  
HETATM   16  C   UNL     1     -10.828   8.214  70.226  1.00  0.00    -0.244 A  
HETATM   17  C   UNL     1     -11.634   8.427  71.335  1.00  0.00    -0.332 A  
HETATM   18  O   UNL     1     -10.319   6.960  70.049  1.00  0.00    -0.193 OA 
HETATM   19  C   UNL     1     -12.187   9.686  71.582  1.00  0.00    -0.484 A  
HETATM   20  H   UNL     1     -10.513   6.262  70.663  1.00  0.00     0.000 HD 
ENDBRANCH   8   9
ENDBRANCH   2   8
TORSDOF 2
ENDMDL
MODEL      156
REMARK 921   NORMALIZED FREE ENERGY PREDICTED BY IDOCK:   -3.92 KCAL/MOL
REMARK 922        TOTAL FREE ENERGY PREDICTED BY IDOCK:   -4.68 KCAL/MOL
REMARK 923 INTER-LIGAND FREE ENERGY PREDICTED BY IDOCK:   -4.42 KCAL/MOL
REMARK 924 INTRA-LIGAND FREE ENERGY PREDICTED BY IDOCK:   -0.26 KCAL/MOL
REMARK 927      BINDING AFFINITY PREDICTED BY RF-SCORE:    0.00 PKD
ROOT
HETATM    1  N   UNL     1      -8.370   6.870  67.827  1.00  0.00    -0.120 NA 
HETATM    2  CA  UNL     1      -9.670   7.450  68.311  1.00  0.00    -0.152 C  
HETATM    3  H1  UNL     1      -7.762   6.538  68.575  1.00  0.00     0.000 HD 
HETATM    4  H2  UNL     1      -7.878   7.538  67.234  1.00  0.00     0.000 HD 
HETATM    5  OXT UNL     1     -11.545   6.454  69.544  1.00  0.00    -0.404 OA 
HETATM    6  C   UNL     1     -10.413   6.358  69.097  1.00  0.00    -0.229 C  
HETATM    7  O   UNL     1      -9.648   5.242  69.236  1.00  0.00    -0.134 OA 
ENDROOT
BRANCH   2   8
HETATM    8  C   UNL     1     -10.587   7.950  67.183  1.00  0.00    -0.383 C  
BRANCH   8   9
HETATM    9  C   UNL     1     -10.634   9.442  67.049  1.00  0.00    -0.272 A  
HETATM   10  C   UNL     1     -10.200  10.178  65.964  1.00  0.00    -0.218 A  
HETATM   11  N   UNL     1     -10.388  11.506  66.238  1.00  0.00    -0.231 NA 
HETATM   12  H   UNL     1     -10.149  12.272  65.607  1.00  0.00     0.000 HD 
HETATM   13  C   UNL     1     -10.945  11.660  67.486  1.00  0.00    -0.259 A  
HETATM   14  C   UNL     1     -11.098  10.382  68.028  1.00  0.00    -0.359 A  
HETATM   15  C   UNL     1     -11.631  10.264  69.331  1.00  0.00    -0.213 A  
HETATM   16  C   UNL     1     -12.005  11.422  70.016  1.00  0.00    -0.363 A  
HETATM   17  C   UNL     1     -11.850  12.680  69.452  1.00  0.00    -0.356 A  
HETATM   18  O   UNL     1     -12.538  11.355  71.271  1.00  0.00    -0.394 OA 
HETATM   19  C   UNL     1     -11.308  12.824  68.172  1.00  0.00    -0.329 A  
HETATM   20  H   UNL     1     -12.792  12.143  71.737  1.00  0.00     0.000 HD 
ENDBRANCH   8   9
ENDBRANCH   2   8
TORSDOF 2
ENDMDL
MODEL      157
REMARK 921   NORMALIZED FREE ENERGY PREDICTED BY IDOCK:   -3.92 KCAL/MOL
REMARK 922        TOTAL FREE ENERGY PREDICTED BY IDOCK:   -4.67 KCAL/MOL
REMARK 923 INTER-LIGAND FREE ENERGY PREDICTED BY IDOCK:   -4.77 KCAL/MOL
REMARK 924 INTRA-LIGAND FREE ENERGY PREDICTED BY IDOCK:    0.10 KCAL/MOL
REMARK 927      BINDING AFFINITY PREDICTED BY RF-SCORE:    0.00 PKD
ROOT
HETATM    1  N   UNL     1     -12.047  12.597  66.997  1.00  0.00    -0.486 NA 
HETATM    2  CA  UNL     1     -11.966  13.913  66.274  1.00  0.00    -0.434 C  
HETATM    3  H1  UNL     1     -12.996  12.236  67.091  1.00  0.00     0.000 HD 
HETATM    4  H2  UNL     1     -11.595  12.660  67.908  1.00  0.00     0.000 HD 
HETATM    5  OXT UNL     1     -12.560  14.557  63.981  1.00  0.00    -0.797 OA 
HETATM    6  C   UNL     1     -12.558  13.721  64.870  1.00  0.00    -0.341 C  
HETATM    7  O   UNL     1     -13.089  12.476  64.723  1.00  0.00    -0.853 OA 
ENDROOT
BRANCH   2   8
HETATM    8  C   UNL     1     -10.537  14.459  66.132  1.00  0.00    -0.298 C  
BRANCH   8   9
HETATM    9  C   UNL     1      -9.465  13.438  66.369  1.00  0.00    -0.230 A  
HETATM   10  C   UNL     1      -9.326  12.233  65.708  1.00  0.00    -0.046 A  
HETATM   11  N   UNL     1      -8.244  11.576  66.229  1.00  0.00    -0.344 NA 
HETATM   12  H   UNL     1      -7.916  10.659  65.925  1.00  0.00     0.000 HD 
HETATM   13  C   UNL     1      -7.661  12.330  67.221  1.00  0.00    -0.161 A  
HETATM   14  C   UNL     1      -8.415  13.500  67.344  1.00  0.00    -0.203 A  
HETATM   15  C   UNL     1      -8.038  14.443  68.325  1.00  0.00    -0.139 A  
HETATM   16  C   UNL     1      -6.917  14.183  69.117  1.00  0.00    -0.111 A  
HETATM   17  C   UNL     1      -6.180  13.017  68.970  1.00  0.00    -0.094 A  
HETATM   18  O   UNL     1      -6.506  15.072  70.068  1.00  0.00    -0.157 OA 
HETATM   19  C   UNL     1      -6.544  12.060  68.019  1.00  0.00    -0.069 A  
HETATM   20  H   UNL     1      -5.744  14.895  70.607  1.00  0.00     0.000 HD 
ENDBRANCH   8   9
ENDBRANCH   2   8
TORSDOF 2
ENDMDL
MODEL      158
REMARK 921   NORMALIZED FREE ENERGY PREDICTED BY IDOCK:   -3.92 KCAL/MOL
REMARK 922        TOTAL FREE ENERGY PREDICTED BY IDOCK:   -4.67 KCAL/MOL
REMARK 923 INTER-LIGAND FREE ENERGY PREDICTED BY IDOCK:   -4.50 KCAL/MOL
REMARK 924 INTRA-LIGAND FREE ENERGY PREDICTED BY IDOCK:   -0.17 KCAL/MOL
REMARK 927      BINDING AFFINITY PREDICTED BY RF-SCORE:    0.00 PKD
ROOT
HETATM    1  N   UNL     1      -7.438  10.528  65.294  1.00  0.00    -0.288 NA 
HETATM    2  CA  UNL     1      -7.888  10.004  66.630  1.00  0.00    -0.111 C  
HETATM    3  H1  UNL     1      -6.638  10.031  64.903  1.00  0.00     0.000 HD 
HETATM    4  H2  UNL     1      -7.248  11.529  65.346  1.00  0.00     0.000 HD 
HETATM    5  OXT UNL     1      -8.770   7.818  67.315  1.00  0.00    -0.126 OA 
HETATM    6  C   UNL     1      -8.268   8.526  66.456  1.00  0.00    -0.108 C  
HETATM    7  O   UNL     1      -7.980   8.085  65.202  1.00  0.00    -0.112 OA 
ENDROOT
BRANCH   2   8
HETATM    8  C   UNL     1      -9.093  10.754  67.219  1.00  0.00    -0.151 C  
BRANCH   8   9
HETATM    9  C   UNL     1      -9.217  12.174  66.757  1.00  0.00    -0.207 A  
HETATM   10  C   UNL     1      -8.385  13.221  67.104  1.00  0.00    -0.135 A  
HETATM   11  N   UNL     1      -8.846  14.359  66.498  1.00  0.00    -0.458 NA 
HETATM   12  H   UNL     1      -8.419  15.281  66.588  1.00  0.00     0.000 HD 
HETATM   13  C   UNL     1      -9.967  14.080  65.751  1.00  0.00    -0.298 A  
HETATM   14  C   UNL     1     -10.235  12.718  65.905  1.00  0.00    -0.300 A  
HETATM   15  C   UNL     1     -11.365  12.178  65.253  1.00  0.00    -0.386 A  
HETATM   16  C   UNL     1     -12.156  13.016  64.464  1.00  0.00    -0.410 A  
HETATM   17  C   UNL     1     -11.864  14.365  64.322  1.00  0.00    -0.385 A  
HETATM   18  O   UNL     1     -13.250  12.535  63.804  1.00  0.00    -0.576 OA 
HETATM   19  C   UNL     1     -10.761  14.927  64.971  1.00  0.00    -0.451 A  
HETATM   20  H   UNL     1     -13.787  13.106  63.267  1.00  0.00     0.000 HD 
ENDBRANCH   8   9
ENDBRANCH   2   8
TORSDOF 2
ENDMDL
MODEL      159
REMARK 921   NORMALIZED FREE ENERGY PREDICTED BY IDOCK:   -3.91 KCAL/MOL
REMARK 922        TOTAL FREE ENERGY PREDICTED BY IDOCK:   -4.66 KCAL/MOL
REMARK 923 INTER-LIGAND FREE ENERGY PREDICTED BY IDOCK:   -4.52 KCAL/MOL
REMARK 924 INTRA-LIGAND FREE ENERGY PREDICTED BY IDOCK:   -0.14 KCAL/MOL
REMARK 927      BINDING AFFINITY PREDICTED BY RF-SCORE:    0.00 PKD
ROOT
HETATM    1  N   UNL     1     -12.616  13.160  66.147  1.00  0.00    -0.376 NA 
HETATM    2  CA  UNL     1     -11.787  13.484  64.935  1.00  0.00    -0.374 C  
HETATM    3  H1  UNL     1     -13.598  13.417  66.056  1.00  0.00     0.000 HD 
HETATM    4  H2  UNL     1     -12.210  13.582  66.983  1.00  0.00     0.000 HD 
HETATM    5  OXT UNL     1     -11.898  12.682  62.618  1.00  0.00     0.303 OA 
HETATM    6  C   UNL     1     -12.381  12.727  63.738  1.00  0.00    -0.446 C  
HETATM    7  O   UNL     1     -13.535  12.092  64.078  1.00  0.00    -0.655 OA 
ENDROOT
BRANCH   2   8
HETATM    8  C   UNL     1     -10.306  13.098  65.072  1.00  0.00    -0.346 C  
BRANCH   8   9
HETATM    9  C   UNL     1      -9.899  12.711  66.463  1.00  0.00    -0.258 A  
HETATM   10  C   UNL     1      -9.284  13.530  67.389  1.00  0.00    -0.223 A  
HETATM   11  N   UNL     1      -9.054  12.800  68.525  1.00  0.00    -0.371 NA 
HETATM   12  H   UNL     1      -8.606  13.159  69.369  1.00  0.00     0.000 HD 
HETATM   13  C   UNL     1      -9.514  11.513  68.366  1.00  0.00    -0.195 A  
HETATM   14  C   UNL     1     -10.037  11.422  67.074  1.00  0.00    -0.237 A  
HETATM   15  C   UNL     1     -10.555  10.179  66.645  1.00  0.00    -0.214 A  
HETATM   16  C   UNL     1     -10.547   9.101  67.533  1.00  0.00    -0.249 A  
HETATM   17  C   UNL     1     -10.027   9.220  68.813  1.00  0.00    -0.193 A  
HETATM   18  O   UNL     1     -11.050   7.886  67.167  1.00  0.00    -0.475 OA 
HETATM   19  C   UNL     1      -9.492  10.433  69.255  1.00  0.00    -0.214 A  
HETATM   20  H   UNL     1     -11.043   7.152  67.771  1.00  0.00     0.000 HD 
ENDBRANCH   8   9
ENDBRANCH   2   8
TORSDOF 2
ENDMDL
MODEL      160
REMARK 921   NORMALIZED FREE ENERGY PREDICTED BY IDOCK:   -3.90 KCAL/MOL
REMARK 922        TOTAL FREE ENERGY PREDICTED BY IDOCK:   -4.65 KCAL/MOL
REMARK 923 INTER-LIGAND FREE ENERGY PREDICTED BY IDOCK:   -4.39 KCAL/MOL
REMARK 924 INTRA-LIGAND FREE ENERGY PREDICTED BY IDOCK:   -0.26 KCAL/MOL
REMARK 927      BINDING AFFINITY PREDICTED BY RF-SCORE:    0.00 PKD
ROOT
HETATM    1  N   UNL     1      -9.311  11.750  65.544  1.00  0.00    -0.381 NA 
HETATM    2  CA  UNL     1     -10.706  11.690  66.100  1.00  0.00    -0.278 C  
HETATM    3  H1  UNL     1      -9.235  11.420  64.582  1.00  0.00     0.000 HD 
HETATM    4  H2  UNL     1      -8.661  11.248  66.149  1.00  0.00     0.000 HD 
HETATM    5  OXT UNL     1     -12.782  12.816  65.431  1.00  0.00    -0.621 OA 
HETATM    6  C   UNL     1     -11.609  12.559  65.212  1.00  0.00    -0.364 C  
HETATM    7  O   UNL     1     -10.934  13.026  64.127  1.00  0.00    -0.373 OA 
ENDROOT
BRANCH   2   8
HETATM    8  C   UNL     1     -10.821  12.188  67.550  1.00  0.00    -0.283 C  
BRANCH   8   9
HETATM    9  C   UNL     1     -11.107  11.106  68.548  1.00  0.00    -0.298 A  
HETATM   10  C   UNL     1     -12.247  10.988  69.318  1.00  0.00    -0.210 A  
HETATM   11  N   UNL     1     -12.115   9.886  70.120  1.00  0.00    -0.472 NA 
HETATM   12  H   UNL     1     -12.812   9.567  70.793  1.00  0.00     0.000 HD 
HETATM   13  C   UNL     1     -10.906   9.271  69.889  1.00  0.00    -0.234 A  
HETATM   14  C   UNL     1     -10.243  10.023  68.916  1.00  0.00    -0.206 A  
HETATM   15  C   UNL     1      -8.952   9.613  68.515  1.00  0.00    -0.124 A  
HETATM   16  C   UNL     1      -8.399   8.464  69.086  1.00  0.00    -0.122 A  
HETATM   17  C   UNL     1      -9.082   7.731  70.045  1.00  0.00    -0.150 A  
HETATM   18  O   UNL     1      -7.161   8.023  68.719  1.00  0.00    -0.068 OA 
HETATM   19  C   UNL     1     -10.353   8.126  70.472  1.00  0.00    -0.211 A  
HETATM   20  H   UNL     1      -6.785   7.241  69.107  1.00  0.00     0.000 HD 
ENDBRANCH   8   9
ENDBRANCH   2   8
TORSDOF 2
ENDMDL
MODEL      161
REMARK 921   NORMALIZED FREE ENERGY PREDICTED BY IDOCK:   -3.90 KCAL/MOL
REMARK 922        TOTAL FREE ENERGY PREDICTED BY IDOCK:   -4.65 KCAL/MOL
REMARK 923 INTER-LIGAND FREE ENERGY PREDICTED BY IDOCK:   -4.53 KCAL/MOL
REMARK 924 INTRA-LIGAND FREE ENERGY PREDICTED BY IDOCK:   -0.12 KCAL/MOL
REMARK 927      BINDING AFFINITY PREDICTED BY RF-SCORE:    0.00 PKD
ROOT
HETATM    1  N   UNL     1      -9.691   7.588  73.781  1.00  0.00    -0.327 NA 
HETATM    2  CA  UNL     1     -10.624   6.530  73.261  1.00  0.00    -0.276 C  
HETATM    3  H1  UNL     1      -8.971   7.231  74.409  1.00  0.00     0.000 HD 
HETATM    4  H2  UNL     1     -10.214   8.342  74.226  1.00  0.00     0.000 HD 
HETATM    5  OXT UNL     1     -10.233   4.547  71.868  1.00  0.00    -0.195 OA 
HETATM    6  C   UNL     1      -9.786   5.489  72.504  1.00  0.00    -0.164 C  
HETATM    7  O   UNL     1      -8.455   5.745  72.620  1.00  0.00    -0.120 OA 
ENDROOT
BRANCH   2   8
HETATM    8  C   UNL     1     -11.709   7.067  72.315  1.00  0.00    -0.294 C  
BRANCH   8   9
HETATM    9  C   UNL     1     -11.196   8.007  71.265  1.00  0.00    -0.287 A  
HETATM   10  C   UNL     1     -10.842   9.328  71.457  1.00  0.00    -0.372 A  
HETATM   11  N   UNL     1     -10.449   9.849  70.253  1.00  0.00    -0.279 NA 
HETATM   12  H   UNL     1     -10.139  10.811  70.107  1.00  0.00     0.000 HD 
HETATM   13  C   UNL     1     -10.533   8.892  69.269  1.00  0.00    -0.224 A  
HETATM   14  C   UNL     1     -11.014   7.727  69.871  1.00  0.00    -0.194 A  
HETATM   15  C   UNL     1     -11.219   6.587  69.061  1.00  0.00    -0.354 A  
HETATM   16  C   UNL     1     -10.912   6.661  67.701  1.00  0.00    -0.309 A  
HETATM   17  C   UNL     1     -10.429   7.829  67.129  1.00  0.00    -0.413 A  
HETATM   18  O   UNL     1     -11.081   5.582  66.882  1.00  0.00    -0.455 OA 
HETATM   19  C   UNL     1     -10.235   8.975  67.905  1.00  0.00    -0.272 A  
HETATM   20  H   UNL     1     -10.873   5.632  65.956  1.00  0.00     0.000 HD 
ENDBRANCH   8   9
ENDBRANCH   2   8
TORSDOF 2
ENDMDL
MODEL      162
REMARK 921   NORMALIZED FREE ENERGY PREDICTED BY IDOCK:   -3.89 KCAL/MOL
REMARK 922        TOTAL FREE ENERGY PREDICTED BY IDOCK:   -4.64 KCAL/MOL
REMARK 923 INTER-LIGAND FREE ENERGY PREDICTED BY IDOCK:   -4.35 KCAL/MOL
REMARK 924 INTRA-LIGAND FREE ENERGY PREDICTED BY IDOCK:   -0.28 KCAL/MOL
REMARK 927      BINDING AFFINITY PREDICTED BY RF-SCORE:    0.00 PKD
ROOT
HETATM    1  N   UNL     1     -11.772  16.214  68.765  1.00  0.00    -0.318 NA 
HETATM    2  CA  UNL     1     -10.559  15.449  68.314  1.00  0.00    -0.253 C  
HETATM    3  H1  UNL     1     -12.639  15.913  68.320  1.00  0.00     0.000 HD 
HETATM    4  H2  UNL     1     -11.632  17.216  68.637  1.00  0.00     0.000 HD 
HETATM    5  OXT UNL     1      -9.962  13.075  68.502  1.00  0.00    -0.227 OA 
HETATM    6  C   UNL     1     -10.786  13.965  68.640  1.00  0.00    -0.262 C  
HETATM    7  O   UNL     1     -12.042  13.750  69.119  1.00  0.00    -0.346 OA 
ENDROOT
BRANCH   2   8
HETATM    8  C   UNL     1      -9.252  15.902  68.984  1.00  0.00    -0.242 C  
BRANCH   8   9
HETATM    9  C   UNL     1      -8.185  16.325  68.020  1.00  0.00    -0.157 A  
HETATM   10  C   UNL     1      -7.213  15.512  67.470  1.00  0.00    -0.194 A  
HETATM   11  N   UNL     1      -6.415  16.277  66.663  1.00  0.00    -0.234 NA 
HETATM   12  H   UNL     1      -5.615  15.928  66.134  1.00  0.00     0.000 HD 
HETATM   13  C   UNL     1      -6.847  17.583  66.666  1.00  0.00    -0.221 A  
HETATM   14  C   UNL     1      -7.948  17.649  67.522  1.00  0.00    -0.210 A  
HETATM   15  C   UNL     1      -8.569  18.902  67.724  1.00  0.00    -0.318 A  
HETATM   16  C   UNL     1      -8.074  20.018  67.045  1.00  0.00    -0.318 A  
HETATM   17  C   UNL     1      -6.982  19.925  66.195  1.00  0.00    -0.267 A  
HETATM   18  O   UNL     1      -8.650  21.246  67.199  1.00  0.00    -0.530 OA 
HETATM   19  C   UNL     1      -6.340  18.700  65.992  1.00  0.00    -0.252 A  
HETATM   20  H   UNL     1      -8.313  22.006  66.737  1.00  0.00     0.000 HD 
ENDBRANCH   8   9
ENDBRANCH   2   8
TORSDOF 2
ENDMDL
MODEL      163
REMARK 921   NORMALIZED FREE ENERGY PREDICTED BY IDOCK:   -3.88 KCAL/MOL
REMARK 922        TOTAL FREE ENERGY PREDICTED BY IDOCK:   -4.63 KCAL/MOL
REMARK 923 INTER-LIGAND FREE ENERGY PREDICTED BY IDOCK:   -4.37 KCAL/MOL
REMARK 924 INTRA-LIGAND FREE ENERGY PREDICTED BY IDOCK:   -0.26 KCAL/MOL
REMARK 927      BINDING AFFINITY PREDICTED BY RF-SCORE:    0.00 PKD
ROOT
HETATM    1  N   UNL     1     -11.214  10.824  69.707  1.00  0.00    -0.277 NA 
HETATM    2  CA  UNL     1     -11.833  11.937  70.505  1.00  0.00    -0.159 C  
HETATM    3  H1  UNL     1     -10.839  10.066  70.277  1.00  0.00     0.000 HD 
HETATM    4  H2  UNL     1     -10.497  11.188  69.079  1.00  0.00     0.000 HD 
HETATM    5  OXT UNL     1     -13.760  11.981  72.026  1.00  0.00    -0.250 OA 
HETATM    6  C   UNL     1     -12.978  11.342  71.340  1.00  0.00    -0.365 C  
HETATM    7  O   UNL     1     -13.026   9.988  71.218  1.00  0.00    -0.350 OA 
ENDROOT
BRANCH   2   8
HETATM    8  C   UNL     1     -12.397  13.081  69.646  1.00  0.00    -0.104 C  
BRANCH   8   9
HETATM    9  C   UNL     1     -11.754  14.411  69.900  1.00  0.00    -0.363 A  
HETATM   10  C   UNL     1     -11.916  15.193  71.027  1.00  0.00    -0.333 A  
HETATM   11  N   UNL     1     -11.187  16.341  70.865  1.00  0.00    -0.370 NA 
HETATM   12  H   UNL     1     -11.130  17.098  71.547  1.00  0.00     0.000 HD 
HETATM   13  C   UNL     1     -10.540  16.327  69.651  1.00  0.00    -0.320 A  
HETATM   14  C   UNL     1     -10.888  15.133  69.014  1.00  0.00    -0.242 A  
HETATM   15  C   UNL     1     -10.371  14.884  67.723  1.00  0.00    -0.244 A  
HETATM   16  C   UNL     1      -9.516  15.825  67.145  1.00  0.00    -0.213 A  
HETATM   17  C   UNL     1      -9.180  17.000  67.801  1.00  0.00    -0.236 A  
HETATM   18  O   UNL     1      -8.982  15.620  65.905  1.00  0.00    -0.347 OA 
HETATM   19  C   UNL     1      -9.693  17.277  69.071  1.00  0.00    -0.201 A  
HETATM   20  H   UNL     1      -8.400  16.261  65.512  1.00  0.00     0.000 HD 
ENDBRANCH   8   9
ENDBRANCH   2   8
TORSDOF 2
ENDMDL
MODEL      164
REMARK 921   NORMALIZED FREE ENERGY PREDICTED BY IDOCK:   -3.87 KCAL/MOL
REMARK 922        TOTAL FREE ENERGY PREDICTED BY IDOCK:   -4.61 KCAL/MOL
REMARK 923 INTER-LIGAND FREE ENERGY PREDICTED BY IDOCK:   -4.43 KCAL/MOL
REMARK 924 INTRA-LIGAND FREE ENERGY PREDICTED BY IDOCK:   -0.19 KCAL/MOL
REMARK 927      BINDING AFFINITY PREDICTED BY RF-SCORE:    0.00 PKD
ROOT
HETATM    1  N   UNL     1     -12.263  14.018  67.417  1.00  0.00    -0.537 NA 
HETATM    2  CA  UNL     1     -12.030  14.800  66.155  1.00  0.00    -0.149 C  
HETATM    3  H1  UNL     1     -13.248  13.844  67.620  1.00  0.00     0.000 HD 
HETATM    4  H2  UNL     1     -11.809  14.472  68.210  1.00  0.00     0.000 HD 
HETATM    5  OXT UNL     1     -12.540  14.300  63.806  1.00  0.00    -0.821 OA 
HETATM    6  C   UNL     1     -12.637  14.007  64.987  1.00  0.00    -0.390 C  
HETATM    7  O   UNL     1     -13.306  12.909  65.430  1.00  0.00    -0.359 OA 
ENDROOT
BRANCH   2   8
HETATM    8  C   UNL     1     -10.547  15.064  65.850  1.00  0.00    -0.338 C  
BRANCH   8   9
HETATM    9  C   UNL     1      -9.600  14.433  66.826  1.00  0.00    -0.279 A  
HETATM   10  C   UNL     1      -8.898  15.088  67.819  1.00  0.00    -0.171 A  
HETATM   11  N   UNL     1      -8.124  14.170  68.478  1.00  0.00    -0.142 NA 
HETATM   12  H   UNL     1      -7.500  14.384  69.257  1.00  0.00     0.000 HD 
HETATM   13  C   UNL     1      -8.307  12.918  67.939  1.00  0.00    -0.170 A  
HETATM   14  C   UNL     1      -9.218  13.053  66.888  1.00  0.00    -0.236 A  
HETATM   15  C   UNL     1      -9.560  11.902  66.144  1.00  0.00    -0.250 A  
HETATM   16  C   UNL     1      -8.996  10.675  66.498  1.00  0.00    -0.156 A  
HETATM   17  C   UNL     1      -8.099  10.566  67.551  1.00  0.00    -0.107 A  
HETATM   18  O   UNL     1      -9.308   9.534  65.816  1.00  0.00    -0.194 OA 
HETATM   19  C   UNL     1      -7.730  11.693  68.291  1.00  0.00    -0.128 A  
HETATM   20  H   UNL     1      -8.923   8.699  66.057  1.00  0.00     0.000 HD 
ENDBRANCH   8   9
ENDBRANCH   2   8
TORSDOF 2
ENDMDL
MODEL      165
REMARK 921   NORMALIZED FREE ENERGY PREDICTED BY IDOCK:   -3.86 KCAL/MOL
REMARK 922        TOTAL FREE ENERGY PREDICTED BY IDOCK:   -4.61 KCAL/MOL
REMARK 923 INTER-LIGAND FREE ENERGY PREDICTED BY IDOCK:   -4.82 KCAL/MOL
REMARK 924 INTRA-LIGAND FREE ENERGY PREDICTED BY IDOCK:    0.21 KCAL/MOL
REMARK 927      BINDING AFFINITY PREDICTED BY RF-SCORE:    0.00 PKD
ROOT
HETATM    1  N   UNL     1     -12.476  14.145  66.671  1.00  0.00    -0.548 NA 
HETATM    2  CA  UNL     1     -11.382  13.889  65.672  1.00  0.00    -0.309 C  
HETATM    3  H1  UNL     1     -13.304  14.588  66.273  1.00  0.00     0.000 HD 
HETATM    4  H2  UNL     1     -12.122  14.688  67.459  1.00  0.00     0.000 HD 
HETATM    5  OXT UNL     1     -11.304  12.484  63.661  1.00  0.00    -0.420 OA 
HETATM    6  C   UNL     1     -11.947  12.973  64.575  1.00  0.00    -0.394 C  
HETATM    7  O   UNL     1     -13.279  12.758  64.748  1.00  0.00    -0.812 OA 
ENDROOT
BRANCH   2   8
HETATM    8  C   UNL     1     -10.134  13.223  66.271  1.00  0.00    -0.294 C  
BRANCH   8   9
HETATM    9  C   UNL     1     -10.356  11.816  66.741  1.00  0.00    -0.251 A  
HETATM   10  C   UNL     1     -11.432  11.364  67.479  1.00  0.00    -0.260 A  
HETATM   11  N   UNL     1     -11.254  10.030  67.729  1.00  0.00    -0.471 NA 
HETATM   12  H   UNL     1     -11.900   9.444  68.259  1.00  0.00     0.000 HD 
HETATM   13  C   UNL     1     -10.079   9.591  67.163  1.00  0.00    -0.229 A  
HETATM   14  C   UNL     1      -9.484  10.695  66.547  1.00  0.00    -0.199 A  
HETATM   15  C   UNL     1      -8.237  10.516  65.908  1.00  0.00    -0.152 A  
HETATM   16  C   UNL     1      -7.660   9.244  65.895  1.00  0.00    -0.098 A  
HETATM   17  C   UNL     1      -8.276   8.163  66.508  1.00  0.00    -0.107 A  
HETATM   18  O   UNL     1      -6.463   9.022  65.277  1.00  0.00    -0.066 OA 
HETATM   19  C   UNL     1      -9.501   8.318  67.163  1.00  0.00    -0.206 A  
HETATM   20  H   UNL     1      -6.071   8.156  65.269  1.00  0.00     0.000 HD 
ENDBRANCH   8   9
ENDBRANCH   2   8
TORSDOF 2
ENDMDL
MODEL      166
REMARK 921   NORMALIZED FREE ENERGY PREDICTED BY IDOCK:   -3.84 KCAL/MOL
REMARK 922        TOTAL FREE ENERGY PREDICTED BY IDOCK:   -4.59 KCAL/MOL
REMARK 923 INTER-LIGAND FREE ENERGY PREDICTED BY IDOCK:   -4.64 KCAL/MOL
REMARK 924 INTRA-LIGAND FREE ENERGY PREDICTED BY IDOCK:    0.05 KCAL/MOL
REMARK 927      BINDING AFFINITY PREDICTED BY RF-SCORE:    0.00 PKD
ROOT
HETATM    1  N   UNL     1      -9.463   8.419  65.887  1.00  0.00    -0.425 NA 
HETATM    2  CA  UNL     1      -8.974   9.772  65.452  1.00  0.00    -0.190 C  
HETATM    3  H1  UNL     1      -8.715   7.749  66.069  1.00  0.00     0.000 HD 
HETATM    4  H2  UNL     1     -10.126   8.042  65.209  1.00  0.00     0.000 HD 
HETATM    5  OXT UNL     1      -7.592  11.453  66.588  1.00  0.00    -0.148 OA 
HETATM    6  C   UNL     1      -8.076  10.333  66.565  1.00  0.00    -0.121 C  
HETATM    7  O   UNL     1      -7.880   9.416  67.551  1.00  0.00    -0.098 OA 
ENDROOT
BRANCH   2   8
HETATM    8  C   UNL     1     -10.100  10.782  65.177  1.00  0.00    -0.363 C  
BRANCH   8   9
HETATM    9  C   UNL     1     -10.791  11.279  66.411  1.00  0.00    -0.306 A  
HETATM   10  C   UNL     1     -11.409  10.499  67.369  1.00  0.00    -0.039 A  
HETATM   11  N   UNL     1     -11.943  11.326  68.321  1.00  0.00    -0.621 NA 
HETATM   12  H   UNL     1     -12.460  11.013  69.143  1.00  0.00     0.000 HD 
HETATM   13  C   UNL     1     -11.684  12.641  68.009  1.00  0.00    -0.350 A  
HETATM   14  C   UNL     1     -10.974  12.645  66.806  1.00  0.00    -0.296 A  
HETATM   15  C   UNL     1     -10.605  13.889  66.248  1.00  0.00    -0.289 A  
HETATM   16  C   UNL     1     -10.941  15.062  66.929  1.00  0.00    -0.324 A  
HETATM   17  C   UNL     1     -11.640  15.030  68.126  1.00  0.00    -0.360 A  
HETATM   18  O   UNL     1     -10.593  16.286  66.434  1.00  0.00    -0.306 OA 
HETATM   19  C   UNL     1     -12.032  13.813  68.690  1.00  0.00    -0.401 A  
HETATM   20  H   UNL     1     -10.822  17.083  66.897  1.00  0.00     0.000 HD 
ENDBRANCH   8   9
ENDBRANCH   2   8
TORSDOF 2
ENDMDL
MODEL      167
REMARK 921   NORMALIZED FREE ENERGY PREDICTED BY IDOCK:   -3.84 KCAL/MOL
REMARK 922        TOTAL FREE ENERGY PREDICTED BY IDOCK:   -4.58 KCAL/MOL
REMARK 923 INTER-LIGAND FREE ENERGY PREDICTED BY IDOCK:   -4.34 KCAL/MOL
REMARK 924 INTRA-LIGAND FREE ENERGY PREDICTED BY IDOCK:   -0.25 KCAL/MOL
REMARK 927      BINDING AFFINITY PREDICTED BY RF-SCORE:    0.00 PKD
ROOT
HETATM    1  N   UNL     1      -8.541   9.426  67.055  1.00  0.00    -0.127 NA 
HETATM    2  CA  UNL     1      -9.837   8.868  67.575  1.00  0.00    -0.184 C  
HETATM    3  H1  UNL     1      -7.730   8.842  67.258  1.00  0.00     0.000 HD 
HETATM    4  H2  UNL     1      -8.395  10.375  67.400  1.00  0.00     0.000 HD 
HETATM    5  OXT UNL     1     -11.054   6.802  67.049  1.00  0.00    -0.403 OA 
HETATM    6  C   UNL     1     -10.053   7.491  66.930  1.00  0.00    -0.266 C  
HETATM    7  O   UNL     1      -8.977   7.119  66.185  1.00  0.00    -0.159 OA 
ENDROOT
BRANCH   2   8
HETATM    8  C   UNL     1     -11.060   9.749  67.270  1.00  0.00    -0.002 C  
BRANCH   8   9
HETATM    9  C   UNL     1     -11.114  11.018  68.067  1.00  0.00    -0.343 A  
HETATM   10  C   UNL     1     -11.468  11.131  69.397  1.00  0.00    -0.298 A  
HETATM   11  N   UNL     1     -11.420  12.454  69.745  1.00  0.00    -0.486 NA 
HETATM   12  H   UNL     1     -11.639  12.822  70.672  1.00  0.00     0.000 HD 
HETATM   13  C   UNL     1     -11.034  13.217  68.668  1.00  0.00    -0.264 A  
HETATM   14  C   UNL     1     -10.849  12.345  67.593  1.00  0.00    -0.258 A  
HETATM   15  C   UNL     1     -10.471  12.887  66.344  1.00  0.00    -0.278 A  
HETATM   16  C   UNL     1     -10.276  14.266  66.238  1.00  0.00    -0.301 A  
HETATM   17  C   UNL     1     -10.460  15.110  67.323  1.00  0.00    -0.271 A  
HETATM   18  O   UNL     1      -9.898  14.833  65.055  1.00  0.00    -0.439 OA 
HETATM   19  C   UNL     1     -10.850  14.600  68.564  1.00  0.00    -0.256 A  
HETATM   20  H   UNL     1      -9.765  15.771  64.983  1.00  0.00     0.000 HD 
ENDBRANCH   8   9
ENDBRANCH   2   8
TORSDOF 2
ENDMDL
MODEL      168
REMARK 921   NORMALIZED FREE ENERGY PREDICTED BY IDOCK:   -3.83 KCAL/MOL
REMARK 922        TOTAL FREE ENERGY PREDICTED BY IDOCK:   -4.57 KCAL/MOL
REMARK 923 INTER-LIGAND FREE ENERGY PREDICTED BY IDOCK:   -4.36 KCAL/MOL
REMARK 924 INTRA-LIGAND FREE ENERGY PREDICTED BY IDOCK:   -0.21 KCAL/MOL
REMARK 927      BINDING AFFINITY PREDICTED BY RF-SCORE:    0.00 PKD
ROOT
HETATM    1  N   UNL     1     -11.529  12.869  70.129  1.00  0.00    -0.519 NA 
HETATM    2  CA  UNL     1     -11.308  12.743  68.648  1.00  0.00    -0.294 C  
HETATM    3  H1  UNL     1     -12.428  12.504  70.445  1.00  0.00     0.000 HD 
HETATM    4  H2  UNL     1     -11.410  13.836  70.429  1.00  0.00     0.000 HD 
HETATM    5  OXT UNL     1     -11.153  10.781  67.180  1.00  0.00    -0.291 OA 
HETATM    6  C   UNL     1     -11.387  11.252  68.282  1.00  0.00    -0.289 C  
HETATM    7  O   UNL     1     -11.749  10.498  69.354  1.00  0.00    -0.260 OA 
ENDROOT
BRANCH   2   8
HETATM    8  C   UNL     1      -9.954  13.293  68.171  1.00  0.00    -0.234 C  
BRANCH   8   9
HETATM    9  C   UNL     1     -10.025  14.673  67.590  1.00  0.00    -0.227 A  
HETATM   10  C   UNL     1     -10.904  15.103  66.615  1.00  0.00    -0.318 A  
HETATM   11  N   UNL     1     -10.632  16.415  66.337  1.00  0.00    -0.277 NA 
HETATM   12  H   UNL     1     -11.130  16.982  65.650  1.00  0.00     0.000 HD 
HETATM   13  C   UNL     1      -9.590  16.862  67.117  1.00  0.00    -0.244 A  
HETATM   14  C   UNL     1      -9.176  15.785  67.904  1.00  0.00    -0.191 A  
HETATM   15  C   UNL     1      -8.088  15.976  68.785  1.00  0.00    -0.212 A  
HETATM   16  C   UNL     1      -7.485  17.233  68.852  1.00  0.00    -0.240 A  
HETATM   17  C   UNL     1      -7.920  18.289  68.064  1.00  0.00    -0.273 A  
HETATM   18  O   UNL     1      -6.440  17.468  69.699  1.00  0.00    -0.236 OA 
HETATM   19  C   UNL     1      -8.982  18.121  67.172  1.00  0.00    -0.256 A  
HETATM   20  H   UNL     1      -6.030  18.324  69.744  1.00  0.00     0.000 HD 
ENDBRANCH   8   9
ENDBRANCH   2   8
TORSDOF 2
ENDMDL
MODEL      169
REMARK 921   NORMALIZED FREE ENERGY PREDICTED BY IDOCK:   -3.81 KCAL/MOL
REMARK 922        TOTAL FREE ENERGY PREDICTED BY IDOCK:   -4.55 KCAL/MOL
REMARK 923 INTER-LIGAND FREE ENERGY PREDICTED BY IDOCK:   -4.27 KCAL/MOL
REMARK 924 INTRA-LIGAND FREE ENERGY PREDICTED BY IDOCK:   -0.29 KCAL/MOL
REMARK 927      BINDING AFFINITY PREDICTED BY RF-SCORE:    0.00 PKD
ROOT
HETATM    1  N   UNL     1      -8.595  10.456  68.034  1.00  0.00    -0.122 NA 
HETATM    2  CA  UNL     1      -9.863  10.353  67.233  1.00  0.00    -0.178 C  
HETATM    3  H1  UNL     1      -8.092  11.334  67.901  1.00  0.00     0.000 HD 
HETATM    4  H2  UNL     1      -7.985   9.661  67.844  1.00  0.00     0.000 HD 
HETATM    5  OXT UNL     1     -11.932  11.673  67.273  1.00  0.00    -0.627 OA 
HETATM    6  C   UNL     1     -10.783  11.511  67.650  1.00  0.00    -0.211 C  
HETATM    7  O   UNL     1     -10.156  12.354  68.514  1.00  0.00    -0.221 OA 
ENDROOT
BRANCH   2   8
HETATM    8  C   UNL     1     -10.620   9.031  67.432  1.00  0.00    -0.309 C  
BRANCH   8   9
HETATM    9  C   UNL     1     -10.318   8.341  68.728  1.00  0.00    -0.223 A  
HETATM   10  C   UNL     1      -9.392   7.335  68.919  1.00  0.00    -0.144 A  
HETATM   11  N   UNL     1      -9.434   6.953  70.234  1.00  0.00    -0.163 NA 
HETATM   12  H   UNL     1      -8.854   6.223  70.648  1.00  0.00     0.000 HD 
HETATM   13  C   UNL     1     -10.369   7.696  70.916  1.00  0.00    -0.201 A  
HETATM   14  C   UNL     1     -10.953   8.567  69.993  1.00  0.00    -0.197 A  
HETATM   15  C   UNL     1     -11.977   9.432  70.441  1.00  0.00    -0.080 A  
HETATM   16  C   UNL     1     -12.350   9.400  71.786  1.00  0.00    -0.394 A  
HETATM   17  C   UNL     1     -11.749   8.529  72.684  1.00  0.00    -0.301 A  
HETATM   18  O   UNL     1     -13.325  10.226  72.266  1.00  0.00    -0.586 OA 
HETATM   19  C   UNL     1     -10.746   7.652  72.263  1.00  0.00    -0.311 A  
HETATM   20  H   UNL     1     -13.578  10.204  73.182  1.00  0.00     0.000 HD 
ENDBRANCH   8   9
ENDBRANCH   2   8
TORSDOF 2
ENDMDL
MODEL      170
REMARK 921   NORMALIZED FREE ENERGY PREDICTED BY IDOCK:   -3.80 KCAL/MOL
REMARK 922        TOTAL FREE ENERGY PREDICTED BY IDOCK:   -4.54 KCAL/MOL
REMARK 923 INTER-LIGAND FREE ENERGY PREDICTED BY IDOCK:   -4.28 KCAL/MOL
REMARK 924 INTRA-LIGAND FREE ENERGY PREDICTED BY IDOCK:   -0.26 KCAL/MOL
REMARK 927      BINDING AFFINITY PREDICTED BY RF-SCORE:    0.00 PKD
ROOT
HETATM    1  N   UNL     1     -12.208   6.459  72.412  1.00  0.00    -0.536 NA 
HETATM    2  CA  UNL     1     -10.865   6.931  71.930  1.00  0.00    -0.229 C  
HETATM    3  H1  UNL     1     -12.186   5.546  72.868  1.00  0.00     0.000 HD 
HETATM    4  H2  UNL     1     -12.885   6.463  71.649  1.00  0.00     0.000 HD 
HETATM    5  OXT UNL     1      -8.790   7.457  73.132  1.00  0.00    -0.130 OA 
HETATM    6  C   UNL     1      -9.927   7.013  73.144  1.00  0.00    -0.209 C  
HETATM    7  O   UNL     1     -10.526   6.528  74.266  1.00  0.00    -0.333 OA 
ENDROOT
BRANCH   2   8
HETATM    8  C   UNL     1     -10.897   8.306  71.244  1.00  0.00    -0.285 C  
BRANCH   8   9
HETATM    9  C   UNL     1     -10.301   8.317  69.868  1.00  0.00    -0.218 A  
HETATM   10  C   UNL     1      -9.425   7.383  69.351  1.00  0.00    -0.155 A  
HETATM   11  N   UNL     1      -9.092   7.761  68.078  1.00  0.00    -0.129 NA 
HETATM   12  H   UNL     1      -8.456   7.249  67.465  1.00  0.00     0.000 HD 
HETATM   13  C   UNL     1      -9.739   8.928  67.743  1.00  0.00    -0.160 A  
HETATM   14  C   UNL     1     -10.494   9.311  68.853  1.00  0.00    -0.235 A  
HETATM   15  C   UNL     1     -11.241  10.508  68.776  1.00  0.00    -0.317 A  
HETATM   16  C   UNL     1     -11.215  11.247  67.592  1.00  0.00    -0.292 A  
HETATM   17  C   UNL     1     -10.461  10.840  66.500  1.00  0.00    -0.299 A  
HETATM   18  O   UNL     1     -11.931  12.402  67.467  1.00  0.00    -0.482 OA 
HETATM   19  C   UNL     1      -9.699   9.670  66.557  1.00  0.00    -0.272 A  
HETATM   20  H   UNL     1     -11.913  12.905  66.661  1.00  0.00     0.000 HD 
ENDBRANCH   8   9
ENDBRANCH   2   8
TORSDOF 2
ENDMDL
MODEL      171
REMARK 921   NORMALIZED FREE ENERGY PREDICTED BY IDOCK:   -3.78 KCAL/MOL
REMARK 922        TOTAL FREE ENERGY PREDICTED BY IDOCK:   -4.52 KCAL/MOL
REMARK 923 INTER-LIGAND FREE ENERGY PREDICTED BY IDOCK:   -4.59 KCAL/MOL
REMARK 924 INTRA-LIGAND FREE ENERGY PREDICTED BY IDOCK:    0.07 KCAL/MOL
REMARK 927      BINDING AFFINITY PREDICTED BY RF-SCORE:    0.00 PKD
ROOT
HETATM    1  N   UNL     1     -10.453   8.184  69.280  1.00  0.00    -0.222 NA 
HETATM    2  CA  UNL     1     -10.535   9.017  70.529  1.00  0.00    -0.223 C  
HETATM    3  H1  UNL     1      -9.514   8.117  68.889  1.00  0.00     0.000 HD 
HETATM    4  H2  UNL     1     -11.110   8.524  68.578  1.00  0.00     0.000 HD 
HETATM    5  OXT UNL     1      -9.512   8.744  72.744  1.00  0.00    -0.236 OA 
HETATM    6  C   UNL     1      -9.612   8.385  71.582  1.00  0.00    -0.221 C  
HETATM    7  O   UNL     1      -8.903   7.347  71.059  1.00  0.00    -0.141 OA 
ENDROOT
BRANCH   2   8
HETATM    8  C   UNL     1     -11.951   9.119  71.118  1.00  0.00    -0.374 C  
BRANCH   8   9
HETATM    9  C   UNL     1     -12.416  10.524  71.353  1.00  0.00    -0.516 A  
HETATM   10  C   UNL     1     -13.329  10.933  72.306  1.00  0.00    -0.008 A  
HETATM   11  N   UNL     1     -13.507  12.285  72.183  1.00  0.00    -0.504 NA 
HETATM   12  H   UNL     1     -14.132  12.846  72.762  1.00  0.00     0.000 HD 
HETATM   13  C   UNL     1     -12.722  12.778  71.166  1.00  0.00    -0.263 A  
HETATM   14  C   UNL     1     -12.036  11.693  70.615  1.00  0.00    -0.432 A  
HETATM   15  C   UNL     1     -11.172  11.930  69.522  1.00  0.00    -0.237 A  
HETATM   16  C   UNL     1     -11.020  13.236  69.052  1.00  0.00    -0.206 A  
HETATM   17  C   UNL     1     -11.708  14.297  69.622  1.00  0.00    -0.362 A  
HETATM   18  O   UNL     1     -10.186  13.514  68.007  1.00  0.00    -0.230 OA 
HETATM   19  C   UNL     1     -12.582  14.086  70.692  1.00  0.00    -0.414 A  
HETATM   20  H   UNL     1     -10.082  14.403  67.687  1.00  0.00     0.000 HD 
ENDBRANCH   8   9
ENDBRANCH   2   8
TORSDOF 2
ENDMDL
MODEL      172
REMARK 921   NORMALIZED FREE ENERGY PREDICTED BY IDOCK:   -3.78 KCAL/MOL
REMARK 922        TOTAL FREE ENERGY PREDICTED BY IDOCK:   -4.52 KCAL/MOL
REMARK 923 INTER-LIGAND FREE ENERGY PREDICTED BY IDOCK:   -4.41 KCAL/MOL
REMARK 924 INTRA-LIGAND FREE ENERGY PREDICTED BY IDOCK:   -0.10 KCAL/MOL
REMARK 927      BINDING AFFINITY PREDICTED BY RF-SCORE:    0.00 PKD
ROOT
HETATM    1  N   UNL     1     -11.406  13.761  69.834  1.00  0.00    -0.469 NA 
HETATM    2  CA  UNL     1     -11.996  13.580  68.463  1.00  0.00    -0.344 C  
HETATM    3  H1  UNL     1     -11.723  13.071  70.515  1.00  0.00     0.000 HD 
HETATM    4  H2  UNL     1     -11.575  14.707  70.176  1.00  0.00     0.000 HD 
HETATM    5  OXT UNL     1     -11.832  11.741  66.844  1.00  0.00    -0.591 OA 
HETATM    6  C   UNL     1     -11.607  12.181  67.960  1.00  0.00    -0.348 C  
HETATM    7  O   UNL     1     -10.959  11.472  68.924  1.00  0.00    -0.205 OA 
ENDROOT
BRANCH   2   8
HETATM    8  C   UNL     1     -11.519  14.619  67.437  1.00  0.00    -0.384 C  
BRANCH   8   9
HETATM    9  C   UNL     1     -10.525  15.603  67.978  1.00  0.00    -0.263 A  
HETATM   10  C   UNL     1     -10.758  16.940  68.234  1.00  0.00    -0.377 A  
HETATM   11  N   UNL     1      -9.597  17.501  68.694  1.00  0.00    -0.298 NA 
HETATM   12  H   UNL     1      -9.486  18.481  68.956  1.00  0.00     0.000 HD 
HETATM   13  C   UNL     1      -8.601  16.554  68.751  1.00  0.00    -0.262 A  
HETATM   14  C   UNL     1      -9.149  15.353  68.293  1.00  0.00    -0.187 A  
HETATM   15  C   UNL     1      -8.314  14.216  68.226  1.00  0.00    -0.157 A  
HETATM   16  C   UNL     1      -6.985  14.327  68.640  1.00  0.00    -0.105 A  
HETATM   17  C   UNL     1      -6.467  15.530  69.098  1.00  0.00    -0.128 A  
HETATM   18  O   UNL     1      -6.145  13.251  68.606  1.00  0.00    -0.076 OA 
HETATM   19  C   UNL     1      -7.267  16.674  69.156  1.00  0.00    -0.220 A  
HETATM   20  H   UNL     1      -5.241  13.327  68.888  1.00  0.00     0.000 HD 
ENDBRANCH   8   9
ENDBRANCH   2   8
TORSDOF 2
ENDMDL
MODEL      173
REMARK 921   NORMALIZED FREE ENERGY PREDICTED BY IDOCK:   -3.77 KCAL/MOL
REMARK 922        TOTAL FREE ENERGY PREDICTED BY IDOCK:   -4.51 KCAL/MOL
REMARK 923 INTER-LIGAND FREE ENERGY PREDICTED BY IDOCK:   -5.02 KCAL/MOL
REMARK 924 INTRA-LIGAND FREE ENERGY PREDICTED BY IDOCK:    0.51 KCAL/MOL
REMARK 927      BINDING AFFINITY PREDICTED BY RF-SCORE:    0.00 PKD
ROOT
HETATM    1  N   UNL     1     -10.517   7.831  73.099  1.00  0.00    -0.360 NA 
HETATM    2  CA  UNL     1     -11.864   8.237  72.569  1.00  0.00    -0.373 C  
HETATM    3  H1  UNL     1     -10.532   6.973  73.651  1.00  0.00     0.000 HD 
HETATM    4  H2  UNL     1     -10.097   8.593  73.632  1.00  0.00     0.000 HD 
HETATM    5  OXT UNL     1     -13.409   7.132  71.014  1.00  0.00    -0.270 OA 
HETATM    6  C   UNL     1     -12.390   7.097  71.685  1.00  0.00    -0.362 C  
HETATM    7  O   UNL     1     -11.565   6.016  71.729  1.00  0.00    -0.287 OA 
ENDROOT
BRANCH   2   8
HETATM    8  C   UNL     1     -11.843   9.530  71.739  1.00  0.00    -0.430 C  
BRANCH   8   9
HETATM    9  C   UNL     1     -10.703   9.616  70.769  1.00  0.00    -0.401 A  
HETATM   10  C   UNL     1      -9.435   9.102  70.954  1.00  0.00    -0.276 A  
HETATM   11  N   UNL     1      -8.678   9.410  69.855  1.00  0.00    -0.178 NA 
HETATM   12  H   UNL     1      -7.699   9.153  69.730  1.00  0.00     0.000 HD 
HETATM   13  C   UNL     1      -9.429  10.116  68.943  1.00  0.00    -0.182 A  
HETATM   14  C   UNL     1     -10.702  10.275  69.496  1.00  0.00    -0.280 A  
HETATM   15  C   UNL     1     -11.667  10.999  68.761  1.00  0.00    -0.383 A  
HETATM   16  C   UNL     1     -11.322  11.506  67.506  1.00  0.00    -0.299 A  
HETATM   17  C   UNL     1     -10.052  11.328  66.977  1.00  0.00    -0.238 A  
HETATM   18  O   UNL     1     -12.226  12.199  66.754  1.00  0.00    -0.553 OA 
HETATM   19  C   UNL     1      -9.073  10.631  67.692  1.00  0.00    -0.145 A  
HETATM   20  H   UNL     1     -11.990  12.544  65.901  1.00  0.00     0.000 HD 
ENDBRANCH   8   9
ENDBRANCH   2   8
TORSDOF 2
ENDMDL
MODEL      174
REMARK 921   NORMALIZED FREE ENERGY PREDICTED BY IDOCK:   -3.75 KCAL/MOL
REMARK 922        TOTAL FREE ENERGY PREDICTED BY IDOCK:   -4.48 KCAL/MOL
REMARK 923 INTER-LIGAND FREE ENERGY PREDICTED BY IDOCK:   -4.27 KCAL/MOL
REMARK 924 INTRA-LIGAND FREE ENERGY PREDICTED BY IDOCK:   -0.21 KCAL/MOL
REMARK 927      BINDING AFFINITY PREDICTED BY RF-SCORE:    0.00 PKD
ROOT
HETATM    1  N   UNL     1     -10.880  12.390  69.021  1.00  0.00    -0.374 NA 
HETATM    2  CA  UNL     1      -9.914  12.237  67.879  1.00  0.00    -0.202 C  
HETATM    3  H1  UNL     1     -11.482  11.580  69.164  1.00  0.00     0.000 HD 
HETATM    4  H2  UNL     1     -11.438  13.237  68.907  1.00  0.00     0.000 HD 
HETATM    5  OXT UNL     1      -8.071  10.660  67.500  1.00  0.00    -0.110 OA 
HETATM    6  C   UNL     1      -9.029  11.015  68.168  1.00  0.00    -0.152 C  
HETATM    7  O   UNL     1      -9.440  10.359  69.287  1.00  0.00    -0.201 OA 
ENDROOT
BRANCH   2   8
HETATM    8  C   UNL     1      -9.006  13.458  67.662  1.00  0.00    -0.202 C  
BRANCH   8   9
HETATM    9  C   UNL     1      -9.656  14.576  66.903  1.00  0.00    -0.258 A  
HETATM   10  C   UNL     1     -10.527  14.442  65.840  1.00  0.00    -0.308 A  
HETATM   11  N   UNL     1     -10.876  15.693  65.406  1.00  0.00    -0.377 NA 
HETATM   12  H   UNL     1     -11.507  15.885  64.628  1.00  0.00     0.000 HD 
HETATM   13  C   UNL     1     -10.254  16.653  66.170  1.00  0.00    -0.348 A  
HETATM   14  C   UNL     1      -9.467  15.982  67.110  1.00  0.00    -0.225 A  
HETATM   15  C   UNL     1      -8.695  16.750  68.010  1.00  0.00    -0.212 A  
HETATM   16  C   UNL     1      -8.764  18.143  67.942  1.00  0.00    -0.261 A  
HETATM   17  C   UNL     1      -9.559  18.785  67.003  1.00  0.00    -0.329 A  
HETATM   18  O   UNL     1      -8.046  18.926  68.800  1.00  0.00    -0.344 OA 
HETATM   19  C   UNL     1     -10.318  18.048  66.090  1.00  0.00    -0.368 A  
HETATM   20  H   UNL     1      -8.093  19.874  68.753  1.00  0.00     0.000 HD 
ENDBRANCH   8   9
ENDBRANCH   2   8
TORSDOF 2
ENDMDL
MODEL      175
REMARK 921   NORMALIZED FREE ENERGY PREDICTED BY IDOCK:   -3.75 KCAL/MOL
REMARK 922        TOTAL FREE ENERGY PREDICTED BY IDOCK:   -4.48 KCAL/MOL
REMARK 923 INTER-LIGAND FREE ENERGY PREDICTED BY IDOCK:   -4.66 KCAL/MOL
REMARK 924 INTRA-LIGAND FREE ENERGY PREDICTED BY IDOCK:    0.18 KCAL/MOL
REMARK 927      BINDING AFFINITY PREDICTED BY RF-SCORE:    0.00 PKD
ROOT
HETATM    1  N   UNL     1      -8.571  10.676  65.524  1.00  0.00    -0.183 NA 
HETATM    2  CA  UNL     1      -9.762  10.572  66.436  1.00  0.00    -0.198 C  
HETATM    3  H1  UNL     1      -8.786  10.499  64.543  1.00  0.00     0.000 HD 
HETATM    4  H2  UNL     1      -7.820  10.065  65.844  1.00  0.00     0.000 HD 
HETATM    5  OXT UNL     1     -11.853  11.854  66.545  1.00  0.00    -0.579 OA 
HETATM    6  C   UNL     1     -10.807  11.598  65.970  1.00  0.00    -0.289 C  
HETATM    7  O   UNL     1     -10.421  12.209  64.818  1.00  0.00    -0.273 OA 
ENDROOT
BRANCH   2   8
HETATM    8  C   UNL     1      -9.440  10.839  67.915  1.00  0.00    -0.165 C  
BRANCH   8   9
HETATM    9  C   UNL     1      -9.867   9.741  68.842  1.00  0.00    -0.177 A  
HETATM   10  C   UNL     1      -9.919   9.812  70.220  1.00  0.00    -0.253 A  
HETATM   11  N   UNL     1     -10.332   8.598  70.700  1.00  0.00    -0.196 NA 
HETATM   12  H   UNL     1     -10.454   8.371  71.688  1.00  0.00     0.000 HD 
HETATM   13  C   UNL     1     -10.560   7.726  69.660  1.00  0.00    -0.242 A  
HETATM   14  C   UNL     1     -10.261   8.411  68.479  1.00  0.00    -0.228 A  
HETATM   15  C   UNL     1     -10.389   7.721  67.253  1.00  0.00    -0.371 A  
HETATM   16  C   UNL     1     -10.827   6.396  67.265  1.00  0.00    -0.385 A  
HETATM   17  C   UNL     1     -11.124   5.741  68.451  1.00  0.00    -0.019 A  
HETATM   18  O   UNL     1     -10.978   5.694  66.103  1.00  0.00    -0.689 OA 
HETATM   19  C   UNL     1     -10.989   6.395  69.679  1.00  0.00    -0.420 A  
HETATM   20  H   UNL     1     -11.277   4.792  66.112  1.00  0.00     0.000 HD 
ENDBRANCH   8   9
ENDBRANCH   2   8
TORSDOF 2
ENDMDL
MODEL      176
REMARK 921   NORMALIZED FREE ENERGY PREDICTED BY IDOCK:   -3.74 KCAL/MOL
REMARK 922        TOTAL FREE ENERGY PREDICTED BY IDOCK:   -4.48 KCAL/MOL
REMARK 923 INTER-LIGAND FREE ENERGY PREDICTED BY IDOCK:   -4.98 KCAL/MOL
REMARK 924 INTRA-LIGAND FREE ENERGY PREDICTED BY IDOCK:    0.51 KCAL/MOL
REMARK 927      BINDING AFFINITY PREDICTED BY RF-SCORE:    0.00 PKD
ROOT
HETATM    1  N   UNL     1      -9.086  12.077  65.351  1.00  0.00    -0.417 NA 
HETATM    2  CA  UNL     1      -8.969  10.611  65.038  1.00  0.00    -0.199 C  
HETATM    3  H1  UNL     1      -8.404  12.659  64.865  1.00  0.00     0.000 HD 
HETATM    4  H2  UNL     1      -9.037  12.233  66.358  1.00  0.00     0.000 HD 
HETATM    5  OXT UNL     1      -9.235   9.363  62.940  1.00  0.00    -0.187 OA 
HETATM    6  C   UNL     1      -9.166  10.433  63.525  1.00  0.00    -0.282 C  
HETATM    7  O   UNL     1      -9.264  11.634  62.893  1.00  0.00    -0.312 OA 
ENDROOT
BRANCH   2   8
HETATM    8  C   UNL     1      -9.996   9.733  65.771  1.00  0.00    -0.349 C  
BRANCH   8   9
HETATM    9  C   UNL     1     -10.744  10.445  66.858  1.00  0.00    -0.272 A  
HETATM   10  C   UNL     1     -11.437  11.633  66.727  1.00  0.00    -0.225 A  
HETATM   11  N   UNL     1     -11.958  11.966  67.949  1.00  0.00    -0.577 NA 
HETATM   12  H   UNL     1     -12.514  12.801  68.138  1.00  0.00     0.000 HD 
HETATM   13  C   UNL     1     -11.626  11.014  68.884  1.00  0.00    -0.314 A  
HETATM   14  C   UNL     1     -10.850  10.052  68.233  1.00  0.00    -0.286 A  
HETATM   15  C   UNL     1     -10.352   8.967  68.987  1.00  0.00    -0.226 A  
HETATM   16  C   UNL     1     -10.671   8.883  70.344  1.00  0.00    -0.227 A  
HETATM   17  C   UNL     1     -11.450   9.848  70.966  1.00  0.00    -0.466 A  
HETATM   18  O   UNL     1     -10.224   7.845  71.109  1.00  0.00    -0.194 OA 
HETATM   19  C   UNL     1     -11.940  10.941  70.246  1.00  0.00    -0.448 A  
HETATM   20  H   UNL     1     -10.442   7.789  72.033  1.00  0.00     0.000 HD 
ENDBRANCH   8   9
ENDBRANCH   2   8
TORSDOF 2
ENDMDL
MODEL      177
REMARK 921   NORMALIZED FREE ENERGY PREDICTED BY IDOCK:   -3.74 KCAL/MOL
REMARK 922        TOTAL FREE ENERGY PREDICTED BY IDOCK:   -4.48 KCAL/MOL
REMARK 923 INTER-LIGAND FREE ENERGY PREDICTED BY IDOCK:   -4.26 KCAL/MOL
REMARK 924 INTRA-LIGAND FREE ENERGY PREDICTED BY IDOCK:   -0.21 KCAL/MOL
REMARK 927      BINDING AFFINITY PREDICTED BY RF-SCORE:    0.00 PKD
ROOT
HETATM    1  N   UNL     1     -10.462  12.809  69.252  1.00  0.00    -0.419 NA 
HETATM    2  CA  UNL     1     -10.639  12.168  67.903  1.00  0.00    -0.207 C  
HETATM    3  H1  UNL     1     -11.273  12.715  69.863  1.00  0.00     0.000 HD 
HETATM    4  H2  UNL     1     -10.200  13.790  69.152  1.00  0.00     0.000 HD 
HETATM    5  OXT UNL     1     -11.009   9.834  67.239  1.00  0.00    -0.235 OA 
HETATM    6  C   UNL     1     -10.917  10.673  68.121  1.00  0.00    -0.269 C  
HETATM    7  O   UNL     1     -11.044  10.381  69.444  1.00  0.00    -0.224 OA 
ENDROOT
BRANCH   2   8
HETATM    8  C   UNL     1      -9.418  12.310  66.981  1.00  0.00    -0.204 C  
BRANCH   8   9
HETATM    9  C   UNL     1      -8.704  13.622  67.108  1.00  0.00    -0.224 A  
HETATM   10  C   UNL     1      -7.517  13.842  67.780  1.00  0.00    -0.167 A  
HETATM   11  N   UNL     1      -7.209  15.173  67.688  1.00  0.00    -0.168 NA 
HETATM   12  H   UNL     1      -6.384  15.611  68.099  1.00  0.00     0.000 HD 
HETATM   13  C   UNL     1      -8.171  15.836  66.962  1.00  0.00    -0.228 A  
HETATM   14  C   UNL     1      -9.133  14.891  66.596  1.00  0.00    -0.309 A  
HETATM   15  C   UNL     1     -10.255  15.326  65.857  1.00  0.00    -0.353 A  
HETATM   16  C   UNL     1     -10.350  16.673  65.501  1.00  0.00    -0.247 A  
HETATM   17  C   UNL     1      -9.377  17.590  65.871  1.00  0.00     0.028 A  
HETATM   18  O   UNL     1     -11.409  17.135  64.775  1.00  0.00    -0.745 OA 
HETATM   19  C   UNL     1      -8.266  17.188  66.617  1.00  0.00    -0.291 A  
HETATM   20  H   UNL     1     -11.474  18.052  64.534  1.00  0.00     0.000 HD 
ENDBRANCH   8   9
ENDBRANCH   2   8
TORSDOF 2
ENDMDL
MODEL      178
REMARK 921   NORMALIZED FREE ENERGY PREDICTED BY IDOCK:   -3.74 KCAL/MOL
REMARK 922        TOTAL FREE ENERGY PREDICTED BY IDOCK:   -4.47 KCAL/MOL
REMARK 923 INTER-LIGAND FREE ENERGY PREDICTED BY IDOCK:   -4.35 KCAL/MOL
REMARK 924 INTRA-LIGAND FREE ENERGY PREDICTED BY IDOCK:   -0.12 KCAL/MOL
REMARK 927      BINDING AFFINITY PREDICTED BY RF-SCORE:    0.00 PKD
ROOT
HETATM    1  N   UNL     1     -12.090  10.724  68.818  1.00  0.00    -0.785 NA 
HETATM    2  CA  UNL     1     -10.955  10.376  67.896  1.00  0.00    -0.297 C  
HETATM    3  H1  UNL     1     -12.835  10.028  68.837  1.00  0.00     0.000 HD 
HETATM    4  H2  UNL     1     -12.465  11.646  68.594  1.00  0.00     0.000 HD 
HETATM    5  OXT UNL     1      -9.362   8.508  67.897  1.00  0.00    -0.135 OA 
HETATM    6  C   UNL     1     -10.361   9.037  68.358  1.00  0.00    -0.205 C  
HETATM    7  O   UNL     1     -11.092   8.495  69.371  1.00  0.00    -0.074 OA 
ENDROOT
BRANCH   2   8
HETATM    8  C   UNL     1      -9.831  11.425  67.867  1.00  0.00    -0.188 C  
BRANCH   8   9
HETATM    9  C   UNL     1     -10.164  12.656  67.079  1.00  0.00    -0.233 A  
HETATM   10  C   UNL     1     -11.262  12.828  66.260  1.00  0.00    -0.300 A  
HETATM   11  N   UNL     1     -11.193  14.076  65.700  1.00  0.00    -0.306 NA 
HETATM   12  H   UNL     1     -11.878  14.463  65.050  1.00  0.00     0.000 HD 
HETATM   13  C   UNL     1     -10.068  14.734  66.141  1.00  0.00    -0.296 A  
HETATM   14  C   UNL     1      -9.392  13.862  66.997  1.00  0.00    -0.255 A  
HETATM   15  C   UNL     1      -8.175  14.293  67.571  1.00  0.00    -0.201 A  
HETATM   16  C   UNL     1      -7.707  15.576  67.280  1.00  0.00    -0.212 A  
HETATM   17  C   UNL     1      -8.401  16.426  66.431  1.00  0.00    -0.363 A  
HETATM   18  O   UNL     1      -6.543  16.039  67.822  1.00  0.00    -0.127 OA 
HETATM   19  C   UNL     1      -9.599  16.017  65.837  1.00  0.00    -0.370 A  
HETATM   20  H   UNL     1      -6.225  16.913  67.623  1.00  0.00     0.000 HD 
ENDBRANCH   8   9
ENDBRANCH   2   8
TORSDOF 2
ENDMDL
MODEL      179
REMARK 921   NORMALIZED FREE ENERGY PREDICTED BY IDOCK:   -3.73 KCAL/MOL
REMARK 922        TOTAL FREE ENERGY PREDICTED BY IDOCK:   -4.47 KCAL/MOL
REMARK 923 INTER-LIGAND FREE ENERGY PREDICTED BY IDOCK:   -4.22 KCAL/MOL
REMARK 924 INTRA-LIGAND FREE ENERGY PREDICTED BY IDOCK:   -0.25 KCAL/MOL
REMARK 927      BINDING AFFINITY PREDICTED BY RF-SCORE:    0.00 PKD
ROOT
HETATM    1  N   UNL     1     -11.353   6.488  66.714  1.00  0.00    -0.800 NA 
HETATM    2  CA  UNL     1     -10.436   6.660  67.893  1.00  0.00    -0.219 C  
HETATM    3  H1  UNL     1     -11.048   6.985  65.877  1.00  0.00     0.000 HD 
HETATM    4  H2  UNL     1     -12.307   6.752  66.960  1.00  0.00     0.000 HD 
HETATM    5  OXT UNL     1      -8.088   6.033  68.241  1.00  0.00    -0.108 OA 
HETATM    6  C   UNL     1      -9.047   6.138  67.493  1.00  0.00    -0.109 C  
HETATM    7  O   UNL     1      -9.009   5.791  66.178  1.00  0.00    -0.142 OA 
ENDROOT
BRANCH   2   8
HETATM    8  C   UNL     1     -10.895   5.913  69.155  1.00  0.00    -0.406 C  
BRANCH   8   9
HETATM    9  C   UNL     1     -10.655   6.661  70.431  1.00  0.00    -0.266 A  
HETATM   10  C   UNL     1     -10.474   8.025  70.555  1.00  0.00    -0.214 A  
HETATM   11  N   UNL     1     -10.256   8.313  71.876  1.00  0.00    -0.222 NA 
HETATM   12  H   UNL     1     -10.089   9.248  72.249  1.00  0.00     0.000 HD 
HETATM   13  C   UNL     1     -10.296   7.162  72.628  1.00  0.00    -0.215 A  
HETATM   14  C   UNL     1     -10.530   6.104  71.747  1.00  0.00    -0.259 A  
HETATM   15  C   UNL     1     -10.589   4.793  72.271  1.00  0.00    -0.225 A  
HETATM   16  C   UNL     1     -10.436   4.608  73.646  1.00  0.00    -0.224 A  
HETATM   17  C   UNL     1     -10.212   5.677  74.502  1.00  0.00    -0.288 A  
HETATM   18  O   UNL     1     -10.500   3.361  74.199  1.00  0.00    -0.166 OA 
HETATM   19  C   UNL     1     -10.131   6.981  74.006  1.00  0.00    -0.355 A  
HETATM   20  H   UNL     1     -10.395   3.235  75.135  1.00  0.00     0.000 HD 
ENDBRANCH   8   9
ENDBRANCH   2   8
TORSDOF 2
ENDMDL
MODEL      180
REMARK 921   NORMALIZED FREE ENERGY PREDICTED BY IDOCK:   -3.72 KCAL/MOL
REMARK 922        TOTAL FREE ENERGY PREDICTED BY IDOCK:   -4.45 KCAL/MOL
REMARK 923 INTER-LIGAND FREE ENERGY PREDICTED BY IDOCK:   -4.24 KCAL/MOL
REMARK 924 INTRA-LIGAND FREE ENERGY PREDICTED BY IDOCK:   -0.22 KCAL/MOL
REMARK 927      BINDING AFFINITY PREDICTED BY RF-SCORE:    0.00 PKD
ROOT
HETATM    1  N   UNL     1     -12.030  10.344  69.432  1.00  0.00    -0.522 NA 
HETATM    2  CA  UNL     1     -10.838   9.684  70.067  1.00  0.00    -0.264 C  
HETATM    3  H1  UNL     1     -12.097  11.345  69.618  1.00  0.00     0.000 HD 
HETATM    4  H2  UNL     1     -12.891   9.870  69.705  1.00  0.00     0.000 HD 
HETATM    5  OXT UNL     1      -8.426  10.016  69.752  1.00  0.00    -0.178 OA 
HETATM    6  C   UNL     1      -9.573  10.367  69.525  1.00  0.00    -0.157 C  
HETATM    7  O   UNL     1      -9.885  11.432  68.738  1.00  0.00    -0.205 OA 
ENDROOT
BRANCH   2   8
HETATM    8  C   UNL     1     -10.738   8.176  69.787  1.00  0.00    -0.229 C  
BRANCH   8   9
HETATM    9  C   UNL     1     -11.302   7.312  70.875  1.00  0.00    -0.308 A  
HETATM   10  C   UNL     1     -12.623   7.265  71.275  1.00  0.00    -0.366 A  
HETATM   11  N   UNL     1     -12.729   6.376  72.311  1.00  0.00    -0.540 NA 
HETATM   12  H   UNL     1     -13.596   6.150  72.800  1.00  0.00     0.000 HD 
HETATM   13  C   UNL     1     -11.499   5.830  72.598  1.00  0.00    -0.287 A  
HETATM   14  C   UNL     1     -10.579   6.410  71.722  1.00  0.00    -0.256 A  
HETATM   15  C   UNL     1      -9.221   6.035  71.830  1.00  0.00    -0.151 A  
HETATM   16  C   UNL     1      -8.855   5.086  72.787  1.00  0.00    -0.121 A  
HETATM   17  C   UNL     1      -9.791   4.520  73.640  1.00  0.00    -0.163 A  
HETATM   18  O   UNL     1      -7.558   4.684  72.917  1.00  0.00    -0.083 OA 
HETATM   19  C   UNL     1     -11.137   4.887  73.566  1.00  0.00    -0.405 A  
HETATM   20  H   UNL     1      -7.309   4.038  73.569  1.00  0.00     0.000 HD 
ENDBRANCH   8   9
ENDBRANCH   2   8
TORSDOF 2
ENDMDL
MODEL      181
REMARK 921   NORMALIZED FREE ENERGY PREDICTED BY IDOCK:   -3.71 KCAL/MOL
REMARK 922        TOTAL FREE ENERGY PREDICTED BY IDOCK:   -4.44 KCAL/MOL
REMARK 923 INTER-LIGAND FREE ENERGY PREDICTED BY IDOCK:   -4.20 KCAL/MOL
REMARK 924 INTRA-LIGAND FREE ENERGY PREDICTED BY IDOCK:   -0.24 KCAL/MOL
REMARK 927      BINDING AFFINITY PREDICTED BY RF-SCORE:    0.00 PKD
ROOT
HETATM    1  N   UNL     1      -7.822   8.587  72.698  1.00  0.00    -0.336 NA 
HETATM    2  CA  UNL     1      -8.907   7.548  72.772  1.00  0.00    -0.145 C  
HETATM    3  H1  UNL     1      -7.423   8.832  73.604  1.00  0.00     0.000 HD 
HETATM    4  H2  UNL     1      -8.157   9.421  72.215  1.00  0.00     0.000 HD 
HETATM    5  OXT UNL     1      -8.881   5.210  73.520  1.00  0.00    -0.116 OA 
HETATM    6  C   UNL     1      -8.308   6.281  73.402  1.00  0.00    -0.114 C  
HETATM    7  O   UNL     1      -7.030   6.493  73.819  1.00  0.00    -0.080 OA 
ENDROOT
BRANCH   2   8
HETATM    8  C   UNL     1      -9.510   7.178  71.408  1.00  0.00    -0.162 C  
BRANCH   8   9
HETATM    9  C   UNL     1      -9.758   8.352  70.509  1.00  0.00    -0.192 A  
HETATM   10  C   UNL     1      -9.026   8.690  69.388  1.00  0.00    -0.145 A  
HETATM   11  N   UNL     1      -9.550   9.839  68.859  1.00  0.00    -0.161 NA 
HETATM   12  H   UNL     1      -9.197  10.312  68.027  1.00  0.00     0.000 HD 
HETATM   13  C   UNL     1     -10.620  10.264  69.611  1.00  0.00    -0.256 A  
HETATM   14  C   UNL     1     -10.767   9.359  70.665  1.00  0.00    -0.353 A  
HETATM   15  C   UNL     1     -11.792   9.588  71.609  1.00  0.00    -0.468 A  
HETATM   16  C   UNL     1     -12.631  10.691  71.442  1.00  0.00    -0.421 A  
HETATM   17  C   UNL     1     -12.469  11.572  70.383  1.00  0.00    -0.324 A  
HETATM   18  O   UNL     1     -13.644  10.944  72.322  1.00  0.00    -0.546 OA 
HETATM   19  C   UNL     1     -11.451  11.378  69.445  1.00  0.00    -0.378 A  
HETATM   20  H   UNL     1     -14.215  11.696  72.209  1.00  0.00     0.000 HD 
ENDBRANCH   8   9
ENDBRANCH   2   8
TORSDOF 2
ENDMDL
MODEL      182
REMARK 921   NORMALIZED FREE ENERGY PREDICTED BY IDOCK:   -3.71 KCAL/MOL
REMARK 922        TOTAL FREE ENERGY PREDICTED BY IDOCK:   -4.44 KCAL/MOL
REMARK 923 INTER-LIGAND FREE ENERGY PREDICTED BY IDOCK:   -4.46 KCAL/MOL
REMARK 924 INTRA-LIGAND FREE ENERGY PREDICTED BY IDOCK:    0.03 KCAL/MOL
REMARK 927      BINDING AFFINITY PREDICTED BY RF-SCORE:    0.00 PKD
ROOT
HETATM    1  N   UNL     1     -10.959  15.168  72.003  1.00  0.00    -0.382 NA 
HETATM    2  CA  UNL     1     -12.059  15.796  71.192  1.00  0.00    -0.427 C  
HETATM    3  H1  UNL     1     -11.144  15.149  73.005  1.00  0.00     0.000 HD 
HETATM    4  H2  UNL     1     -10.067  15.625  71.812  1.00  0.00     0.000 HD 
HETATM    5  OXT UNL     1     -14.407  15.163  70.859  1.00  0.00    -0.248 OA 
HETATM    6  C   UNL     1     -13.345  14.992  71.436  1.00  0.00    -0.436 C  
HETATM    7  O   UNL     1     -13.160  14.039  72.389  1.00  0.00    -0.405 OA 
ENDROOT
BRANCH   2   8
HETATM    8  C   UNL     1     -11.780  15.826  69.681  1.00  0.00    -0.363 C  
BRANCH   8   9
HETATM    9  C   UNL     1     -11.364  14.504  69.109  1.00  0.00    -0.305 A  
HETATM   10  C   UNL     1     -12.136  13.361  69.053  1.00  0.00    -0.259 A  
HETATM   11  N   UNL     1     -11.391  12.363  68.484  1.00  0.00    -0.268 NA 
HETATM   12  H   UNL     1     -11.717  11.409  68.325  1.00  0.00     0.000 HD 
HETATM   13  C   UNL     1     -10.139  12.831  68.158  1.00  0.00    -0.239 A  
HETATM   14  C   UNL     1     -10.086  14.170  68.552  1.00  0.00    -0.243 A  
HETATM   15  C   UNL     1      -8.882  14.883  68.350  1.00  0.00    -0.178 A  
HETATM   16  C   UNL     1      -7.805  14.232  67.746  1.00  0.00    -0.165 A  
HETATM   17  C   UNL     1      -7.886  12.903  67.357  1.00  0.00    -0.170 A  
HETATM   18  O   UNL     1      -6.628  14.885  67.518  1.00  0.00    -0.198 OA 
HETATM   19  C   UNL     1      -9.058  12.171  67.562  1.00  0.00    -0.180 A  
HETATM   20  H   UNL     1      -5.894  14.442  67.107  1.00  0.00     0.000 HD 
ENDBRANCH   8   9
ENDBRANCH   2   8
TORSDOF 2
ENDMDL
MODEL      183
REMARK 921   NORMALIZED FREE ENERGY PREDICTED BY IDOCK:   -3.71 KCAL/MOL
REMARK 922        TOTAL FREE ENERGY PREDICTED BY IDOCK:   -4.44 KCAL/MOL
REMARK 923 INTER-LIGAND FREE ENERGY PREDICTED BY IDOCK:   -4.30 KCAL/MOL
REMARK 924 INTRA-LIGAND FREE ENERGY PREDICTED BY IDOCK:   -0.14 KCAL/MOL
REMARK 927      BINDING AFFINITY PREDICTED BY RF-SCORE:    0.00 PKD
ROOT
HETATM    1  N   UNL     1      -9.442  10.450  69.643  1.00  0.00    -0.401 NA 
HETATM    2  CA  UNL     1      -8.978   9.673  68.443  1.00  0.00    -0.123 C  
HETATM    3  H1  UNL     1      -9.636  11.432  69.449  1.00  0.00     0.000 HD 
HETATM    4  H2  UNL     1      -8.774  10.360  70.409  1.00  0.00     0.000 HD 
HETATM    5  OXT UNL     1     -10.076   9.150  66.310  1.00  0.00    -0.286 OA 
HETATM    6  C   UNL     1     -10.077   9.752  67.372  1.00  0.00    -0.208 C  
HETATM    7  O   UNL     1     -11.081  10.586  67.755  1.00  0.00    -0.290 OA 
ENDROOT
BRANCH   2   8
HETATM    8  C   UNL     1      -8.685   8.192  68.735  1.00  0.00    -0.138 C  
BRANCH   8   9
HETATM    9  C   UNL     1      -9.797   7.476  69.441  1.00  0.00    -0.166 A  
HETATM   10  C   UNL     1     -10.888   6.875  68.844  1.00  0.00    -0.207 A  
HETATM   11  N   UNL     1     -11.686   6.355  69.828  1.00  0.00    -0.580 NA 
HETATM   12  H   UNL     1     -12.563   5.858  69.666  1.00  0.00     0.000 HD 
HETATM   13  C   UNL     1     -11.136   6.598  71.066  1.00  0.00    -0.282 A  
HETATM   14  C   UNL     1      -9.956   7.314  70.857  1.00  0.00    -0.186 A  
HETATM   15  C   UNL     1      -9.205   7.716  71.984  1.00  0.00    -0.176 A  
HETATM   16  C   UNL     1      -9.657   7.363  73.258  1.00  0.00    -0.232 A  
HETATM   17  C   UNL     1     -10.830   6.645  73.438  1.00  0.00    -0.264 A  
HETATM   18  O   UNL     1      -8.957   7.718  74.375  1.00  0.00    -0.437 OA 
HETATM   19  C   UNL     1     -11.600   6.251  72.339  1.00  0.00    -0.325 A  
HETATM   20  H   UNL     1      -9.265   7.478  75.241  1.00  0.00     0.000 HD 
ENDBRANCH   8   9
ENDBRANCH   2   8
TORSDOF 2
ENDMDL
MODEL      184
REMARK 921   NORMALIZED FREE ENERGY PREDICTED BY IDOCK:   -3.71 KCAL/MOL
REMARK 922        TOTAL FREE ENERGY PREDICTED BY IDOCK:   -4.44 KCAL/MOL
REMARK 923 INTER-LIGAND FREE ENERGY PREDICTED BY IDOCK:   -4.18 KCAL/MOL
REMARK 924 INTRA-LIGAND FREE ENERGY PREDICTED BY IDOCK:   -0.25 KCAL/MOL
REMARK 927      BINDING AFFINITY PREDICTED BY RF-SCORE:    0.00 PKD
ROOT
HETATM    1  N   UNL     1      -7.770  10.142  67.606  1.00  0.00    -0.091 NA 
HETATM    2  CA  UNL     1      -8.696  10.681  66.550  1.00  0.00    -0.146 C  
HETATM    3  H1  UNL     1      -6.841  10.563  67.594  1.00  0.00     0.000 HD 
HETATM    4  H2  UNL     1      -7.705   9.127  67.541  1.00  0.00     0.000 HD 
HETATM    5  OXT UNL     1      -9.597  12.932  66.162  1.00  0.00    -0.260 OA 
HETATM    6  C   UNL     1      -8.841  12.194  66.774  1.00  0.00    -0.198 C  
HETATM    7  O   UNL     1      -8.014  12.629  67.763  1.00  0.00    -0.133 OA 
ENDROOT
BRANCH   2   8
HETATM    8  C   UNL     1     -10.096  10.048  66.567  1.00  0.00    -0.296 C  
BRANCH   8   9
HETATM    9  C   UNL     1     -10.554   9.611  67.926  1.00  0.00    -0.308 A  
HETATM   10  C   UNL     1     -10.535   8.321  68.417  1.00  0.00    -0.162 A  
HETATM   11  N   UNL     1     -11.059   8.332  69.682  1.00  0.00    -0.439 NA 
HETATM   12  H   UNL     1     -11.167   7.509  70.276  1.00  0.00     0.000 HD 
HETATM   13  C   UNL     1     -11.421   9.611  70.036  1.00  0.00    -0.145 A  
HETATM   14  C   UNL     1     -11.130  10.436  68.948  1.00  0.00    -0.296 A  
HETATM   15  C   UNL     1     -11.436  11.812  69.046  1.00  0.00    -0.358 A  
HETATM   16  C   UNL     1     -11.993  12.297  70.231  1.00  0.00    -0.290 A  
HETATM   17  C   UNL     1     -12.266  11.457  71.301  1.00  0.00    -0.240 A  
HETATM   18  O   UNL     1     -12.292  13.621  70.377  1.00  0.00    -0.339 OA 
HETATM   19  C   UNL     1     -11.989  10.090  71.222  1.00  0.00    -0.483 A  
HETATM   20  H   UNL     1     -12.672  13.951  71.184  1.00  0.00     0.000 HD 
ENDBRANCH   8   9
ENDBRANCH   2   8
TORSDOF 2
ENDMDL
MODEL      185
REMARK 921   NORMALIZED FREE ENERGY PREDICTED BY IDOCK:   -3.70 KCAL/MOL
REMARK 922        TOTAL FREE ENERGY PREDICTED BY IDOCK:   -4.43 KCAL/MOL
REMARK 923 INTER-LIGAND FREE ENERGY PREDICTED BY IDOCK:   -4.32 KCAL/MOL
REMARK 924 INTRA-LIGAND FREE ENERGY PREDICTED BY IDOCK:   -0.12 KCAL/MOL
REMARK 927      BINDING AFFINITY PREDICTED BY RF-SCORE:    0.00 PKD
ROOT
HETATM    1  N   UNL     1     -10.458  12.018  65.993  1.00  0.00    -0.241 NA 
HETATM    2  CA  UNL     1     -10.505  12.834  67.255  1.00  0.00    -0.232 C  
HETATM    3  H1  UNL     1     -10.184  11.046  66.139  1.00  0.00     0.000 HD 
HETATM    4  H2  UNL     1      -9.854  12.461  65.301  1.00  0.00     0.000 HD 
HETATM    5  OXT UNL     1     -11.880  12.634  69.279  1.00  0.00    -0.301 OA 
HETATM    6  C   UNL     1     -11.518  12.178  68.206  1.00  0.00    -0.305 C  
HETATM    7  O   UNL     1     -11.982  11.003  67.701  1.00  0.00    -0.583 OA 
ENDROOT
BRANCH   2   8
HETATM    8  C   UNL     1     -10.918  14.298  67.035  1.00  0.00    -0.305 C  
BRANCH   8   9
HETATM    9  C   UNL     1      -9.765  15.241  66.869  1.00  0.00    -0.243 A  
HETATM   10  C   UNL     1      -9.597  16.151  65.844  1.00  0.00    -0.324 A  
HETATM   11  N   UNL     1      -8.408  16.803  66.036  1.00  0.00    -0.473 NA 
HETATM   12  H   UNL     1      -8.034  17.528  65.422  1.00  0.00     0.000 HD 
HETATM   13  C   UNL     1      -7.790  16.342  67.175  1.00  0.00    -0.191 A  
HETATM   14  C   UNL     1      -8.610  15.348  67.713  1.00  0.00    -0.162 A  
HETATM   15  C   UNL     1      -8.184  14.686  68.886  1.00  0.00    -0.145 A  
HETATM   16  C   UNL     1      -6.975  15.065  69.474  1.00  0.00    -0.187 A  
HETATM   17  C   UNL     1      -6.181  16.061  68.923  1.00  0.00    -0.126 A  
HETATM   18  O   UNL     1      -6.529  14.463  70.615  1.00  0.00    -0.336 OA 
HETATM   19  C   UNL     1      -6.572  16.717  67.753  1.00  0.00    -0.161 A  
HETATM   20  H   UNL     1      -5.706  14.721  71.015  1.00  0.00     0.000 HD 
ENDBRANCH   8   9
ENDBRANCH   2   8
TORSDOF 2
ENDMDL
MODEL      186
REMARK 921   NORMALIZED FREE ENERGY PREDICTED BY IDOCK:   -3.70 KCAL/MOL
REMARK 922        TOTAL FREE ENERGY PREDICTED BY IDOCK:   -4.43 KCAL/MOL
REMARK 923 INTER-LIGAND FREE ENERGY PREDICTED BY IDOCK:   -4.31 KCAL/MOL
REMARK 924 INTRA-LIGAND FREE ENERGY PREDICTED BY IDOCK:   -0.12 KCAL/MOL
REMARK 927      BINDING AFFINITY PREDICTED BY RF-SCORE:    0.00 PKD
ROOT
HETATM    1  N   UNL     1     -10.586  12.166  63.629  1.00  0.00    -0.425 NA 
HETATM    2  CA  UNL     1     -11.767  12.103  64.557  1.00  0.00    -0.338 C  
HETATM    3  H1  UNL     1     -10.827  12.420  62.670  1.00  0.00     0.000 HD 
HETATM    4  H2  UNL     1     -10.067  11.289  63.648  1.00  0.00     0.000 HD 
HETATM    5  OXT UNL     1     -13.361  13.819  65.294  1.00  0.00    -0.710 OA 
HETATM    6  C   UNL     1     -12.435  13.486  64.571  1.00  0.00    -0.291 C  
HETATM    7  O   UNL     1     -11.858  14.323  63.666  1.00  0.00    -0.180 OA 
ENDROOT
BRANCH   2   8
HETATM    8  C   UNL     1     -11.405  11.720  66.001  1.00  0.00    -0.335 C  
BRANCH   8   9
HETATM    9  C   UNL     1      -9.935  11.543  66.236  1.00  0.00    -0.252 A  
HETATM   10  C   UNL     1      -9.069  12.495  66.736  1.00  0.00    -0.214 A  
HETATM   11  N   UNL     1      -7.810  11.957  66.776  1.00  0.00    -0.321 NA 
HETATM   12  H   UNL     1      -6.976  12.447  67.101  1.00  0.00     0.000 HD 
HETATM   13  C   UNL     1      -7.832  10.661  66.316  1.00  0.00    -0.150 A  
HETATM   14  C   UNL     1      -9.151  10.376  65.954  1.00  0.00    -0.192 A  
HETATM   15  C   UNL     1      -9.440   9.101  65.419  1.00  0.00    -0.231 A  
HETATM   16  C   UNL     1      -8.407   8.170  65.294  1.00  0.00    -0.152 A  
HETATM   17  C   UNL     1      -7.106   8.475  65.667  1.00  0.00    -0.079 A  
HETATM   18  O   UNL     1      -8.643   6.921  64.795  1.00  0.00    -0.351 OA 
HETATM   19  C   UNL     1      -6.791   9.736  66.183  1.00  0.00    -0.090 A  
HETATM   20  H   UNL     1      -7.939   6.287  64.710  1.00  0.00     0.000 HD 
ENDBRANCH   8   9
ENDBRANCH   2   8
TORSDOF 2
ENDMDL
MODEL      187
REMARK 921   NORMALIZED FREE ENERGY PREDICTED BY IDOCK:   -3.67 KCAL/MOL
REMARK 922        TOTAL FREE ENERGY PREDICTED BY IDOCK:   -4.39 KCAL/MOL
REMARK 923 INTER-LIGAND FREE ENERGY PREDICTED BY IDOCK:   -4.24 KCAL/MOL
REMARK 924 INTRA-LIGAND FREE ENERGY PREDICTED BY IDOCK:   -0.15 KCAL/MOL
REMARK 927      BINDING AFFINITY PREDICTED BY RF-SCORE:    0.00 PKD
ROOT
HETATM    1  N   UNL     1     -12.076  10.671  68.165  1.00  0.00    -0.707 NA 
HETATM    2  CA  UNL     1     -10.809  11.431  68.441  1.00  0.00    -0.207 C  
HETATM    3  H1  UNL     1     -12.691  11.124  67.489  1.00  0.00     0.000 HD 
HETATM    4  H2  UNL     1     -12.577  10.480  69.033  1.00  0.00     0.000 HD 
HETATM    5  OXT UNL     1      -8.931  12.059  66.990  1.00  0.00    -0.184 OA 
HETATM    6  C   UNL     1     -10.048  11.583  67.115  1.00  0.00    -0.197 C  
HETATM    7  O   UNL     1     -10.777  11.107  66.070  1.00  0.00    -0.259 OA 
ENDROOT
BRANCH   2   8
HETATM    8  C   UNL     1      -9.883  10.748  69.461  1.00  0.00    -0.049 C  
BRANCH   8   9
HETATM    9  C   UNL     1     -10.522   9.615  70.206  1.00  0.00    -0.338 A  
HETATM   10  C   UNL     1     -11.342   9.726  71.313  1.00  0.00    -0.375 A  
HETATM   11  N   UNL     1     -11.699   8.467  71.714  1.00  0.00    -0.304 NA 
HETATM   12  H   UNL     1     -12.299   8.257  72.512  1.00  0.00     0.000 HD 
HETATM   13  C   UNL     1     -11.133   7.525  70.886  1.00  0.00    -0.263 A  
HETATM   14  C   UNL     1     -10.375   8.215  69.938  1.00  0.00    -0.214 A  
HETATM   15  C   UNL     1      -9.661   7.467  68.975  1.00  0.00    -0.160 A  
HETATM   16  C   UNL     1      -9.758   6.074  68.993  1.00  0.00    -0.133 A  
HETATM   17  C   UNL     1     -10.524   5.413  69.943  1.00  0.00    -0.378 A  
HETATM   18  O   UNL     1      -9.097   5.311  68.075  1.00  0.00    -0.109 OA 
HETATM   19  C   UNL     1     -11.225   6.129  70.917  1.00  0.00    -0.365 A  
HETATM   20  H   UNL     1      -9.163   4.363  68.088  1.00  0.00     0.000 HD 
ENDBRANCH   8   9
ENDBRANCH   2   8
TORSDOF 2
ENDMDL
MODEL      188
REMARK 921   NORMALIZED FREE ENERGY PREDICTED BY IDOCK:   -3.66 KCAL/MOL
REMARK 922        TOTAL FREE ENERGY PREDICTED BY IDOCK:   -4.38 KCAL/MOL
REMARK 923 INTER-LIGAND FREE ENERGY PREDICTED BY IDOCK:   -4.12 KCAL/MOL
REMARK 924 INTRA-LIGAND FREE ENERGY PREDICTED BY IDOCK:   -0.27 KCAL/MOL
REMARK 927      BINDING AFFINITY PREDICTED BY RF-SCORE:    0.00 PKD
ROOT
HETATM    1  N   UNL     1     -10.351   7.259  66.380  1.00  0.00    -0.474 NA 
HETATM    2  CA  UNL     1      -9.298   6.425  67.056  1.00  0.00    -0.131 C  
HETATM    3  H1  UNL     1     -10.027   8.184  66.096  1.00  0.00     0.000 HD 
HETATM    4  H2  UNL     1     -11.181   7.336  66.968  1.00  0.00     0.000 HD 
HETATM    5  OXT UNL     1      -7.149   5.548  66.258  1.00  0.00    -0.069 OA 
HETATM    6  C   UNL     1      -8.128   6.253  66.075  1.00  0.00    -0.119 C  
HETATM    7  O   UNL     1      -8.316   6.988  64.946  1.00  0.00    -0.107 OA 
ENDROOT
BRANCH   2   8
HETATM    8  C   UNL     1      -9.787   5.033  67.484  1.00  0.00    -0.201 C  
BRANCH   8   9
HETATM    9  C   UNL     1      -9.779   4.811  68.967  1.00  0.00    -0.248 A  
HETATM   10  C   UNL     1      -8.998   3.900  69.651  1.00  0.00    -0.105 A  
HETATM   11  N   UNL     1      -9.302   3.985  70.983  1.00  0.00    -0.135 NA 
HETATM   12  H   UNL     1      -8.873   3.419  71.717  1.00  0.00     0.000 HD 
HETATM   13  C   UNL     1     -10.269   4.941  71.192  1.00  0.00    -0.191 A  
HETATM   14  C   UNL     1     -10.601   5.468  69.941  1.00  0.00    -0.387 A  
HETATM   15  C   UNL     1     -11.603   6.462  69.876  1.00  0.00    -0.422 A  
HETATM   16  C   UNL     1     -12.204   6.895  71.059  1.00  0.00    -0.377 A  
HETATM   17  C   UNL     1     -11.852   6.360  72.290  1.00  0.00    -0.315 A  
HETATM   18  O   UNL     1     -13.167   7.862  71.045  1.00  0.00    -0.537 OA 
HETATM   19  C   UNL     1     -10.876   5.363  72.379  1.00  0.00    -0.297 A  
HETATM   20  H   UNL     1     -13.576   8.157  71.851  1.00  0.00     0.000 HD 
ENDBRANCH   8   9
ENDBRANCH   2   8
TORSDOF 2
ENDMDL
MODEL      189
REMARK 921   NORMALIZED FREE ENERGY PREDICTED BY IDOCK:   -3.65 KCAL/MOL
REMARK 922        TOTAL FREE ENERGY PREDICTED BY IDOCK:   -4.37 KCAL/MOL
REMARK 923 INTER-LIGAND FREE ENERGY PREDICTED BY IDOCK:   -4.09 KCAL/MOL
REMARK 924 INTRA-LIGAND FREE ENERGY PREDICTED BY IDOCK:   -0.28 KCAL/MOL
REMARK 927      BINDING AFFINITY PREDICTED BY RF-SCORE:    0.00 PKD
ROOT
HETATM    1  N   UNL     1      -9.128   8.494  65.598  1.00  0.00    -0.342 NA 
HETATM    2  CA  UNL     1      -9.064   7.962  67.002  1.00  0.00    -0.137 C  
HETATM    3  H1  UNL     1      -8.386   8.147  64.990  1.00  0.00     0.000 HD 
HETATM    4  H2  UNL     1      -9.141   9.514  65.601  1.00  0.00     0.000 HD 
HETATM    5  OXT UNL     1      -9.248   5.682  67.895  1.00  0.00    -0.108 OA 
HETATM    6  C   UNL     1      -9.165   6.430  66.934  1.00  0.00    -0.135 C  
HETATM    7  O   UNL     1      -9.159   5.991  65.646  1.00  0.00    -0.124 OA 
ENDROOT
BRANCH   2   8
HETATM    8  C   UNL     1     -10.181   8.485  67.919  1.00  0.00    -0.273 C  
BRANCH   8   9
HETATM    9  C   UNL     1      -9.745   8.741  69.330  1.00  0.00    -0.172 A  
HETATM   10  C   UNL     1      -8.724   9.581  69.728  1.00  0.00    -0.194 A  
HETATM   11  N   UNL     1      -8.622   9.520  71.092  1.00  0.00    -0.333 NA 
HETATM   12  H   UNL     1      -7.944  10.041  71.651  1.00  0.00     0.000 HD 
HETATM   13  C   UNL     1      -9.563   8.657  71.603  1.00  0.00    -0.274 A  
HETATM   14  C   UNL     1     -10.275   8.139  70.519  1.00  0.00    -0.207 A  
HETATM   15  C   UNL     1     -11.295   7.194  70.774  1.00  0.00    -0.322 A  
HETATM   16  C   UNL     1     -11.566   6.834  72.095  1.00  0.00    -0.288 A  
HETATM   17  C   UNL     1     -10.849   7.368  73.155  1.00  0.00    -0.435 A  
HETATM   18  O   UNL     1     -12.551   5.936  72.390  1.00  0.00    -0.444 OA 
HETATM   19  C   UNL     1      -9.823   8.290  72.928  1.00  0.00    -0.303 A  
HETATM   20  H   UNL     1     -12.736   5.690  73.289  1.00  0.00     0.000 HD 
ENDBRANCH   8   9
ENDBRANCH   2   8
TORSDOF 2
ENDMDL
MODEL      190
REMARK 921   NORMALIZED FREE ENERGY PREDICTED BY IDOCK:   -3.65 KCAL/MOL
REMARK 922        TOTAL FREE ENERGY PREDICTED BY IDOCK:   -4.37 KCAL/MOL
REMARK 923 INTER-LIGAND FREE ENERGY PREDICTED BY IDOCK:   -4.13 KCAL/MOL
REMARK 924 INTRA-LIGAND FREE ENERGY PREDICTED BY IDOCK:   -0.24 KCAL/MOL
REMARK 927      BINDING AFFINITY PREDICTED BY RF-SCORE:    0.00 PKD
ROOT
HETATM    1  N   UNL     1     -12.138  14.356  66.413  1.00  0.00    -0.402 NA 
HETATM    2  CA  UNL     1     -11.330  15.444  65.763  1.00  0.00    -0.115 C  
HETATM    3  H1  UNL     1     -13.131  14.572  66.496  1.00  0.00     0.000 HD 
HETATM    4  H2  UNL     1     -11.747  14.113  67.324  1.00  0.00     0.000 HD 
HETATM    5  OXT UNL     1     -11.418  16.421  63.512  1.00  0.00    -0.576 OA 
HETATM    6  C   UNL     1     -11.898  15.679  64.355  1.00  0.00    -0.182 C  
HETATM    7  O   UNL     1     -13.022  14.942  64.145  1.00  0.00    -0.537 OA 
ENDROOT
BRANCH   2   8
HETATM    8  C   UNL     1      -9.833  15.118  65.638  1.00  0.00    -0.378 C  
BRANCH   8   9
HETATM    9  C   UNL     1      -8.950  15.956  66.513  1.00  0.00    -0.331 A  
HETATM   10  C   UNL     1      -8.696  17.305  66.363  1.00  0.00    -0.250 A  
HETATM   11  N   UNL     1      -7.822  17.693  67.342  1.00  0.00    -0.202 NA 
HETATM   12  H   UNL     1      -7.463  18.641  67.462  1.00  0.00     0.000 HD 
HETATM   13  C   UNL     1      -7.497  16.622  68.142  1.00  0.00    -0.168 A  
HETATM   14  C   UNL     1      -8.178  15.512  67.637  1.00  0.00    -0.168 A  
HETATM   15  C   UNL     1      -7.991  14.263  68.272  1.00  0.00    -0.140 A  
HETATM   16  C   UNL     1      -7.155  14.190  69.388  1.00  0.00    -0.049 A  
HETATM   17  C   UNL     1      -6.495  15.310  69.874  1.00  0.00    -0.162 A  
HETATM   18  O   UNL     1      -6.956  13.008  70.041  1.00  0.00    -0.265 OA 
HETATM   19  C   UNL     1      -6.649  16.553  69.253  1.00  0.00    -0.207 A  
HETATM   20  H   UNL     1      -6.387  12.959  70.801  1.00  0.00     0.000 HD 
ENDBRANCH   8   9
ENDBRANCH   2   8
TORSDOF 2
ENDMDL
MODEL      191
REMARK 921   NORMALIZED FREE ENERGY PREDICTED BY IDOCK:   -3.63 KCAL/MOL
REMARK 922        TOTAL FREE ENERGY PREDICTED BY IDOCK:   -4.35 KCAL/MOL
REMARK 923 INTER-LIGAND FREE ENERGY PREDICTED BY IDOCK:   -4.06 KCAL/MOL
REMARK 924 INTRA-LIGAND FREE ENERGY PREDICTED BY IDOCK:   -0.29 KCAL/MOL
REMARK 927      BINDING AFFINITY PREDICTED BY RF-SCORE:    0.00 PKD
ROOT
HETATM    1  N   UNL     1     -11.147   7.830  67.253  1.00  0.00    -0.461 NA 
HETATM    2  CA  UNL     1     -10.127   8.701  67.932  1.00  0.00    -0.203 C  
HETATM    3  H1  UNL     1     -11.939   8.345  66.869  1.00  0.00     0.000 HD 
HETATM    4  H2  UNL     1     -11.468   7.095  67.882  1.00  0.00     0.000 HD 
HETATM    5  OXT UNL     1      -8.689  10.501  67.084  1.00  0.00    -0.130 OA 
HETATM    6  C   UNL     1      -9.601   9.709  66.900  1.00  0.00    -0.167 C  
HETATM    7  O   UNL     1     -10.279   9.614  65.725  1.00  0.00    -0.261 OA 
ENDROOT
BRANCH   2   8
HETATM    8  C   UNL     1      -8.932   7.925  68.511  1.00  0.00    -0.133 C  
BRANCH   8   9
HETATM    9  C   UNL     1      -8.679   8.187  69.965  1.00  0.00    -0.131 A  
HETATM   10  C   UNL     1      -7.617   8.896  70.492  1.00  0.00    -0.093 A  
HETATM   11  N   UNL     1      -7.728   8.889  71.857  1.00  0.00    -0.337 NA 
HETATM   12  H   UNL     1      -7.073   9.338  72.498  1.00  0.00     0.000 HD 
HETATM   13  C   UNL     1      -8.850   8.191  72.240  1.00  0.00    -0.186 A  
HETATM   14  C   UNL     1      -9.461   7.724  71.074  1.00  0.00    -0.165 A  
HETATM   15  C   UNL     1     -10.633   6.945  71.195  1.00  0.00    -0.246 A  
HETATM   16  C   UNL     1     -11.147   6.691  72.468  1.00  0.00    -0.261 A  
HETATM   17  C   UNL     1     -10.525   7.172  73.611  1.00  0.00    -0.412 A  
HETATM   18  O   UNL     1     -12.284   5.954  72.633  1.00  0.00    -0.539 OA 
HETATM   19  C   UNL     1      -9.354   7.931  73.519  1.00  0.00    -0.333 A  
HETATM   20  H   UNL     1     -12.634   5.781  73.500  1.00  0.00     0.000 HD 
ENDBRANCH   8   9
ENDBRANCH   2   8
TORSDOF 2
ENDMDL
MODEL      192
REMARK 921   NORMALIZED FREE ENERGY PREDICTED BY IDOCK:   -3.63 KCAL/MOL
REMARK 922        TOTAL FREE ENERGY PREDICTED BY IDOCK:   -4.35 KCAL/MOL
REMARK 923 INTER-LIGAND FREE ENERGY PREDICTED BY IDOCK:   -4.21 KCAL/MOL
REMARK 924 INTRA-LIGAND FREE ENERGY PREDICTED BY IDOCK:   -0.14 KCAL/MOL
REMARK 927      BINDING AFFINITY PREDICTED BY RF-SCORE:    0.00 PKD
ROOT
HETATM    1  N   UNL     1      -8.664   7.925  65.106  1.00  0.00    -0.376 NA 
HETATM    2  CA  UNL     1      -8.763   9.326  65.642  1.00  0.00    -0.166 C  
HETATM    3  H1  UNL     1      -7.755   7.701  64.700  1.00  0.00     0.000 HD 
HETATM    4  H2  UNL     1      -9.411   7.743  64.436  1.00  0.00     0.000 HD 
HETATM    5  OXT UNL     1      -7.552  10.478  67.439  1.00  0.00    -0.093 OA 
HETATM    6  C   UNL     1      -7.688   9.497  66.726  1.00  0.00    -0.098 C  
HETATM    7  O   UNL     1      -6.888   8.400  66.806  1.00  0.00    -0.067 OA 
ENDROOT
BRANCH   2   8
HETATM    8  C   UNL     1     -10.133   9.664  66.253  1.00  0.00    -0.322 C  
BRANCH   8   9
HETATM    9  C   UNL     1     -10.426  11.132  66.325  1.00  0.00    -0.312 A  
HETATM   10  C   UNL     1     -10.121  12.073  65.361  1.00  0.00    -0.256 A  
HETATM   11  N   UNL     1     -10.525  13.301  65.812  1.00  0.00    -0.280 NA 
HETATM   12  H   UNL     1     -10.418  14.176  65.297  1.00  0.00     0.000 HD 
HETATM   13  C   UNL     1     -11.098  13.186  67.057  1.00  0.00    -0.279 A  
HETATM   14  C   UNL     1     -11.036  11.837  67.414  1.00  0.00    -0.338 A  
HETATM   15  C   UNL     1     -11.540  11.452  68.677  1.00  0.00    -0.384 A  
HETATM   16  C   UNL     1     -12.099  12.426  69.507  1.00  0.00    -0.189 A  
HETATM   17  C   UNL     1     -12.154  13.759  69.126  1.00  0.00    -0.374 A  
HETATM   18  O   UNL     1     -12.611  12.099  70.730  1.00  0.00    -0.303 OA 
HETATM   19  C   UNL     1     -11.646  14.168  67.889  1.00  0.00    -0.370 A  
HETATM   20  H   UNL     1     -12.991  12.762  71.294  1.00  0.00     0.000 HD 
ENDBRANCH   8   9
ENDBRANCH   2   8
TORSDOF 2
ENDMDL
MODEL      193
REMARK 921   NORMALIZED FREE ENERGY PREDICTED BY IDOCK:   -3.59 KCAL/MOL
REMARK 922        TOTAL FREE ENERGY PREDICTED BY IDOCK:   -4.31 KCAL/MOL
REMARK 923 INTER-LIGAND FREE ENERGY PREDICTED BY IDOCK:   -4.05 KCAL/MOL
REMARK 924 INTRA-LIGAND FREE ENERGY PREDICTED BY IDOCK:   -0.25 KCAL/MOL
REMARK 927      BINDING AFFINITY PREDICTED BY RF-SCORE:    0.00 PKD
ROOT
HETATM    1  N   UNL     1      -9.339  12.046  64.957  1.00  0.00    -0.431 NA 
HETATM    2  CA  UNL     1      -9.009  10.605  65.231  1.00  0.00    -0.190 C  
HETATM    3  H1  UNL     1      -8.595  12.557  64.480  1.00  0.00     0.000 HD 
HETATM    4  H2  UNL     1      -9.607  12.524  65.817  1.00  0.00     0.000 HD 
HETATM    5  OXT UNL     1      -8.529   8.724  63.729  1.00  0.00    -0.171 OA 
HETATM    6  C   UNL     1      -8.729   9.918  63.886  1.00  0.00    -0.214 C  
HETATM    7  O   UNL     1      -8.735  10.814  62.862  1.00  0.00    -0.201 OA 
ENDROOT
BRANCH   2   8
HETATM    8  C   UNL     1     -10.130   9.836  65.949  1.00  0.00    -0.314 C  
BRANCH   8   9
HETATM    9  C   UNL     1      -9.719   9.242  67.263  1.00  0.00    -0.218 A  
HETATM   10  C   UNL     1      -8.729   8.299  67.457  1.00  0.00    -0.129 A  
HETATM   11  N   UNL     1      -8.678   7.994  68.791  1.00  0.00    -0.131 NA 
HETATM   12  H   UNL     1      -8.036   7.321  69.212  1.00  0.00     0.000 HD 
HETATM   13  C   UNL     1      -9.617   8.725  69.483  1.00  0.00    -0.167 A  
HETATM   14  C   UNL     1     -10.298   9.507  68.548  1.00  0.00    -0.234 A  
HETATM   15  C   UNL     1     -11.344  10.340  69.003  1.00  0.00    -0.237 A  
HETATM   16  C   UNL     1     -11.641  10.367  70.367  1.00  0.00    -0.337 A  
HETATM   17  C   UNL     1     -10.945   9.585  71.277  1.00  0.00    -0.440 A  
HETATM   18  O   UNL     1     -12.634  11.167  70.855  1.00  0.00    -0.360 OA 
HETATM   19  C   UNL     1      -9.917   8.739  70.849  1.00  0.00    -0.279 A  
HETATM   20  H   UNL     1     -12.836  11.185  71.783  1.00  0.00     0.000 HD 
ENDBRANCH   8   9
ENDBRANCH   2   8
TORSDOF 2
ENDMDL
MODEL      194
REMARK 921   NORMALIZED FREE ENERGY PREDICTED BY IDOCK:   -3.58 KCAL/MOL
REMARK 922        TOTAL FREE ENERGY PREDICTED BY IDOCK:   -4.29 KCAL/MOL
REMARK 923 INTER-LIGAND FREE ENERGY PREDICTED BY IDOCK:   -4.02 KCAL/MOL
REMARK 924 INTRA-LIGAND FREE ENERGY PREDICTED BY IDOCK:   -0.27 KCAL/MOL
REMARK 927      BINDING AFFINITY PREDICTED BY RF-SCORE:    0.00 PKD
ROOT
HETATM    1  N   UNL     1     -10.802  11.713  68.480  1.00  0.00    -0.207 NA 
HETATM    2  CA  UNL     1      -9.915  12.225  67.379  1.00  0.00    -0.201 C  
HETATM    3  H1  UNL     1     -10.626  12.145  69.387  1.00  0.00     0.000 HD 
HETATM    4  H2  UNL     1     -10.739  10.697  68.548  1.00  0.00     0.000 HD 
HETATM    5  OXT UNL     1      -9.661  14.458  66.391  1.00  0.00    -0.277 OA 
HETATM    6  C   UNL     1     -10.143  13.739  67.252  1.00  0.00    -0.239 C  
HETATM    7  O   UNL     1     -10.970  14.199  68.230  1.00  0.00    -0.239 OA 
ENDROOT
BRANCH   2   8
HETATM    8  C   UNL     1     -10.180  11.574  66.012  1.00  0.00    -0.283 C  
BRANCH   8   9
HETATM    9  C   UNL     1      -9.332  10.369  65.734  1.00  0.00    -0.230 A  
HETATM   10  C   UNL     1      -8.159  10.347  65.006  1.00  0.00    -0.136 A  
HETATM   11  N   UNL     1      -7.704   9.057  64.957  1.00  0.00    -0.106 NA 
HETATM   12  H   UNL     1      -6.855   8.755  64.478  1.00  0.00     0.000 HD 
HETATM   13  C   UNL     1      -8.556   8.225  65.647  1.00  0.00    -0.166 A  
HETATM   14  C   UNL     1      -9.598   9.018  66.134  1.00  0.00    -0.341 A  
HETATM   15  C   UNL     1     -10.633   8.392  66.864  1.00  0.00    -0.285 A  
HETATM   16  C   UNL     1     -10.564   7.016  67.090  1.00  0.00    -0.341 A  
HETATM   17  C   UNL     1      -9.514   6.252  66.601  1.00  0.00    -0.178 A  
HETATM   18  O   UNL     1     -11.534   6.371  67.802  1.00  0.00    -0.649 OA 
HETATM   19  C   UNL     1      -8.487   6.844  65.861  1.00  0.00    -0.147 A  
HETATM   20  H   UNL     1     -11.488   5.434  67.955  1.00  0.00     0.000 HD 
ENDBRANCH   8   9
ENDBRANCH   2   8
TORSDOF 2
ENDMDL
MODEL      195
REMARK 921   NORMALIZED FREE ENERGY PREDICTED BY IDOCK:   -3.57 KCAL/MOL
REMARK 922        TOTAL FREE ENERGY PREDICTED BY IDOCK:   -4.29 KCAL/MOL
REMARK 923 INTER-LIGAND FREE ENERGY PREDICTED BY IDOCK:   -4.17 KCAL/MOL
REMARK 924 INTRA-LIGAND FREE ENERGY PREDICTED BY IDOCK:   -0.12 KCAL/MOL
REMARK 927      BINDING AFFINITY PREDICTED BY RF-SCORE:    0.00 PKD
ROOT
HETATM    1  N   UNL     1      -8.415   7.728  64.183  1.00  0.00    -0.375 NA 
HETATM    2  CA  UNL     1      -8.154   9.007  64.929  1.00  0.00    -0.137 C  
HETATM    3  H1  UNL     1      -7.852   7.620  63.339  1.00  0.00     0.000 HD 
HETATM    4  H2  UNL     1      -9.407   7.635  63.966  1.00  0.00     0.000 HD 
HETATM    5  OXT UNL     1      -6.137   9.874  66.028  1.00  0.00    -0.065 OA 
HETATM    6  C   UNL     1      -6.669   9.030  65.325  1.00  0.00    -0.068 C  
HETATM    7  O   UNL     1      -5.999   7.972  64.794  1.00  0.00    -0.044 OA 
ENDROOT
BRANCH   2   8
HETATM    8  C   UNL     1      -9.002   9.171  66.200  1.00  0.00    -0.211 C  
BRANCH   8   9
HETATM    9  C   UNL     1      -9.201  10.596  66.623  1.00  0.00    -0.184 A  
HETATM   10  C   UNL     1      -8.805  11.153  67.823  1.00  0.00    -0.135 A  
HETATM   11  N   UNL     1      -9.192  12.466  67.838  1.00  0.00    -0.185 NA 
HETATM   12  H   UNL     1      -9.029  13.114  68.609  1.00  0.00     0.000 HD 
HETATM   13  C   UNL     1      -9.834  12.788  66.664  1.00  0.00    -0.250 A  
HETATM   14  C   UNL     1      -9.869  11.629  65.885  1.00  0.00    -0.262 A  
HETATM   15  C   UNL     1     -10.506  11.684  64.625  1.00  0.00    -0.354 A  
HETATM   16  C   UNL     1     -11.053  12.896  64.198  1.00  0.00    -0.399 A  
HETATM   17  C   UNL     1     -10.999  14.035  64.987  1.00  0.00    -0.379 A  
HETATM   18  O   UNL     1     -11.666  13.000  62.982  1.00  0.00    -0.824 OA 
HETATM   19  C   UNL     1     -10.390  14.001  66.245  1.00  0.00    -0.294 A  
HETATM   20  H   UNL     1     -12.039  13.825  62.692  1.00  0.00     0.000 HD 
ENDBRANCH   8   9
ENDBRANCH   2   8
TORSDOF 2
ENDMDL
MODEL      196
REMARK 921   NORMALIZED FREE ENERGY PREDICTED BY IDOCK:   -3.57 KCAL/MOL
REMARK 922        TOTAL FREE ENERGY PREDICTED BY IDOCK:   -4.28 KCAL/MOL
REMARK 923 INTER-LIGAND FREE ENERGY PREDICTED BY IDOCK:   -4.30 KCAL/MOL
REMARK 924 INTRA-LIGAND FREE ENERGY PREDICTED BY IDOCK:    0.02 KCAL/MOL
REMARK 927      BINDING AFFINITY PREDICTED BY RF-SCORE:    0.00 PKD
ROOT
HETATM    1  N   UNL     1     -12.022  12.845  65.922  1.00  0.00    -0.428 NA 
HETATM    2  CA  UNL     1     -12.438  14.286  65.807  1.00  0.00    -0.403 C  
HETATM    3  H1  UNL     1     -12.472  12.230  65.244  1.00  0.00     0.000 HD 
HETATM    4  H2  UNL     1     -12.171  12.504  66.871  1.00  0.00     0.000 HD 
HETATM    5  OXT UNL     1     -12.187  15.918  63.991  1.00  0.00    -0.719 OA 
HETATM    6  C   UNL     1     -12.081  14.771  64.393  1.00  0.00    -0.440 C  
HETATM    7  O   UNL     1     -11.615  13.750  63.623  1.00  0.00    -0.188 OA 
ENDROOT
BRANCH   2   8
HETATM    8  C   UNL     1     -11.760  15.213  66.828  1.00  0.00    -0.070 C  
BRANCH   8   9
HETATM    9  C   UNL     1     -10.262  15.157  66.806  1.00  0.00    -0.265 A  
HETATM   10  C   UNL     1      -9.424  16.021  66.130  1.00  0.00    -0.336 A  
HETATM   11  N   UNL     1      -8.131  15.621  66.338  1.00  0.00    -0.320 NA 
HETATM   12  H   UNL     1      -7.307  16.082  65.949  1.00  0.00     0.000 HD 
HETATM   13  C   UNL     1      -8.101  14.508  67.146  1.00  0.00    -0.168 A  
HETATM   14  C   UNL     1      -9.426  14.183  67.445  1.00  0.00    -0.220 A  
HETATM   15  C   UNL     1      -9.674  13.048  68.249  1.00  0.00    -0.221 A  
HETATM   16  C   UNL     1      -8.591  12.311  68.731  1.00  0.00     0.130 A  
HETATM   17  C   UNL     1      -7.283  12.659  68.425  1.00  0.00    -0.111 A  
HETATM   18  O   UNL     1      -8.782  11.215  69.523  1.00  0.00    -0.355 OA 
HETATM   19  C   UNL     1      -7.012  13.767  67.618  1.00  0.00    -0.186 A  
HETATM   20  H   UNL     1      -8.044  10.714  69.851  1.00  0.00     0.000 HD 
ENDBRANCH   8   9
ENDBRANCH   2   8
TORSDOF 2
ENDMDL
MODEL      197
REMARK 921   NORMALIZED FREE ENERGY PREDICTED BY IDOCK:   -3.56 KCAL/MOL
REMARK 922        TOTAL FREE ENERGY PREDICTED BY IDOCK:   -4.27 KCAL/MOL
REMARK 923 INTER-LIGAND FREE ENERGY PREDICTED BY IDOCK:   -4.05 KCAL/MOL
REMARK 924 INTRA-LIGAND FREE ENERGY PREDICTED BY IDOCK:   -0.21 KCAL/MOL
REMARK 927      BINDING AFFINITY PREDICTED BY RF-SCORE:    0.00 PKD
ROOT
HETATM    1  N   UNL     1     -11.840  12.777  70.298  1.00  0.00    -0.537 NA 
HETATM    2  CA  UNL     1     -12.255  11.332  70.335  1.00  0.00    -0.365 C  
HETATM    3  H1  UNL     1     -12.623  13.431  70.303  1.00  0.00     0.000 HD 
HETATM    4  H2  UNL     1     -11.229  12.955  69.501  1.00  0.00     0.000 HD 
HETATM    5  OXT UNL     1     -13.481  10.027  72.014  1.00  0.00    -0.407 OA 
HETATM    6  C   UNL     1     -13.073  11.106  71.616  1.00  0.00    -0.424 C  
HETATM    7  O   UNL     1     -13.292  12.275  72.276  1.00  0.00    -0.515 OA 
ENDROOT
BRANCH   2   8
HETATM    8  C   UNL     1     -11.076  10.346  70.327  1.00  0.00    -0.379 C  
BRANCH   8   9
HETATM    9  C   UNL     1     -10.393  10.218  68.998  1.00  0.00    -0.229 A  
HETATM   10  C   UNL     1     -11.015  10.126  67.768  1.00  0.00    -0.277 A  
HETATM   11  N   UNL     1     -10.050   9.997  66.806  1.00  0.00    -0.215 NA 
HETATM   12  H   UNL     1     -10.231   9.906  65.805  1.00  0.00     0.000 HD 
HETATM   13  C   UNL     1      -8.799  10.007  67.380  1.00  0.00    -0.128 A  
HETATM   14  C   UNL     1      -8.983  10.129  68.759  1.00  0.00    -0.147 A  
HETATM   15  C   UNL     1      -7.840  10.137  69.591  1.00  0.00    -0.181 A  
HETATM   16  C   UNL     1      -6.576  10.046  69.004  1.00  0.00    -0.052 A  
HETATM   17  C   UNL     1      -6.421   9.932  67.630  1.00  0.00    -0.064 A  
HETATM   18  O   UNL     1      -5.444  10.064  69.766  1.00  0.00    -0.037 OA 
HETATM   19  C   UNL     1      -7.536   9.904  66.787  1.00  0.00    -0.095 A  
HETATM   20  H   UNL     1      -4.584  10.002  69.367  1.00  0.00     0.000 HD 
ENDBRANCH   8   9
ENDBRANCH   2   8
TORSDOF 2
ENDMDL
MODEL      198
REMARK 921   NORMALIZED FREE ENERGY PREDICTED BY IDOCK:   -3.55 KCAL/MOL
REMARK 922        TOTAL FREE ENERGY PREDICTED BY IDOCK:   -4.26 KCAL/MOL
REMARK 923 INTER-LIGAND FREE ENERGY PREDICTED BY IDOCK:   -4.07 KCAL/MOL
REMARK 924 INTRA-LIGAND FREE ENERGY PREDICTED BY IDOCK:   -0.19 KCAL/MOL
REMARK 927      BINDING AFFINITY PREDICTED BY RF-SCORE:    0.00 PKD
ROOT
HETATM    1  N   UNL     1     -10.310   9.104  67.933  1.00  0.00    -0.220 NA 
HETATM    2  CA  UNL     1      -8.997   9.779  68.217  1.00  0.00    -0.119 C  
HETATM    3  H1  UNL     1     -10.219   8.208  67.454  1.00  0.00     0.000 HD 
HETATM    4  H2  UNL     1     -10.930   9.727  67.415  1.00  0.00     0.000 HD 
HETATM    5  OXT UNL     1      -7.080   9.110  69.596  1.00  0.00    -0.055 OA 
HETATM    6  C   UNL     1      -8.159   8.837  69.095  1.00  0.00    -0.118 C  
HETATM    7  O   UNL     1      -8.776   7.636  69.261  1.00  0.00    -0.135 OA 
ENDROOT
BRANCH   2   8
HETATM    8  C   UNL     1      -9.134  11.129  68.939  1.00  0.00    -0.098 C  
BRANCH   8   9
HETATM    9  C   UNL     1     -10.303  11.951  68.485  1.00  0.00    -0.228 A  
HETATM   10  C   UNL     1     -11.381  12.334  69.258  1.00  0.00    -0.256 A  
HETATM   11  N   UNL     1     -12.244  13.050  68.473  1.00  0.00    -0.131 NA 
HETATM   12  H   UNL     1     -13.127  13.451  68.791  1.00  0.00     0.000 HD 
HETATM   13  C   UNL     1     -11.751  13.151  67.192  1.00  0.00    -0.377 A  
HETATM   14  C   UNL     1     -10.539  12.457  67.164  1.00  0.00    -0.247 A  
HETATM   15  C   UNL     1      -9.834  12.385  65.941  1.00  0.00    -0.265 A  
HETATM   16  C   UNL     1     -10.362  13.027  64.819  1.00  0.00    -0.336 A  
HETATM   17  C   UNL     1     -11.564  13.715  64.875  1.00  0.00    -0.360 A  
HETATM   18  O   UNL     1      -9.709  12.996  63.620  1.00  0.00    -0.630 OA 
HETATM   19  C   UNL     1     -12.289  13.786  66.068  1.00  0.00    -0.499 A  
HETATM   20  H   UNL     1     -10.068  13.432  62.856  1.00  0.00     0.000 HD 
ENDBRANCH   8   9
ENDBRANCH   2   8
TORSDOF 2
ENDMDL
MODEL      199
REMARK 921   NORMALIZED FREE ENERGY PREDICTED BY IDOCK:   -3.55 KCAL/MOL
REMARK 922        TOTAL FREE ENERGY PREDICTED BY IDOCK:   -4.26 KCAL/MOL
REMARK 923 INTER-LIGAND FREE ENERGY PREDICTED BY IDOCK:   -3.98 KCAL/MOL
REMARK 924 INTRA-LIGAND FREE ENERGY PREDICTED BY IDOCK:   -0.28 KCAL/MOL
REMARK 927      BINDING AFFINITY PREDICTED BY RF-SCORE:    0.00 PKD
ROOT
HETATM    1  N   UNL     1      -9.356  13.408  66.319  1.00  0.00    -0.450 NA 
HETATM    2  CA  UNL     1      -9.955  12.215  65.626  1.00  0.00    -0.249 C  
HETATM    3  H1  UNL     1      -8.825  14.021  65.701  1.00  0.00     0.000 HD 
HETATM    4  H2  UNL     1      -8.783  13.113  67.110  1.00  0.00     0.000 HD 
HETATM    5  OXT UNL     1     -11.622  12.035  63.833  1.00  0.00    -0.391 OA 
HETATM    6  C   UNL     1     -10.894  12.730  64.524  1.00  0.00    -0.347 C  
HETATM    7  O   UNL     1     -10.825  14.083  64.407  1.00  0.00    -0.374 OA 
ENDROOT
BRANCH   2   8
HETATM    8  C   UNL     1     -10.755  11.290  66.558  1.00  0.00    -0.323 C  
BRANCH   8   9
HETATM    9  C   UNL     1     -10.021  10.047  66.962  1.00  0.00    -0.257 A  
HETATM   10  C   UNL     1     -10.229   8.777  66.459  1.00  0.00    -0.244 A  
HETATM   11  N   UNL     1      -9.383   7.914  67.101  1.00  0.00    -0.147 NA 
HETATM   12  H   UNL     1      -9.329   6.910  66.926  1.00  0.00     0.000 HD 
HETATM   13  C   UNL     1      -8.614   8.594  68.018  1.00  0.00    -0.137 A  
HETATM   14  C   UNL     1      -9.003   9.934  67.965  1.00  0.00    -0.121 A  
HETATM   15  C   UNL     1      -8.376  10.850  68.839  1.00  0.00    -0.139 A  
HETATM   16  C   UNL     1      -7.380  10.388  69.702  1.00  0.00    -0.156 A  
HETATM   17  C   UNL     1      -7.008   9.052  69.730  1.00  0.00    -0.054 A  
HETATM   18  O   UNL     1      -6.738  11.239  70.554  1.00  0.00    -0.495 OA 
HETATM   19  C   UNL     1      -7.625   8.123  68.888  1.00  0.00    -0.098 A  
HETATM   20  H   UNL     1      -6.060  10.924  71.142  1.00  0.00     0.000 HD 
ENDBRANCH   8   9
ENDBRANCH   2   8
TORSDOF 2
ENDMDL
MODEL      200
REMARK 921   NORMALIZED FREE ENERGY PREDICTED BY IDOCK:   -3.53 KCAL/MOL
REMARK 922        TOTAL FREE ENERGY PREDICTED BY IDOCK:   -4.24 KCAL/MOL
REMARK 923 INTER-LIGAND FREE ENERGY PREDICTED BY IDOCK:   -3.96 KCAL/MOL
REMARK 924 INTRA-LIGAND FREE ENERGY PREDICTED BY IDOCK:   -0.28 KCAL/MOL
REMARK 927      BINDING AFFINITY PREDICTED BY RF-SCORE:    0.00 PKD
ROOT
HETATM    1  N   UNL     1      -9.728   6.563  72.323  1.00  0.00    -0.154 NA 
HETATM    2  CA  UNL     1     -10.143   7.253  71.054  1.00  0.00    -0.191 C  
HETATM    3  H1  UNL     1     -10.024   5.588  72.380  1.00  0.00     0.000 HD 
HETATM    4  H2  UNL     1     -10.053   7.084  73.138  1.00  0.00     0.000 HD 
HETATM    5  OXT UNL     1      -9.576   6.828  68.703  1.00  0.00    -0.133 OA 
HETATM    6  C   UNL     1      -9.527   6.486  69.874  1.00  0.00    -0.155 C  
HETATM    7  O   UNL     1      -8.897   5.355  70.293  1.00  0.00    -0.124 OA 
ENDROOT
BRANCH   2   8
HETATM    8  C   UNL     1      -9.698   8.722  70.968  1.00  0.00    -0.292 C  
BRANCH   8   9
HETATM    9  C   UNL     1     -10.663   9.613  70.246  1.00  0.00    -0.335 A  
HETATM   10  C   UNL     1     -11.971   9.864  70.611  1.00  0.00    -0.277 A  
HETATM   11  N   UNL     1     -12.525  10.705  69.684  1.00  0.00    -0.565 NA 
HETATM   12  H   UNL     1     -13.485  11.050  69.709  1.00  0.00     0.000 HD 
HETATM   13  C   UNL     1     -11.602  11.018  68.713  1.00  0.00    -0.318 A  
HETATM   14  C   UNL     1     -10.426  10.334  69.030  1.00  0.00    -0.238 A  
HETATM   15  C   UNL     1      -9.317  10.467  68.164  1.00  0.00    -0.149 A  
HETATM   16  C   UNL     1      -9.431  11.290  67.042  1.00  0.00    -0.171 A  
HETATM   17  C   UNL     1     -10.608  11.964  66.753  1.00  0.00    -0.264 A  
HETATM   18  O   UNL     1      -8.382  11.459  66.185  1.00  0.00    -0.275 OA 
HETATM   19  C   UNL     1     -11.725  11.836  67.584  1.00  0.00    -0.320 A  
HETATM   20  H   UNL     1      -8.459  12.020  65.421  1.00  0.00     0.000 HD 
ENDBRANCH   8   9
ENDBRANCH   2   8
TORSDOF 2
ENDMDL
MODEL      201
REMARK 921   NORMALIZED FREE ENERGY PREDICTED BY IDOCK:   -3.53 KCAL/MOL
REMARK 922        TOTAL FREE ENERGY PREDICTED BY IDOCK:   -4.23 KCAL/MOL
REMARK 923 INTER-LIGAND FREE ENERGY PREDICTED BY IDOCK:   -4.29 KCAL/MOL
REMARK 924 INTRA-LIGAND FREE ENERGY PREDICTED BY IDOCK:    0.05 KCAL/MOL
REMARK 927      BINDING AFFINITY PREDICTED BY RF-SCORE:    0.00 PKD
ROOT
HETATM    1  N   UNL     1     -11.497   4.367  65.011  1.00  0.00    -1.079 NA 
HETATM    2  CA  UNL     1     -10.158   4.706  65.605  1.00  0.00    -0.218 C  
HETATM    3  H1  UNL     1     -11.517   4.399  63.992  1.00  0.00     0.000 HD 
HETATM    4  H2  UNL     1     -12.225   4.964  65.403  1.00  0.00     0.000 HD 
HETATM    5  OXT UNL     1      -7.965   3.620  65.418  1.00  0.00    -0.091 OA 
HETATM    6  C   UNL     1      -9.131   3.700  65.065  1.00  0.00    -0.142 C  
HETATM    7  O   UNL     1      -9.684   2.884  64.128  1.00  0.00    -0.145 OA 
ENDROOT
BRANCH   2   8
HETATM    8  C   UNL     1     -10.129   4.659  67.141  1.00  0.00    -0.187 C  
BRANCH   8   9
HETATM    9  C   UNL     1     -10.498   5.953  67.801  1.00  0.00    -0.300 A  
HETATM   10  C   UNL     1     -11.192   6.095  68.987  1.00  0.00    -0.304 A  
HETATM   11  N   UNL     1     -11.351   7.432  69.237  1.00  0.00    -0.443 NA 
HETATM   12  H   UNL     1     -11.834   7.820  70.048  1.00  0.00     0.000 HD 
HETATM   13  C   UNL     1     -10.768   8.176  68.238  1.00  0.00    -0.016 A  
HETATM   14  C   UNL     1     -10.236   7.276  67.312  1.00  0.00    -0.323 A  
HETATM   15  C   UNL     1      -9.598   7.792  66.163  1.00  0.00    -0.104 A  
HETATM   16  C   UNL     1      -9.503   9.176  66.007  1.00  0.00    -0.255 A  
HETATM   17  C   UNL     1     -10.034  10.050  66.944  1.00  0.00    -0.263 A  
HETATM   18  O   UNL     1      -8.883   9.720  64.919  1.00  0.00    -0.169 OA 
HETATM   19  C   UNL     1     -10.685   9.564  68.081  1.00  0.00    -0.247 A  
HETATM   20  H   UNL     1      -8.818  10.663  64.813  1.00  0.00     0.000 HD 
ENDBRANCH   8   9
ENDBRANCH   2   8
TORSDOF 2
ENDMDL
MODEL      202
REMARK 921   NORMALIZED FREE ENERGY PREDICTED BY IDOCK:   -3.50 KCAL/MOL
REMARK 922        TOTAL FREE ENERGY PREDICTED BY IDOCK:   -4.21 KCAL/MOL
REMARK 923 INTER-LIGAND FREE ENERGY PREDICTED BY IDOCK:   -3.96 KCAL/MOL
REMARK 924 INTRA-LIGAND FREE ENERGY PREDICTED BY IDOCK:   -0.24 KCAL/MOL
REMARK 927      BINDING AFFINITY PREDICTED BY RF-SCORE:    0.00 PKD
ROOT
HETATM    1  N   UNL     1      -8.554   6.940  70.128  1.00  0.00    -0.139 NA 
HETATM    2  CA  UNL     1      -9.315   8.236  70.146  1.00  0.00    -0.159 C  
HETATM    3  H1  UNL     1      -8.336   6.576  71.056  1.00  0.00     0.000 HD 
HETATM    4  H2  UNL     1      -7.706   7.029  69.569  1.00  0.00     0.000 HD 
HETATM    5  OXT UNL     1     -11.535   8.816  71.019  1.00  0.00    -0.269 OA 
HETATM    6  C   UNL     1     -10.632   8.004  70.903  1.00  0.00    -0.213 C  
HETATM    7  O   UNL     1     -10.680   6.754  71.438  1.00  0.00    -0.220 OA 
ENDROOT
BRANCH   2   8
HETATM    8  C   UNL     1      -9.644   8.785  68.749  1.00  0.00    -0.160 C  
BRANCH   8   9
HETATM    9  C   UNL     1      -9.245  10.215  68.542  1.00  0.00    -0.144 A  
HETATM   10  C   UNL     1      -8.171  10.854  69.130  1.00  0.00    -0.084 A  
HETATM   11  N   UNL     1      -8.161  12.157  68.710  1.00  0.00    -0.332 NA 
HETATM   12  H   UNL     1      -7.474  12.857  68.994  1.00  0.00     0.000 HD 
HETATM   13  C   UNL     1      -9.208  12.388  67.848  1.00  0.00    -0.192 A  
HETATM   14  C   UNL     1      -9.918  11.190  67.735  1.00  0.00    -0.193 A  
HETATM   15  C   UNL     1     -11.070  11.167  66.918  1.00  0.00    -0.313 A  
HETATM   16  C   UNL     1     -11.443  12.329  66.240  1.00  0.00    -0.380 A  
HETATM   17  C   UNL     1     -10.717  13.505  66.365  1.00  0.00    -0.287 A  
HETATM   18  O   UNL     1     -12.541  12.350  65.430  1.00  0.00    -0.637 OA 
HETATM   19  C   UNL     1      -9.583  13.559  67.180  1.00  0.00    -0.241 A  
HETATM   20  H   UNL     1     -12.794  13.141  64.969  1.00  0.00     0.000 HD 
ENDBRANCH   8   9
ENDBRANCH   2   8
TORSDOF 2
ENDMDL
MODEL      203
REMARK 921   NORMALIZED FREE ENERGY PREDICTED BY IDOCK:   -3.49 KCAL/MOL
REMARK 922        TOTAL FREE ENERGY PREDICTED BY IDOCK:   -4.19 KCAL/MOL
REMARK 923 INTER-LIGAND FREE ENERGY PREDICTED BY IDOCK:   -4.07 KCAL/MOL
REMARK 924 INTRA-LIGAND FREE ENERGY PREDICTED BY IDOCK:   -0.12 KCAL/MOL
REMARK 927      BINDING AFFINITY PREDICTED BY RF-SCORE:    0.00 PKD
ROOT
HETATM    1  N   UNL     1      -8.691  17.742  68.407  1.00  0.00    -0.287 NA 
HETATM    2  CA  UNL     1      -7.994  16.530  67.855  1.00  0.00    -0.158 C  
HETATM    3  H1  UNL     1      -8.136  18.266  69.084  1.00  0.00     0.000 HD 
HETATM    4  H2  UNL     1      -9.595  17.487  68.805  1.00  0.00     0.000 HD 
HETATM    5  OXT UNL     1      -5.943  16.286  66.528  1.00  0.00    -0.211 OA 
HETATM    6  C   UNL     1      -6.701  16.996  67.170  1.00  0.00    -0.179 C  
HETATM    7  O   UNL     1      -6.494  18.328  67.359  1.00  0.00    -0.181 OA 
ENDROOT
BRANCH   2   8
HETATM    8  C   UNL     1      -8.831  15.740  66.836  1.00  0.00    -0.273 C  
BRANCH   8   9
HETATM    9  C   UNL     1     -10.037  15.069  67.422  1.00  0.00    -0.228 A  
HETATM   10  C   UNL     1     -11.249  15.670  67.700  1.00  0.00    -0.274 A  
HETATM   11  N   UNL     1     -12.080  14.731  68.250  1.00  0.00    -0.573 NA 
HETATM   12  H   UNL     1     -13.039  14.907  68.554  1.00  0.00     0.000 HD 
HETATM   13  C   UNL     1     -11.438  13.518  68.336  1.00  0.00    -0.311 A  
HETATM   14  C   UNL     1     -10.146  13.701  67.837  1.00  0.00    -0.244 A  
HETATM   15  C   UNL     1      -9.262  12.599  67.839  1.00  0.00    -0.201 A  
HETATM   16  C   UNL     1      -9.718  11.368  68.315  1.00  0.00    -0.202 A  
HETATM   17  C   UNL     1     -11.009  11.210  68.799  1.00  0.00    -0.268 A  
HETATM   18  O   UNL     1      -8.904  10.272  68.323  1.00  0.00    -0.122 OA 
HETATM   19  C   UNL     1     -11.897  12.290  68.824  1.00  0.00    -0.356 A  
HETATM   20  H   UNL     1      -9.214   9.435  68.648  1.00  0.00     0.000 HD 
ENDBRANCH   8   9
ENDBRANCH   2   8
TORSDOF 2
ENDMDL
MODEL      204
REMARK 921   NORMALIZED FREE ENERGY PREDICTED BY IDOCK:   -3.48 KCAL/MOL
REMARK 922        TOTAL FREE ENERGY PREDICTED BY IDOCK:   -4.18 KCAL/MOL
REMARK 923 INTER-LIGAND FREE ENERGY PREDICTED BY IDOCK:   -4.31 KCAL/MOL
REMARK 924 INTRA-LIGAND FREE ENERGY PREDICTED BY IDOCK:    0.13 KCAL/MOL
REMARK 927      BINDING AFFINITY PREDICTED BY RF-SCORE:    0.00 PKD
ROOT
HETATM    1  N   UNL     1      -9.338  18.568  68.838  1.00  0.00    -0.267 NA 
HETATM    2  CA  UNL     1      -9.227  17.388  67.913  1.00  0.00    -0.256 C  
HETATM    3  H1  UNL     1      -8.444  19.010  69.053  1.00  0.00     0.000 HD 
HETATM    4  H2  UNL     1      -9.825  18.308  69.695  1.00  0.00     0.000 HD 
HETATM    5  OXT UNL     1      -8.448  17.197  65.593  1.00  0.00    -0.460 OA 
HETATM    6  C   UNL     1      -8.593  17.871  66.600  1.00  0.00    -0.262 C  
HETATM    7  O   UNL     1      -8.205  19.173  66.688  1.00  0.00    -0.269 OA 
ENDROOT
BRANCH   2   8
HETATM    8  C   UNL     1     -10.574  16.721  67.590  1.00  0.00    -0.325 C  
BRANCH   8   9
HETATM    9  C   UNL     1     -10.451  15.409  66.876  1.00  0.00    -0.295 A  
HETATM   10  C   UNL     1     -11.146  15.028  65.744  1.00  0.00    -0.346 A  
HETATM   11  N   UNL     1     -10.774  13.752  65.418  1.00  0.00    -0.303 NA 
HETATM   12  H   UNL     1     -11.137  13.223  64.624  1.00  0.00     0.000 HD 
HETATM   13  C   UNL     1      -9.841  13.283  66.314  1.00  0.00    -0.285 A  
HETATM   14  C   UNL     1      -9.628  14.297  67.252  1.00  0.00    -0.232 A  
HETATM   15  C   UNL     1      -8.722  14.055  68.308  1.00  0.00    -0.182 A  
HETATM   16  C   UNL     1      -8.058  12.827  68.362  1.00  0.00    -0.129 A  
HETATM   17  C   UNL     1      -8.282  11.840  67.414  1.00  0.00    -0.160 A  
HETATM   18  O   UNL     1      -7.164  12.554  69.357  1.00  0.00    -0.321 OA 
HETATM   19  C   UNL     1      -9.187  12.048  66.369  1.00  0.00    -0.216 A  
HETATM   20  H   UNL     1      -6.713  11.719  69.394  1.00  0.00     0.000 HD 
ENDBRANCH   8   9
ENDBRANCH   2   8
TORSDOF 2
ENDMDL
MODEL      205
REMARK 921   NORMALIZED FREE ENERGY PREDICTED BY IDOCK:   -3.45 KCAL/MOL
REMARK 922        TOTAL FREE ENERGY PREDICTED BY IDOCK:   -4.15 KCAL/MOL
REMARK 923 INTER-LIGAND FREE ENERGY PREDICTED BY IDOCK:   -4.05 KCAL/MOL
REMARK 924 INTRA-LIGAND FREE ENERGY PREDICTED BY IDOCK:   -0.10 KCAL/MOL
REMARK 927      BINDING AFFINITY PREDICTED BY RF-SCORE:    0.00 PKD
ROOT
HETATM    1  N   UNL     1     -10.991   9.692  68.812  1.00  0.00    -0.411 NA 
HETATM    2  CA  UNL     1     -10.062   8.511  68.846  1.00  0.00    -0.203 C  
HETATM    3  H1  UNL     1     -10.513  10.592  68.773  1.00  0.00     0.000 HD 
HETATM    4  H2  UNL     1     -11.637   9.663  69.601  1.00  0.00     0.000 HD 
HETATM    5  OXT UNL     1      -8.407   7.687  67.230  1.00  0.00    -0.113 OA 
HETATM    6  C   UNL     1      -9.198   8.550  67.576  1.00  0.00    -0.133 C  
HETATM    7  O   UNL     1      -9.426   9.683  66.858  1.00  0.00    -0.144 OA 
ENDROOT
BRANCH   2   8
HETATM    8  C   UNL     1     -10.781   7.154  68.906  1.00  0.00    -0.199 C  
BRANCH   8   9
HETATM    9  C   UNL     1     -11.238   6.764  70.280  1.00  0.00    -0.385 A  
HETATM   10  C   UNL     1     -12.091   7.486  71.091  1.00  0.00    -0.307 A  
HETATM   11  N   UNL     1     -12.240   6.809  72.272  1.00  0.00    -0.509 NA 
HETATM   12  H   UNL     1     -12.816   7.122  73.055  1.00  0.00     0.000 HD 
HETATM   13  C   UNL     1     -11.503   5.648  72.253  1.00  0.00    -0.217 A  
HETATM   14  C   UNL     1     -10.849   5.598  71.019  1.00  0.00    -0.289 A  
HETATM   15  C   UNL     1      -9.995   4.504  70.755  1.00  0.00    -0.269 A  
HETATM   16  C   UNL     1      -9.855   3.507  71.723  1.00  0.00    -0.160 A  
HETATM   17  C   UNL     1     -10.521   3.577  72.938  1.00  0.00    -0.239 A  
HETATM   18  O   UNL     1      -9.051   2.425  71.506  1.00  0.00    -0.079 OA 
HETATM   19  C   UNL     1     -11.358   4.658  73.230  1.00  0.00    -0.393 A  
HETATM   20  H   UNL     1      -8.956   1.746  72.165  1.00  0.00     0.000 HD 
ENDBRANCH   8   9
ENDBRANCH   2   8
TORSDOF 2
ENDMDL
MODEL      206
REMARK 921   NORMALIZED FREE ENERGY PREDICTED BY IDOCK:   -3.45 KCAL/MOL
REMARK 922        TOTAL FREE ENERGY PREDICTED BY IDOCK:   -4.15 KCAL/MOL
REMARK 923 INTER-LIGAND FREE ENERGY PREDICTED BY IDOCK:   -4.03 KCAL/MOL
REMARK 924 INTRA-LIGAND FREE ENERGY PREDICTED BY IDOCK:   -0.12 KCAL/MOL
REMARK 927      BINDING AFFINITY PREDICTED BY RF-SCORE:    0.00 PKD
ROOT
HETATM    1  N   UNL     1      -7.220   7.063  67.230  1.00  0.00    -0.087 NA 
HETATM    2  CA  UNL     1      -8.054   8.238  67.659  1.00  0.00    -0.126 C  
HETATM    3  H1  UNL     1      -6.339   6.975  67.737  1.00  0.00     0.000 HD 
HETATM    4  H2  UNL     1      -7.053   7.089  66.224  1.00  0.00     0.000 HD 
HETATM    5  OXT UNL     1      -9.105   8.798  69.806  1.00  0.00    -0.145 OA 
HETATM    6  C   UNL     1      -8.365   8.077  69.155  1.00  0.00    -0.132 C  
HETATM    7  O   UNL     1      -7.710   7.009  69.685  1.00  0.00    -0.105 OA 
ENDROOT
BRANCH   2   8
HETATM    8  C   UNL     1      -9.381   8.371  66.895  1.00  0.00    -0.221 C  
BRANCH   8   9
HETATM    9  C   UNL     1      -9.264   9.095  65.588  1.00  0.00    -0.296 A  
HETATM   10  C   UNL     1      -8.394   8.787  64.561  1.00  0.00    -0.162 A  
HETATM   11  N   UNL     1      -8.576   9.696  63.553  1.00  0.00    -0.194 NA 
HETATM   12  H   UNL     1      -8.058   9.704  62.673  1.00  0.00     0.000 HD 
HETATM   13  C   UNL     1      -9.558  10.597  63.895  1.00  0.00    -0.306 A  
HETATM   14  C   UNL     1      -9.999  10.255  65.176  1.00  0.00    -0.395 A  
HETATM   15  C   UNL     1     -11.000  11.052  65.776  1.00  0.00    -0.102 A  
HETATM   16  C   UNL     1     -11.523  12.132  65.062  1.00  0.00    -0.323 A  
HETATM   17  C   UNL     1     -11.072  12.446  63.789  1.00  0.00    -0.506 A  
HETATM   18  O   UNL     1     -12.500  12.921  65.597  1.00  0.00    -0.526 OA 
HETATM   19  C   UNL     1     -10.070  11.684  63.180  1.00  0.00    -0.409 A  
HETATM   20  H   UNL     1     -12.856  13.656  65.111  1.00  0.00     0.000 HD 
ENDBRANCH   8   9
ENDBRANCH   2   8
TORSDOF 2
ENDMDL
MODEL      207
REMARK 921   NORMALIZED FREE ENERGY PREDICTED BY IDOCK:   -3.41 KCAL/MOL
REMARK 922        TOTAL FREE ENERGY PREDICTED BY IDOCK:   -4.10 KCAL/MOL
REMARK 923 INTER-LIGAND FREE ENERGY PREDICTED BY IDOCK:   -3.79 KCAL/MOL
REMARK 924 INTRA-LIGAND FREE ENERGY PREDICTED BY IDOCK:   -0.31 KCAL/MOL
REMARK 927      BINDING AFFINITY PREDICTED BY RF-SCORE:    0.00 PKD
ROOT
HETATM    1  N   UNL     1      -8.815   5.695  69.103  1.00  0.00    -0.110 NA 
HETATM    2  CA  UNL     1      -9.732   6.850  68.812  1.00  0.00    -0.137 C  
HETATM    3  H1  UNL     1      -9.220   4.783  68.892  1.00  0.00     0.000 HD 
HETATM    4  H2  UNL     1      -8.492   5.728  70.070  1.00  0.00     0.000 HD 
HETATM    5  OXT UNL     1     -10.731   7.655  66.719  1.00  0.00    -0.318 OA 
HETATM    6  C   UNL     1     -10.088   6.808  67.318  1.00  0.00    -0.182 C  
HETATM    7  O   UNL     1      -9.586   5.693  66.721  1.00  0.00    -0.133 OA 
ENDROOT
BRANCH   2   8
HETATM    8  C   UNL     1      -9.122   8.225  69.131  1.00  0.00    -0.148 C  
BRANCH   8   9
HETATM    9  C   UNL     1     -10.067   9.171  69.809  1.00  0.00    -0.211 A  
HETATM   10  C   UNL     1     -10.633   9.003  71.057  1.00  0.00    -0.271 A  
HETATM   11  N   UNL     1     -11.456  10.068  71.306  1.00  0.00    -0.356 NA 
HETATM   12  H   UNL     1     -12.004  10.197  72.157  1.00  0.00     0.000 HD 
HETATM   13  C   UNL     1     -11.440  10.941  70.243  1.00  0.00    -0.302 A  
HETATM   14  C   UNL     1     -10.587  10.397  69.279  1.00  0.00    -0.259 A  
HETATM   15  C   UNL     1     -10.415  11.096  68.063  1.00  0.00    -0.217 A  
HETATM   16  C   UNL     1     -11.082  12.310  67.880  1.00  0.00    -0.243 A  
HETATM   17  C   UNL     1     -11.918  12.832  68.857  1.00  0.00    -0.286 A  
HETATM   18  O   UNL     1     -10.935  13.026  66.728  1.00  0.00    -0.268 OA 
HETATM   19  C   UNL     1     -12.119  12.151  70.061  1.00  0.00    -0.352 A  
HETATM   20  H   UNL     1     -11.389  13.852  66.604  1.00  0.00     0.000 HD 
ENDBRANCH   8   9
ENDBRANCH   2   8
TORSDOF 2
ENDMDL
MODEL      208
REMARK 921   NORMALIZED FREE ENERGY PREDICTED BY IDOCK:   -3.39 KCAL/MOL
REMARK 922        TOTAL FREE ENERGY PREDICTED BY IDOCK:   -4.08 KCAL/MOL
REMARK 923 INTER-LIGAND FREE ENERGY PREDICTED BY IDOCK:   -4.08 KCAL/MOL
REMARK 924 INTRA-LIGAND FREE ENERGY PREDICTED BY IDOCK:   -0.00 KCAL/MOL
REMARK 927      BINDING AFFINITY PREDICTED BY RF-SCORE:    0.00 PKD
ROOT
HETATM    1  N   UNL     1      -9.675  15.655  65.962  1.00  0.00    -0.318 NA 
HETATM    2  CA  UNL     1     -10.143  14.331  65.426  1.00  0.00    -0.351 C  
HETATM    3  H1  UNL     1      -9.327  16.291  65.245  1.00  0.00     0.000 HD 
HETATM    4  H2  UNL     1      -8.976  15.520  66.692  1.00  0.00     0.000 HD 
HETATM    5  OXT UNL     1     -11.948  13.744  63.869  1.00  0.00    -0.435 OA 
HETATM    6  C   UNL     1     -11.272  14.599  64.419  1.00  0.00    -0.177 C  
HETATM    7  O   UNL     1     -11.442  15.932  64.209  1.00  0.00    -0.402 OA 
ENDROOT
BRANCH   2   8
HETATM    8  C   UNL     1     -10.668  13.372  66.506  1.00  0.00    -0.287 C  
BRANCH   8   9
HETATM    9  C   UNL     1      -9.592  12.717  67.319  1.00  0.00    -0.203 A  
HETATM   10  C   UNL     1      -8.275  13.124  67.406  1.00  0.00    -0.187 A  
HETATM   11  N   UNL     1      -7.607  12.252  68.224  1.00  0.00    -0.125 NA 
HETATM   12  H   UNL     1      -6.616  12.316  68.460  1.00  0.00     0.000 HD 
HETATM   13  C   UNL     1      -8.463  11.278  68.683  1.00  0.00    -0.143 A  
HETATM   14  C   UNL     1      -9.715  11.534  68.119  1.00  0.00    -0.192 A  
HETATM   15  C   UNL     1     -10.778  10.651  68.415  1.00  0.00    -0.260 A  
HETATM   16  C   UNL     1     -10.545   9.575  69.273  1.00  0.00    -0.220 A  
HETATM   17  C   UNL     1      -9.293   9.347  69.826  1.00  0.00    -0.217 A  
HETATM   18  O   UNL     1     -11.545   8.704  69.597  1.00  0.00    -0.385 OA 
HETATM   19  C   UNL     1      -8.221  10.195  69.535  1.00  0.00    -0.176 A  
HETATM   20  H   UNL     1     -11.385   7.972  70.182  1.00  0.00     0.000 HD 
ENDBRANCH   8   9
ENDBRANCH   2   8
TORSDOF 2
ENDMDL
MODEL      209
REMARK 921   NORMALIZED FREE ENERGY PREDICTED BY IDOCK:   -3.37 KCAL/MOL
REMARK 922        TOTAL FREE ENERGY PREDICTED BY IDOCK:   -4.06 KCAL/MOL
REMARK 923 INTER-LIGAND FREE ENERGY PREDICTED BY IDOCK:   -3.90 KCAL/MOL
REMARK 924 INTRA-LIGAND FREE ENERGY PREDICTED BY IDOCK:   -0.16 KCAL/MOL
REMARK 927      BINDING AFFINITY PREDICTED BY RF-SCORE:    0.00 PKD
ROOT
HETATM    1  N   UNL     1      -9.809  15.682  65.711  1.00  0.00    -0.340 NA 
HETATM    2  CA  UNL     1     -10.722  14.924  66.633  1.00  0.00    -0.312 C  
HETATM    3  H1  UNL     1     -10.247  16.488  65.265  1.00  0.00     0.000 HD 
HETATM    4  H2  UNL     1      -9.409  15.058  65.009  1.00  0.00     0.000 HD 
HETATM    5  OXT UNL     1     -11.868  15.584  68.702  1.00  0.00    -0.362 OA 
HETATM    6  C   UNL     1     -11.196  15.891  67.730  1.00  0.00    -0.258 C  
HETATM    7  O   UNL     1     -10.765  17.159  67.492  1.00  0.00    -0.342 OA 
ENDROOT
BRANCH   2   8
HETATM    8  C   UNL     1     -10.063  13.709  67.304  1.00  0.00    -0.239 C  
BRANCH   8   9
HETATM    9  C   UNL     1     -10.180  12.437  66.518  1.00  0.00    -0.244 A  
HETATM   10  C   UNL     1     -10.555  12.330  65.193  1.00  0.00    -0.285 A  
HETATM   11  N   UNL     1     -10.566  11.003  64.854  1.00  0.00    -0.288 NA 
HETATM   12  H   UNL     1     -10.811  10.639  63.933  1.00  0.00     0.000 HD 
HETATM   13  C   UNL     1     -10.200  10.232  65.933  1.00  0.00    -0.223 A  
HETATM   14  C   UNL     1      -9.965  11.104  66.999  1.00  0.00    -0.223 A  
HETATM   15  C   UNL     1      -9.596  10.554  68.247  1.00  0.00    -0.164 A  
HETATM   16  C   UNL     1      -9.458   9.170  68.362  1.00  0.00    -0.142 A  
HETATM   17  C   UNL     1      -9.690   8.326  67.285  1.00  0.00    -0.234 A  
HETATM   18  O   UNL     1      -9.090   8.595  69.544  1.00  0.00    -0.143 OA 
HETATM   19  C   UNL     1     -10.073   8.844  66.045  1.00  0.00    -0.098 A  
HETATM   20  H   UNL     1      -8.996   7.653  69.622  1.00  0.00     0.000 HD 
ENDBRANCH   8   9
ENDBRANCH   2   8
TORSDOF 2
ENDMDL
MODEL      210
REMARK 921   NORMALIZED FREE ENERGY PREDICTED BY IDOCK:   -3.36 KCAL/MOL
REMARK 922        TOTAL FREE ENERGY PREDICTED BY IDOCK:   -4.05 KCAL/MOL
REMARK 923 INTER-LIGAND FREE ENERGY PREDICTED BY IDOCK:   -3.76 KCAL/MOL
REMARK 924 INTRA-LIGAND FREE ENERGY PREDICTED BY IDOCK:   -0.29 KCAL/MOL
REMARK 927      BINDING AFFINITY PREDICTED BY RF-SCORE:    0.00 PKD
ROOT
HETATM    1  N   UNL     1      -9.279   5.210  72.056  1.00  0.00    -0.136 NA 
HETATM    2  CA  UNL     1      -9.080   6.654  71.687  1.00  0.00    -0.142 C  
HETATM    3  H1  UNL     1      -8.942   4.554  71.351  1.00  0.00     0.000 HD 
HETATM    4  H2  UNL     1     -10.257   5.028  72.277  1.00  0.00     0.000 HD 
HETATM    5  OXT UNL     1      -7.049   7.970  71.271  1.00  0.00    -0.052 OA 
HETATM    6  C   UNL     1      -7.576   6.888  71.480  1.00  0.00    -0.087 C  
HETATM    7  O   UNL     1      -6.877   5.724  71.565  1.00  0.00    -0.062 OA 
ENDROOT
BRANCH   2   8
HETATM    8  C   UNL     1      -9.588   7.644  72.748  1.00  0.00    -0.253 C  
BRANCH   8   9
HETATM    9  C   UNL     1     -10.903   8.281  72.411  1.00  0.00    -0.421 A  
HETATM   10  C   UNL     1     -12.130   7.952  72.952  1.00  0.00     0.037 A  
HETATM   11  N   UNL     1     -13.085   8.740  72.368  1.00  0.00    -0.512 NA 
HETATM   12  H   UNL     1     -14.082   8.704  72.581  1.00  0.00     0.000 HD 
HETATM   13  C   UNL     1     -12.507   9.589  71.452  1.00  0.00    -0.362 A  
HETATM   14  C   UNL     1     -11.138   9.314  71.445  1.00  0.00    -0.437 A  
HETATM   15  C   UNL     1     -10.311  10.040  70.559  1.00  0.00    -0.215 A  
HETATM   16  C   UNL     1     -10.888  11.017  69.744  1.00  0.00    -0.144 A  
HETATM   17  C   UNL     1     -12.250  11.276  69.775  1.00  0.00    -0.343 A  
HETATM   18  O   UNL     1     -10.126  11.752  68.882  1.00  0.00    -0.353 OA 
HETATM   19  C   UNL     1     -13.092  10.559  70.631  1.00  0.00    -0.278 A  
HETATM   20  H   UNL     1     -10.519  12.417  68.328  1.00  0.00     0.000 HD 
ENDBRANCH   8   9
ENDBRANCH   2   8
TORSDOF 2
ENDMDL
MODEL      211
REMARK 921   NORMALIZED FREE ENERGY PREDICTED BY IDOCK:   -3.34 KCAL/MOL
REMARK 922        TOTAL FREE ENERGY PREDICTED BY IDOCK:   -4.03 KCAL/MOL
REMARK 923 INTER-LIGAND FREE ENERGY PREDICTED BY IDOCK:   -3.77 KCAL/MOL
REMARK 924 INTRA-LIGAND FREE ENERGY PREDICTED BY IDOCK:   -0.26 KCAL/MOL
REMARK 927      BINDING AFFINITY PREDICTED BY RF-SCORE:    0.00 PKD
ROOT
HETATM    1  N   UNL     1      -8.398   7.431  67.314  1.00  0.00    -0.118 NA 
HETATM    2  CA  UNL     1      -8.814   8.131  68.578  1.00  0.00    -0.134 C  
HETATM    3  H1  UNL     1      -7.388   7.339  67.206  1.00  0.00     0.000 HD 
HETATM    4  H2  UNL     1      -8.806   7.890  66.499  1.00  0.00     0.000 HD 
HETATM    5  OXT UNL     1      -8.502   7.553  70.943  1.00  0.00    -0.123 OA 
HETATM    6  C   UNL     1      -8.267   7.326  69.767  1.00  0.00    -0.130 C  
HETATM    7  O   UNL     1      -7.474   6.303  69.349  1.00  0.00    -0.088 OA 
ENDROOT
BRANCH   2   8
HETATM    8  C   UNL     1     -10.336   8.270  68.741  1.00  0.00    -0.223 C  
BRANCH   8   9
HETATM    9  C   UNL     1     -10.846   9.668  68.558  1.00  0.00    -0.202 A  
HETATM   10  C   UNL     1     -11.435  10.454  69.529  1.00  0.00    -0.246 A  
HETATM   11  N   UNL     1     -11.786  11.650  68.962  1.00  0.00    -0.320 NA 
HETATM   12  H   UNL     1     -12.243  12.418  69.455  1.00  0.00     0.000 HD 
HETATM   13  C   UNL     1     -11.434  11.668  67.632  1.00  0.00    -0.303 A  
HETATM   14  C   UNL     1     -10.855  10.430  67.344  1.00  0.00    -0.344 A  
HETATM   15  C   UNL     1     -10.426  10.181  66.021  1.00  0.00    -0.165 A  
HETATM   16  C   UNL     1     -10.576  11.184  65.061  1.00  0.00    -0.273 A  
HETATM   17  C   UNL     1     -11.148  12.408  65.375  1.00  0.00    -0.344 A  
HETATM   18  O   UNL     1     -10.163  10.992  63.774  1.00  0.00    -0.316 OA 
HETATM   19  C   UNL     1     -11.596  12.673  66.672  1.00  0.00    -0.443 A  
HETATM   20  H   UNL     1     -10.266  11.675  63.121  1.00  0.00     0.000 HD 
ENDBRANCH   8   9
ENDBRANCH   2   8
TORSDOF 2
ENDMDL
MODEL      212
REMARK 921   NORMALIZED FREE ENERGY PREDICTED BY IDOCK:   -3.33 KCAL/MOL
REMARK 922        TOTAL FREE ENERGY PREDICTED BY IDOCK:   -4.01 KCAL/MOL
REMARK 923 INTER-LIGAND FREE ENERGY PREDICTED BY IDOCK:   -3.72 KCAL/MOL
REMARK 924 INTRA-LIGAND FREE ENERGY PREDICTED BY IDOCK:   -0.30 KCAL/MOL
REMARK 927      BINDING AFFINITY PREDICTED BY RF-SCORE:    0.00 PKD
ROOT
HETATM    1  N   UNL     1     -10.262   9.067  67.989  1.00  0.00    -0.202 NA 
HETATM    2  CA  UNL     1      -9.061   9.926  67.711  1.00  0.00    -0.131 C  
HETATM    3  H1  UNL     1     -10.314   8.229  67.409  1.00  0.00     0.000 HD 
HETATM    4  H2  UNL     1     -11.121   9.612  67.908  1.00  0.00     0.000 HD 
HETATM    5  OXT UNL     1      -6.655   9.491  67.930  1.00  0.00    -0.061 OA 
HETATM    6  C   UNL     1      -7.804   9.080  67.962  1.00  0.00    -0.101 C  
HETATM    7  O   UNL     1      -8.125   7.787  68.237  1.00  0.00    -0.120 OA 
ENDROOT
BRANCH   2   8
HETATM    8  C   UNL     1      -8.983  11.189  68.584  1.00  0.00    -0.162 C  
BRANCH   8   9
HETATM    9  C   UNL     1      -8.717  12.449  67.816  1.00  0.00    -0.176 A  
HETATM   10  C   UNL     1      -7.489  13.059  67.651  1.00  0.00    -0.156 A  
HETATM   11  N   UNL     1      -7.667  14.197  66.911  1.00  0.00    -0.276 NA 
HETATM   12  H   UNL     1      -6.923  14.842  66.644  1.00  0.00     0.000 HD 
HETATM   13  C   UNL     1      -8.994  14.347  66.580  1.00  0.00    -0.205 A  
HETATM   14  C   UNL     1      -9.682  13.272  67.148  1.00  0.00    -0.236 A  
HETATM   15  C   UNL     1     -11.083  13.204  66.976  1.00  0.00    -0.305 A  
HETATM   16  C   UNL     1     -11.721  14.197  66.229  1.00  0.00    -0.390 A  
HETATM   17  C   UNL     1     -11.013  15.251  65.670  1.00  0.00    -0.348 A  
HETATM   18  O   UNL     1     -13.070  14.165  66.025  1.00  0.00    -0.461 OA 
HETATM   19  C   UNL     1      -9.630  15.350  65.841  1.00  0.00    -0.386 A  
HETATM   20  H   UNL     1     -13.504  14.841  65.517  1.00  0.00     0.000 HD 
ENDBRANCH   8   9
ENDBRANCH   2   8
TORSDOF 2
ENDMDL
MODEL      213
REMARK 921   NORMALIZED FREE ENERGY PREDICTED BY IDOCK:   -3.32 KCAL/MOL
REMARK 922        TOTAL FREE ENERGY PREDICTED BY IDOCK:   -4.01 KCAL/MOL
REMARK 923 INTER-LIGAND FREE ENERGY PREDICTED BY IDOCK:   -3.97 KCAL/MOL
REMARK 924 INTRA-LIGAND FREE ENERGY PREDICTED BY IDOCK:   -0.04 KCAL/MOL
REMARK 927      BINDING AFFINITY PREDICTED BY RF-SCORE:    0.00 PKD
ROOT
HETATM    1  N   UNL     1     -11.924  13.330  66.959  1.00  0.00    -0.380 NA 
HETATM    2  CA  UNL     1     -12.077  14.305  68.093  1.00  0.00    -0.240 C  
HETATM    3  H1  UNL     1     -12.249  13.688  66.060  1.00  0.00     0.000 HD 
HETATM    4  H2  UNL     1     -12.384  12.447  67.180  1.00  0.00     0.000 HD 
HETATM    5  OXT UNL     1     -11.089  16.517  68.491  1.00  0.00    -0.348 OA 
HETATM    6  C   UNL     1     -11.269  15.565  67.748  1.00  0.00    -0.302 C  
HETATM    7  O   UNL     1     -10.757  15.495  66.489  1.00  0.00    -0.306 OA 
ENDROOT
BRANCH   2   8
HETATM    8  C   UNL     1     -11.589  13.767  69.447  1.00  0.00    -0.365 C  
BRANCH   8   9
HETATM    9  C   UNL     1     -11.454  12.275  69.500  1.00  0.00    -0.318 A  
HETATM   10  C   UNL     1     -12.358  11.393  70.061  1.00  0.00    -0.237 A  
HETATM   11  N   UNL     1     -11.860  10.124  69.931  1.00  0.00    -0.436 NA 
HETATM   12  H   UNL     1     -12.325   9.279  70.263  1.00  0.00     0.000 HD 
HETATM   13  C   UNL     1     -10.644  10.152  69.288  1.00  0.00    -0.230 A  
HETATM   14  C   UNL     1     -10.354  11.491  69.018  1.00  0.00    -0.143 A  
HETATM   15  C   UNL     1      -9.132  11.798  68.379  1.00  0.00    -0.176 A  
HETATM   16  C   UNL     1      -8.275  10.755  68.022  1.00  0.00    -0.115 A  
HETATM   17  C   UNL     1      -8.590   9.432  68.296  1.00  0.00    -0.120 A  
HETATM   18  O   UNL     1      -7.091  11.003  67.390  1.00  0.00    -0.087 OA 
HETATM   19  C   UNL     1      -9.785   9.104  68.943  1.00  0.00    -0.165 A  
HETATM   20  H   UNL     1      -6.507  10.292  67.148  1.00  0.00     0.000 HD 
ENDBRANCH   8   9
ENDBRANCH   2   8
TORSDOF 2
ENDMDL
MODEL      214
REMARK 921   NORMALIZED FREE ENERGY PREDICTED BY IDOCK:   -3.30 KCAL/MOL
REMARK 922        TOTAL FREE ENERGY PREDICTED BY IDOCK:   -3.98 KCAL/MOL
REMARK 923 INTER-LIGAND FREE ENERGY PREDICTED BY IDOCK:   -3.72 KCAL/MOL
REMARK 924 INTRA-LIGAND FREE ENERGY PREDICTED BY IDOCK:   -0.26 KCAL/MOL
REMARK 927      BINDING AFFINITY PREDICTED BY RF-SCORE:    0.00 PKD
ROOT
HETATM    1  N   UNL     1     -10.876  10.993  66.634  1.00  0.00    -0.252 NA 
HETATM    2  CA  UNL     1      -9.382  10.865  66.753  1.00  0.00    -0.165 C  
HETATM    3  H1  UNL     1     -11.258  10.587  65.780  1.00  0.00     0.000 HD 
HETATM    4  H2  UNL     1     -11.161  11.967  66.727  1.00  0.00     0.000 HD 
HETATM    5  OXT UNL     1      -7.917   8.901  66.898  1.00  0.00    -0.100 OA 
HETATM    6  C   UNL     1      -9.030   9.370  66.722  1.00  0.00    -0.131 C  
HETATM    7  O   UNL     1     -10.130   8.608  66.477  1.00  0.00    -0.273 OA 
ENDROOT
BRANCH   2   8
HETATM    8  C   UNL     1      -8.805  11.477  68.040  1.00  0.00    -0.158 C  
BRANCH   8   9
HETATM    9  C   UNL     1      -8.555  12.953  67.956  1.00  0.00    -0.186 A  
HETATM   10  C   UNL     1      -7.369  13.559  67.592  1.00  0.00    -0.174 A  
HETATM   11  N   UNL     1      -7.536  14.916  67.665  1.00  0.00    -0.164 NA 
HETATM   12  H   UNL     1      -6.815  15.606  67.452  1.00  0.00     0.000 HD 
HETATM   13  C   UNL     1      -8.817  15.217  68.068  1.00  0.00    -0.170 A  
HETATM   14  C   UNL     1      -9.478  14.004  68.274  1.00  0.00    -0.216 A  
HETATM   15  C   UNL     1     -10.817  14.036  68.723  1.00  0.00    -0.279 A  
HETATM   16  C   UNL     1     -11.434  15.272  68.921  1.00  0.00    -0.332 A  
HETATM   17  C   UNL     1     -10.757  16.464  68.703  1.00  0.00    -0.317 A  
HETATM   18  O   UNL     1     -12.730  15.352  69.341  1.00  0.00    -0.586 OA 
HETATM   19  C   UNL     1      -9.427  16.459  68.275  1.00  0.00    -0.217 A  
HETATM   20  H   UNL     1     -13.150  16.194  69.476  1.00  0.00     0.000 HD 
ENDBRANCH   8   9
ENDBRANCH   2   8
TORSDOF 2
ENDMDL
MODEL      215
REMARK 921   NORMALIZED FREE ENERGY PREDICTED BY IDOCK:   -3.29 KCAL/MOL
REMARK 922        TOTAL FREE ENERGY PREDICTED BY IDOCK:   -3.97 KCAL/MOL
REMARK 923 INTER-LIGAND FREE ENERGY PREDICTED BY IDOCK:   -3.71 KCAL/MOL
REMARK 924 INTRA-LIGAND FREE ENERGY PREDICTED BY IDOCK:   -0.26 KCAL/MOL
REMARK 927      BINDING AFFINITY PREDICTED BY RF-SCORE:    0.00 PKD
ROOT
HETATM    1  N   UNL     1      -8.586  11.026  66.313  1.00  0.00    -0.164 NA 
HETATM    2  CA  UNL     1      -8.568   9.536  66.513  1.00  0.00    -0.134 C  
HETATM    3  H1  UNL     1      -7.692  11.479  66.501  1.00  0.00     0.000 HD 
HETATM    4  H2  UNL     1      -9.329  11.453  66.866  1.00  0.00     0.000 HD 
HETATM    5  OXT UNL     1      -7.302   7.753  65.398  1.00  0.00    -0.072 OA 
HETATM    6  C   UNL     1      -7.510   8.943  65.569  1.00  0.00    -0.086 C  
HETATM    7  O   UNL     1      -6.819   9.921  64.924  1.00  0.00    -0.114 OA 
ENDROOT
BRANCH   2   8
HETATM    8  C   UNL     1      -9.915   8.852  66.230  1.00  0.00    -0.337 C  
BRANCH   8   9
HETATM    9  C   UNL     1     -10.224   7.706  67.145  1.00  0.00    -0.360 A  
HETATM   10  C   UNL     1     -10.304   6.375  66.786  1.00  0.00    -0.213 A  
HETATM   11  N   UNL     1     -10.633   5.646  67.898  1.00  0.00    -0.217 NA 
HETATM   12  H   UNL     1     -10.761   4.634  67.915  1.00  0.00     0.000 HD 
HETATM   13  C   UNL     1     -10.767   6.475  68.988  1.00  0.00    -0.278 A  
HETATM   14  C   UNL     1     -10.531   7.778  68.544  1.00  0.00    -0.202 A  
HETATM   15  C   UNL     1     -10.635   8.835  69.476  1.00  0.00    -0.224 A  
HETATM   16  C   UNL     1     -10.945   8.536  70.804  1.00  0.00    -0.247 A  
HETATM   17  C   UNL     1     -11.168   7.232  71.221  1.00  0.00    -0.281 A  
HETATM   18  O   UNL     1     -11.042   9.523  71.742  1.00  0.00    -0.352 OA 
HETATM   19  C   UNL     1     -11.089   6.171  70.315  1.00  0.00    -0.436 A  
HETATM   20  H   UNL     1     -11.253   9.320  72.647  1.00  0.00     0.000 HD 
ENDBRANCH   8   9
ENDBRANCH   2   8
TORSDOF 2
ENDMDL
MODEL      216
REMARK 921   NORMALIZED FREE ENERGY PREDICTED BY IDOCK:   -3.28 KCAL/MOL
REMARK 922        TOTAL FREE ENERGY PREDICTED BY IDOCK:   -3.96 KCAL/MOL
REMARK 923 INTER-LIGAND FREE ENERGY PREDICTED BY IDOCK:   -3.75 KCAL/MOL
REMARK 924 INTRA-LIGAND FREE ENERGY PREDICTED BY IDOCK:   -0.22 KCAL/MOL
REMARK 927      BINDING AFFINITY PREDICTED BY RF-SCORE:    0.00 PKD
ROOT
HETATM    1  N   UNL     1     -11.180   9.702  68.456  1.00  0.00    -0.494 NA 
HETATM    2  CA  UNL     1      -9.958   8.918  68.066  1.00  0.00    -0.178 C  
HETATM    3  H1  UNL     1     -11.885   9.152  68.945  1.00  0.00     0.000 HD 
HETATM    4  H2  UNL     1     -11.586  10.163  67.641  1.00  0.00     0.000 HD 
HETATM    5  OXT UNL     1      -8.270   7.747  69.410  1.00  0.00    -0.127 OA 
HETATM    6  C   UNL     1      -9.330   8.349  69.347  1.00  0.00    -0.154 C  
HETATM    7  O   UNL     1     -10.108   8.605  70.434  1.00  0.00    -0.180 OA 
ENDROOT
BRANCH   2   8
HETATM    8  C   UNL     1      -8.895   9.747  67.327  1.00  0.00    -0.139 C  
BRANCH   8   9
HETATM    9  C   UNL     1      -9.456  10.869  66.506  1.00  0.00    -0.210 A  
HETATM   10  C   UNL     1      -9.960  10.769  65.224  1.00  0.00    -0.282 A  
HETATM   11  N   UNL     1     -10.348  12.016  64.813  1.00  0.00    -0.270 NA 
HETATM   12  H   UNL     1     -10.753  12.230  63.901  1.00  0.00     0.000 HD 
HETATM   13  C   UNL     1     -10.112  12.939  65.805  1.00  0.00    -0.287 A  
HETATM   14  C   UNL     1      -9.537  12.252  66.877  1.00  0.00    -0.214 A  
HETATM   15  C   UNL     1      -9.171  12.986  68.027  1.00  0.00    -0.212 A  
HETATM   16  C   UNL     1      -9.417  14.361  68.058  1.00  0.00    -0.209 A  
HETATM   17  C   UNL     1      -9.996  15.018  66.983  1.00  0.00    -0.242 A  
HETATM   18  O   UNL     1      -9.092  15.108  69.153  1.00  0.00    -0.206 OA 
HETATM   19  C   UNL     1     -10.351  14.317  65.827  1.00  0.00    -0.341 A  
HETATM   20  H   UNL     1      -9.259  16.043  69.174  1.00  0.00     0.000 HD 
ENDBRANCH   8   9
ENDBRANCH   2   8
TORSDOF 2
ENDMDL
MODEL      217
REMARK 921   NORMALIZED FREE ENERGY PREDICTED BY IDOCK:   -3.28 KCAL/MOL
REMARK 922        TOTAL FREE ENERGY PREDICTED BY IDOCK:   -3.96 KCAL/MOL
REMARK 923 INTER-LIGAND FREE ENERGY PREDICTED BY IDOCK:   -3.71 KCAL/MOL
REMARK 924 INTRA-LIGAND FREE ENERGY PREDICTED BY IDOCK:   -0.25 KCAL/MOL
REMARK 927      BINDING AFFINITY PREDICTED BY RF-SCORE:    0.00 PKD
ROOT
HETATM    1  N   UNL     1      -9.341  12.850  66.091  1.00  0.00    -0.441 NA 
HETATM    2  CA  UNL     1     -10.051  12.114  64.989  1.00  0.00    -0.263 C  
HETATM    3  H1  UNL     1      -8.713  13.583  65.760  1.00  0.00     0.000 HD 
HETATM    4  H2  UNL     1      -8.843  12.198  66.696  1.00  0.00     0.000 HD 
HETATM    5  OXT UNL     1     -11.649  12.868  63.285  1.00  0.00    -0.488 OA 
HETATM    6  C   UNL     1     -10.871  13.135  64.187  1.00  0.00    -0.380 C  
HETATM    7  O   UNL     1     -10.632  14.405  64.613  1.00  0.00    -0.415 OA 
ENDROOT
BRANCH   2   8
HETATM    8  C   UNL     1     -10.996  11.009  65.487  1.00  0.00    -0.086 C  
BRANCH   8   9
HETATM    9  C   UNL     1     -10.331   9.973  66.343  1.00  0.00    -0.249 A  
HETATM   10  C   UNL     1     -10.540   9.776  67.694  1.00  0.00    -0.276 A  
HETATM   11  N   UNL     1      -9.728   8.756  68.112  1.00  0.00    -0.153 NA 
HETATM   12  H   UNL     1      -9.678   8.404  69.069  1.00  0.00     0.000 HD 
HETATM   13  C   UNL     1      -8.989   8.272  67.057  1.00  0.00    -0.140 A  
HETATM   14  C   UNL     1      -9.334   9.028  65.934  1.00  0.00    -0.306 A  
HETATM   15  C   UNL     1      -8.688   8.745  64.709  1.00  0.00    -0.133 A  
HETATM   16  C   UNL     1      -7.750   7.712  64.663  1.00  0.00    -0.121 A  
HETATM   17  C   UNL     1      -7.429   6.972  65.792  1.00  0.00    -0.081 A  
HETATM   18  O   UNL     1      -7.110   7.395  63.499  1.00  0.00    -0.060 OA 
HETATM   19  C   UNL     1      -8.041   7.244  67.018  1.00  0.00    -0.117 A  
HETATM   20  H   UNL     1      -6.472   6.692  63.468  1.00  0.00     0.000 HD 
ENDBRANCH   8   9
ENDBRANCH   2   8
TORSDOF 2
ENDMDL
MODEL      218
REMARK 921   NORMALIZED FREE ENERGY PREDICTED BY IDOCK:   -3.24 KCAL/MOL
REMARK 922        TOTAL FREE ENERGY PREDICTED BY IDOCK:   -3.92 KCAL/MOL
REMARK 923 INTER-LIGAND FREE ENERGY PREDICTED BY IDOCK:   -3.84 KCAL/MOL
REMARK 924 INTRA-LIGAND FREE ENERGY PREDICTED BY IDOCK:   -0.08 KCAL/MOL
REMARK 927      BINDING AFFINITY PREDICTED BY RF-SCORE:    0.00 PKD
ROOT
HETATM    1  N   UNL     1     -10.527   9.204  71.717  1.00  0.00    -0.350 NA 
HETATM    2  CA  UNL     1     -11.462   8.403  70.855  1.00  0.00    -0.267 C  
HETATM    3  H1  UNL     1     -10.978   9.974  72.212  1.00  0.00     0.000 HD 
HETATM    4  H2  UNL     1      -9.736   9.544  71.170  1.00  0.00     0.000 HD 
HETATM    5  OXT UNL     1     -13.430   7.043  71.404  1.00  0.00    -0.345 OA 
HETATM    6  C   UNL     1     -12.563   7.825  71.757  1.00  0.00    -0.329 C  
HETATM    7  O   UNL     1     -12.454   8.292  73.031  1.00  0.00    -0.172 OA 
ENDROOT
BRANCH   2   8
HETATM    8  C   UNL     1     -10.782   7.243  70.109  1.00  0.00    -0.260 C  
BRANCH   8   9
HETATM    9  C   UNL     1     -10.504   7.524  68.663  1.00  0.00    -0.207 A  
HETATM   10  C   UNL     1     -10.876   6.734  67.593  1.00  0.00    -0.289 A  
HETATM   11  N   UNL     1     -10.415   7.318  66.444  1.00  0.00    -0.447 NA 
HETATM   12  H   UNL     1     -10.546   6.942  65.504  1.00  0.00     0.000 HD 
HETATM   13  C   UNL     1      -9.748   8.485  66.737  1.00  0.00    -0.236 A  
HETATM   14  C   UNL     1      -9.774   8.635  68.125  1.00  0.00    -0.178 A  
HETATM   15  C   UNL     1      -9.126   9.755  68.693  1.00  0.00    -0.130 A  
HETATM   16  C   UNL     1      -8.508  10.678  67.847  1.00  0.00    -0.120 A  
HETATM   17  C   UNL     1      -8.503  10.510  66.470  1.00  0.00    -0.139 A  
HETATM   18  O   UNL     1      -7.882  11.782  68.350  1.00  0.00    -0.128 OA 
HETATM   19  C   UNL     1      -9.121   9.401  65.886  1.00  0.00    -0.242 A  
HETATM   20  H   UNL     1      -7.461  12.411  67.774  1.00  0.00     0.000 HD 
ENDBRANCH   8   9
ENDBRANCH   2   8
TORSDOF 2
ENDMDL
MODEL      219
REMARK 921   NORMALIZED FREE ENERGY PREDICTED BY IDOCK:   -3.23 KCAL/MOL
REMARK 922        TOTAL FREE ENERGY PREDICTED BY IDOCK:   -3.91 KCAL/MOL
REMARK 923 INTER-LIGAND FREE ENERGY PREDICTED BY IDOCK:   -3.65 KCAL/MOL
REMARK 924 INTRA-LIGAND FREE ENERGY PREDICTED BY IDOCK:   -0.26 KCAL/MOL
REMARK 927      BINDING AFFINITY PREDICTED BY RF-SCORE:    0.00 PKD
ROOT
HETATM    1  N   UNL     1      -9.555   6.955  68.239  1.00  0.00    -0.129 NA 
HETATM    2  CA  UNL     1      -9.071   6.792  69.653  1.00  0.00    -0.143 C  
HETATM    3  H1  UNL     1     -10.026   6.131  67.866  1.00  0.00     0.000 HD 
HETATM    4  H2  UNL     1      -8.790   7.239  67.627  1.00  0.00     0.000 HD 
HETATM    5  OXT UNL     1     -10.272   6.390  71.755  1.00  0.00    -0.195 OA 
HETATM    6  C   UNL     1     -10.287   6.482  70.538  1.00  0.00    -0.201 C  
HETATM    7  O   UNL     1     -11.414   6.323  69.793  1.00  0.00    -0.430 OA 
ENDROOT
BRANCH   2   8
HETATM    8  C   UNL     1      -8.361   8.034  70.215  1.00  0.00    -0.125 C  
BRANCH   8   9
HETATM    9  C   UNL     1      -8.714   9.311  69.514  1.00  0.00    -0.146 A  
HETATM   10  C   UNL     1      -7.902  10.018  68.649  1.00  0.00    -0.091 A  
HETATM   11  N   UNL     1      -8.576  11.139  68.243  1.00  0.00    -0.140 NA 
HETATM   12  H   UNL     1      -8.207  11.842  67.602  1.00  0.00     0.000 HD 
HETATM   13  C   UNL     1      -9.824  11.181  68.821  1.00  0.00    -0.192 A  
HETATM   14  C   UNL     1      -9.935  10.053  69.639  1.00  0.00    -0.263 A  
HETATM   15  C   UNL     1     -11.126   9.873  70.376  1.00  0.00    -0.382 A  
HETATM   16  C   UNL     1     -12.152  10.811  70.244  1.00  0.00    -0.348 A  
HETATM   17  C   UNL     1     -12.019  11.919  69.419  1.00  0.00    -0.350 A  
HETATM   18  O   UNL     1     -13.326  10.670  70.926  1.00  0.00    -0.243 OA 
HETATM   19  C   UNL     1     -10.844  12.130  68.693  1.00  0.00    -0.268 A  
HETATM   20  H   UNL     1     -14.024  11.309  70.836  1.00  0.00     0.000 HD 
ENDBRANCH   8   9
ENDBRANCH   2   8
TORSDOF 2
ENDMDL
MODEL      220
REMARK 921   NORMALIZED FREE ENERGY PREDICTED BY IDOCK:   -3.23 KCAL/MOL
REMARK 922        TOTAL FREE ENERGY PREDICTED BY IDOCK:   -3.91 KCAL/MOL
REMARK 923 INTER-LIGAND FREE ENERGY PREDICTED BY IDOCK:   -4.01 KCAL/MOL
REMARK 924 INTRA-LIGAND FREE ENERGY PREDICTED BY IDOCK:    0.10 KCAL/MOL
REMARK 927      BINDING AFFINITY PREDICTED BY RF-SCORE:    0.00 PKD
ROOT
HETATM    1  N   UNL     1     -11.140   9.599  71.324  1.00  0.00    -0.365 NA 
HETATM    2  CA  UNL     1     -12.126   8.547  71.752  1.00  0.00    -0.333 C  
HETATM    3  H1  UNL     1     -11.468  10.184  70.555  1.00  0.00     0.000 HD 
HETATM    4  H2  UNL     1     -10.241   9.177  71.096  1.00  0.00     0.000 HD 
HETATM    5  OXT UNL     1     -14.387   8.713  72.693  1.00  0.00    -0.533 OA 
HETATM    6  C   UNL     1     -13.416   9.256  72.192  1.00  0.00    -0.473 C  
HETATM    7  O   UNL     1     -13.349  10.595  71.958  1.00  0.00    -0.440 OA 
ENDROOT
BRANCH   2   8
HETATM    8  C   UNL     1     -11.633   7.666  72.911  1.00  0.00    -0.280 C  
BRANCH   8   9
HETATM    9  C   UNL     1     -10.196   7.252  72.797  1.00  0.00    -0.266 A  
HETATM   10  C   UNL     1      -9.096   8.051  73.042  1.00  0.00    -0.265 A  
HETATM   11  N   UNL     1      -7.966   7.315  72.802  1.00  0.00    -0.100 NA 
HETATM   12  H   UNL     1      -7.012   7.662  72.901  1.00  0.00     0.000 HD 
HETATM   13  C   UNL     1      -8.302   6.041  72.406  1.00  0.00    -0.116 A  
HETATM   14  C   UNL     1      -9.697   5.975  72.379  1.00  0.00    -0.172 A  
HETATM   15  C   UNL     1     -10.305   4.765  71.973  1.00  0.00    -0.247 A  
HETATM   16  C   UNL     1      -9.492   3.680  71.640  1.00  0.00    -0.145 A  
HETATM   17  C   UNL     1      -8.108   3.769  71.682  1.00  0.00    -0.066 A  
HETATM   18  O   UNL     1     -10.035   2.487  71.256  1.00  0.00    -0.122 OA 
HETATM   19  C   UNL     1      -7.483   4.960  72.062  1.00  0.00    -0.083 A  
HETATM   20  H   UNL     1      -9.482   1.749  71.029  1.00  0.00     0.000 HD 
ENDBRANCH   8   9
ENDBRANCH   2   8
TORSDOF 2
ENDMDL
MODEL      221
REMARK 921   NORMALIZED FREE ENERGY PREDICTED BY IDOCK:   -3.22 KCAL/MOL
REMARK 922        TOTAL FREE ENERGY PREDICTED BY IDOCK:   -3.90 KCAL/MOL
REMARK 923 INTER-LIGAND FREE ENERGY PREDICTED BY IDOCK:   -3.64 KCAL/MOL
REMARK 924 INTRA-LIGAND FREE ENERGY PREDICTED BY IDOCK:   -0.26 KCAL/MOL
REMARK 927      BINDING AFFINITY PREDICTED BY RF-SCORE:    0.00 PKD
ROOT
HETATM    1  N   UNL     1      -9.519  13.130  66.989  1.00  0.00    -0.234 NA 
HETATM    2  CA  UNL     1      -9.268  12.231  68.168  1.00  0.00    -0.197 C  
HETATM    3  H1  UNL     1      -9.211  14.092  67.131  1.00  0.00     0.000 HD 
HETATM    4  H2  UNL     1     -10.503  13.104  66.722  1.00  0.00     0.000 HD 
HETATM    5  OXT UNL     1      -7.191  11.522  69.268  1.00  0.00    -0.110 OA 
HETATM    6  C   UNL     1      -7.757  12.224  68.446  1.00  0.00    -0.141 C  
HETATM    7  O   UNL     1      -7.103  13.109  67.646  1.00  0.00    -0.132 OA 
ENDROOT
BRANCH   2   8
HETATM    8  C   UNL     1      -9.732  10.781  67.956  1.00  0.00    -0.174 C  
BRANCH   8   9
HETATM    9  C   UNL     1     -10.458  10.193  69.128  1.00  0.00    -0.242 A  
HETATM   10  C   UNL     1     -11.039  10.898  70.164  1.00  0.00    -0.161 A  
HETATM   11  N   UNL     1     -11.577  10.001  71.048  1.00  0.00    -0.372 NA 
HETATM   12  H   UNL     1     -12.065  10.251  71.909  1.00  0.00     0.000 HD 
HETATM   13  C   UNL     1     -11.367   8.714  70.609  1.00  0.00    -0.247 A  
HETATM   14  C   UNL     1     -10.652   8.801  69.412  1.00  0.00    -0.218 A  
HETATM   15  C   UNL     1     -10.282   7.602  68.763  1.00  0.00    -0.210 A  
HETATM   16  C   UNL     1     -10.661   6.383  69.327  1.00  0.00    -0.292 A  
HETATM   17  C   UNL     1     -11.377   6.324  70.514  1.00  0.00    -0.428 A  
HETATM   18  O   UNL     1     -10.337   5.200  68.727  1.00  0.00    -0.166 OA 
HETATM   19  C   UNL     1     -11.740   7.495  71.185  1.00  0.00    -0.315 A  
HETATM   20  H   UNL     1     -10.596   4.370  69.111  1.00  0.00     0.000 HD 
ENDBRANCH   8   9
ENDBRANCH   2   8
TORSDOF 2
ENDMDL
MODEL      222
REMARK 921   NORMALIZED FREE ENERGY PREDICTED BY IDOCK:   -3.21 KCAL/MOL
REMARK 922        TOTAL FREE ENERGY PREDICTED BY IDOCK:   -3.88 KCAL/MOL
REMARK 923 INTER-LIGAND FREE ENERGY PREDICTED BY IDOCK:   -3.61 KCAL/MOL
REMARK 924 INTRA-LIGAND FREE ENERGY PREDICTED BY IDOCK:   -0.27 KCAL/MOL
REMARK 927      BINDING AFFINITY PREDICTED BY RF-SCORE:    0.00 PKD
ROOT
HETATM    1  N   UNL     1     -11.375   9.877  67.741  1.00  0.00    -0.527 NA 
HETATM    2  CA  UNL     1     -10.060  10.365  68.282  1.00  0.00    -0.153 C  
HETATM    3  H1  UNL     1     -11.385   8.883  67.514  1.00  0.00     0.000 HD 
HETATM    4  H2  UNL     1     -11.659  10.433  66.935  1.00  0.00     0.000 HD 
HETATM    5  OXT UNL     1      -8.807   9.775  70.309  1.00  0.00    -0.225 OA 
HETATM    6  C   UNL     1      -9.747   9.569  69.558  1.00  0.00    -0.190 C  
HETATM    7  O   UNL     1     -10.664   8.585  69.765  1.00  0.00    -0.229 OA 
ENDROOT
BRANCH   2   8
HETATM    8  C   UNL     1     -10.044  11.863  68.624  1.00  0.00    -0.186 C  
BRANCH   8   9
HETATM    9  C   UNL     1      -8.882  12.612  68.044  1.00  0.00    -0.195 A  
HETATM   10  C   UNL     1      -7.828  12.063  67.340  1.00  0.00    -0.162 A  
HETATM   11  N   UNL     1      -6.962  13.069  67.005  1.00  0.00    -0.400 NA 
HETATM   12  H   UNL     1      -6.094  12.941  66.483  1.00  0.00     0.000 HD 
HETATM   13  C   UNL     1      -7.429  14.275  67.472  1.00  0.00    -0.182 A  
HETATM   14  C   UNL     1      -8.627  14.019  68.143  1.00  0.00    -0.181 A  
HETATM   15  C   UNL     1      -9.303  15.103  68.747  1.00  0.00    -0.200 A  
HETATM   16  C   UNL     1      -8.764  16.385  68.632  1.00  0.00    -0.234 A  
HETATM   17  C   UNL     1      -7.576  16.614  67.953  1.00  0.00    -0.169 A  
HETATM   18  O   UNL     1      -9.390  17.464  69.187  1.00  0.00    -0.158 OA 
HETATM   19  C   UNL     1      -6.878  15.557  67.362  1.00  0.00    -0.224 A  
HETATM   20  H   UNL     1      -9.023  18.337  69.108  1.00  0.00     0.000 HD 
ENDBRANCH   8   9
ENDBRANCH   2   8
TORSDOF 2
ENDMDL
MODEL      223
REMARK 921   NORMALIZED FREE ENERGY PREDICTED BY IDOCK:   -3.20 KCAL/MOL
REMARK 922        TOTAL FREE ENERGY PREDICTED BY IDOCK:   -3.87 KCAL/MOL
REMARK 923 INTER-LIGAND FREE ENERGY PREDICTED BY IDOCK:   -3.68 KCAL/MOL
REMARK 924 INTRA-LIGAND FREE ENERGY PREDICTED BY IDOCK:   -0.20 KCAL/MOL
REMARK 927      BINDING AFFINITY PREDICTED BY RF-SCORE:    0.00 PKD
ROOT
HETATM    1  N   UNL     1      -8.691  11.536  65.885  1.00  0.00    -0.370 NA 
HETATM    2  CA  UNL     1      -8.071  10.391  65.133  1.00  0.00    -0.145 C  
HETATM    3  H1  UNL     1      -8.781  12.390  65.335  1.00  0.00     0.000 HD 
HETATM    4  H2  UNL     1      -8.179  11.717  66.748  1.00  0.00     0.000 HD 
HETATM    5  OXT UNL     1      -8.800   9.162  63.137  1.00  0.00    -0.196 OA 
HETATM    6  C   UNL     1      -8.952  10.094  63.910  1.00  0.00    -0.244 C  
HETATM    7  O   UNL     1      -9.951  11.010  63.786  1.00  0.00    -0.285 OA 
ENDROOT
BRANCH   2   8
HETATM    8  C   UNL     1      -7.935   9.103  65.961  1.00  0.00    -0.103 C  
BRANCH   8   9
HETATM    9  C   UNL     1      -9.028   8.904  66.968  1.00  0.00    -0.145 A  
HETATM   10  C   UNL     1     -10.348   8.611  66.691  1.00  0.00    -0.232 A  
HETATM   11  N   UNL     1     -11.032   8.534  67.874  1.00  0.00    -0.483 NA 
HETATM   12  H   UNL     1     -12.029   8.333  67.961  1.00  0.00     0.000 HD 
HETATM   13  C   UNL     1     -10.182   8.767  68.931  1.00  0.00    -0.207 A  
HETATM   14  C   UNL     1      -8.918   9.018  68.393  1.00  0.00    -0.133 A  
HETATM   15  C   UNL     1      -7.858   9.316  69.279  1.00  0.00    -0.085 A  
HETATM   16  C   UNL     1      -8.108   9.326  70.653  1.00  0.00    -0.176 A  
HETATM   17  C   UNL     1      -9.372   9.067  71.162  1.00  0.00    -0.336 A  
HETATM   18  O   UNL     1      -7.112   9.596  71.546  1.00  0.00    -0.306 OA 
HETATM   19  C   UNL     1     -10.441   8.786  70.306  1.00  0.00    -0.231 A  
HETATM   20  H   UNL     1      -7.282   9.603  72.481  1.00  0.00     0.000 HD 
ENDBRANCH   8   9
ENDBRANCH   2   8
TORSDOF 2
ENDMDL
MODEL      224
REMARK 921   NORMALIZED FREE ENERGY PREDICTED BY IDOCK:   -3.20 KCAL/MOL
REMARK 922        TOTAL FREE ENERGY PREDICTED BY IDOCK:   -3.87 KCAL/MOL
REMARK 923 INTER-LIGAND FREE ENERGY PREDICTED BY IDOCK:   -3.57 KCAL/MOL
REMARK 924 INTRA-LIGAND FREE ENERGY PREDICTED BY IDOCK:   -0.30 KCAL/MOL
REMARK 927      BINDING AFFINITY PREDICTED BY RF-SCORE:    0.00 PKD
ROOT
HETATM    1  N   UNL     1      -8.436   9.314  65.694  1.00  0.00    -0.132 NA 
HETATM    2  CA  UNL     1      -9.522   9.853  66.582  1.00  0.00    -0.173 C  
HETATM    3  H1  UNL     1      -8.737   9.133  64.736  1.00  0.00     0.000 HD 
HETATM    4  H2  UNL     1      -8.019   8.478  66.103  1.00  0.00     0.000 HD 
HETATM    5  OXT UNL     1     -10.835  11.926  66.484  1.00  0.00    -0.254 OA 
HETATM    6  C   UNL     1     -10.026  11.170  65.970  1.00  0.00    -0.236 C  
HETATM    7  O   UNL     1      -9.448  11.407  64.762  1.00  0.00    -0.216 OA 
ENDROOT
BRANCH   2   8
HETATM    8  C   UNL     1      -9.069  10.127  68.025  1.00  0.00    -0.131 C  
BRANCH   8   9
HETATM    9  C   UNL     1     -10.030   9.646  69.070  1.00  0.00    -0.189 A  
HETATM   10  C   UNL     1     -10.817  10.441  69.881  1.00  0.00    -0.298 A  
HETATM   11  N   UNL     1     -11.534   9.628  70.717  1.00  0.00    -0.302 NA 
HETATM   12  H   UNL     1     -12.195   9.955  71.424  1.00  0.00     0.000 HD 
HETATM   13  C   UNL     1     -11.238   8.308  70.469  1.00  0.00    -0.239 A  
HETATM   14  C   UNL     1     -10.284   8.287  69.449  1.00  0.00    -0.204 A  
HETATM   15  C   UNL     1      -9.785   7.036  69.021  1.00  0.00    -0.145 A  
HETATM   16  C   UNL     1     -10.279   5.873  69.615  1.00  0.00    -0.218 A  
HETATM   17  C   UNL     1     -11.232   5.921  70.622  1.00  0.00    -0.284 A  
HETATM   18  O   UNL     1      -9.837   4.642  69.224  1.00  0.00    -0.189 OA 
HETATM   19  C   UNL     1     -11.728   7.146  71.075  1.00  0.00    -0.358 A  
HETATM   20  H   UNL     1     -10.173   3.850  69.628  1.00  0.00     0.000 HD 
ENDBRANCH   8   9
ENDBRANCH   2   8
TORSDOF 2
ENDMDL
MODEL      225
REMARK 921   NORMALIZED FREE ENERGY PREDICTED BY IDOCK:   -3.18 KCAL/MOL
REMARK 922        TOTAL FREE ENERGY PREDICTED BY IDOCK:   -3.85 KCAL/MOL
REMARK 923 INTER-LIGAND FREE ENERGY PREDICTED BY IDOCK:   -3.56 KCAL/MOL
REMARK 924 INTRA-LIGAND FREE ENERGY PREDICTED BY IDOCK:   -0.29 KCAL/MOL
REMARK 927      BINDING AFFINITY PREDICTED BY RF-SCORE:    0.00 PKD
ROOT
HETATM    1  N   UNL     1     -11.254   4.578  65.286  1.00  0.00    -1.016 NA 
HETATM    2  CA  UNL     1      -9.885   4.435  65.891  1.00  0.00    -0.228 C  
HETATM    3  H1  UNL     1     -11.250   4.656  64.269  1.00  0.00     0.000 HD 
HETATM    4  H2  UNL     1     -11.751   5.364  65.705  1.00  0.00     0.000 HD 
HETATM    5  OXT UNL     1      -8.167   2.698  65.652  1.00  0.00    -0.086 OA 
HETATM    6  C   UNL     1      -9.237   3.170  65.306  1.00  0.00    -0.150 C  
HETATM    7  O   UNL     1     -10.016   2.619  64.336  1.00  0.00    -0.116 OA 
ENDROOT
BRANCH   2   8
HETATM    8  C   UNL     1      -9.890   4.317  67.424  1.00  0.00    -0.176 C  
BRANCH   8   9
HETATM    9  C   UNL     1      -9.086   5.372  68.122  1.00  0.00    -0.115 A  
HETATM   10  C   UNL     1      -7.892   5.179  68.788  1.00  0.00    -0.079 A  
HETATM   11  N   UNL     1      -7.490   6.378  69.311  1.00  0.00    -0.092 NA 
HETATM   12  H   UNL     1      -6.639   6.522  69.856  1.00  0.00     0.000 HD 
HETATM   13  C   UNL     1      -8.397   7.363  68.996  1.00  0.00    -0.126 A  
HETATM   14  C   UNL     1      -9.420   6.759  68.262  1.00  0.00    -0.125 A  
HETATM   15  C   UNL     1     -10.504   7.559  67.835  1.00  0.00    -0.266 A  
HETATM   16  C   UNL     1     -10.500   8.921  68.141  1.00  0.00    -0.202 A  
HETATM   17  C   UNL     1      -9.468   9.499  68.866  1.00  0.00    -0.155 A  
HETATM   18  O   UNL     1     -11.519   9.735  67.737  1.00  0.00    -0.511 OA 
HETATM   19  C   UNL     1      -8.394   8.725  69.315  1.00  0.00    -0.120 A  
HETATM   20  H   UNL     1     -11.516  10.662  67.946  1.00  0.00     0.000 HD 
ENDBRANCH   8   9
ENDBRANCH   2   8
TORSDOF 2
ENDMDL
MODEL      226
REMARK 921   NORMALIZED FREE ENERGY PREDICTED BY IDOCK:   -3.16 KCAL/MOL
REMARK 922        TOTAL FREE ENERGY PREDICTED BY IDOCK:   -3.82 KCAL/MOL
REMARK 923 INTER-LIGAND FREE ENERGY PREDICTED BY IDOCK:   -3.52 KCAL/MOL
REMARK 924 INTRA-LIGAND FREE ENERGY PREDICTED BY IDOCK:   -0.30 KCAL/MOL
REMARK 927      BINDING AFFINITY PREDICTED BY RF-SCORE:    0.00 PKD
ROOT
HETATM    1  N   UNL     1     -12.355  10.699  68.896  1.00  0.00    -0.790 NA 
HETATM    2  CA  UNL     1     -11.318   9.894  69.630  1.00  0.00    -0.165 C  
HETATM    3  H1  UNL     1     -13.268  10.248  68.844  1.00  0.00     0.000 HD 
HETATM    4  H2  UNL     1     -12.023  10.947  67.964  1.00  0.00     0.000 HD 
HETATM    5  OXT UNL     1     -11.194   9.124  71.957  1.00  0.00    -0.364 OA 
HETATM    6  C   UNL     1     -11.828   9.655  71.059  1.00  0.00    -0.347 C  
HETATM    7  O   UNL     1     -13.096  10.121  71.217  1.00  0.00    -0.363 OA 
ENDROOT
BRANCH   2   8
HETATM    8  C   UNL     1      -9.942  10.574  69.708  1.00  0.00    -0.090 C  
BRANCH   8   9
HETATM    9  C   UNL     1      -8.794   9.674  69.364  1.00  0.00    -0.183 A  
HETATM   10  C   UNL     1      -7.850   9.183  70.246  1.00  0.00    -0.125 A  
HETATM   11  N   UNL     1      -6.956   8.422  69.542  1.00  0.00    -0.045 NA 
HETATM   12  H   UNL     1      -6.152   7.942  69.947  1.00  0.00     0.000 HD 
HETATM   13  C   UNL     1      -7.296   8.398  68.209  1.00  0.00    -0.095 A  
HETATM   14  C   UNL     1      -8.439   9.188  68.063  1.00  0.00    -0.121 A  
HETATM   15  C   UNL     1      -8.982   9.351  66.769  1.00  0.00    -0.152 A  
HETATM   16  C   UNL     1      -8.373   8.701  65.693  1.00  0.00    -0.145 A  
HETATM   17  C   UNL     1      -7.243   7.916  65.866  1.00  0.00    -0.072 A  
HETATM   18  O   UNL     1      -8.871   8.819  64.428  1.00  0.00    -0.398 OA 
HETATM   19  C   UNL     1      -6.676   7.753  67.133  1.00  0.00    -0.068 A  
HETATM   20  H   UNL     1      -8.457   8.376  63.696  1.00  0.00     0.000 HD 
ENDBRANCH   8   9
ENDBRANCH   2   8
TORSDOF 2
ENDMDL
MODEL      227
REMARK 921   NORMALIZED FREE ENERGY PREDICTED BY IDOCK:   -3.16 KCAL/MOL
REMARK 922        TOTAL FREE ENERGY PREDICTED BY IDOCK:   -3.82 KCAL/MOL
REMARK 923 INTER-LIGAND FREE ENERGY PREDICTED BY IDOCK:   -3.64 KCAL/MOL
REMARK 924 INTRA-LIGAND FREE ENERGY PREDICTED BY IDOCK:   -0.18 KCAL/MOL
REMARK 927      BINDING AFFINITY PREDICTED BY RF-SCORE:    0.00 PKD
ROOT
HETATM    1  N   UNL     1     -12.544  10.788  69.147  1.00  0.00    -0.654 NA 
HETATM    2  CA  UNL     1     -11.266  10.071  69.487  1.00  0.00    -0.208 C  
HETATM    3  H1  UNL     1     -13.386  10.287  69.430  1.00  0.00     0.000 HD 
HETATM    4  H2  UNL     1     -12.576  11.012  68.153  1.00  0.00     0.000 HD 
HETATM    5  OXT UNL     1     -10.287   9.409  71.638  1.00  0.00    -0.309 OA 
HETATM    6  C   UNL     1     -11.227   9.867  71.009  1.00  0.00    -0.364 C  
HETATM    7  O   UNL     1     -12.388  10.272  71.593  1.00  0.00    -0.388 OA 
ENDROOT
BRANCH   2   8
HETATM    8  C   UNL     1      -9.997  10.825  69.061  1.00  0.00    -0.214 C  
BRANCH   8   9
HETATM    9  C   UNL     1      -9.507  10.474  67.688  1.00  0.00    -0.164 A  
HETATM   10  C   UNL     1      -9.344  11.349  66.632  1.00  0.00    -0.185 A  
HETATM   11  N   UNL     1      -8.906  10.639  65.547  1.00  0.00    -0.183 NA 
HETATM   12  H   UNL     1      -8.707  11.039  64.629  1.00  0.00     0.000 HD 
HETATM   13  C   UNL     1      -8.772   9.308  65.870  1.00  0.00    -0.154 A  
HETATM   14  C   UNL     1      -9.157   9.170  67.205  1.00  0.00    -0.143 A  
HETATM   15  C   UNL     1      -9.136   7.879  67.780  1.00  0.00    -0.138 A  
HETATM   16  C   UNL     1      -8.711   6.800  67.003  1.00  0.00    -0.114 A  
HETATM   17  C   UNL     1      -8.326   6.965  65.681  1.00  0.00    -0.147 A  
HETATM   18  O   UNL     1      -8.661   5.538  67.521  1.00  0.00    -0.110 OA 
HETATM   19  C   UNL     1      -8.355   8.229  65.083  1.00  0.00    -0.167 A  
HETATM   20  H   UNL     1      -8.372   4.803  66.991  1.00  0.00     0.000 HD 
ENDBRANCH   8   9
ENDBRANCH   2   8
TORSDOF 2
ENDMDL
MODEL      228
REMARK 921   NORMALIZED FREE ENERGY PREDICTED BY IDOCK:   -3.13 KCAL/MOL
REMARK 922        TOTAL FREE ENERGY PREDICTED BY IDOCK:   -3.79 KCAL/MOL
REMARK 923 INTER-LIGAND FREE ENERGY PREDICTED BY IDOCK:   -3.54 KCAL/MOL
REMARK 924 INTRA-LIGAND FREE ENERGY PREDICTED BY IDOCK:   -0.24 KCAL/MOL
REMARK 927      BINDING AFFINITY PREDICTED BY RF-SCORE:    0.00 PKD
ROOT
HETATM    1  N   UNL     1     -11.879   9.027  70.254  1.00  0.00    -0.466 NA 
HETATM    2  CA  UNL     1     -10.712   8.105  70.476  1.00  0.00    -0.225 C  
HETATM    3  H1  UNL     1     -11.869   9.857  70.847  1.00  0.00     0.000 HD 
HETATM    4  H2  UNL     1     -12.759   8.523  70.357  1.00  0.00     0.000 HD 
HETATM    5  OXT UNL     1      -8.296   8.426  70.178  1.00  0.00    -0.114 OA 
HETATM    6  C   UNL     1      -9.424   8.893  70.192  1.00  0.00    -0.180 C  
HETATM    7  O   UNL     1      -9.690  10.205  69.947  1.00  0.00    -0.222 OA 
ENDROOT
BRANCH   2   8
HETATM    8  C   UNL     1     -10.727   6.855  69.583  1.00  0.00    -0.276 C  
BRANCH   8   9
HETATM    9  C   UNL     1     -10.238   5.611  70.263  1.00  0.00    -0.311 A  
HETATM   10  C   UNL     1     -10.046   5.446  71.620  1.00  0.00    -0.203 A  
HETATM   11  N   UNL     1      -9.567   4.182  71.838  1.00  0.00    -0.144 NA 
HETATM   12  H   UNL     1      -9.335   3.796  72.754  1.00  0.00     0.000 HD 
HETATM   13  C   UNL     1      -9.445   3.506  70.646  1.00  0.00    -0.173 A  
HETATM   14  C   UNL     1      -9.844   4.384  69.635  1.00  0.00    -0.272 A  
HETATM   15  C   UNL     1      -9.786   3.937  68.296  1.00  0.00    -0.119 A  
HETATM   16  C   UNL     1      -9.355   2.634  68.036  1.00  0.00    -0.202 A  
HETATM   17  C   UNL     1      -8.970   1.780  69.060  1.00  0.00    -0.149 A  
HETATM   18  O   UNL     1      -9.295   2.155  66.760  1.00  0.00    -0.340 OA 
HETATM   19  C   UNL     1      -9.002   2.204  70.391  1.00  0.00    -0.148 A  
HETATM   20  H   UNL     1      -9.002   1.268  66.583  1.00  0.00     0.000 HD 
ENDBRANCH   8   9
ENDBRANCH   2   8
TORSDOF 2
ENDMDL
MODEL      229
REMARK 921   NORMALIZED FREE ENERGY PREDICTED BY IDOCK:   -3.12 KCAL/MOL
REMARK 922        TOTAL FREE ENERGY PREDICTED BY IDOCK:   -3.78 KCAL/MOL
REMARK 923 INTER-LIGAND FREE ENERGY PREDICTED BY IDOCK:   -3.47 KCAL/MOL
REMARK 924 INTRA-LIGAND FREE ENERGY PREDICTED BY IDOCK:   -0.31 KCAL/MOL
REMARK 927      BINDING AFFINITY PREDICTED BY RF-SCORE:    0.00 PKD
ROOT
HETATM    1  N   UNL     1      -9.548  16.524  69.505  1.00  0.00    -0.097 NA 
HETATM    2  CA  UNL     1      -9.027  15.195  69.032  1.00  0.00    -0.219 C  
HETATM    3  H1  UNL     1      -9.176  16.815  70.409  1.00  0.00     0.000 HD 
HETATM    4  H2  UNL     1     -10.568  16.525  69.519  1.00  0.00     0.000 HD 
HETATM    5  OXT UNL     1      -6.762  14.434  68.471  1.00  0.00    -0.086 OA 
HETATM    6  C   UNL     1      -7.498  15.296  68.922  1.00  0.00    -0.147 C  
HETATM    7  O   UNL     1      -7.047  16.491  69.391  1.00  0.00    -0.227 OA 
ENDROOT
BRANCH   2   8
HETATM    8  C   UNL     1      -9.588  14.755  67.670  1.00  0.00    -0.208 C  
BRANCH   8   9
HETATM    9  C   UNL     1     -10.380  13.483  67.715  1.00  0.00    -0.241 A  
HETATM   10  C   UNL     1     -11.689  13.353  68.133  1.00  0.00    -0.362 A  
HETATM   11  N   UNL     1     -12.040  12.032  68.051  1.00  0.00    -0.478 NA 
HETATM   12  H   UNL     1     -12.954  11.654  68.303  1.00  0.00     0.000 HD 
HETATM   13  C   UNL     1     -10.983  11.287  67.580  1.00  0.00    -0.259 A  
HETATM   14  C   UNL     1      -9.920  12.169  67.374  1.00  0.00    -0.206 A  
HETATM   15  C   UNL     1      -8.692  11.644  66.912  1.00  0.00    -0.185 A  
HETATM   16  C   UNL     1      -8.595  10.274  66.658  1.00  0.00    -0.127 A  
HETATM   17  C   UNL     1      -9.669   9.421  66.864  1.00  0.00    -0.242 A  
HETATM   18  O   UNL     1      -7.433   9.725  66.198  1.00  0.00    -0.097 OA 
HETATM   19  C   UNL     1     -10.889   9.913  67.338  1.00  0.00    -0.293 A  
HETATM   20  H   UNL     1      -7.367   8.793  66.025  1.00  0.00     0.000 HD 
ENDBRANCH   8   9
ENDBRANCH   2   8
TORSDOF 2
ENDMDL
MODEL      230
REMARK 921   NORMALIZED FREE ENERGY PREDICTED BY IDOCK:   -3.11 KCAL/MOL
REMARK 922        TOTAL FREE ENERGY PREDICTED BY IDOCK:   -3.77 KCAL/MOL
REMARK 923 INTER-LIGAND FREE ENERGY PREDICTED BY IDOCK:   -3.50 KCAL/MOL
REMARK 924 INTRA-LIGAND FREE ENERGY PREDICTED BY IDOCK:   -0.27 KCAL/MOL
REMARK 927      BINDING AFFINITY PREDICTED BY RF-SCORE:    0.00 PKD
ROOT
HETATM    1  N   UNL     1      -8.928   4.860  66.697  1.00  0.00    -0.110 NA 
HETATM    2  CA  UNL     1      -9.350   5.253  68.085  1.00  0.00    -0.118 C  
HETATM    3  H1  UNL     1      -8.048   4.344  66.663  1.00  0.00     0.000 HD 
HETATM    4  H2  UNL     1      -8.888   5.678  66.089  1.00  0.00     0.000 HD 
HETATM    5  OXT UNL     1      -9.932   3.911  70.057  1.00  0.00    -0.159 OA 
HETATM    6  C   UNL     1      -9.504   3.969  68.916  1.00  0.00    -0.167 C  
HETATM    7  O   UNL     1      -9.104   2.875  68.213  1.00  0.00    -0.133 OA 
ENDROOT
BRANCH   2   8
HETATM    8  C   UNL     1     -10.675   6.030  68.137  1.00  0.00    -0.353 C  
BRANCH   8   9
HETATM    9  C   UNL     1     -10.532   7.456  68.575  1.00  0.00    -0.215 A  
HETATM   10  C   UNL     1     -10.640   7.926  69.870  1.00  0.00    -0.242 A  
HETATM   11  N   UNL     1     -10.472   9.285  69.852  1.00  0.00    -0.215 NA 
HETATM   12  H   UNL     1     -10.507   9.888  70.674  1.00  0.00     0.000 HD 
HETATM   13  C   UNL     1     -10.249   9.720  68.566  1.00  0.00    -0.186 A  
HETATM   14  C   UNL     1     -10.296   8.596  67.738  1.00  0.00    -0.303 A  
HETATM   15  C   UNL     1     -10.122   8.778  66.348  1.00  0.00    -0.313 A  
HETATM   16  C   UNL     1      -9.888  10.064  65.858  1.00  0.00    -0.264 A  
HETATM   17  C   UNL     1      -9.839  11.164  66.703  1.00  0.00    -0.231 A  
HETATM   18  O   UNL     1      -9.701  10.286  64.524  1.00  0.00    -0.299 OA 
HETATM   19  C   UNL     1     -10.026  11.013  68.080  1.00  0.00    -0.188 A  
HETATM   20  H   UNL     1      -9.542  11.162  64.191  1.00  0.00     0.000 HD 
ENDBRANCH   8   9
ENDBRANCH   2   8
TORSDOF 2
ENDMDL
MODEL      231
REMARK 921   NORMALIZED FREE ENERGY PREDICTED BY IDOCK:   -3.10 KCAL/MOL
REMARK 922        TOTAL FREE ENERGY PREDICTED BY IDOCK:   -3.76 KCAL/MOL
REMARK 923 INTER-LIGAND FREE ENERGY PREDICTED BY IDOCK:   -3.48 KCAL/MOL
REMARK 924 INTRA-LIGAND FREE ENERGY PREDICTED BY IDOCK:   -0.28 KCAL/MOL
REMARK 927      BINDING AFFINITY PREDICTED BY RF-SCORE:    0.00 PKD
ROOT
HETATM    1  N   UNL     1      -9.333  12.105  64.971  1.00  0.00    -0.424 NA 
HETATM    2  CA  UNL     1      -9.033  10.643  65.149  1.00  0.00    -0.198 C  
HETATM    3  H1  UNL     1      -8.585  12.629  64.517  1.00  0.00     0.000 HD 
HETATM    4  H2  UNL     1      -9.578  12.533  65.865  1.00  0.00     0.000 HD 
HETATM    5  OXT UNL     1      -8.617   8.851  63.524  1.00  0.00    -0.177 OA 
HETATM    6  C   UNL     1      -8.787  10.037  63.759  1.00  0.00    -0.231 C  
HETATM    7  O   UNL     1      -8.788  10.996  62.794  1.00  0.00    -0.260 OA 
ENDROOT
BRANCH   2   8
HETATM    8  C   UNL     1     -10.160   9.855  65.835  1.00  0.00    -0.316 C  
BRANCH   8   9
HETATM    9  C   UNL     1      -9.716   9.064  67.029  1.00  0.00    -0.247 A  
HETATM   10  C   UNL     1      -9.188   9.579  68.197  1.00  0.00    -0.129 A  
HETATM   11  N   UNL     1      -8.884   8.536  69.030  1.00  0.00    -0.144 NA 
HETATM   12  H   UNL     1      -8.475   8.632  69.960  1.00  0.00     0.000 HD 
HETATM   13  C   UNL     1      -9.208   7.339  68.434  1.00  0.00    -0.137 A  
HETATM   14  C   UNL     1      -9.719   7.637  67.168  1.00  0.00    -0.239 A  
HETATM   15  C   UNL     1     -10.107   6.567  66.331  1.00  0.00    -0.061 A  
HETATM   16  C   UNL     1      -9.986   5.260  66.806  1.00  0.00    -0.199 A  
HETATM   17  C   UNL     1      -9.482   4.991  68.070  1.00  0.00    -0.165 A  
HETATM   18  O   UNL     1     -10.361   4.195  66.038  1.00  0.00    -0.427 OA 
HETATM   19  C   UNL     1      -9.075   6.031  68.910  1.00  0.00    -0.121 A  
HETATM   20  H   UNL     1     -10.279   3.305  66.362  1.00  0.00     0.000 HD 
ENDBRANCH   8   9
ENDBRANCH   2   8
TORSDOF 2
ENDMDL
MODEL      232
REMARK 921   NORMALIZED FREE ENERGY PREDICTED BY IDOCK:   -3.06 KCAL/MOL
REMARK 922        TOTAL FREE ENERGY PREDICTED BY IDOCK:   -3.71 KCAL/MOL
REMARK 923 INTER-LIGAND FREE ENERGY PREDICTED BY IDOCK:   -3.47 KCAL/MOL
REMARK 924 INTRA-LIGAND FREE ENERGY PREDICTED BY IDOCK:   -0.24 KCAL/MOL
REMARK 927      BINDING AFFINITY PREDICTED BY RF-SCORE:    0.00 PKD
ROOT
HETATM    1  N   UNL     1      -8.479   9.562  65.241  1.00  0.00    -0.140 NA 
HETATM    2  CA  UNL     1      -8.114   9.349  66.684  1.00  0.00    -0.108 C  
HETATM    3  H1  UNL     1      -7.771  10.063  64.705  1.00  0.00     0.000 HD 
HETATM    4  H2  UNL     1      -9.384  10.027  65.165  1.00  0.00     0.000 HD 
HETATM    5  OXT UNL     1      -6.276   8.107  67.737  1.00  0.00    -0.049 OA 
HETATM    6  C   UNL     1      -6.806   8.544  66.728  1.00  0.00    -0.069 C  
HETATM    7  O   UNL     1      -6.294   8.362  65.480  1.00  0.00    -0.048 OA 
ENDROOT
BRANCH   2   8
HETATM    8  C   UNL     1      -9.180   8.594  67.492  1.00  0.00    -0.151 C  
BRANCH   8   9
HETATM    9  C   UNL     1      -9.827   9.413  68.568  1.00  0.00    -0.171 A  
HETATM   10  C   UNL     1      -9.816   9.136  69.921  1.00  0.00    -0.190 A  
HETATM   11  N   UNL     1     -10.537  10.104  70.567  1.00  0.00    -0.410 NA 
HETATM   12  H   UNL     1     -10.693  10.142  71.575  1.00  0.00     0.000 HD 
HETATM   13  C   UNL     1     -11.021  11.021  69.662  1.00  0.00    -0.225 A  
HETATM   14  C   UNL     1     -10.604  10.605  68.395  1.00  0.00    -0.231 A  
HETATM   15  C   UNL     1     -10.997  11.370  67.274  1.00  0.00    -0.336 A  
HETATM   16  C   UNL     1     -11.764  12.520  67.475  1.00  0.00    -0.374 A  
HETATM   17  C   UNL     1     -12.159  12.915  68.745  1.00  0.00    -0.175 A  
HETATM   18  O   UNL     1     -12.155  13.297  66.423  1.00  0.00    -0.403 OA 
HETATM   19  C   UNL     1     -11.798  12.165  69.868  1.00  0.00    -0.392 A  
HETATM   20  H   UNL     1     -12.677  14.079  66.561  1.00  0.00     0.000 HD 
ENDBRANCH   8   9
ENDBRANCH   2   8
TORSDOF 2
ENDMDL
MODEL      233
REMARK 921   NORMALIZED FREE ENERGY PREDICTED BY IDOCK:   -3.06 KCAL/MOL
REMARK 922        TOTAL FREE ENERGY PREDICTED BY IDOCK:   -3.71 KCAL/MOL
REMARK 923 INTER-LIGAND FREE ENERGY PREDICTED BY IDOCK:   -3.47 KCAL/MOL
REMARK 924 INTRA-LIGAND FREE ENERGY PREDICTED BY IDOCK:   -0.24 KCAL/MOL
REMARK 927      BINDING AFFINITY PREDICTED BY RF-SCORE:    0.00 PKD
ROOT
HETATM    1  N   UNL     1      -8.212   9.789  69.209  1.00  0.00    -0.120 NA 
HETATM    2  CA  UNL     1      -9.623  10.289  69.340  1.00  0.00    -0.218 C  
HETATM    3  H1  UNL     1      -7.587  10.116  69.945  1.00  0.00     0.000 HD 
HETATM    4  H2  UNL     1      -7.834  10.017  68.290  1.00  0.00     0.000 HD 
HETATM    5  OXT UNL     1     -11.320   9.954  71.083  1.00  0.00    -0.357 OA 
HETATM    6  C   UNL     1     -10.171   9.813  70.694  1.00  0.00    -0.220 C  
HETATM    7  O   UNL     1      -9.207   9.194  71.428  1.00  0.00    -0.238 OA 
ENDROOT
BRANCH   2   8
HETATM    8  C   UNL     1     -10.565   9.796  68.231  1.00  0.00    -0.271 C  
BRANCH   8   9
HETATM    9  C   UNL     1      -9.957   8.769  67.324  1.00  0.00    -0.281 A  
HETATM   10  C   UNL     1      -9.475   8.990  66.049  1.00  0.00    -0.256 A  
HETATM   11  N   UNL     1      -9.028   7.799  65.543  1.00  0.00    -0.380 NA 
HETATM   12  H   UNL     1      -8.623   7.674  64.614  1.00  0.00     0.000 HD 
HETATM   13  C   UNL     1      -9.203   6.794  66.466  1.00  0.00    -0.162 A  
HETATM   14  C   UNL     1      -9.799   7.369  67.590  1.00  0.00    -0.194 A  
HETATM   15  C   UNL     1     -10.112   6.533  68.686  1.00  0.00    -0.175 A  
HETATM   16  C   UNL     1      -9.795   5.175  68.613  1.00  0.00    -0.160 A  
HETATM   17  C   UNL     1      -9.196   4.630  67.486  1.00  0.00    -0.148 A  
HETATM   18  O   UNL     1     -10.067   4.333  69.652  1.00  0.00    -0.168 OA 
HETATM   19  C   UNL     1      -8.893   5.432  66.383  1.00  0.00    -0.123 A  
HETATM   20  H   UNL     1      -9.851   3.409  69.602  1.00  0.00     0.000 HD 
ENDBRANCH   8   9
ENDBRANCH   2   8
TORSDOF 2
ENDMDL
MODEL      234
REMARK 921   NORMALIZED FREE ENERGY PREDICTED BY IDOCK:   -3.03 KCAL/MOL
REMARK 922        TOTAL FREE ENERGY PREDICTED BY IDOCK:   -3.68 KCAL/MOL
REMARK 923 INTER-LIGAND FREE ENERGY PREDICTED BY IDOCK:   -3.62 KCAL/MOL
REMARK 924 INTRA-LIGAND FREE ENERGY PREDICTED BY IDOCK:   -0.06 KCAL/MOL
REMARK 927      BINDING AFFINITY PREDICTED BY RF-SCORE:    0.00 PKD
ROOT
HETATM    1  N   UNL     1     -11.075  14.076  69.972  1.00  0.00    -0.473 NA 
HETATM    2  CA  UNL     1     -11.808  13.618  68.742  1.00  0.00    -0.360 C  
HETATM    3  H1  UNL     1     -11.556  13.861  70.844  1.00  0.00     0.000 HD 
HETATM    4  H2  UNL     1     -10.865  15.073  69.914  1.00  0.00     0.000 HD 
HETATM    5  OXT UNL     1     -12.454  11.381  67.963  1.00  0.00    -0.159 OA 
HETATM    6  C   UNL     1     -11.989  12.095  68.837  1.00  0.00    -0.242 C  
HETATM    7  O   UNL     1     -11.556  11.620  70.036  1.00  0.00    -0.295 OA 
ENDROOT
BRANCH   2   8
HETATM    8  C   UNL     1     -11.083  13.943  67.426  1.00  0.00    -0.313 C  
BRANCH   8   9
HETATM    9  C   UNL     1      -9.673  13.438  67.364  1.00  0.00    -0.221 A  
HETATM   10  C   UNL     1      -9.266  12.218  66.860  1.00  0.00    -0.209 A  
HETATM   11  N   UNL     1      -7.908  12.121  67.006  1.00  0.00    -0.276 NA 
HETATM   12  H   UNL     1      -7.346  11.319  66.720  1.00  0.00     0.000 HD 
HETATM   13  C   UNL     1      -7.410  13.260  67.594  1.00  0.00    -0.161 A  
HETATM   14  C   UNL     1      -8.497  14.101  67.845  1.00  0.00    -0.167 A  
HETATM   15  C   UNL     1      -8.255  15.341  68.478  1.00  0.00    -0.146 A  
HETATM   16  C   UNL     1      -6.943  15.688  68.806  1.00  0.00    -0.121 A  
HETATM   17  C   UNL     1      -5.879  14.838  68.539  1.00  0.00    -0.097 A  
HETATM   18  O   UNL     1      -6.660  16.882  69.405  1.00  0.00    -0.223 OA 
HETATM   19  C   UNL     1      -6.094  13.598  67.931  1.00  0.00    -0.154 A  
HETATM   20  H   UNL     1      -5.767  17.118  69.628  1.00  0.00     0.000 HD 
ENDBRANCH   8   9
ENDBRANCH   2   8
TORSDOF 2
ENDMDL
MODEL      235
REMARK 921   NORMALIZED FREE ENERGY PREDICTED BY IDOCK:   -3.03 KCAL/MOL
REMARK 922        TOTAL FREE ENERGY PREDICTED BY IDOCK:   -3.67 KCAL/MOL
REMARK 923 INTER-LIGAND FREE ENERGY PREDICTED BY IDOCK:   -3.35 KCAL/MOL
REMARK 924 INTRA-LIGAND FREE ENERGY PREDICTED BY IDOCK:   -0.33 KCAL/MOL
REMARK 927      BINDING AFFINITY PREDICTED BY RF-SCORE:    0.00 PKD
ROOT
HETATM    1  N   UNL     1      -7.128  11.905  67.796  1.00  0.00    -0.094 NA 
HETATM    2  CA  UNL     1      -7.618  10.811  68.703  1.00  0.00    -0.106 C  
HETATM    3  H1  UNL     1      -7.181  12.837  68.207  1.00  0.00     0.000 HD 
HETATM    4  H2  UNL     1      -7.619  11.877  66.903  1.00  0.00     0.000 HD 
HETATM    5  OXT UNL     1      -6.821  10.017  70.885  1.00  0.00    -0.322 OA 
HETATM    6  C   UNL     1      -6.763  10.833  69.979  1.00  0.00    -0.149 C  
HETATM    7  O   UNL     1      -5.905  11.890  69.981  1.00  0.00    -0.119 OA 
ENDROOT
BRANCH   2   8
HETATM    8  C   UNL     1      -7.538   9.406  68.085  1.00  0.00    -0.083 C  
BRANCH   8   9
HETATM    9  C   UNL     1      -8.839   8.661  68.088  1.00  0.00    -0.142 A  
HETATM   10  C   UNL     1      -9.866   8.810  67.177  1.00  0.00    -0.207 A  
HETATM   11  N   UNL     1     -10.889   7.973  67.538  1.00  0.00    -0.518 NA 
HETATM   12  H   UNL     1     -11.774   7.885  67.039  1.00  0.00     0.000 HD 
HETATM   13  C   UNL     1     -10.551   7.269  68.671  1.00  0.00    -0.168 A  
HETATM   14  C   UNL     1      -9.274   7.690  69.050  1.00  0.00    -0.140 A  
HETATM   15  C   UNL     1      -8.701   7.132  70.214  1.00  0.00    -0.144 A  
HETATM   16  C   UNL     1      -9.418   6.168  70.926  1.00  0.00    -0.172 A  
HETATM   17  C   UNL     1     -10.683   5.762  70.524  1.00  0.00    -0.361 A  
HETATM   18  O   UNL     1      -8.899   5.591  72.048  1.00  0.00    -0.134 OA 
HETATM   19  C   UNL     1     -11.279   6.312  69.386  1.00  0.00    -0.489 A  
HETATM   20  H   UNL     1      -9.387   4.935  72.533  1.00  0.00     0.000 HD 
ENDBRANCH   8   9
ENDBRANCH   2   8
TORSDOF 2
ENDMDL
MODEL      236
REMARK 921   NORMALIZED FREE ENERGY PREDICTED BY IDOCK:   -2.98 KCAL/MOL
REMARK 922        TOTAL FREE ENERGY PREDICTED BY IDOCK:   -3.63 KCAL/MOL
REMARK 923 INTER-LIGAND FREE ENERGY PREDICTED BY IDOCK:   -3.69 KCAL/MOL
REMARK 924 INTRA-LIGAND FREE ENERGY PREDICTED BY IDOCK:    0.06 KCAL/MOL
REMARK 927      BINDING AFFINITY PREDICTED BY RF-SCORE:    0.00 PKD
ROOT
HETATM    1  N   UNL     1      -7.664   6.959  67.975  1.00  0.00    -0.110 NA 
HETATM    2  CA  UNL     1      -8.266   7.838  69.035  1.00  0.00    -0.126 C  
HETATM    3  H1  UNL     1      -6.685   6.724  68.141  1.00  0.00     0.000 HD 
HETATM    4  H2  UNL     1      -7.781   7.377  67.052  1.00  0.00     0.000 HD 
HETATM    5  OXT UNL     1      -8.643   7.482  71.434  1.00  0.00    -0.118 OA 
HETATM    6  C   UNL     1      -8.161   7.102  70.379  1.00  0.00    -0.126 C  
HETATM    7  O   UNL     1      -7.458   5.944  70.255  1.00  0.00    -0.084 OA 
ENDROOT
BRANCH   2   8
HETATM    8  C   UNL     1      -9.741   8.193  68.785  1.00  0.00    -0.155 C  
BRANCH   8   9
HETATM    9  C   UNL     1      -9.972   9.020  67.556  1.00  0.00    -0.262 A  
HETATM   10  C   UNL     1      -9.699   8.642  66.256  1.00  0.00    -0.251 A  
HETATM   11  N   UNL     1     -10.024   9.681  65.427  1.00  0.00    -0.397 NA 
HETATM   12  H   UNL     1      -9.919   9.673  64.411  1.00  0.00     0.000 HD 
HETATM   13  C   UNL     1     -10.514  10.739  66.158  1.00  0.00    -0.214 A  
HETATM   14  C   UNL     1     -10.480  10.360  67.501  1.00  0.00    -0.292 A  
HETATM   15  C   UNL     1     -10.910  11.290  68.474  1.00  0.00    -0.245 A  
HETATM   16  C   UNL     1     -11.373  12.539  68.055  1.00  0.00    -0.289 A  
HETATM   17  C   UNL     1     -11.404  12.889  66.713  1.00  0.00    -0.367 A  
HETATM   18  O   UNL     1     -11.812  13.465  68.958  1.00  0.00    -0.301 OA 
HETATM   19  C   UNL     1     -10.967  11.993  65.733  1.00  0.00    -0.351 A  
HETATM   20  H   UNL     1     -12.127  14.315  68.673  1.00  0.00     0.000 HD 
ENDBRANCH   8   9
ENDBRANCH   2   8
TORSDOF 2
ENDMDL
MODEL      237
REMARK 921   NORMALIZED FREE ENERGY PREDICTED BY IDOCK:   -2.98 KCAL/MOL
REMARK 922        TOTAL FREE ENERGY PREDICTED BY IDOCK:   -3.62 KCAL/MOL
REMARK 923 INTER-LIGAND FREE ENERGY PREDICTED BY IDOCK:   -3.37 KCAL/MOL
REMARK 924 INTRA-LIGAND FREE ENERGY PREDICTED BY IDOCK:   -0.25 KCAL/MOL
REMARK 927      BINDING AFFINITY PREDICTED BY RF-SCORE:    0.00 PKD
ROOT
HETATM    1  N   UNL     1     -10.886   8.949  71.588  1.00  0.00    -0.323 NA 
HETATM    2  CA  UNL     1     -11.993   8.207  70.891  1.00  0.00    -0.183 C  
HETATM    3  H1  UNL     1     -11.090   9.934  71.755  1.00  0.00     0.000 HD 
HETATM    4  H2  UNL     1     -10.008   8.845  71.079  1.00  0.00     0.000 HD 
HETATM    5  OXT UNL     1     -14.309   7.731  71.551  1.00  0.00    -0.429 OA 
HETATM    6  C   UNL     1     -13.253   8.305  71.765  1.00  0.00    -0.347 C  
HETATM    7  O   UNL     1     -13.050   9.120  72.836  1.00  0.00    -0.304 OA 
ENDROOT
BRANCH   2   8
HETATM    8  C   UNL     1     -11.686   6.722  70.640  1.00  0.00    -0.440 C  
BRANCH   8   9
HETATM    9  C   UNL     1     -10.730   6.477  69.511  1.00  0.00    -0.322 A  
HETATM   10  C   UNL     1     -11.049   6.437  68.168  1.00  0.00    -0.263 A  
HETATM   11  N   UNL     1      -9.908   6.162  67.461  1.00  0.00    -0.119 NA 
HETATM   12  H   UNL     1      -9.858   6.072  66.446  1.00  0.00     0.000 HD 
HETATM   13  C   UNL     1      -8.839   6.025  68.316  1.00  0.00    -0.111 A  
HETATM   14  C   UNL     1      -9.327   6.202  69.613  1.00  0.00    -0.156 A  
HETATM   15  C   UNL     1      -8.423   6.083  70.693  1.00  0.00    -0.133 A  
HETATM   16  C   UNL     1      -7.079   5.817  70.423  1.00  0.00    -0.070 A  
HETATM   17  C   UNL     1      -6.619   5.652  69.125  1.00  0.00    -0.054 A  
HETATM   18  O   UNL     1      -6.167   5.707  71.433  1.00  0.00    -0.032 OA 
HETATM   19  C   UNL     1      -7.496   5.748  68.041  1.00  0.00    -0.077 A  
HETATM   20  H   UNL     1      -5.253   5.526  71.249  1.00  0.00     0.000 HD 
ENDBRANCH   8   9
ENDBRANCH   2   8
TORSDOF 2
ENDMDL
MODEL      238
REMARK 921   NORMALIZED FREE ENERGY PREDICTED BY IDOCK:   -2.95 KCAL/MOL
REMARK 922        TOTAL FREE ENERGY PREDICTED BY IDOCK:   -3.58 KCAL/MOL
REMARK 923 INTER-LIGAND FREE ENERGY PREDICTED BY IDOCK:   -3.37 KCAL/MOL
REMARK 924 INTRA-LIGAND FREE ENERGY PREDICTED BY IDOCK:   -0.22 KCAL/MOL
REMARK 927      BINDING AFFINITY PREDICTED BY RF-SCORE:    0.00 PKD
ROOT
HETATM    1  N   UNL     1      -8.343  12.130  66.087  1.00  0.00    -0.370 NA 
HETATM    2  CA  UNL     1      -7.871  11.230  67.194  1.00  0.00    -0.151 C  
HETATM    3  H1  UNL     1      -8.403  13.114  66.350  1.00  0.00     0.000 HD 
HETATM    4  H2  UNL     1      -9.235  11.803  65.715  1.00  0.00     0.000 HD 
HETATM    5  OXT UNL     1      -5.755  11.141  68.437  1.00  0.00    -0.043 OA 
HETATM    6  C   UNL     1      -6.476  11.706  67.629  1.00  0.00    -0.075 C  
HETATM    7  O   UNL     1      -6.123  12.854  66.991  1.00  0.00    -0.268 OA 
ENDROOT
BRANCH   2   8
HETATM    8  C   UNL     1      -7.781   9.748  66.798  1.00  0.00    -0.098 C  
BRANCH   8   9
HETATM    9  C   UNL     1      -9.020   8.958  67.096  1.00  0.00    -0.141 A  
HETATM   10  C   UNL     1     -10.118   9.402  67.805  1.00  0.00    -0.198 A  
HETATM   11  N   UNL     1     -11.025   8.379  67.882  1.00  0.00    -0.476 NA 
HETATM   12  H   UNL     1     -11.928   8.433  68.355  1.00  0.00     0.000 HD 
HETATM   13  C   UNL     1     -10.545   7.267  67.230  1.00  0.00    -0.325 A  
HETATM   14  C   UNL     1      -9.279   7.594  66.738  1.00  0.00    -0.197 A  
HETATM   15  C   UNL     1      -8.551   6.603  66.042  1.00  0.00    -0.152 A  
HETATM   16  C   UNL     1      -9.131   5.346  65.854  1.00  0.00    -0.157 A  
HETATM   17  C   UNL     1     -10.393   5.048  66.347  1.00  0.00    -0.335 A  
HETATM   18  O   UNL     1      -8.470   4.362  65.177  1.00  0.00    -0.116 OA 
HETATM   19  C   UNL     1     -11.125   6.006  67.054  1.00  0.00    -0.263 A  
HETATM   20  H   UNL     1      -8.865   3.507  65.049  1.00  0.00     0.000 HD 
ENDBRANCH   8   9
ENDBRANCH   2   8
TORSDOF 2
ENDMDL
MODEL      239
REMARK 921   NORMALIZED FREE ENERGY PREDICTED BY IDOCK:   -2.93 KCAL/MOL
REMARK 922        TOTAL FREE ENERGY PREDICTED BY IDOCK:   -3.57 KCAL/MOL
REMARK 923 INTER-LIGAND FREE ENERGY PREDICTED BY IDOCK:   -3.30 KCAL/MOL
REMARK 924 INTRA-LIGAND FREE ENERGY PREDICTED BY IDOCK:   -0.27 KCAL/MOL
REMARK 927      BINDING AFFINITY PREDICTED BY RF-SCORE:    0.00 PKD
ROOT
HETATM    1  N   UNL     1     -12.523  11.023  69.169  1.00  0.00    -0.615 NA 
HETATM    2  CA  UNL     1     -11.234  10.954  68.399  1.00  0.00    -0.285 C  
HETATM    3  H1  UNL     1     -12.589  11.828  69.792  1.00  0.00     0.000 HD 
HETATM    4  H2  UNL     1     -12.679  10.156  69.685  1.00  0.00     0.000 HD 
HETATM    5  OXT UNL     1     -10.242  12.463  66.735  1.00  0.00    -0.217 OA 
HETATM    6  C   UNL     1     -11.115  12.234  67.557  1.00  0.00    -0.275 C  
HETATM    7  O   UNL     1     -12.125  13.103  67.834  1.00  0.00    -0.321 OA 
ENDROOT
BRANCH   2   8
HETATM    8  C   UNL     1     -11.133   9.740  67.461  1.00  0.00    -0.089 C  
BRANCH   8   9
HETATM    9  C   UNL     1      -9.738   9.220  67.280  1.00  0.00    -0.218 A  
HETATM   10  C   UNL     1      -8.913   8.739  68.277  1.00  0.00    -0.141 A  
HETATM   11  N   UNL     1      -7.715   8.386  67.714  1.00  0.00    -0.102 NA 
HETATM   12  H   UNL     1      -6.920   8.003  68.226  1.00  0.00     0.000 HD 
HETATM   13  C   UNL     1      -7.739   8.622  66.359  1.00  0.00    -0.095 A  
HETATM   14  C   UNL     1      -8.992   9.161  66.058  1.00  0.00    -0.221 A  
HETATM   15  C   UNL     1      -9.264   9.521  64.719  1.00  0.00    -0.267 A  
HETATM   16  C   UNL     1      -8.284   9.304  63.748  1.00  0.00    -0.166 A  
HETATM   17  C   UNL     1      -7.050   8.761  64.072  1.00  0.00    -0.094 A  
HETATM   18  O   UNL     1      -8.508   9.623  62.440  1.00  0.00    -0.141 OA 
HETATM   19  C   UNL     1      -6.749   8.413  65.392  1.00  0.00    -0.056 A  
HETATM   20  H   UNL     1      -7.841   9.476  61.779  1.00  0.00     0.000 HD 
ENDBRANCH   8   9
ENDBRANCH   2   8
TORSDOF 2
ENDMDL
MODEL      240
REMARK 921   NORMALIZED FREE ENERGY PREDICTED BY IDOCK:   -2.93 KCAL/MOL
REMARK 922        TOTAL FREE ENERGY PREDICTED BY IDOCK:   -3.57 KCAL/MOL
REMARK 923 INTER-LIGAND FREE ENERGY PREDICTED BY IDOCK:   -3.32 KCAL/MOL
REMARK 924 INTRA-LIGAND FREE ENERGY PREDICTED BY IDOCK:   -0.25 KCAL/MOL
REMARK 927      BINDING AFFINITY PREDICTED BY RF-SCORE:    0.00 PKD
ROOT
HETATM    1  N   UNL     1      -7.463  16.133  68.285  1.00  0.00    -0.141 NA 
HETATM    2  CA  UNL     1      -7.267  14.834  69.017  1.00  0.00    -0.135 C  
HETATM    3  H1  UNL     1      -7.730  16.911  68.889  1.00  0.00     0.000 HD 
HETATM    4  H2  UNL     1      -8.136  16.020  67.527  1.00  0.00     0.000 HD 
HETATM    5  OXT UNL     1      -5.678  14.167  70.765  1.00  0.00    -0.155 OA 
HETATM    6  C   UNL     1      -6.162  15.042  70.064  1.00  0.00    -0.157 C  
HETATM    7  O   UNL     1      -5.769  16.343  70.117  1.00  0.00    -0.193 OA 
ENDROOT
BRANCH   2   8
HETATM    8  C   UNL     1      -6.866  13.662  68.107  1.00  0.00    -0.121 C  
BRANCH   8   9
HETATM    9  C   UNL     1      -7.871  12.550  68.064  1.00  0.00    -0.147 A  
HETATM   10  C   UNL     1      -7.652  11.238  68.438  1.00  0.00    -0.120 A  
HETATM   11  N   UNL     1      -8.804  10.530  68.225  1.00  0.00    -0.134 NA 
HETATM   12  H   UNL     1      -8.920   9.534  68.413  1.00  0.00     0.000 HD 
HETATM   13  C   UNL     1      -9.784  11.355  67.720  1.00  0.00    -0.175 A  
HETATM   14  C   UNL     1      -9.223  12.627  67.593  1.00  0.00    -0.191 A  
HETATM   15  C   UNL     1     -10.024  13.665  67.065  1.00  0.00    -0.248 A  
HETATM   16  C   UNL     1     -11.346  13.386  66.713  1.00  0.00    -0.325 A  
HETATM   17  C   UNL     1     -11.881  12.114  66.856  1.00  0.00    -0.295 A  
HETATM   18  O   UNL     1     -12.161  14.359  66.212  1.00  0.00    -0.409 OA 
HETATM   19  C   UNL     1     -11.104  11.067  67.359  1.00  0.00    -0.370 A  
HETATM   20  H   UNL     1     -13.061  14.169  65.972  1.00  0.00     0.000 HD 
ENDBRANCH   8   9
ENDBRANCH   2   8
TORSDOF 2
ENDMDL
MODEL      241
REMARK 921   NORMALIZED FREE ENERGY PREDICTED BY IDOCK:   -2.92 KCAL/MOL
REMARK 922        TOTAL FREE ENERGY PREDICTED BY IDOCK:   -3.56 KCAL/MOL
REMARK 923 INTER-LIGAND FREE ENERGY PREDICTED BY IDOCK:   -3.32 KCAL/MOL
REMARK 924 INTRA-LIGAND FREE ENERGY PREDICTED BY IDOCK:   -0.24 KCAL/MOL
REMARK 927      BINDING AFFINITY PREDICTED BY RF-SCORE:    0.00 PKD
ROOT
HETATM    1  N   UNL     1     -12.384   6.997  70.434  1.00  0.00    -0.618 NA 
HETATM    2  CA  UNL     1     -11.324   6.224  69.701  1.00  0.00    -0.422 C  
HETATM    3  H1  UNL     1     -12.960   6.425  71.052  1.00  0.00     0.000 HD 
HETATM    4  H2  UNL     1     -12.969   7.516  69.778  1.00  0.00     0.000 HD 
HETATM    5  OXT UNL     1      -9.388   4.944  70.501  1.00  0.00    -0.137 OA 
HETATM    6  C   UNL     1     -10.411   5.563  70.745  1.00  0.00    -0.260 C  
HETATM    7  O   UNL     1     -10.882   5.757  72.007  1.00  0.00    -0.234 OA 
ENDROOT
BRANCH   2   8
HETATM    8  C   UNL     1     -10.457   7.085  68.769  1.00  0.00    -0.222 C  
BRANCH   8   9
HETATM    9  C   UNL     1     -10.084   6.411  67.483  1.00  0.00    -0.190 A  
HETATM   10  C   UNL     1     -10.904   5.606  66.717  1.00  0.00    -0.216 A  
HETATM   11  N   UNL     1     -10.188   5.162  65.637  1.00  0.00    -0.421 NA 
HETATM   12  H   UNL     1     -10.552   4.546  64.909  1.00  0.00     0.000 HD 
HETATM   13  C   UNL     1      -8.908   5.665  65.675  1.00  0.00    -0.146 A  
HETATM   14  C   UNL     1      -8.807   6.442  66.832  1.00  0.00    -0.119 A  
HETATM   15  C   UNL     1      -7.569   7.057  67.121  1.00  0.00    -0.107 A  
HETATM   16  C   UNL     1      -6.504   6.885  66.234  1.00  0.00    -0.051 A  
HETATM   17  C   UNL     1      -6.633   6.113  65.088  1.00  0.00    -0.043 A  
HETATM   18  O   UNL     1      -5.294   7.471  66.466  1.00  0.00    -0.023 OA 
HETATM   19  C   UNL     1      -7.842   5.480  64.788  1.00  0.00    -0.106 A  
HETATM   20  H   UNL     1      -4.569   7.354  65.862  1.00  0.00     0.000 HD 
ENDBRANCH   8   9
ENDBRANCH   2   8
TORSDOF 2
ENDMDL
MODEL      242
REMARK 921   NORMALIZED FREE ENERGY PREDICTED BY IDOCK:   -2.92 KCAL/MOL
REMARK 922        TOTAL FREE ENERGY PREDICTED BY IDOCK:   -3.56 KCAL/MOL
REMARK 923 INTER-LIGAND FREE ENERGY PREDICTED BY IDOCK:   -3.35 KCAL/MOL
REMARK 924 INTRA-LIGAND FREE ENERGY PREDICTED BY IDOCK:   -0.21 KCAL/MOL
REMARK 927      BINDING AFFINITY PREDICTED BY RF-SCORE:    0.00 PKD
ROOT
HETATM    1  N   UNL     1      -8.085   5.691  66.272  1.00  0.00    -0.105 NA 
HETATM    2  CA  UNL     1      -7.840   6.683  67.374  1.00  0.00    -0.113 C  
HETATM    3  H1  UNL     1      -7.248   5.445  65.744  1.00  0.00     0.000 HD 
HETATM    4  H2  UNL     1      -8.819   6.022  65.647  1.00  0.00     0.000 HD 
HETATM    5  OXT UNL     1      -6.461   6.567  69.402  1.00  0.00    -0.040 OA 
HETATM    6  C   UNL     1      -6.814   6.075  68.342  1.00  0.00    -0.074 C  
HETATM    7  O   UNL     1      -6.334   4.891  67.874  1.00  0.00    -0.034 OA 
ENDROOT
BRANCH   2   8
HETATM    8  C   UNL     1      -9.102   7.055  68.170  1.00  0.00    -0.128 C  
BRANCH   8   9
HETATM    9  C   UNL     1      -9.718   8.361  67.767  1.00  0.00    -0.199 A  
HETATM   10  C   UNL     1      -9.587   8.979  66.539  1.00  0.00    -0.223 A  
HETATM   11  N   UNL     1     -10.274  10.163  66.576  1.00  0.00    -0.229 NA 
HETATM   12  H   UNL     1     -10.341  10.823  65.800  1.00  0.00     0.000 HD 
HETATM   13  C   UNL     1     -10.863  10.334  67.807  1.00  0.00    -0.292 A  
HETATM   14  C   UNL     1     -10.519   9.225  68.584  1.00  0.00    -0.236 A  
HETATM   15  C   UNL     1     -10.981   9.169  69.918  1.00  0.00    -0.218 A  
HETATM   16  C   UNL     1     -11.780  10.208  70.400  1.00  0.00    -0.308 A  
HETATM   17  C   UNL     1     -12.113  11.296  69.606  1.00  0.00    -0.391 A  
HETATM   18  O   UNL     1     -12.260  10.190  71.678  1.00  0.00    -0.382 OA 
HETATM   19  C   UNL     1     -11.653  11.383  68.289  1.00  0.00    -0.376 A  
HETATM   20  H   UNL     1     -12.804  10.897  72.006  1.00  0.00     0.000 HD 
ENDBRANCH   8   9
ENDBRANCH   2   8
TORSDOF 2
ENDMDL
MODEL      243
REMARK 921   NORMALIZED FREE ENERGY PREDICTED BY IDOCK:   -2.91 KCAL/MOL
REMARK 922        TOTAL FREE ENERGY PREDICTED BY IDOCK:   -3.55 KCAL/MOL
REMARK 923 INTER-LIGAND FREE ENERGY PREDICTED BY IDOCK:   -3.41 KCAL/MOL
REMARK 924 INTRA-LIGAND FREE ENERGY PREDICTED BY IDOCK:   -0.14 KCAL/MOL
REMARK 927      BINDING AFFINITY PREDICTED BY RF-SCORE:    0.00 PKD
ROOT
HETATM    1  N   UNL     1      -8.044   5.040  71.688  1.00  0.00    -0.112 NA 
HETATM    2  CA  UNL     1      -9.031   3.914  71.559  1.00  0.00    -0.107 C  
HETATM    3  H1  UNL     1      -7.383   4.924  72.457  1.00  0.00     0.000 HD 
HETATM    4  H2  UNL     1      -8.527   5.935  71.762  1.00  0.00     0.000 HD 
HETATM    5  OXT UNL     1      -8.731   1.523  71.089  1.00  0.00    -0.049 OA 
HETATM    6  C   UNL     1      -8.242   2.614  71.335  1.00  0.00    -0.062 C  
HETATM    7  O   UNL     1      -6.902   2.825  71.438  1.00  0.00    -0.030 OA 
ENDROOT
BRANCH   2   8
HETATM    8  C   UNL     1     -10.027   4.087  70.401  1.00  0.00    -0.107 C  
BRANCH   8   9
HETATM    9  C   UNL     1     -10.068   5.474  69.831  1.00  0.00    -0.305 A  
HETATM   10  C   UNL     1      -9.472   5.890  68.657  1.00  0.00    -0.122 A  
HETATM   11  N   UNL     1      -9.716   7.228  68.500  1.00  0.00    -0.147 NA 
HETATM   12  H   UNL     1      -9.387   7.794  67.717  1.00  0.00     0.000 HD 
HETATM   13  C   UNL     1     -10.469   7.702  69.550  1.00  0.00    -0.227 A  
HETATM   14  C   UNL     1     -10.693   6.626  70.412  1.00  0.00    -0.297 A  
HETATM   15  C   UNL     1     -11.429   6.856  71.596  1.00  0.00    -0.312 A  
HETATM   16  C   UNL     1     -11.921   8.138  71.848  1.00  0.00    -0.320 A  
HETATM   17  C   UNL     1     -11.690   9.188  70.972  1.00  0.00    -0.363 A  
HETATM   18  O   UNL     1     -12.648   8.403  72.972  1.00  0.00    -0.676 OA 
HETATM   19  C   UNL     1     -10.950   8.991  69.803  1.00  0.00    -0.177 A  
HETATM   20  H   UNL     1     -12.983   9.276  73.144  1.00  0.00     0.000 HD 
ENDBRANCH   8   9
ENDBRANCH   2   8
TORSDOF 2
ENDMDL
MODEL      244
REMARK 921   NORMALIZED FREE ENERGY PREDICTED BY IDOCK:   -2.91 KCAL/MOL
REMARK 922        TOTAL FREE ENERGY PREDICTED BY IDOCK:   -3.55 KCAL/MOL
REMARK 923 INTER-LIGAND FREE ENERGY PREDICTED BY IDOCK:   -4.25 KCAL/MOL
REMARK 924 INTRA-LIGAND FREE ENERGY PREDICTED BY IDOCK:    0.70 KCAL/MOL
REMARK 927      BINDING AFFINITY PREDICTED BY RF-SCORE:    0.00 PKD
ROOT
HETATM    1  N   UNL     1      -8.604   8.500  63.886  1.00  0.00    -0.408 NA 
HETATM    2  CA  UNL     1      -8.483   9.968  64.188  1.00  0.00    -0.176 C  
HETATM    3  H1  UNL     1      -7.741   8.075  63.546  1.00  0.00     0.000 HD 
HETATM    4  H2  UNL     1      -9.369   8.330  63.232  1.00  0.00     0.000 HD 
HETATM    5  OXT UNL     1      -7.110  11.193  65.813  1.00  0.00     0.021 OA 
HETATM    6  C   UNL     1      -7.397  10.143  65.261  1.00  0.00    -0.141 C  
HETATM    7  O   UNL     1      -6.780   8.962  65.537  1.00  0.00    -0.070 OA 
ENDROOT
BRANCH   2   8
HETATM    8  C   UNL     1      -9.783  10.608  64.700  1.00  0.00    -0.360 C  
BRANCH   8   9
HETATM    9  C   UNL     1     -10.027  10.411  66.166  1.00  0.00    -0.290 A  
HETATM   10  C   UNL     1      -9.742   9.273  66.894  1.00  0.00    -0.190 A  
HETATM   11  N   UNL     1     -10.135   9.479  68.190  1.00  0.00    -0.173 NA 
HETATM   12  H   UNL     1     -10.044   8.797  68.943  1.00  0.00     0.000 HD 
HETATM   13  C   UNL     1     -10.671  10.739  68.330  1.00  0.00    -0.217 A  
HETATM   14  C   UNL     1     -10.631  11.344  67.072  1.00  0.00    -0.286 A  
HETATM   15  C   UNL     1     -11.154  12.650  66.938  1.00  0.00    -0.315 A  
HETATM   16  C   UNL     1     -11.666  13.292  68.067  1.00  0.00    -0.359 A  
HETATM   17  C   UNL     1     -11.688  12.671  69.307  1.00  0.00    -0.379 A  
HETATM   18  O   UNL     1     -12.169  14.559  67.987  1.00  0.00    -0.581 OA 
HETATM   19  C   UNL     1     -11.194  11.373  69.462  1.00  0.00    -0.322 A  
HETATM   20  H   UNL     1     -12.518  14.996  68.756  1.00  0.00     0.000 HD 
ENDBRANCH   8   9
ENDBRANCH   2   8
TORSDOF 2
ENDMDL
MODEL      245
REMARK 921   NORMALIZED FREE ENERGY PREDICTED BY IDOCK:   -2.86 KCAL/MOL
REMARK 922        TOTAL FREE ENERGY PREDICTED BY IDOCK:   -3.49 KCAL/MOL
REMARK 923 INTER-LIGAND FREE ENERGY PREDICTED BY IDOCK:   -3.35 KCAL/MOL
REMARK 924 INTRA-LIGAND FREE ENERGY PREDICTED BY IDOCK:   -0.14 KCAL/MOL
REMARK 927      BINDING AFFINITY PREDICTED BY RF-SCORE:    0.00 PKD
ROOT
HETATM    1  N   UNL     1      -8.177   8.725  65.404  1.00  0.00    -0.128 NA 
HETATM    2  CA  UNL     1      -8.282   8.636  66.901  1.00  0.00    -0.105 C  
HETATM    3  H1  UNL     1      -8.063   9.676  65.053  1.00  0.00     0.000 HD 
HETATM    4  H2  UNL     1      -8.978   8.273  64.961  1.00  0.00     0.000 HD 
HETATM    5  OXT UNL     1      -6.702   9.223  68.686  1.00  0.00    -0.053 OA 
HETATM    6  C   UNL     1      -6.997   9.227  67.501  1.00  0.00    -0.078 C  
HETATM    7  O   UNL     1      -6.201   9.764  66.537  1.00  0.00    -0.065 OA 
ENDROOT
BRANCH   2   8
HETATM    8  C   UNL     1      -8.455   7.203  67.430  1.00  0.00    -0.122 C  
BRANCH   8   9
HETATM    9  C   UNL     1      -9.614   7.032  68.365  1.00  0.00    -0.135 A  
HETATM   10  C   UNL     1     -10.859   6.533  68.036  1.00  0.00    -0.295 A  
HETATM   11  N   UNL     1     -11.645   6.561  69.157  1.00  0.00    -0.624 NA 
HETATM   12  H   UNL     1     -12.617   6.252  69.197  1.00  0.00     0.000 HD 
HETATM   13  C   UNL     1     -10.937   7.066  70.223  1.00  0.00    -0.271 A  
HETATM   14  C   UNL     1      -9.661   7.386  69.753  1.00  0.00    -0.170 A  
HETATM   15  C   UNL     1      -8.735   7.954  70.657  1.00  0.00    -0.135 A  
HETATM   16  C   UNL     1      -9.121   8.153  71.984  1.00  0.00    -0.180 A  
HETATM   17  C   UNL     1     -10.393   7.821  72.427  1.00  0.00    -0.311 A  
HETATM   18  O   UNL     1      -8.256   8.687  72.895  1.00  0.00    -0.393 OA 
HETATM   19  C   UNL     1     -11.333   7.274  71.549  1.00  0.00    -0.280 A  
HETATM   20  H   UNL     1      -8.518   8.822  73.798  1.00  0.00     0.000 HD 
ENDBRANCH   8   9
ENDBRANCH   2   8
TORSDOF 2
ENDMDL
MODEL      246
REMARK 921   NORMALIZED FREE ENERGY PREDICTED BY IDOCK:   -2.76 KCAL/MOL
REMARK 922        TOTAL FREE ENERGY PREDICTED BY IDOCK:   -3.37 KCAL/MOL
REMARK 923 INTER-LIGAND FREE ENERGY PREDICTED BY IDOCK:   -3.91 KCAL/MOL
REMARK 924 INTRA-LIGAND FREE ENERGY PREDICTED BY IDOCK:    0.53 KCAL/MOL
REMARK 927      BINDING AFFINITY PREDICTED BY RF-SCORE:    0.00 PKD
ROOT
HETATM    1  N   UNL     1      -9.250  10.803  67.783  1.00  0.00    -0.150 NA 
HETATM    2  CA  UNL     1      -8.633  11.669  66.720  1.00  0.00    -0.180 C  
HETATM    3  H1  UNL     1      -8.570  10.279  68.334  1.00  0.00     0.000 HD 
HETATM    4  H2  UNL     1      -9.943  10.174  67.377  1.00  0.00     0.000 HD 
HETATM    5  OXT UNL     1      -7.103  13.584  66.857  1.00  0.00     0.143 OA 
HETATM    6  C   UNL     1      -7.690  12.667  67.409  1.00  0.00    -0.161 C  
HETATM    7  O   UNL     1      -7.586  12.410  68.741  1.00  0.00    -0.106 OA 
ENDROOT
BRANCH   2   8
HETATM    8  C   UNL     1      -9.657  12.458  65.888  1.00  0.00    -0.193 C  
BRANCH   8   9
HETATM    9  C   UNL     1     -10.081  13.755  66.508  1.00  0.00    -0.286 A  
HETATM   10  C   UNL     1      -9.840  15.018  66.002  1.00  0.00    -0.319 A  
HETATM   11  N   UNL     1     -10.361  15.938  66.872  1.00  0.00    -0.286 NA 
HETATM   12  H   UNL     1     -10.321  16.950  66.744  1.00  0.00     0.000 HD 
HETATM   13  C   UNL     1     -10.947  15.304  67.943  1.00  0.00    -0.306 A  
HETATM   14  C   UNL     1     -10.774  13.931  67.751  1.00  0.00    -0.252 A  
HETATM   15  C   UNL     1     -11.268  13.048  68.736  1.00  0.00    -0.325 A  
HETATM   16  C   UNL     1     -11.928  13.576  69.848  1.00  0.00    -0.348 A  
HETATM   17  C   UNL     1     -12.094  14.943  70.011  1.00  0.00    -0.387 A  
HETATM   18  O   UNL     1     -12.435  12.760  70.818  1.00  0.00    -0.344 OA 
HETATM   19  C   UNL     1     -11.598  15.839  69.059  1.00  0.00    -0.406 A  
HETATM   20  H   UNL     1     -12.884  13.119  71.575  1.00  0.00     0.000 HD 
ENDBRANCH   8   9
ENDBRANCH   2   8
TORSDOF 2
ENDMDL
MODEL      247
REMARK 921   NORMALIZED FREE ENERGY PREDICTED BY IDOCK:   -2.74 KCAL/MOL
REMARK 922        TOTAL FREE ENERGY PREDICTED BY IDOCK:   -3.36 KCAL/MOL
REMARK 923 INTER-LIGAND FREE ENERGY PREDICTED BY IDOCK:   -3.56 KCAL/MOL
REMARK 924 INTRA-LIGAND FREE ENERGY PREDICTED BY IDOCK:    0.20 KCAL/MOL
REMARK 927      BINDING AFFINITY PREDICTED BY RF-SCORE:    0.00 PKD
ROOT
HETATM    1  N   UNL     1      -7.188  13.241  69.067  1.00  0.00    -0.257 NA 
HETATM    2  CA  UNL     1      -7.608  12.041  68.264  1.00  0.00    -0.117 C  
HETATM    3  H1  UNL     1      -6.356  13.086  69.636  1.00  0.00     0.000 HD 
HETATM    4  H2  UNL     1      -7.960  13.575  69.643  1.00  0.00     0.000 HD 
HETATM    5  OXT UNL     1      -6.479  10.795  66.475  1.00  0.00    -0.098 OA 
HETATM    6  C   UNL     1      -6.445  11.660  67.336  1.00  0.00    -0.103 C  
HETATM    7  O   UNL     1      -5.344  12.420  67.585  1.00  0.00    -0.081 OA 
ENDROOT
BRANCH   2   8
HETATM    8  C   UNL     1      -8.862  12.273  67.406  1.00  0.00    -0.185 C  
BRANCH   8   9
HETATM    9  C   UNL     1     -10.125  11.737  68.010  1.00  0.00    -0.198 A  
HETATM   10  C   UNL     1     -11.413  12.063  67.632  1.00  0.00    -0.322 A  
HETATM   11  N   UNL     1     -12.286  11.385  68.440  1.00  0.00    -0.522 NA 
HETATM   12  H   UNL     1     -13.303  11.445  68.380  1.00  0.00     0.000 HD 
HETATM   13  C   UNL     1     -11.595  10.611  69.344  1.00  0.00    -0.280 A  
HETATM   14  C   UNL     1     -10.235  10.822  69.109  1.00  0.00    -0.229 A  
HETATM   15  C   UNL     1      -9.300  10.155  69.932  1.00  0.00    -0.134 A  
HETATM   16  C   UNL     1      -9.768   9.297  70.929  1.00  0.00    -0.276 A  
HETATM   17  C   UNL     1     -11.125   9.099  71.137  1.00  0.00    -0.393 A  
HETATM   18  O   UNL     1      -8.901   8.621  71.739  1.00  0.00    -0.188 OA 
HETATM   19  C   UNL     1     -12.070   9.761  70.348  1.00  0.00    -0.176 A  
HETATM   20  H   UNL     1      -9.220   8.037  72.417  1.00  0.00     0.000 HD 
ENDBRANCH   8   9
ENDBRANCH   2   8
TORSDOF 2
ENDMDL
MODEL      248
REMARK 921   NORMALIZED FREE ENERGY PREDICTED BY IDOCK:   -2.69 KCAL/MOL
REMARK 922        TOTAL FREE ENERGY PREDICTED BY IDOCK:   -3.30 KCAL/MOL
REMARK 923 INTER-LIGAND FREE ENERGY PREDICTED BY IDOCK:   -3.07 KCAL/MOL
REMARK 924 INTRA-LIGAND FREE ENERGY PREDICTED BY IDOCK:   -0.23 KCAL/MOL
REMARK 927      BINDING AFFINITY PREDICTED BY RF-SCORE:    0.00 PKD
ROOT
HETATM    1  N   UNL     1      -5.609   8.422  68.032  1.00  0.00    -0.034 NA 
HETATM    2  CA  UNL     1      -6.885   8.737  68.764  1.00  0.00    -0.062 C  
HETATM    3  H1  UNL     1      -5.195   9.226  67.560  1.00  0.00     0.000 HD 
HETATM    4  H2  UNL     1      -5.752   7.655  67.376  1.00  0.00     0.000 HD 
HETATM    5  OXT UNL     1      -7.358  10.232  70.653  1.00  0.00    -0.267 OA 
HETATM    6  C   UNL     1      -6.575   9.815  69.814  1.00  0.00    -0.060 C  
HETATM    7  O   UNL     1      -5.294  10.259  69.704  1.00  0.00    -0.038 OA 
ENDROOT
BRANCH   2   8
HETATM    8  C   UNL     1      -7.510   7.526  69.475  1.00  0.00    -0.093 C  
BRANCH   8   9
HETATM    9  C   UNL     1      -9.009   7.533  69.493  1.00  0.00    -0.143 A  
HETATM   10  C   UNL     1      -9.835   7.922  68.457  1.00  0.00    -0.177 A  
HETATM   11  N   UNL     1     -11.134   7.810  68.874  1.00  0.00    -0.410 NA 
HETATM   12  H   UNL     1     -11.951   8.036  68.306  1.00  0.00     0.000 HD 
HETATM   13  C   UNL     1     -11.180   7.348  70.169  1.00  0.00    -0.218 A  
HETATM   14  C   UNL     1      -9.859   7.179  70.592  1.00  0.00    -0.184 A  
HETATM   15  C   UNL     1      -9.628   6.734  71.912  1.00  0.00    -0.150 A  
HETATM   16  C   UNL     1     -10.723   6.458  72.734  1.00  0.00    -0.239 A  
HETATM   17  C   UNL     1     -12.025   6.627  72.288  1.00  0.00    -0.259 A  
HETATM   18  O   UNL     1     -10.548   6.012  74.012  1.00  0.00    -0.314 OA 
HETATM   19  C   UNL     1     -12.280   7.084  70.992  1.00  0.00    -0.419 A  
HETATM   20  H   UNL     1     -11.293   5.824  74.572  1.00  0.00     0.000 HD 
ENDBRANCH   8   9
ENDBRANCH   2   8
TORSDOF 2
ENDMDL
MODEL      249
REMARK 921   NORMALIZED FREE ENERGY PREDICTED BY IDOCK:   -2.67 KCAL/MOL
REMARK 922        TOTAL FREE ENERGY PREDICTED BY IDOCK:   -3.28 KCAL/MOL
REMARK 923 INTER-LIGAND FREE ENERGY PREDICTED BY IDOCK:   -3.01 KCAL/MOL
REMARK 924 INTRA-LIGAND FREE ENERGY PREDICTED BY IDOCK:   -0.27 KCAL/MOL
REMARK 927      BINDING AFFINITY PREDICTED BY RF-SCORE:    0.00 PKD
ROOT
HETATM    1  N   UNL     1     -10.516   8.495  70.424  1.00  0.00    -0.202 NA 
HETATM    2  CA  UNL     1     -11.695   7.579  70.248  1.00  0.00    -0.023 C  
HETATM    3  H1  UNL     1     -10.749   9.391  70.851  1.00  0.00     0.000 HD 
HETATM    4  H2  UNL     1     -10.034   8.635  69.536  1.00  0.00     0.000 HD 
HETATM    5  OXT UNL     1     -13.212   6.537  71.872  1.00  0.00    -0.203 OA 
HETATM    6  C   UNL     1     -12.304   7.317  71.634  1.00  0.00    -0.352 C  
HETATM    7  O   UNL     1     -11.695   8.067  72.591  1.00  0.00    -0.388 OA 
ENDROOT
BRANCH   2   8
HETATM    8  C   UNL     1     -11.344   6.228  69.604  1.00  0.00    -0.492 C  
BRANCH   8   9
HETATM    9  C   UNL     1      -9.947   5.761  69.884  1.00  0.00    -0.254 A  
HETATM   10  C   UNL     1      -8.844   5.962  69.078  1.00  0.00    -0.119 A  
HETATM   11  N   UNL     1      -7.763   5.362  69.667  1.00  0.00    -0.073 NA 
HETATM   12  H   UNL     1      -6.818   5.354  69.282  1.00  0.00     0.000 HD 
HETATM   13  C   UNL     1      -8.135   4.771  70.853  1.00  0.00    -0.083 A  
HETATM   14  C   UNL     1      -9.505   4.991  71.010  1.00  0.00    -0.220 A  
HETATM   15  C   UNL     1     -10.146   4.456  72.149  1.00  0.00    -0.262 A  
HETATM   16  C   UNL     1      -9.385   3.750  73.084  1.00  0.00    -0.102 A  
HETATM   17  C   UNL     1      -8.023   3.551  72.908  1.00  0.00    -0.070 A  
HETATM   18  O   UNL     1      -9.958   3.227  74.206  1.00  0.00    -0.109 OA 
HETATM   19  C   UNL     1      -7.369   4.056  71.780  1.00  0.00    -0.059 A  
HETATM   20  H   UNL     1      -9.440   2.747  74.842  1.00  0.00     0.000 HD 
ENDBRANCH   8   9
ENDBRANCH   2   8
TORSDOF 2
ENDMDL
MODEL      250
REMARK 921   NORMALIZED FREE ENERGY PREDICTED BY IDOCK:   -2.64 KCAL/MOL
REMARK 922        TOTAL FREE ENERGY PREDICTED BY IDOCK:   -3.24 KCAL/MOL
REMARK 923 INTER-LIGAND FREE ENERGY PREDICTED BY IDOCK:   -2.98 KCAL/MOL
REMARK 924 INTRA-LIGAND FREE ENERGY PREDICTED BY IDOCK:   -0.26 KCAL/MOL
REMARK 927      BINDING AFFINITY PREDICTED BY RF-SCORE:    0.00 PKD
ROOT
HETATM    1  N   UNL     1      -8.234   4.114  70.466  1.00  0.00    -0.062 NA 
HETATM    2  CA  UNL     1      -9.348   3.649  69.569  1.00  0.00    -0.176 C  
HETATM    3  H1  UNL     1      -7.867   3.387  71.079  1.00  0.00     0.000 HD 
HETATM    4  H2  UNL     1      -8.526   4.927  71.008  1.00  0.00     0.000 HD 
HETATM    5  OXT UNL     1      -9.416   1.959  67.790  1.00  0.00    -0.166 OA 
HETATM    6  C   UNL     1      -8.810   2.502  68.700  1.00  0.00    -0.107 C  
HETATM    7  O   UNL     1      -7.546   2.156  69.065  1.00  0.00    -0.043 OA 
ENDROOT
BRANCH   2   8
HETATM    8  C   UNL     1      -9.903   4.745  68.645  1.00  0.00    -0.208 C  
BRANCH   8   9
HETATM    9  C   UNL     1     -10.328   5.992  69.360  1.00  0.00    -0.298 A  
HETATM   10  C   UNL     1     -11.517   6.177  70.039  1.00  0.00    -0.299 A  
HETATM   11  N   UNL     1     -11.540   7.455  70.529  1.00  0.00    -0.414 NA 
HETATM   12  H   UNL     1     -12.306   7.859  71.069  1.00  0.00     0.000 HD 
HETATM   13  C   UNL     1     -10.382   8.116  70.190  1.00  0.00    -0.215 A  
HETATM   14  C   UNL     1      -9.607   7.228  69.442  1.00  0.00    -0.154 A  
HETATM   15  C   UNL     1      -8.363   7.677  68.943  1.00  0.00    -0.129 A  
HETATM   16  C   UNL     1      -7.948   8.978  69.235  1.00  0.00    -0.096 A  
HETATM   17  C   UNL     1      -8.734   9.839  69.987  1.00  0.00    -0.237 A  
HETATM   18  O   UNL     1      -6.749   9.451  68.786  1.00  0.00    -0.052 OA 
HETATM   19  C   UNL     1      -9.976   9.424  70.477  1.00  0.00    -0.328 A  
HETATM   20  H   UNL     1      -6.466  10.336  68.985  1.00  0.00     0.000 HD 
ENDBRANCH   8   9
ENDBRANCH   2   8
TORSDOF 2
ENDMDL
MODEL      251
REMARK 921   NORMALIZED FREE ENERGY PREDICTED BY IDOCK:   -2.63 KCAL/MOL
REMARK 922        TOTAL FREE ENERGY PREDICTED BY IDOCK:   -3.23 KCAL/MOL
REMARK 923 INTER-LIGAND FREE ENERGY PREDICTED BY IDOCK:   -3.18 KCAL/MOL
REMARK 924 INTRA-LIGAND FREE ENERGY PREDICTED BY IDOCK:   -0.05 KCAL/MOL
REMARK 927      BINDING AFFINITY PREDICTED BY RF-SCORE:    0.00 PKD
ROOT
HETATM    1  N   UNL     1     -11.187   4.472  64.759  1.00  0.00    -0.912 NA 
HETATM    2  CA  UNL     1      -9.832   4.659  65.382  1.00  0.00    -0.156 C  
HETATM    3  H1  UNL     1     -11.462   5.229  64.133  1.00  0.00     0.000 HD 
HETATM    4  H2  UNL     1     -11.896   4.326  65.478  1.00  0.00     0.000 HD 
HETATM    5  OXT UNL     1      -7.588   4.809  64.397  1.00  0.00    -0.070 OA 
HETATM    6  C   UNL     1      -8.799   4.756  64.249  1.00  0.00    -0.132 C  
HETATM    7  O   UNL     1      -9.401   4.770  63.029  1.00  0.00    -0.077 OA 
ENDROOT
BRANCH   2   8
HETATM    8  C   UNL     1      -9.417   3.519  66.326  1.00  0.00    -0.157 C  
BRANCH   8   9
HETATM    9  C   UNL     1      -8.816   3.982  67.618  1.00  0.00    -0.132 A  
HETATM   10  C   UNL     1      -7.751   3.399  68.277  1.00  0.00    -0.059 A  
HETATM   11  N   UNL     1      -7.522   4.099  69.431  1.00  0.00    -0.054 NA 
HETATM   12  H   UNL     1      -6.793   3.881  70.111  1.00  0.00     0.000 HD 
HETATM   13  C   UNL     1      -8.415   5.140  69.543  1.00  0.00    -0.093 A  
HETATM   14  C   UNL     1      -9.252   5.084  68.426  1.00  0.00    -0.150 A  
HETATM   15  C   UNL     1     -10.286   6.039  68.313  1.00  0.00    -0.252 A  
HETATM   16  C   UNL     1     -10.419   7.012  69.305  1.00  0.00    -0.210 A  
HETATM   17  C   UNL     1      -9.570   7.050  70.402  1.00  0.00    -0.169 A  
HETATM   18  O   UNL     1     -11.395   7.964  69.231  1.00  0.00    -0.418 OA 
HETATM   19  C   UNL     1      -8.550   6.106  70.546  1.00  0.00    -0.138 A  
HETATM   20  H   UNL     1     -11.485   8.626  69.907  1.00  0.00     0.000 HD 
ENDBRANCH   8   9
ENDBRANCH   2   8
TORSDOF 2
ENDMDL
MODEL      252
REMARK 921   NORMALIZED FREE ENERGY PREDICTED BY IDOCK:   -2.63 KCAL/MOL
REMARK 922        TOTAL FREE ENERGY PREDICTED BY IDOCK:   -3.23 KCAL/MOL
REMARK 923 INTER-LIGAND FREE ENERGY PREDICTED BY IDOCK:   -3.01 KCAL/MOL
REMARK 924 INTRA-LIGAND FREE ENERGY PREDICTED BY IDOCK:   -0.23 KCAL/MOL
REMARK 927      BINDING AFFINITY PREDICTED BY RF-SCORE:    0.00 PKD
ROOT
HETATM    1  N   UNL     1     -10.744   5.269  65.636  1.00  0.00    -0.552 NA 
HETATM    2  CA  UNL     1      -9.830   5.084  66.815  1.00  0.00    -0.192 C  
HETATM    3  H1  UNL     1     -10.278   5.170  64.733  1.00  0.00     0.000 HD 
HETATM    4  H2  UNL     1     -11.228   6.164  65.693  1.00  0.00     0.000 HD 
HETATM    5  OXT UNL     1      -8.516   3.156  67.579  1.00  0.00    -0.085 OA 
HETATM    6  C   UNL     1      -9.223   3.675  66.730  1.00  0.00    -0.181 C  
HETATM    7  O   UNL     1      -9.579   3.053  65.573  1.00  0.00    -0.094 OA 
ENDROOT
BRANCH   2   8
HETATM    8  C   UNL     1     -10.530   5.234  68.175  1.00  0.00    -0.140 C  
BRANCH   8   9
HETATM    9  C   UNL     1      -9.670   5.839  69.244  1.00  0.00    -0.188 A  
HETATM   10  C   UNL     1      -8.517   6.571  69.044  1.00  0.00    -0.125 A  
HETATM   11  N   UNL     1      -8.011   6.923  70.267  1.00  0.00    -0.113 NA 
HETATM   12  H   UNL     1      -7.159   7.467  70.412  1.00  0.00     0.000 HD 
HETATM   13  C   UNL     1      -8.816   6.439  71.272  1.00  0.00    -0.138 A  
HETATM   14  C   UNL     1      -9.859   5.740  70.662  1.00  0.00    -0.240 A  
HETATM   15  C   UNL     1     -10.821   5.114  71.486  1.00  0.00    -0.102 A  
HETATM   16  C   UNL     1     -10.707   5.237  72.872  1.00  0.00    -0.253 A  
HETATM   17  C   UNL     1      -9.664   5.944  73.453  1.00  0.00    -0.158 A  
HETATM   18  O   UNL     1     -11.621   4.661  73.707  1.00  0.00    -0.322 OA 
HETATM   19  C   UNL     1      -8.690   6.556  72.661  1.00  0.00    -0.125 A  
HETATM   20  H   UNL     1     -11.543   4.745  74.650  1.00  0.00     0.000 HD 
ENDBRANCH   8   9
ENDBRANCH   2   8
TORSDOF 2
ENDMDL
MODEL      253
REMARK 921   NORMALIZED FREE ENERGY PREDICTED BY IDOCK:   -2.63 KCAL/MOL
REMARK 922        TOTAL FREE ENERGY PREDICTED BY IDOCK:   -3.23 KCAL/MOL
REMARK 923 INTER-LIGAND FREE ENERGY PREDICTED BY IDOCK:   -2.93 KCAL/MOL
REMARK 924 INTRA-LIGAND FREE ENERGY PREDICTED BY IDOCK:   -0.30 KCAL/MOL
REMARK 927      BINDING AFFINITY PREDICTED BY RF-SCORE:    0.00 PKD
ROOT
HETATM    1  N   UNL     1      -8.836   8.313  65.148  1.00  0.00    -0.391 NA 
HETATM    2  CA  UNL     1      -9.652   8.332  66.411  1.00  0.00    -0.230 C  
HETATM    3  H1  UNL     1      -9.392   8.380  64.296  1.00  0.00     0.000 HD 
HETATM    4  H2  UNL     1      -8.236   7.488  65.121  1.00  0.00     0.000 HD 
HETATM    5  OXT UNL     1     -11.128  10.040  67.376  1.00  0.00    -0.257 OA 
HETATM    6  C   UNL     1     -10.442   9.649  66.445  1.00  0.00    -0.111 C  
HETATM    7  O   UNL     1     -10.280  10.354  65.293  1.00  0.00    -0.299 OA 
ENDROOT
BRANCH   2   8
HETATM    8  C   UNL     1      -8.814   8.230  67.696  1.00  0.00    -0.137 C  
BRANCH   8   9
HETATM    9  C   UNL     1      -9.275   7.164  68.644  1.00  0.00    -0.135 A  
HETATM   10  C   UNL     1      -9.975   7.363  69.817  1.00  0.00    -0.188 A  
HETATM   11  N   UNL     1     -10.183   6.146  70.409  1.00  0.00    -0.194 NA 
HETATM   12  H   UNL     1     -10.674   6.003  71.292  1.00  0.00     0.000 HD 
HETATM   13  C   UNL     1      -9.636   5.144  69.641  1.00  0.00    -0.167 A  
HETATM   14  C   UNL     1      -9.044   5.753  68.532  1.00  0.00    -0.116 A  
HETATM   15  C   UNL     1      -8.381   4.935  67.590  1.00  0.00    -0.105 A  
HETATM   16  C   UNL     1      -8.362   3.553  67.790  1.00  0.00    -0.089 A  
HETATM   17  C   UNL     1      -8.963   2.972  68.897  1.00  0.00    -0.186 A  
HETATM   18  O   UNL     1      -7.745   2.723  66.899  1.00  0.00    -0.073 OA 
HETATM   19  C   UNL     1      -9.610   3.761  69.852  1.00  0.00    -0.255 A  
HETATM   20  H   UNL     1      -7.732   1.782  67.036  1.00  0.00     0.000 HD 
ENDBRANCH   8   9
ENDBRANCH   2   8
TORSDOF 2
ENDMDL
MODEL      254
REMARK 921   NORMALIZED FREE ENERGY PREDICTED BY IDOCK:   -2.60 KCAL/MOL
REMARK 922        TOTAL FREE ENERGY PREDICTED BY IDOCK:   -3.20 KCAL/MOL
REMARK 923 INTER-LIGAND FREE ENERGY PREDICTED BY IDOCK:   -2.97 KCAL/MOL
REMARK 924 INTRA-LIGAND FREE ENERGY PREDICTED BY IDOCK:   -0.24 KCAL/MOL
REMARK 927      BINDING AFFINITY PREDICTED BY RF-SCORE:    0.00 PKD
ROOT
HETATM    1  N   UNL     1      -7.058   4.294  67.362  1.00  0.00    -0.066 NA 
HETATM    2  CA  UNL     1      -8.168   3.294  67.191  1.00  0.00    -0.083 C  
HETATM    3  H1  UNL     1      -6.127   3.910  67.198  1.00  0.00     0.000 HD 
HETATM    4  H2  UNL     1      -7.108   4.731  68.282  1.00  0.00     0.000 HD 
HETATM    5  OXT UNL     1      -8.921   2.008  65.239  1.00  0.00    -0.123 OA 
HETATM    6  C   UNL     1      -8.106   2.760  65.751  1.00  0.00    -0.087 C  
HETATM    7  O   UNL     1      -7.016   3.237  65.093  1.00  0.00    -0.054 OA 
ENDROOT
BRANCH   2   8
HETATM    8  C   UNL     1      -9.570   3.872  67.438  1.00  0.00    -0.218 C  
BRANCH   8   9
HETATM    9  C   UNL     1      -9.755   4.468  68.802  1.00  0.00    -0.213 A  
HETATM   10  C   UNL     1      -9.627   3.804  70.006  1.00  0.00    -0.188 A  
HETATM   11  N   UNL     1      -9.899   4.686  71.017  1.00  0.00    -0.187 NA 
HETATM   12  H   UNL     1      -9.881   4.458  72.011  1.00  0.00     0.000 HD 
HETATM   13  C   UNL     1     -10.200   5.925  70.500  1.00  0.00    -0.211 A  
HETATM   14  C   UNL     1     -10.133   5.816  69.109  1.00  0.00    -0.257 A  
HETATM   15  C   UNL     1     -10.430   6.958  68.331  1.00  0.00    -0.235 A  
HETATM   16  C   UNL     1     -10.755   8.151  68.978  1.00  0.00    -0.080 A  
HETATM   17  C   UNL     1     -10.809   8.235  70.362  1.00  0.00    -0.241 A  
HETATM   18  O   UNL     1     -11.036   9.283  68.267  1.00  0.00    -0.481 OA 
HETATM   19  C   UNL     1     -10.537   7.115  71.154  1.00  0.00    -0.240 A  
HETATM   20  H   UNL     1     -11.258  10.095  68.708  1.00  0.00     0.000 HD 
ENDBRANCH   8   9
ENDBRANCH   2   8
TORSDOF 2
ENDMDL
MODEL      255
REMARK 921   NORMALIZED FREE ENERGY PREDICTED BY IDOCK:   -2.58 KCAL/MOL
REMARK 922        TOTAL FREE ENERGY PREDICTED BY IDOCK:   -3.17 KCAL/MOL
REMARK 923 INTER-LIGAND FREE ENERGY PREDICTED BY IDOCK:   -2.90 KCAL/MOL
REMARK 924 INTRA-LIGAND FREE ENERGY PREDICTED BY IDOCK:   -0.27 KCAL/MOL
REMARK 927      BINDING AFFINITY PREDICTED BY RF-SCORE:    0.00 PKD
ROOT
HETATM    1  N   UNL     1      -8.250   7.347  63.678  1.00  0.00    -0.353 NA 
HETATM    2  CA  UNL     1      -7.699   7.413  65.075  1.00  0.00    -0.114 C  
HETATM    3  H1  UNL     1      -7.918   8.094  63.068  1.00  0.00     0.000 HD 
HETATM    4  H2  UNL     1      -9.269   7.324  63.694  1.00  0.00     0.000 HD 
HETATM    5  OXT UNL     1      -5.406   7.251  65.937  1.00  0.00    -0.026 OA 
HETATM    6  C   UNL     1      -6.168   7.328  64.986  1.00  0.00    -0.038 C  
HETATM    7  O   UNL     1      -5.746   7.342  63.693  1.00  0.00    -0.039 OA 
ENDROOT
BRANCH   2   8
HETATM    8  C   UNL     1      -8.199   6.288  65.995  1.00  0.00    -0.125 C  
BRANCH   8   9
HETATM    9  C   UNL     1      -9.263   6.714  66.962  1.00  0.00    -0.147 A  
HETATM   10  C   UNL     1     -10.586   6.319  66.944  1.00  0.00    -0.305 A  
HETATM   11  N   UNL     1     -11.238   6.946  67.972  1.00  0.00    -0.545 NA 
HETATM   12  H   UNL     1     -12.230   6.836  68.187  1.00  0.00     0.000 HD 
HETATM   13  C   UNL     1     -10.365   7.746  68.672  1.00  0.00    -0.199 A  
HETATM   14  C   UNL     1      -9.119   7.634  68.052  1.00  0.00    -0.135 A  
HETATM   15  C   UNL     1      -8.041   8.388  68.568  1.00  0.00    -0.123 A  
HETATM   16  C   UNL     1      -8.256   9.195  69.688  1.00  0.00    -0.116 A  
HETATM   17  C   UNL     1      -9.503   9.284  70.289  1.00  0.00    -0.277 A  
HETATM   18  O   UNL     1      -7.241   9.930  70.229  1.00  0.00    -0.133 OA 
HETATM   19  C   UNL     1     -10.589   8.562  69.786  1.00  0.00    -0.224 A  
HETATM   20  H   UNL     1      -7.388  10.480  70.991  1.00  0.00     0.000 HD 
ENDBRANCH   8   9
ENDBRANCH   2   8
TORSDOF 2
ENDMDL
MODEL      256
REMARK 921   NORMALIZED FREE ENERGY PREDICTED BY IDOCK:   -2.53 KCAL/MOL
REMARK 922        TOTAL FREE ENERGY PREDICTED BY IDOCK:   -3.12 KCAL/MOL
REMARK 923 INTER-LIGAND FREE ENERGY PREDICTED BY IDOCK:   -3.15 KCAL/MOL
REMARK 924 INTRA-LIGAND FREE ENERGY PREDICTED BY IDOCK:    0.03 KCAL/MOL
REMARK 927      BINDING AFFINITY PREDICTED BY RF-SCORE:    0.00 PKD
ROOT
HETATM    1  N   UNL     1     -13.459  13.376  70.487  1.00  0.00     0.455 NA 
HETATM    2  CA  UNL     1     -11.961  13.480  70.573  1.00  0.00    -0.269 C  
HETATM    3  H1  UNL     1     -13.949  13.834  71.254  1.00  0.00     0.000 HD 
HETATM    4  H2  UNL     1     -13.747  12.400  70.409  1.00  0.00     0.000 HD 
HETATM    5  OXT UNL     1     -10.453  15.417  70.527  1.00  0.00    -0.280 OA 
HETATM    6  C   UNL     1     -11.589  14.970  70.570  1.00  0.00    -0.298 C  
HETATM    7  O   UNL     1     -12.697  15.758  70.615  1.00  0.00    -0.439 OA 
ENDROOT
BRANCH   2   8
HETATM    8  C   UNL     1     -11.221  12.788  69.416  1.00  0.00    -0.198 C  
BRANCH   8   9
HETATM    9  C   UNL     1     -11.456  13.417  68.076  1.00  0.00    -0.339 A  
HETATM   10  C   UNL     1     -12.582  13.266  67.291  1.00  0.00     0.476 A  
HETATM   11  N   UNL     1     -12.401  13.976  66.134  1.00  0.00    -0.466 NA 
HETATM   12  H   UNL     1     -13.079  14.036  65.373  1.00  0.00     0.000 HD 
HETATM   13  C   UNL     1     -11.174  14.599  66.145  1.00  0.00    -0.341 A  
HETATM   14  C   UNL     1     -10.550  14.255  67.346  1.00  0.00    -0.276 A  
HETATM   15  C   UNL     1      -9.250  14.750  67.593  1.00  0.00    -0.191 A  
HETATM   16  C   UNL     1      -8.650  15.579  66.643  1.00  0.00    -0.290 A  
HETATM   17  C   UNL     1      -9.295  15.912  65.461  1.00  0.00    -0.016 A  
HETATM   18  O   UNL     1      -7.401  16.092  66.846  1.00  0.00    -0.219 OA 
HETATM   19  C   UNL     1     -10.574  15.421  65.185  1.00  0.00    -0.458 A  
HETATM   20  H   UNL     1      -6.993  16.656  66.199  1.00  0.00     0.000 HD 
ENDBRANCH   8   9
ENDBRANCH   2   8
TORSDOF 2
ENDMDL
MODEL      257
REMARK 921   NORMALIZED FREE ENERGY PREDICTED BY IDOCK:   -2.52 KCAL/MOL
REMARK 922        TOTAL FREE ENERGY PREDICTED BY IDOCK:   -3.11 KCAL/MOL
REMARK 923 INTER-LIGAND FREE ENERGY PREDICTED BY IDOCK:   -3.34 KCAL/MOL
REMARK 924 INTRA-LIGAND FREE ENERGY PREDICTED BY IDOCK:    0.23 KCAL/MOL
REMARK 927      BINDING AFFINITY PREDICTED BY RF-SCORE:    0.00 PKD
ROOT
HETATM    1  N   UNL     1     -13.746  13.868  70.371  1.00  0.00     0.297 NA 
HETATM    2  CA  UNL     1     -12.416  13.691  71.050  1.00  0.00    -0.377 C  
HETATM    3  H1  UNL     1     -14.533  13.941  71.016  1.00  0.00     0.000 HD 
HETATM    4  H2  UNL     1     -13.905  13.122  69.694  1.00  0.00     0.000 HD 
HETATM    5  OXT UNL     1     -11.163  15.134  72.591  1.00  0.00    -0.294 OA 
HETATM    6  C   UNL     1     -12.186  14.903  71.966  1.00  0.00    -0.358 C  
HETATM    7  O   UNL     1     -13.279  15.713  71.999  1.00  0.00    -0.426 OA 
ENDROOT
BRANCH   2   8
HETATM    8  C   UNL     1     -11.231  13.580  70.079  1.00  0.00     0.088 C  
BRANCH   8   9
HETATM    9  C   UNL     1     -10.918  14.850  69.347  1.00  0.00    -0.284 A  
HETATM   10  C   UNL     1     -11.835  15.698  68.758  1.00  0.00    -0.321 A  
HETATM   11  N   UNL     1     -11.154  16.730  68.169  1.00  0.00    -0.326 NA 
HETATM   12  H   UNL     1     -11.588  17.500  67.659  1.00  0.00     0.000 HD 
HETATM   13  C   UNL     1      -9.800  16.579  68.363  1.00  0.00    -0.237 A  
HETATM   14  C   UNL     1      -9.619  15.398  69.087  1.00  0.00    -0.253 A  
HETATM   15  C   UNL     1      -8.300  14.997  69.398  1.00  0.00    -0.141 A  
HETATM   16  C   UNL     1      -7.235  15.803  68.992  1.00  0.00    -0.168 A  
HETATM   17  C   UNL     1      -7.443  16.975  68.280  1.00  0.00    -0.207 A  
HETATM   18  O   UNL     1      -5.945  15.462  69.282  1.00  0.00    -0.104 OA 
HETATM   19  C   UNL     1      -8.736  17.385  67.945  1.00  0.00    -0.237 A  
HETATM   20  H   UNL     1      -5.220  16.010  69.005  1.00  0.00     0.000 HD 
ENDBRANCH   8   9
ENDBRANCH   2   8
TORSDOF 2
ENDMDL
MODEL      258
REMARK 921   NORMALIZED FREE ENERGY PREDICTED BY IDOCK:   -2.52 KCAL/MOL
REMARK 922        TOTAL FREE ENERGY PREDICTED BY IDOCK:   -3.11 KCAL/MOL
REMARK 923 INTER-LIGAND FREE ENERGY PREDICTED BY IDOCK:   -2.85 KCAL/MOL
REMARK 924 INTRA-LIGAND FREE ENERGY PREDICTED BY IDOCK:   -0.25 KCAL/MOL
REMARK 927      BINDING AFFINITY PREDICTED BY RF-SCORE:    0.00 PKD
ROOT
HETATM    1  N   UNL     1      -8.018   5.460  70.910  1.00  0.00    -0.101 NA 
HETATM    2  CA  UNL     1      -8.549   6.128  69.672  1.00  0.00    -0.128 C  
HETATM    3  H1  UNL     1      -8.347   4.503  71.036  1.00  0.00     0.000 HD 
HETATM    4  H2  UNL     1      -8.221   6.022  71.736  1.00  0.00     0.000 HD 
HETATM    5  OXT UNL     1      -8.281   5.601  67.289  1.00  0.00    -0.102 OA 
HETATM    6  C   UNL     1      -8.109   5.294  68.458  1.00  0.00    -0.087 C  
HETATM    7  O   UNL     1      -7.485   4.149  68.844  1.00  0.00    -0.055 OA 
ENDROOT
BRANCH   2   8
HETATM    8  C   UNL     1      -8.053   7.570  69.480  1.00  0.00    -0.128 C  
BRANCH   8   9
HETATM    9  C   UNL     1      -9.077   8.497  68.897  1.00  0.00    -0.146 A  
HETATM   10  C   UNL     1     -10.394   8.611  69.296  1.00  0.00    -0.221 A  
HETATM   11  N   UNL     1     -11.007   9.544  68.502  1.00  0.00    -0.441 NA 
HETATM   12  H   UNL     1     -11.986   9.822  68.577  1.00  0.00     0.000 HD 
HETATM   13  C   UNL     1     -10.113  10.051  67.587  1.00  0.00    -0.190 A  
HETATM   14  C   UNL     1      -8.895   9.401  67.799  1.00  0.00    -0.124 A  
HETATM   15  C   UNL     1      -7.805   9.727  66.962  1.00  0.00    -0.102 A  
HETATM   16  C   UNL     1      -7.979  10.697  65.972  1.00  0.00    -0.159 A  
HETATM   17  C   UNL     1      -9.197  11.333  65.786  1.00  0.00    -0.236 A  
HETATM   18  O   UNL     1      -6.950  11.053  65.149  1.00  0.00    -0.347 OA 
HETATM   19  C   UNL     1     -10.296  11.016  66.590  1.00  0.00    -0.288 A  
HETATM   20  H   UNL     1      -7.068  11.713  64.475  1.00  0.00     0.000 HD 
ENDBRANCH   8   9
ENDBRANCH   2   8
TORSDOF 2
ENDMDL
MODEL      259
REMARK 921   NORMALIZED FREE ENERGY PREDICTED BY IDOCK:   -2.46 KCAL/MOL
REMARK 922        TOTAL FREE ENERGY PREDICTED BY IDOCK:   -3.04 KCAL/MOL
REMARK 923 INTER-LIGAND FREE ENERGY PREDICTED BY IDOCK:   -2.80 KCAL/MOL
REMARK 924 INTRA-LIGAND FREE ENERGY PREDICTED BY IDOCK:   -0.24 KCAL/MOL
REMARK 927      BINDING AFFINITY PREDICTED BY RF-SCORE:    0.00 PKD
ROOT
HETATM    1  N   UNL     1      -9.042  10.355  68.348  1.00  0.00    -0.141 NA 
HETATM    2  CA  UNL     1     -10.474   9.905  68.266  1.00  0.00    -0.210 C  
HETATM    3  H1  UNL     1      -8.841  11.195  67.805  1.00  0.00     0.000 HD 
HETATM    4  H2  UNL     1      -8.412   9.598  68.084  1.00  0.00     0.000 HD 
HETATM    5  OXT UNL     1     -12.568  10.986  68.954  1.00  0.00    -0.366 OA 
HETATM    6  C   UNL     1     -11.360  11.047  68.785  1.00  0.00    -0.283 C  
HETATM    7  O   UNL     1     -10.627  12.162  69.050  1.00  0.00    -0.181 OA 
ENDROOT
BRANCH   2   8
HETATM    8  C   UNL     1     -10.777   8.639  69.083  1.00  0.00    -0.136 C  
BRANCH   8   9
HETATM    9  C   UNL     1      -9.956   8.505  70.331  1.00  0.00    -0.203 A  
HETATM   10  C   UNL     1     -10.226   9.091  71.552  1.00  0.00    -0.344 A  
HETATM   11  N   UNL     1      -9.229   8.749  72.425  1.00  0.00    -0.375 NA 
HETATM   12  H   UNL     1      -9.177   9.050  73.399  1.00  0.00     0.000 HD 
HETATM   13  C   UNL     1      -8.306   7.941  71.802  1.00  0.00    -0.118 A  
HETATM   14  C   UNL     1      -8.727   7.782  70.480  1.00  0.00    -0.140 A  
HETATM   15  C   UNL     1      -7.928   7.007  69.609  1.00  0.00    -0.124 A  
HETATM   16  C   UNL     1      -6.766   6.414  70.106  1.00  0.00    -0.050 A  
HETATM   17  C   UNL     1      -6.373   6.582  71.426  1.00  0.00    -0.042 A  
HETATM   18  O   UNL     1      -5.970   5.646  69.305  1.00  0.00    -0.021 OA 
HETATM   19  C   UNL     1      -7.137   7.358  72.302  1.00  0.00    -0.067 A  
HETATM   20  H   UNL     1      -5.179   5.243  69.643  1.00  0.00     0.000 HD 
ENDBRANCH   8   9
ENDBRANCH   2   8
TORSDOF 2
ENDMDL
MODEL      260
REMARK 921   NORMALIZED FREE ENERGY PREDICTED BY IDOCK:   -2.45 KCAL/MOL
REMARK 922        TOTAL FREE ENERGY PREDICTED BY IDOCK:   -3.03 KCAL/MOL
REMARK 923 INTER-LIGAND FREE ENERGY PREDICTED BY IDOCK:   -3.49 KCAL/MOL
REMARK 924 INTRA-LIGAND FREE ENERGY PREDICTED BY IDOCK:    0.46 KCAL/MOL
REMARK 927      BINDING AFFINITY PREDICTED BY RF-SCORE:    0.00 PKD
ROOT
HETATM    1  N   UNL     1     -10.287   9.999  66.512  1.00  0.00    -0.221 NA 
HETATM    2  CA  UNL     1     -10.189  10.978  67.649  1.00  0.00    -0.182 C  
HETATM    3  H1  UNL     1      -9.588   9.257  66.544  1.00  0.00     0.000 HD 
HETATM    4  H2  UNL     1     -10.254  10.485  65.616  1.00  0.00     0.000 HD 
HETATM    5  OXT UNL     1     -10.438  10.695  70.075  1.00  0.00    -0.186 OA 
HETATM    6  C   UNL     1     -10.362  10.199  68.962  1.00  0.00    -0.212 C  
HETATM    7  O   UNL     1     -10.429   8.859  68.737  1.00  0.00    -0.217 OA 
ENDROOT
BRANCH   2   8
HETATM    8  C   UNL     1     -11.242  12.096  67.601  1.00  0.00    -0.345 C  
BRANCH   8   9
HETATM    9  C   UNL     1     -10.803  13.378  68.242  1.00  0.00    -0.275 A  
HETATM   10  C   UNL     1     -10.380  13.534  69.548  1.00  0.00     0.494 A  
HETATM   11  N   UNL     1     -10.093  14.856  69.755  1.00  0.00    -0.444 NA 
HETATM   12  H   UNL     1      -9.762  15.251  70.636  1.00  0.00     0.000 HD 
HETATM   13  C   UNL     1     -10.315  15.578  68.604  1.00  0.00    -0.219 A  
HETATM   14  C   UNL     1     -10.776  14.679  67.639  1.00  0.00    -0.271 A  
HETATM   15  C   UNL     1     -11.107  15.178  66.360  1.00  0.00    -0.312 A  
HETATM   16  C   UNL     1     -10.940  16.540  66.102  1.00  0.00     0.081 A  
HETATM   17  C   UNL     1     -10.473  17.411  67.075  1.00  0.00    -0.284 A  
HETATM   18  O   UNL     1     -11.233  17.065  64.876  1.00  0.00    -0.598 OA 
HETATM   19  C   UNL     1     -10.155  16.945  68.354  1.00  0.00    -0.304 A  
HETATM   20  H   UNL     1     -11.119  17.992  64.700  1.00  0.00     0.000 HD 
ENDBRANCH   8   9
ENDBRANCH   2   8
TORSDOF 2
ENDMDL
MODEL      261
REMARK 921   NORMALIZED FREE ENERGY PREDICTED BY IDOCK:   -2.40 KCAL/MOL
REMARK 922        TOTAL FREE ENERGY PREDICTED BY IDOCK:   -2.97 KCAL/MOL
REMARK 923 INTER-LIGAND FREE ENERGY PREDICTED BY IDOCK:   -3.18 KCAL/MOL
REMARK 924 INTRA-LIGAND FREE ENERGY PREDICTED BY IDOCK:    0.21 KCAL/MOL
REMARK 927      BINDING AFFINITY PREDICTED BY RF-SCORE:    0.00 PKD
ROOT
HETATM    1  N   UNL     1     -11.835  11.264  68.732  1.00  0.00    -0.430 NA 
HETATM    2  CA  UNL     1     -10.617  10.457  68.379  1.00  0.00    -0.208 C  
HETATM    3  H1  UNL     1     -11.661  11.996  69.421  1.00  0.00     0.000 HD 
HETATM    4  H2  UNL     1     -12.593  10.655  69.040  1.00  0.00     0.000 HD 
HETATM    5  OXT UNL     1      -8.485  11.087  67.336  1.00  0.00    -0.129 OA 
HETATM    6  C   UNL     1      -9.558  11.418  67.815  1.00  0.00    -0.172 C  
HETATM    7  O   UNL     1      -9.966  12.712  67.908  1.00  0.00    -0.214 OA 
ENDROOT
BRANCH   2   8
HETATM    8  C   UNL     1     -10.879   9.354  67.341  1.00  0.00    -0.189 C  
BRANCH   8   9
HETATM    9  C   UNL     1     -10.442   7.988  67.776  1.00  0.00    -0.280 A  
HETATM   10  C   UNL     1     -10.478   6.839  67.011  1.00  0.00    -0.299 A  
HETATM   11  N   UNL     1     -10.020   5.797  67.773  1.00  0.00    -0.130 NA 
HETATM   12  H   UNL     1      -9.944   4.831  67.455  1.00  0.00     0.000 HD 
HETATM   13  C   UNL     1      -9.676   6.242  69.029  1.00  0.00    -0.130 A  
HETATM   14  C   UNL     1      -9.944   7.612  69.067  1.00  0.00    -0.181 A  
HETATM   15  C   UNL     1      -9.700   8.311  70.270  1.00  0.00    -0.177 A  
HETATM   16  C   UNL     1      -9.181   7.615  71.363  1.00  0.00    -0.136 A  
HETATM   17  C   UNL     1      -8.917   6.254  71.297  1.00  0.00    -0.139 A  
HETATM   18  O   UNL     1      -8.917   8.251  72.542  1.00  0.00    -0.194 OA 
HETATM   19  C   UNL     1      -9.167   5.536  70.124  1.00  0.00    -0.173 A  
HETATM   20  H   UNL     1      -8.564   7.777  73.286  1.00  0.00     0.000 HD 
ENDBRANCH   8   9
ENDBRANCH   2   8
TORSDOF 2
ENDMDL
MODEL      262
REMARK 921   NORMALIZED FREE ENERGY PREDICTED BY IDOCK:   -2.37 KCAL/MOL
REMARK 922        TOTAL FREE ENERGY PREDICTED BY IDOCK:   -2.95 KCAL/MOL
REMARK 923 INTER-LIGAND FREE ENERGY PREDICTED BY IDOCK:   -2.67 KCAL/MOL
REMARK 924 INTRA-LIGAND FREE ENERGY PREDICTED BY IDOCK:   -0.28 KCAL/MOL
REMARK 927      BINDING AFFINITY PREDICTED BY RF-SCORE:    0.00 PKD
ROOT
HETATM    1  N   UNL     1      -9.390  12.596  66.737  1.00  0.00    -0.227 NA 
HETATM    2  CA  UNL     1      -8.940  12.037  68.058  1.00  0.00    -0.187 C  
HETATM    3  H1  UNL     1      -9.156  13.580  66.603  1.00  0.00     0.000 HD 
HETATM    4  H2  UNL     1     -10.390  12.444  66.604  1.00  0.00     0.000 HD 
HETATM    5  OXT UNL     1      -6.707  11.753  69.036  1.00  0.00    -0.087 OA 
HETATM    6  C   UNL     1      -7.414  12.192  68.144  1.00  0.00    -0.114 C  
HETATM    7  O   UNL     1      -6.927  12.887  67.080  1.00  0.00    -0.103 OA 
ENDROOT
BRANCH   2   8
HETATM    8  C   UNL     1      -9.293  10.555  68.260  1.00  0.00    -0.156 C  
BRANCH   8   9
HETATM    9  C   UNL     1      -9.974  10.260  69.562  1.00  0.00    -0.252 A  
HETATM   10  C   UNL     1     -11.152  10.824  70.013  1.00  0.00    -0.255 A  
HETATM   11  N   UNL     1     -11.427  10.316  71.254  1.00  0.00    -0.257 NA 
HETATM   12  H   UNL     1     -12.239  10.566  71.820  1.00  0.00     0.000 HD 
HETATM   13  C   UNL     1     -10.453   9.420  71.629  1.00  0.00    -0.134 A  
HETATM   14  C   UNL     1      -9.518   9.374  70.593  1.00  0.00    -0.325 A  
HETATM   15  C   UNL     1      -8.389   8.537  70.744  1.00  0.00    -0.154 A  
HETATM   16  C   UNL     1      -8.263   7.774  71.906  1.00  0.00    -0.109 A  
HETATM   17  C   UNL     1      -9.211   7.833  72.918  1.00  0.00    -0.266 A  
HETATM   18  O   UNL     1      -7.197   6.942  72.090  1.00  0.00    -0.080 OA 
HETATM   19  C   UNL     1     -10.327   8.666  72.801  1.00  0.00     0.034 A  
HETATM   20  H   UNL     1      -7.112   6.423  72.881  1.00  0.00     0.000 HD 
ENDBRANCH   8   9
ENDBRANCH   2   8
TORSDOF 2
ENDMDL
MODEL      263
REMARK 921   NORMALIZED FREE ENERGY PREDICTED BY IDOCK:   -2.37 KCAL/MOL
REMARK 922        TOTAL FREE ENERGY PREDICTED BY IDOCK:   -2.94 KCAL/MOL
REMARK 923 INTER-LIGAND FREE ENERGY PREDICTED BY IDOCK:   -2.65 KCAL/MOL
REMARK 924 INTRA-LIGAND FREE ENERGY PREDICTED BY IDOCK:   -0.29 KCAL/MOL
REMARK 927      BINDING AFFINITY PREDICTED BY RF-SCORE:    0.00 PKD
ROOT
HETATM    1  N   UNL     1      -6.522   4.160  67.774  1.00  0.00    -0.037 NA 
HETATM    2  CA  UNL     1      -7.511   5.102  67.146  1.00  0.00    -0.087 C  
HETATM    3  H1  UNL     1      -6.461   3.254  67.308  1.00  0.00     0.000 HD 
HETATM    4  H2  UNL     1      -6.720   4.041  68.767  1.00  0.00     0.000 HD 
HETATM    5  OXT UNL     1      -7.610   6.118  64.913  1.00  0.00    -0.078 OA 
HETATM    6  C   UNL     1      -7.089   5.330  65.686  1.00  0.00    -0.067 C  
HETATM    7  O   UNL     1      -6.037   4.537  65.346  1.00  0.00    -0.022 OA 
ENDROOT
BRANCH   2   8
HETATM    8  C   UNL     1      -7.602   6.467  67.847  1.00  0.00    -0.103 C  
BRANCH   8   9
HETATM    9  C   UNL     1      -8.964   6.789  68.385  1.00  0.00    -0.124 A  
HETATM   10  C   UNL     1      -9.864   7.685  67.842  1.00  0.00    -0.157 A  
HETATM   11  N   UNL     1     -10.978   7.715  68.638  1.00  0.00    -0.424 NA 
HETATM   12  H   UNL     1     -11.800   8.296  68.471  1.00  0.00     0.000 HD 
HETATM   13  C   UNL     1     -10.830   6.848  69.696  1.00  0.00    -0.259 A  
HETATM   14  C   UNL     1      -9.568   6.262  69.574  1.00  0.00    -0.163 A  
HETATM   15  C   UNL     1      -9.156   5.341  70.563  1.00  0.00    -0.174 A  
HETATM   16  C   UNL     1     -10.030   5.035  71.608  1.00  0.00    -0.187 A  
HETATM   17  C   UNL     1     -11.281   5.626  71.703  1.00  0.00    -0.204 A  
HETATM   18  O   UNL     1      -9.680   4.141  72.578  1.00  0.00    -0.136 OA 
HETATM   19  C   UNL     1     -11.706   6.553  70.747  1.00  0.00    -0.427 A  
HETATM   20  H   UNL     1     -10.275   3.933  73.289  1.00  0.00     0.000 HD 
ENDBRANCH   8   9
ENDBRANCH   2   8
TORSDOF 2
ENDMDL
MODEL      264
REMARK 921   NORMALIZED FREE ENERGY PREDICTED BY IDOCK:   -2.36 KCAL/MOL
REMARK 922        TOTAL FREE ENERGY PREDICTED BY IDOCK:   -2.93 KCAL/MOL
REMARK 923 INTER-LIGAND FREE ENERGY PREDICTED BY IDOCK:   -3.35 KCAL/MOL
REMARK 924 INTRA-LIGAND FREE ENERGY PREDICTED BY IDOCK:    0.42 KCAL/MOL
REMARK 927      BINDING AFFINITY PREDICTED BY RF-SCORE:    0.00 PKD
ROOT
HETATM    1  N   UNL     1      -8.760   8.108  63.094  1.00  0.00    -0.382 NA 
HETATM    2  CA  UNL     1      -8.490   9.316  63.946  1.00  0.00    -0.190 C  
HETATM    3  H1  UNL     1      -8.501   8.226  62.115  1.00  0.00     0.000 HD 
HETATM    4  H2  UNL     1      -9.736   7.823  63.175  1.00  0.00     0.000 HD 
HETATM    5  OXT UNL     1      -6.404  10.475  64.523  1.00  0.00    -0.093 OA 
HETATM    6  C   UNL     1      -6.986   9.622  63.872  1.00  0.00    -0.112 C  
HETATM    7  O   UNL     1      -6.359   8.809  62.980  1.00  0.00    -0.090 OA 
ENDROOT
BRANCH   2   8
HETATM    8  C   UNL     1      -8.881   9.138  65.422  1.00  0.00    -0.236 C  
BRANCH   8   9
HETATM    9  C   UNL     1      -8.608   7.769  65.967  1.00  0.00    -0.166 A  
HETATM   10  C   UNL     1      -7.610   6.910  65.550  1.00  0.00    -0.091 A  
HETATM   11  N   UNL     1      -7.707   5.751  66.272  1.00  0.00    -0.098 NA 
HETATM   12  H   UNL     1      -7.094   4.942  66.164  1.00  0.00     0.000 HD 
HETATM   13  C   UNL     1      -8.751   5.832  67.165  1.00  0.00    -0.108 A  
HETATM   14  C   UNL     1      -9.347   7.083  66.986  1.00  0.00    -0.174 A  
HETATM   15  C   UNL     1     -10.473   7.410  67.774  1.00  0.00    -0.298 A  
HETATM   16  C   UNL     1     -10.933   6.483  68.713  1.00  0.00    -0.305 A  
HETATM   17  C   UNL     1     -10.319   5.250  68.875  1.00  0.00    -0.228 A  
HETATM   18  O   UNL     1     -12.009   6.761  69.505  1.00  0.00    -0.634 OA 
HETATM   19  C   UNL     1      -9.214   4.896  68.096  1.00  0.00    -0.151 A  
HETATM   20  H   UNL     1     -12.322   6.130  70.144  1.00  0.00     0.000 HD 
ENDBRANCH   8   9
ENDBRANCH   2   8
TORSDOF 2
ENDMDL
MODEL      265
REMARK 921   NORMALIZED FREE ENERGY PREDICTED BY IDOCK:   -2.33 KCAL/MOL
REMARK 922        TOTAL FREE ENERGY PREDICTED BY IDOCK:   -2.90 KCAL/MOL
REMARK 923 INTER-LIGAND FREE ENERGY PREDICTED BY IDOCK:   -2.60 KCAL/MOL
REMARK 924 INTRA-LIGAND FREE ENERGY PREDICTED BY IDOCK:   -0.29 KCAL/MOL
REMARK 927      BINDING AFFINITY PREDICTED BY RF-SCORE:    0.00 PKD
ROOT
HETATM    1  N   UNL     1      -6.259   7.467  64.293  1.00  0.00    -0.047 NA 
HETATM    2  CA  UNL     1      -5.739   6.062  64.408  1.00  0.00    -0.021 C  
HETATM    3  H1  UNL     1      -6.129   7.881  63.370  1.00  0.00     0.000 HD 
HETATM    4  H2  UNL     1      -5.848   8.062  65.013  1.00  0.00     0.000 HD 
HETATM    5  OXT UNL     1      -6.377   3.985  63.265  1.00  0.00    -0.021 OA 
HETATM    6  C   UNL     1      -6.479   5.196  63.377  1.00  0.00    -0.026 C  
HETATM    7  O   UNL     1      -7.286   5.952  62.585  1.00  0.00    -0.048 OA 
ENDROOT
BRANCH   2   8
HETATM    8  C   UNL     1      -5.933   5.438  65.800  1.00  0.00    -0.025 C  
BRANCH   8   9
HETATM    9  C   UNL     1      -6.947   6.142  66.650  1.00  0.00    -0.067 A  
HETATM   10  C   UNL     1      -6.677   7.049  67.656  1.00  0.00    -0.068 A  
HETATM   11  N   UNL     1      -7.865   7.445  68.211  1.00  0.00    -0.120 NA 
HETATM   12  H   UNL     1      -7.958   8.110  68.979  1.00  0.00     0.000 HD 
HETATM   13  C   UNL     1      -8.916   6.817  67.583  1.00  0.00    -0.115 A  
HETATM   14  C   UNL     1      -8.370   5.979  66.608  1.00  0.00    -0.111 A  
HETATM   15  C   UNL     1      -9.249   5.192  65.830  1.00  0.00    -0.163 A  
HETATM   16  C   UNL     1     -10.624   5.296  66.049  1.00  0.00    -0.119 A  
HETATM   17  C   UNL     1     -11.141   6.141  67.020  1.00  0.00    -0.332 A  
HETATM   18  O   UNL     1     -11.511   4.565  65.313  1.00  0.00    -1.068 OA 
HETATM   19  C   UNL     1     -10.292   6.917  67.814  1.00  0.00    -0.253 A  
HETATM   20  H   UNL     1     -12.447   4.637  65.462  1.00  0.00     0.000 HD 
ENDBRANCH   8   9
ENDBRANCH   2   8
TORSDOF 2
ENDMDL
MODEL      266
REMARK 921   NORMALIZED FREE ENERGY PREDICTED BY IDOCK:   -2.32 KCAL/MOL
REMARK 922        TOTAL FREE ENERGY PREDICTED BY IDOCK:   -2.89 KCAL/MOL
REMARK 923 INTER-LIGAND FREE ENERGY PREDICTED BY IDOCK:   -2.68 KCAL/MOL
REMARK 924 INTRA-LIGAND FREE ENERGY PREDICTED BY IDOCK:   -0.21 KCAL/MOL
REMARK 927      BINDING AFFINITY PREDICTED BY RF-SCORE:    0.00 PKD
ROOT
HETATM    1  N   UNL     1      -7.427   4.980  67.279  1.00  0.00    -0.082 NA 
HETATM    2  CA  UNL     1      -8.864   4.547  67.359  1.00  0.00    -0.106 C  
HETATM    3  H1  UNL     1      -6.885   4.486  66.570  1.00  0.00     0.000 HD 
HETATM    4  H2  UNL     1      -6.977   4.904  68.192  1.00  0.00     0.000 HD 
HETATM    5  OXT UNL     1     -10.696   4.651  65.728  1.00  0.00    -0.310 OA 
HETATM    6  C   UNL     1      -9.512   4.795  65.989  1.00  0.00    -0.165 C  
HETATM    7  O   UNL     1      -8.593   5.211  65.075  1.00  0.00    -0.143 OA 
ENDROOT
BRANCH   2   8
HETATM    8  C   UNL     1      -9.681   5.290  68.428  1.00  0.00    -0.189 C  
BRANCH   8   9
HETATM    9  C   UNL     1      -9.557   4.711  69.806  1.00  0.00    -0.258 A  
HETATM   10  C   UNL     1      -9.636   3.373  70.138  1.00  0.00    -0.140 A  
HETATM   11  N   UNL     1      -9.500   3.256  71.495  1.00  0.00    -0.136 NA 
HETATM   12  H   UNL     1      -9.524   2.375  72.010  1.00  0.00     0.000 HD 
HETATM   13  C   UNL     1      -9.328   4.496  72.066  1.00  0.00    -0.139 A  
HETATM   14  C   UNL     1      -9.374   5.433  71.031  1.00  0.00    -0.188 A  
HETATM   15  C   UNL     1      -9.248   6.802  71.358  1.00  0.00    -0.153 A  
HETATM   16  C   UNL     1      -9.060   7.163  72.694  1.00  0.00    -0.134 A  
HETATM   17  C   UNL     1      -9.010   6.211  73.703  1.00  0.00    -0.128 A  
HETATM   18  O   UNL     1      -8.919   8.472  73.056  1.00  0.00    -0.291 OA 
HETATM   19  C   UNL     1      -9.151   4.852  73.407  1.00  0.00    -0.117 A  
HETATM   20  H   UNL     1      -8.791   8.717  73.965  1.00  0.00     0.000 HD 
ENDBRANCH   8   9
ENDBRANCH   2   8
TORSDOF 2
ENDMDL
MODEL      267
REMARK 921   NORMALIZED FREE ENERGY PREDICTED BY IDOCK:   -2.32 KCAL/MOL
REMARK 922        TOTAL FREE ENERGY PREDICTED BY IDOCK:   -2.89 KCAL/MOL
REMARK 923 INTER-LIGAND FREE ENERGY PREDICTED BY IDOCK:   -2.59 KCAL/MOL
REMARK 924 INTRA-LIGAND FREE ENERGY PREDICTED BY IDOCK:   -0.30 KCAL/MOL
REMARK 927      BINDING AFFINITY PREDICTED BY RF-SCORE:    0.00 PKD
ROOT
HETATM    1  N   UNL     1      -8.117  15.785  68.738  1.00  0.00    -0.165 NA 
HETATM    2  CA  UNL     1      -7.685  14.346  68.795  1.00  0.00    -0.139 C  
HETATM    3  H1  UNL     1      -7.902  16.314  69.583  1.00  0.00     0.000 HD 
HETATM    4  H2  UNL     1      -9.111  15.853  68.516  1.00  0.00     0.000 HD 
HETATM    5  OXT UNL     1      -5.468  13.313  69.010  1.00  0.00    -0.068 OA 
HETATM    6  C   UNL     1      -6.165  14.316  69.016  1.00  0.00    -0.095 C  
HETATM    7  O   UNL     1      -5.669  15.567  69.218  1.00  0.00    -0.101 OA 
ENDROOT
BRANCH   2   8
HETATM    8  C   UNL     1      -8.010  13.548  67.522  1.00  0.00    -0.186 C  
BRANCH   8   9
HETATM    9  C   UNL     1      -9.166  12.604  67.670  1.00  0.00    -0.191 A  
HETATM   10  C   UNL     1     -10.435  12.783  67.155  1.00  0.00    -0.233 A  
HETATM   11  N   UNL     1     -11.208  11.716  67.530  1.00  0.00    -0.273 NA 
HETATM   12  H   UNL     1     -12.192  11.594  67.288  1.00  0.00     0.000 HD 
HETATM   13  C   UNL     1     -10.468  10.832  68.281  1.00  0.00    -0.181 A  
HETATM   14  C   UNL     1      -9.184  11.370  68.400  1.00  0.00    -0.183 A  
HETATM   15  C   UNL     1      -8.225  10.659  69.156  1.00  0.00    -0.142 A  
HETATM   16  C   UNL     1      -8.588   9.441  69.734  1.00  0.00    -0.175 A  
HETATM   17  C   UNL     1      -9.869   8.925  69.595  1.00  0.00    -0.182 A  
HETATM   18  O   UNL     1      -7.691   8.713  70.462  1.00  0.00    -0.071 OA 
HETATM   19  C   UNL     1     -10.840   9.618  68.867  1.00  0.00    -0.201 A  
HETATM   20  H   UNL     1      -7.939   7.884  70.855  1.00  0.00     0.000 HD 
ENDBRANCH   8   9
ENDBRANCH   2   8
TORSDOF 2
ENDMDL
MODEL      268
REMARK 921   NORMALIZED FREE ENERGY PREDICTED BY IDOCK:   -2.27 KCAL/MOL
REMARK 922        TOTAL FREE ENERGY PREDICTED BY IDOCK:   -2.83 KCAL/MOL
REMARK 923 INTER-LIGAND FREE ENERGY PREDICTED BY IDOCK:   -2.63 KCAL/MOL
REMARK 924 INTRA-LIGAND FREE ENERGY PREDICTED BY IDOCK:   -0.20 KCAL/MOL
REMARK 927      BINDING AFFINITY PREDICTED BY RF-SCORE:    0.00 PKD
ROOT
HETATM    1  N   UNL     1      -9.750  12.452  68.838  1.00  0.00    -0.413 NA 
HETATM    2  CA  UNL     1      -9.208  12.020  67.503  1.00  0.00    -0.180 C  
HETATM    3  H1  UNL     1      -9.750  13.463  68.976  1.00  0.00     0.000 HD 
HETATM    4  H2  UNL     1      -9.251  11.986  69.596  1.00  0.00     0.000 HD 
HETATM    5  OXT UNL     1      -9.978  12.446  65.212  1.00  0.00    -0.263 OA 
HETATM    6  C   UNL     1     -10.073  12.664  66.409  1.00  0.00    -0.253 C  
HETATM    7  O   UNL     1     -10.986  13.521  66.941  1.00  0.00    -0.283 OA 
ENDROOT
BRANCH   2   8
HETATM    8  C   UNL     1      -9.207  10.497  67.295  1.00  0.00    -0.156 C  
BRANCH   8   9
HETATM    9  C   UNL     1      -8.218   9.763  68.148  1.00  0.00    -0.109 A  
HETATM   10  C   UNL     1      -6.967  10.215  68.520  1.00  0.00    -0.069 A  
HETATM   11  N   UNL     1      -6.363   9.245  69.275  1.00  0.00    -0.041 NA 
HETATM   12  H   UNL     1      -5.428   9.317  69.678  1.00  0.00     0.000 HD 
HETATM   13  C   UNL     1      -7.198   8.160  69.413  1.00  0.00    -0.067 A  
HETATM   14  C   UNL     1      -8.366   8.449  68.703  1.00  0.00    -0.120 A  
HETATM   15  C   UNL     1      -9.386   7.472  68.663  1.00  0.00    -0.143 A  
HETATM   16  C   UNL     1      -9.200   6.271  69.351  1.00  0.00    -0.138 A  
HETATM   17  C   UNL     1      -8.033   6.012  70.055  1.00  0.00    -0.109 A  
HETATM   18  O   UNL     1     -10.164   5.305  69.352  1.00  0.00    -0.223 OA 
HETATM   19  C   UNL     1      -7.001   6.955  70.094  1.00  0.00    -0.066 A  
HETATM   20  H   UNL     1     -10.037   4.488  69.820  1.00  0.00     0.000 HD 
ENDBRANCH   8   9
ENDBRANCH   2   8
TORSDOF 2
ENDMDL
MODEL      269
REMARK 921   NORMALIZED FREE ENERGY PREDICTED BY IDOCK:   -2.24 KCAL/MOL
REMARK 922        TOTAL FREE ENERGY PREDICTED BY IDOCK:   -2.80 KCAL/MOL
REMARK 923 INTER-LIGAND FREE ENERGY PREDICTED BY IDOCK:   -2.79 KCAL/MOL
REMARK 924 INTRA-LIGAND FREE ENERGY PREDICTED BY IDOCK:   -0.00 KCAL/MOL
REMARK 927      BINDING AFFINITY PREDICTED BY RF-SCORE:    0.00 PKD
ROOT
HETATM    1  N   UNL     1      -7.380   5.092  66.991  1.00  0.00    -0.081 NA 
HETATM    2  CA  UNL     1      -8.595   4.931  66.121  1.00  0.00    -0.116 C  
HETATM    3  H1  UNL     1      -6.829   4.239  67.094  1.00  0.00     0.000 HD 
HETATM    4  H2  UNL     1      -7.639   5.463  67.905  1.00  0.00     0.000 HD 
HETATM    5  OXT UNL     1      -8.840   4.354  63.748  1.00  0.00    -0.130 OA 
HETATM    6  C   UNL     1      -8.126   4.482  64.729  1.00  0.00    -0.101 C  
HETATM    7  O   UNL     1      -6.787   4.242  64.712  1.00  0.00    -0.047 OA 
ENDROOT
BRANCH   2   8
HETATM    8  C   UNL     1      -9.425   6.215  65.967  1.00  0.00    -0.046 C  
BRANCH   8   9
HETATM    9  C   UNL     1      -9.821   6.848  67.267  1.00  0.00    -0.196 A  
HETATM   10  C   UNL     1     -10.033   6.191  68.463  1.00  0.00    -0.147 A  
HETATM   11  N   UNL     1     -10.404   7.114  69.404  1.00  0.00    -0.193 NA 
HETATM   12  H   UNL     1     -10.626   6.899  70.377  1.00  0.00     0.000 HD 
HETATM   13  C   UNL     1     -10.435   8.373  68.850  1.00  0.00    -0.189 A  
HETATM   14  C   UNL     1     -10.088   8.237  67.504  1.00  0.00    -0.287 A  
HETATM   15  C   UNL     1     -10.071   9.395  66.694  1.00  0.00    -0.332 A  
HETATM   16  C   UNL     1     -10.378  10.628  67.272  1.00  0.00    -0.220 A  
HETATM   17  C   UNL     1     -10.713  10.737  68.614  1.00  0.00    -0.242 A  
HETATM   18  O   UNL     1     -10.362  11.775  66.532  1.00  0.00    -0.214 OA 
HETATM   19  C   UNL     1     -10.754   9.604  69.432  1.00  0.00    -0.248 A  
HETATM   20  H   UNL     1     -10.571  12.615  66.926  1.00  0.00     0.000 HD 
ENDBRANCH   8   9
ENDBRANCH   2   8
TORSDOF 2
ENDMDL
MODEL      270
REMARK 921   NORMALIZED FREE ENERGY PREDICTED BY IDOCK:   -2.22 KCAL/MOL
REMARK 922        TOTAL FREE ENERGY PREDICTED BY IDOCK:   -2.77 KCAL/MOL
REMARK 923 INTER-LIGAND FREE ENERGY PREDICTED BY IDOCK:   -2.56 KCAL/MOL
REMARK 924 INTRA-LIGAND FREE ENERGY PREDICTED BY IDOCK:   -0.21 KCAL/MOL
REMARK 927      BINDING AFFINITY PREDICTED BY RF-SCORE:    0.00 PKD
ROOT
HETATM    1  N   UNL     1      -8.082  10.283  66.018  1.00  0.00    -0.134 NA 
HETATM    2  CA  UNL     1      -7.513  10.608  67.371  1.00  0.00    -0.094 C  
HETATM    3  H1  UNL     1      -8.224  11.099  65.422  1.00  0.00     0.000 HD 
HETATM    4  H2  UNL     1      -8.948   9.751  66.110  1.00  0.00     0.000 HD 
HETATM    5  OXT UNL     1      -5.378  11.611  68.048  1.00  0.00    -0.043 OA 
HETATM    6  C   UNL     1      -6.159  11.302  67.162  1.00  0.00    -0.091 C  
HETATM    7  O   UNL     1      -5.919  11.533  65.843  1.00  0.00    -0.078 OA 
ENDROOT
BRANCH   2   8
HETATM    8  C   UNL     1      -7.300   9.379  68.269  1.00  0.00    -0.078 C  
BRANCH   8   9
HETATM    9  C   UNL     1      -8.469   9.054  69.149  1.00  0.00    -0.128 A  
HETATM   10  C   UNL     1      -9.071   9.907  70.054  1.00  0.00    -0.178 A  
HETATM   11  N   UNL     1     -10.083   9.229  70.679  1.00  0.00    -0.254 NA 
HETATM   12  H   UNL     1     -10.690   9.622  71.399  1.00  0.00     0.000 HD 
HETATM   13  C   UNL     1     -10.163   7.943  70.199  1.00  0.00    -0.202 A  
HETATM   14  C   UNL     1      -9.152   7.796  69.247  1.00  0.00    -0.145 A  
HETATM   15  C   UNL     1      -9.000   6.542  68.615  1.00  0.00    -0.126 A  
HETATM   16  C   UNL     1      -9.877   5.507  68.947  1.00  0.00    -0.157 A  
HETATM   17  C   UNL     1     -10.878   5.680  69.891  1.00  0.00    -0.370 A  
HETATM   18  O   UNL     1      -9.777   4.283  68.352  1.00  0.00    -0.152 OA 
HETATM   19  C   UNL     1     -11.037   6.906  70.544  1.00  0.00    -0.332 A  
HETATM   20  H   UNL     1     -10.374   3.579  68.578  1.00  0.00     0.000 HD 
ENDBRANCH   8   9
ENDBRANCH   2   8
TORSDOF 2
ENDMDL
MODEL      271
REMARK 921   NORMALIZED FREE ENERGY PREDICTED BY IDOCK:   -2.15 KCAL/MOL
REMARK 922        TOTAL FREE ENERGY PREDICTED BY IDOCK:   -2.69 KCAL/MOL
REMARK 923 INTER-LIGAND FREE ENERGY PREDICTED BY IDOCK:   -2.59 KCAL/MOL
REMARK 924 INTRA-LIGAND FREE ENERGY PREDICTED BY IDOCK:   -0.11 KCAL/MOL
REMARK 927      BINDING AFFINITY PREDICTED BY RF-SCORE:    0.00 PKD
ROOT
HETATM    1  N   UNL     1      -8.069   4.188  70.523  1.00  0.00    -0.055 NA 
HETATM    2  CA  UNL     1      -9.279   3.627  69.828  1.00  0.00    -0.146 C  
HETATM    3  H1  UNL     1      -7.515   3.488  71.017  1.00  0.00     0.000 HD 
HETATM    4  H2  UNL     1      -8.336   4.945  71.153  1.00  0.00     0.000 HD 
HETATM    5  OXT UNL     1      -9.508   1.998  68.006  1.00  0.00    -0.199 OA 
HETATM    6  C   UNL     1      -8.800   2.578  68.814  1.00  0.00    -0.105 C  
HETATM    7  O   UNL     1      -7.459   2.368  68.915  1.00  0.00    -0.044 OA 
ENDROOT
BRANCH   2   8
HETATM    8  C   UNL     1     -10.115   4.681  69.085  1.00  0.00    -0.144 C  
BRANCH   8   9
HETATM    9  C   UNL     1      -9.369   5.943  68.770  1.00  0.00    -0.133 A  
HETATM   10  C   UNL     1      -8.302   6.065  67.902  1.00  0.00    -0.116 A  
HETATM   11  N   UNL     1      -7.884   7.369  67.911  1.00  0.00    -0.116 NA 
HETATM   12  H   UNL     1      -7.107   7.737  67.360  1.00  0.00     0.000 HD 
HETATM   13  C   UNL     1      -8.662   8.113  68.768  1.00  0.00    -0.138 A  
HETATM   14  C   UNL     1      -9.595   7.242  69.335  1.00  0.00    -0.154 A  
HETATM   15  C   UNL     1     -10.506   7.758  70.283  1.00  0.00    -0.225 A  
HETATM   16  C   UNL     1     -10.456   9.118  70.598  1.00  0.00    -0.245 A  
HETATM   17  C   UNL     1      -9.524   9.963  70.015  1.00  0.00    -0.246 A  
HETATM   18  O   UNL     1     -11.326   9.663  71.498  1.00  0.00    -0.381 OA 
HETATM   19  C   UNL     1      -8.600   9.473  69.088  1.00  0.00    -0.140 A  
HETATM   20  H   UNL     1     -11.291  10.589  71.713  1.00  0.00     0.000 HD 
ENDBRANCH   8   9
ENDBRANCH   2   8
TORSDOF 2
ENDMDL
MODEL      272
REMARK 921   NORMALIZED FREE ENERGY PREDICTED BY IDOCK:   -2.14 KCAL/MOL
REMARK 922        TOTAL FREE ENERGY PREDICTED BY IDOCK:   -2.68 KCAL/MOL
REMARK 923 INTER-LIGAND FREE ENERGY PREDICTED BY IDOCK:   -2.73 KCAL/MOL
REMARK 924 INTRA-LIGAND FREE ENERGY PREDICTED BY IDOCK:    0.05 KCAL/MOL
REMARK 927      BINDING AFFINITY PREDICTED BY RF-SCORE:    0.00 PKD
ROOT
HETATM    1  N   UNL     1      -9.622   4.634  64.449  1.00  0.00    -0.349 NA 
HETATM    2  CA  UNL     1      -9.464   4.945  65.912  1.00  0.00    -0.164 C  
HETATM    3  H1  UNL     1      -8.846   4.104  64.054  1.00  0.00     0.000 HD 
HETATM    4  H2  UNL     1      -9.781   5.489  63.916  1.00  0.00     0.000 HD 
HETATM    5  OXT UNL     1      -9.306   3.491  67.884  1.00  0.00    -0.168 OA 
HETATM    6  C   UNL     1      -9.345   3.614  66.670  1.00  0.00    -0.188 C  
HETATM    7  O   UNL     1      -9.292   2.559  65.812  1.00  0.00    -0.100 OA 
ENDROOT
BRANCH   2   8
HETATM    8  C   UNL     1     -10.633   5.745  66.508  1.00  0.00    -0.294 C  
BRANCH   8   9
HETATM    9  C   UNL     1     -10.218   7.003  67.211  1.00  0.00    -0.301 A  
HETATM   10  C   UNL     1     -10.640   8.283  66.907  1.00  0.00    -0.232 A  
HETATM   11  N   UNL     1     -10.016   9.156  67.757  1.00  0.00    -0.178 NA 
HETATM   12  H   UNL     1     -10.144  10.169  67.751  1.00  0.00     0.000 HD 
HETATM   13  C   UNL     1      -9.192   8.474  68.622  1.00  0.00    -0.142 A  
HETATM   14  C   UNL     1      -9.285   7.119  68.293  1.00  0.00    -0.132 A  
HETATM   15  C   UNL     1      -8.505   6.195  69.024  1.00  0.00    -0.118 A  
HETATM   16  C   UNL     1      -7.692   6.665  70.058  1.00  0.00    -0.102 A  
HETATM   17  C   UNL     1      -7.623   8.016  70.369  1.00  0.00    -0.081 A  
HETATM   18  O   UNL     1      -6.932   5.808  70.800  1.00  0.00    -0.058 OA 
HETATM   19  C   UNL     1      -8.371   8.951  69.649  1.00  0.00    -0.123 A  
HETATM   20  H   UNL     1      -6.379   6.128  71.503  1.00  0.00     0.000 HD 
ENDBRANCH   8   9
ENDBRANCH   2   8
TORSDOF 2
ENDMDL
MODEL      273
REMARK 921   NORMALIZED FREE ENERGY PREDICTED BY IDOCK:   -2.11 KCAL/MOL
REMARK 922        TOTAL FREE ENERGY PREDICTED BY IDOCK:   -2.65 KCAL/MOL
REMARK 923 INTER-LIGAND FREE ENERGY PREDICTED BY IDOCK:   -2.65 KCAL/MOL
REMARK 924 INTRA-LIGAND FREE ENERGY PREDICTED BY IDOCK:   -0.00 KCAL/MOL
REMARK 927      BINDING AFFINITY PREDICTED BY RF-SCORE:    0.00 PKD
ROOT
HETATM    1  N   UNL     1     -12.134  11.943  67.165  1.00  0.00    -0.522 NA 
HETATM    2  CA  UNL     1     -11.829  13.374  67.510  1.00  0.00    -0.366 C  
HETATM    3  H1  UNL     1     -11.608  11.264  67.714  1.00  0.00     0.000 HD 
HETATM    4  H2  UNL     1     -12.001  11.778  66.167  1.00  0.00     0.000 HD 
HETATM    5  OXT UNL     1     -12.128  14.654  69.584  1.00  0.00    -0.304 OA 
HETATM    6  C   UNL     1     -12.161  13.584  68.996  1.00  0.00    -0.291 C  
HETATM    7  O   UNL     1     -12.510  12.414  69.595  1.00  0.00    -0.029 OA 
ENDROOT
BRANCH   2   8
HETATM    8  C   UNL     1     -12.622  14.398  66.682  1.00  0.00     0.078 C  
BRANCH   8   9
HETATM    9  C   UNL     1     -11.765  15.364  65.920  1.00  0.00     0.208 A  
HETATM   10  C   UNL     1     -11.947  15.755  64.608  1.00  0.00     0.015 A  
HETATM   11  N   UNL     1     -10.943  16.624  64.273  1.00  0.00    -1.120 NA 
HETATM   12  H   UNL     1     -10.834  17.065  63.360  1.00  0.00     0.000 HD 
HETATM   13  C   UNL     1     -10.104  16.818  65.346  1.00  0.00     0.024 A  
HETATM   14  C   UNL     1     -10.585  16.027  66.392  1.00  0.00    -0.284 A  
HETATM   15  C   UNL     1      -9.876  16.026  67.614  1.00  0.00    -0.235 A  
HETATM   16  C   UNL     1      -8.740  16.828  67.737  1.00  0.00    -0.210 A  
HETATM   17  C   UNL     1      -8.286  17.610  66.685  1.00  0.00    -0.288 A  
HETATM   18  O   UNL     1      -8.031  16.869  68.903  1.00  0.00    -0.245 OA 
HETATM   19  C   UNL     1      -8.960  17.616  65.460  1.00  0.00     0.918 A  
HETATM   20  H   UNL     1      -7.258  17.415  68.987  1.00  0.00     0.000 HD 
ENDBRANCH   8   9
ENDBRANCH   2   8
TORSDOF 2
ENDMDL
MODEL      274
REMARK 921   NORMALIZED FREE ENERGY PREDICTED BY IDOCK:   -2.08 KCAL/MOL
REMARK 922        TOTAL FREE ENERGY PREDICTED BY IDOCK:   -2.61 KCAL/MOL
REMARK 923 INTER-LIGAND FREE ENERGY PREDICTED BY IDOCK:   -2.53 KCAL/MOL
REMARK 924 INTRA-LIGAND FREE ENERGY PREDICTED BY IDOCK:   -0.09 KCAL/MOL
REMARK 927      BINDING AFFINITY PREDICTED BY RF-SCORE:    0.00 PKD
ROOT
HETATM    1  N   UNL     1      -6.734   4.154  67.189  1.00  0.00    -0.046 NA 
HETATM    2  CA  UNL     1      -7.707   3.065  66.831  1.00  0.00    -0.075 C  
HETATM    3  H1  UNL     1      -5.784   3.821  67.356  1.00  0.00     0.000 HD 
HETATM    4  H2  UNL     1      -7.073   4.688  67.989  1.00  0.00     0.000 HD 
HETATM    5  OXT UNL     1      -7.796   1.516  64.928  1.00  0.00    -0.065 OA 
HETATM    6  C   UNL     1      -7.199   2.377  65.554  1.00  0.00    -0.061 C  
HETATM    7  O   UNL     1      -5.978   2.852  65.188  1.00  0.00    -0.018 OA 
ENDROOT
BRANCH   2   8
HETATM    8  C   UNL     1      -9.138   3.566  66.580  1.00  0.00    -0.172 C  
BRANCH   8   9
HETATM    9  C   UNL     1      -9.264   5.059  66.528  1.00  0.00    -0.135 A  
HETATM   10  C   UNL     1      -8.862   5.875  65.489  1.00  0.00    -0.092 A  
HETATM   11  N   UNL     1      -9.123   7.174  65.834  1.00  0.00    -0.357 NA 
HETATM   12  H   UNL     1      -8.921   7.986  65.249  1.00  0.00     0.000 HD 
HETATM   13  C   UNL     1      -9.696   7.229  67.084  1.00  0.00    -0.168 A  
HETATM   14  C   UNL     1      -9.784   5.916  67.553  1.00  0.00    -0.123 A  
HETATM   15  C   UNL     1     -10.319   5.697  68.842  1.00  0.00    -0.295 A  
HETATM   16  C   UNL     1     -10.759   6.794  69.586  1.00  0.00    -0.251 A  
HETATM   17  C   UNL     1     -10.667   8.088  69.094  1.00  0.00    -0.121 A  
HETATM   18  O   UNL     1     -11.296   6.629  70.830  1.00  0.00    -0.285 OA 
HETATM   19  C   UNL     1     -10.125   8.332  67.829  1.00  0.00    -0.262 A  
HETATM   20  H   UNL     1     -11.595   7.376  71.337  1.00  0.00     0.000 HD 
ENDBRANCH   8   9
ENDBRANCH   2   8
TORSDOF 2
ENDMDL
MODEL      275
REMARK 921   NORMALIZED FREE ENERGY PREDICTED BY IDOCK:   -2.04 KCAL/MOL
REMARK 922        TOTAL FREE ENERGY PREDICTED BY IDOCK:   -2.57 KCAL/MOL
REMARK 923 INTER-LIGAND FREE ENERGY PREDICTED BY IDOCK:   -2.32 KCAL/MOL
REMARK 924 INTRA-LIGAND FREE ENERGY PREDICTED BY IDOCK:   -0.25 KCAL/MOL
REMARK 927      BINDING AFFINITY PREDICTED BY RF-SCORE:    0.00 PKD
ROOT
HETATM    1  N   UNL     1      -6.797   3.567  67.373  1.00  0.00    -0.046 NA 
HETATM    2  CA  UNL     1      -7.836   4.475  67.971  1.00  0.00    -0.081 C  
HETATM    3  H1  UNL     1      -7.010   2.574  67.471  1.00  0.00     0.000 HD 
HETATM    4  H2  UNL     1      -5.875   3.775  67.755  1.00  0.00     0.000 HD 
HETATM    5  OXT UNL     1     -10.208   4.816  67.439  1.00  0.00    -0.154 OA 
HETATM    6  C   UNL     1      -9.174   4.190  67.271  1.00  0.00    -0.158 C  
HETATM    7  O   UNL     1      -9.071   3.136  66.417  1.00  0.00    -0.146 OA 
ENDROOT
BRANCH   2   8
HETATM    8  C   UNL     1      -7.515   5.970  67.823  1.00  0.00    -0.085 C  
BRANCH   8   9
HETATM    9  C   UNL     1      -7.976   6.812  68.974  1.00  0.00    -0.116 A  
HETATM   10  C   UNL     1      -7.772   6.543  70.314  1.00  0.00    -0.098 A  
HETATM   11  N   UNL     1      -8.367   7.534  71.049  1.00  0.00    -0.112 NA 
HETATM   12  H   UNL     1      -8.372   7.581  72.068  1.00  0.00     0.000 HD 
HETATM   13  C   UNL     1      -8.957   8.456  70.216  1.00  0.00    -0.147 A  
HETATM   14  C   UNL     1      -8.742   8.022  68.906  1.00  0.00    -0.131 A  
HETATM   15  C   UNL     1      -9.278   8.790  67.847  1.00  0.00    -0.149 A  
HETATM   16  C   UNL     1      -9.979   9.959  68.148  1.00  0.00    -0.151 A  
HETATM   17  C   UNL     1     -10.173  10.372  69.458  1.00  0.00    -0.258 A  
HETATM   18  O   UNL     1     -10.502  10.739  67.157  1.00  0.00    -0.212 OA 
HETATM   19  C   UNL     1      -9.668   9.621  70.523  1.00  0.00    -0.280 A  
HETATM   20  H   UNL     1     -10.980  11.535  67.362  1.00  0.00     0.000 HD 
ENDBRANCH   8   9
ENDBRANCH   2   8
TORSDOF 2
ENDMDL
MODEL      276
REMARK 921   NORMALIZED FREE ENERGY PREDICTED BY IDOCK:   -2.02 KCAL/MOL
REMARK 922        TOTAL FREE ENERGY PREDICTED BY IDOCK:   -2.55 KCAL/MOL
REMARK 923 INTER-LIGAND FREE ENERGY PREDICTED BY IDOCK:   -2.31 KCAL/MOL
REMARK 924 INTRA-LIGAND FREE ENERGY PREDICTED BY IDOCK:   -0.24 KCAL/MOL
REMARK 927      BINDING AFFINITY PREDICTED BY RF-SCORE:    0.00 PKD
ROOT
HETATM    1  N   UNL     1      -7.017   4.356  66.359  1.00  0.00    -0.061 NA 
HETATM    2  CA  UNL     1      -7.956   4.919  65.327  1.00  0.00    -0.097 C  
HETATM    3  H1  UNL     1      -6.721   3.399  66.169  1.00  0.00     0.000 HD 
HETATM    4  H2  UNL     1      -7.424   4.429  67.291  1.00  0.00     0.000 HD 
HETATM    5  OXT UNL     1      -7.672   5.362  62.929  1.00  0.00    -0.066 OA 
HETATM    6  C   UNL     1      -7.240   4.888  63.968  1.00  0.00    -0.050 C  
HETATM    7  O   UNL     1      -6.036   4.261  64.057  1.00  0.00    -0.017 OA 
ENDROOT
BRANCH   2   8
HETATM    8  C   UNL     1      -8.402   6.362  65.612  1.00  0.00    -0.147 C  
BRANCH   8   9
HETATM    9  C   UNL     1      -9.277   6.504  66.822  1.00  0.00    -0.163 A  
HETATM   10  C   UNL     1     -10.579   6.061  66.942  1.00  0.00    -0.315 A  
HETATM   11  N   UNL     1     -11.039   6.404  68.186  1.00  0.00    -0.469 NA 
HETATM   12  H   UNL     1     -11.975   6.201  68.539  1.00  0.00     0.000 HD 
HETATM   13  C   UNL     1     -10.059   7.063  68.891  1.00  0.00    -0.173 A  
HETATM   14  C   UNL     1      -8.943   7.155  68.055  1.00  0.00    -0.127 A  
HETATM   15  C   UNL     1      -7.794   7.820  68.538  1.00  0.00    -0.120 A  
HETATM   16  C   UNL     1      -7.808   8.337  69.835  1.00  0.00    -0.102 A  
HETATM   17  C   UNL     1      -8.927   8.226  70.648  1.00  0.00    -0.161 A  
HETATM   18  O   UNL     1      -6.716   8.975  70.349  1.00  0.00    -0.041 OA 
HETATM   19  C   UNL     1     -10.082   7.589  70.187  1.00  0.00    -0.195 A  
HETATM   20  H   UNL     1      -6.726   9.327  71.232  1.00  0.00     0.000 HD 
ENDBRANCH   8   9
ENDBRANCH   2   8
TORSDOF 2
ENDMDL
MODEL      277
REMARK 921   NORMALIZED FREE ENERGY PREDICTED BY IDOCK:   -1.95 KCAL/MOL
REMARK 922        TOTAL FREE ENERGY PREDICTED BY IDOCK:   -2.47 KCAL/MOL
REMARK 923 INTER-LIGAND FREE ENERGY PREDICTED BY IDOCK:   -2.42 KCAL/MOL
REMARK 924 INTRA-LIGAND FREE ENERGY PREDICTED BY IDOCK:   -0.05 KCAL/MOL
REMARK 927      BINDING AFFINITY PREDICTED BY RF-SCORE:    0.00 PKD
ROOT
HETATM    1  N   UNL     1     -11.475   5.681  72.281  1.00  0.00    -0.254 NA 
HETATM    2  CA  UNL     1     -10.040   6.042  72.548  1.00  0.00    -0.178 C  
HETATM    3  H1  UNL     1     -11.669   4.682  72.353  1.00  0.00     0.000 HD 
HETATM    4  H2  UNL     1     -11.772   6.040  71.374  1.00  0.00     0.000 HD 
HETATM    5  OXT UNL     1      -8.640   5.800  74.551  1.00  0.00    -0.117 OA 
HETATM    6  C   UNL     1      -9.691   5.577  73.971  1.00  0.00    -0.165 C  
HETATM    7  O   UNL     1     -10.715   4.876  74.527  1.00  0.00    -0.360 OA 
ENDROOT
BRANCH   2   8
HETATM    8  C   UNL     1      -9.746   7.547  72.440  1.00  0.00    -0.208 C  
BRANCH   8   9
HETATM    9  C   UNL     1      -8.783   7.905  71.348  1.00  0.00    -0.148 A  
HETATM   10  C   UNL     1      -7.780   8.851  71.423  1.00  0.00    -0.087 A  
HETATM   11  N   UNL     1      -7.140   8.900  70.214  1.00  0.00    -0.044 NA 
HETATM   12  H   UNL     1      -6.359   9.518  69.991  1.00  0.00     0.000 HD 
HETATM   13  C   UNL     1      -7.702   7.997  69.341  1.00  0.00    -0.104 A  
HETATM   14  C   UNL     1      -8.747   7.367  70.019  1.00  0.00    -0.140 A  
HETATM   15  C   UNL     1      -9.512   6.402  69.327  1.00  0.00    -0.140 A  
HETATM   16  C   UNL     1      -9.181   6.099  68.004  1.00  0.00    -0.116 A  
HETATM   17  C   UNL     1      -8.133   6.735  67.355  1.00  0.00    -0.118 A  
HETATM   18  O   UNL     1      -9.884   5.164  67.300  1.00  0.00    -0.145 OA 
HETATM   19  C   UNL     1      -7.373   7.706  68.013  1.00  0.00    -0.099 A  
HETATM   20  H   UNL     1      -9.659   4.958  66.400  1.00  0.00     0.000 HD 
ENDBRANCH   8   9
ENDBRANCH   2   8
TORSDOF 2
ENDMDL
MODEL      278
REMARK 921   NORMALIZED FREE ENERGY PREDICTED BY IDOCK:   -1.94 KCAL/MOL
REMARK 922        TOTAL FREE ENERGY PREDICTED BY IDOCK:   -2.46 KCAL/MOL
REMARK 923 INTER-LIGAND FREE ENERGY PREDICTED BY IDOCK:   -3.47 KCAL/MOL
REMARK 924 INTRA-LIGAND FREE ENERGY PREDICTED BY IDOCK:    1.01 KCAL/MOL
REMARK 927      BINDING AFFINITY PREDICTED BY RF-SCORE:    0.00 PKD
ROOT
HETATM    1  N   UNL     1      -8.433  15.845  69.128  1.00  0.00    -0.244 NA 
HETATM    2  CA  UNL     1      -9.042  16.175  67.793  1.00  0.00    -0.197 C  
HETATM    3  H1  UNL     1      -7.944  16.627  69.563  1.00  0.00     0.000 HD 
HETATM    4  H2  UNL     1      -7.818  15.035  69.051  1.00  0.00     0.000 HD 
HETATM    5  OXT UNL     1     -10.789  17.773  67.145  1.00  0.00    -0.267 OA 
HETATM    6  C   UNL     1     -10.042  17.323  67.999  1.00  0.00    -0.324 C  
HETATM    7  O   UNL     1     -10.003  17.790  69.276  1.00  0.00    -0.235 OA 
ENDROOT
BRANCH   2   8
HETATM    8  C   UNL     1      -9.779  14.996  67.137  1.00  0.00    -0.228 C  
BRANCH   8   9
HETATM    9  C   UNL     1      -9.394  13.654  67.682  1.00  0.00    -0.215 A  
HETATM   10  C   UNL     1      -8.886  13.400  68.941  1.00  0.00     0.257 A  
HETATM   11  N   UNL     1      -8.639  12.058  69.045  1.00  0.00    -0.344 NA 
HETATM   12  H   UNL     1      -8.256  11.597  69.871  1.00  0.00     0.000 HD 
HETATM   13  C   UNL     1      -8.980  11.418  67.875  1.00  0.00    -0.153 A  
HETATM   14  C   UNL     1      -9.444  12.397  66.993  1.00  0.00    -0.211 A  
HETATM   15  C   UNL     1      -9.838  12.000  65.696  1.00  0.00    -0.265 A  
HETATM   16  C   UNL     1      -9.771  10.648  65.353  1.00  0.00    -0.252 A  
HETATM   17  C   UNL     1      -9.313   9.694  66.250  1.00  0.00    -0.238 A  
HETATM   18  O   UNL     1     -10.154  10.217  64.116  1.00  0.00    -0.428 OA 
HETATM   19  C   UNL     1      -8.900  10.064  67.534  1.00  0.00    -0.130 A  
HETATM   20  H   UNL     1     -10.108   9.296  63.883  1.00  0.00     0.000 HD 
ENDBRANCH   8   9
ENDBRANCH   2   8
TORSDOF 2
ENDMDL
MODEL      279
REMARK 921   NORMALIZED FREE ENERGY PREDICTED BY IDOCK:   -1.91 KCAL/MOL
REMARK 922        TOTAL FREE ENERGY PREDICTED BY IDOCK:   -2.43 KCAL/MOL
REMARK 923 INTER-LIGAND FREE ENERGY PREDICTED BY IDOCK:   -2.87 KCAL/MOL
REMARK 924 INTRA-LIGAND FREE ENERGY PREDICTED BY IDOCK:    0.44 KCAL/MOL
REMARK 927      BINDING AFFINITY PREDICTED BY RF-SCORE:    0.00 PKD
ROOT
HETATM    1  N   UNL     1     -10.346   7.848  73.071  1.00  0.00    -0.338 NA 
HETATM    2  CA  UNL     1     -10.823   7.944  71.648  1.00  0.00    -0.232 C  
HETATM    3  H1  UNL     1     -10.629   6.990  73.544  1.00  0.00     0.000 HD 
HETATM    4  H2  UNL     1     -10.640   8.666  73.604  1.00  0.00     0.000 HD 
HETATM    5  OXT UNL     1     -10.355   6.566  69.671  1.00  0.00    -0.178 OA 
HETATM    6  C   UNL     1     -10.251   6.747  70.874  1.00  0.00    -0.195 C  
HETATM    7  O   UNL     1      -9.593   5.891  71.702  1.00  0.00    -0.152 OA 
ENDROOT
BRANCH   2   8
HETATM    8  C   UNL     1     -10.397   9.237  70.934  1.00  0.00    -0.367 C  
BRANCH   8   9
HETATM    9  C   UNL     1      -8.919   9.355  70.712  1.00  0.00    -0.254 A  
HETATM   10  C   UNL     1      -7.929   8.856  71.535  1.00  0.00    -0.066 A  
HETATM   11  N   UNL     1      -6.714   9.194  71.002  1.00  0.00    -0.086 NA 
HETATM   12  H   UNL     1      -5.810   8.953  71.411  1.00  0.00     0.000 HD 
HETATM   13  C   UNL     1      -6.885   9.904  69.837  1.00  0.00    -0.096 A  
HETATM   14  C   UNL     1      -8.261  10.036  69.635  1.00  0.00    -0.185 A  
HETATM   15  C   UNL     1      -8.709  10.757  68.506  1.00  0.00    -0.149 A  
HETATM   16  C   UNL     1      -7.764  11.290  67.626  1.00  0.00    -0.115 A  
HETATM   17  C   UNL     1      -6.403  11.139  67.846  1.00  0.00    -0.054 A  
HETATM   18  O   UNL     1      -8.151  11.983  66.515  1.00  0.00    -0.366 OA 
HETATM   19  C   UNL     1      -5.934  10.445  68.964  1.00  0.00    -0.040 A  
HETATM   20  H   UNL     1      -7.508  12.345  65.917  1.00  0.00     0.000 HD 
ENDBRANCH   8   9
ENDBRANCH   2   8
TORSDOF 2
ENDMDL
MODEL      280
REMARK 921   NORMALIZED FREE ENERGY PREDICTED BY IDOCK:   -1.89 KCAL/MOL
REMARK 922        TOTAL FREE ENERGY PREDICTED BY IDOCK:   -2.40 KCAL/MOL
REMARK 923 INTER-LIGAND FREE ENERGY PREDICTED BY IDOCK:   -2.17 KCAL/MOL
REMARK 924 INTRA-LIGAND FREE ENERGY PREDICTED BY IDOCK:   -0.23 KCAL/MOL
REMARK 927      BINDING AFFINITY PREDICTED BY RF-SCORE:    0.00 PKD
ROOT
HETATM    1  N   UNL     1      -7.613   9.361  65.534  1.00  0.00    -0.097 NA 
HETATM    2  CA  UNL     1      -7.587   7.903  65.902  1.00  0.00    -0.083 C  
HETATM    3  H1  UNL     1      -6.723   9.839  65.678  1.00  0.00     0.000 HD 
HETATM    4  H2  UNL     1      -8.363   9.843  66.028  1.00  0.00     0.000 HD 
HETATM    5  OXT UNL     1      -6.298   6.015  65.007  1.00  0.00    -0.035 OA 
HETATM    6  C   UNL     1      -6.516   7.216  65.041  1.00  0.00    -0.040 C  
HETATM    7  O   UNL     1      -5.825   8.120  64.295  1.00  0.00    -0.055 OA 
ENDROOT
BRANCH   2   8
HETATM    8  C   UNL     1      -8.927   7.182  65.686  1.00  0.00     0.019 C  
BRANCH   8   9
HETATM    9  C   UNL     1      -9.651   6.842  66.953  1.00  0.00    -0.205 A  
HETATM   10  C   UNL     1     -10.922   7.254  67.302  1.00  0.00    -0.214 A  
HETATM   11  N   UNL     1     -11.212   6.757  68.544  1.00  0.00    -0.542 NA 
HETATM   12  H   UNL     1     -12.088   6.912  69.045  1.00  0.00     0.000 HD 
HETATM   13  C   UNL     1     -10.154   6.018  69.021  1.00  0.00    -0.176 A  
HETATM   14  C   UNL     1      -9.150   6.066  68.050  1.00  0.00    -0.117 A  
HETATM   15  C   UNL     1      -7.932   5.400  68.310  1.00  0.00    -0.088 A  
HETATM   16  C   UNL     1      -7.785   4.704  69.512  1.00  0.00    -0.055 A  
HETATM   17  C   UNL     1      -8.800   4.666  70.457  1.00  0.00    -0.141 A  
HETATM   18  O   UNL     1      -6.631   4.035  69.800  1.00  0.00    -0.032 OA 
HETATM   19  C   UNL     1     -10.008   5.332  70.231  1.00  0.00    -0.310 A  
HETATM   20  H   UNL     1      -6.531   3.561  70.618  1.00  0.00     0.000 HD 
ENDBRANCH   8   9
ENDBRANCH   2   8
TORSDOF 2
ENDMDL
MODEL      281
REMARK 921   NORMALIZED FREE ENERGY PREDICTED BY IDOCK:   -1.74 KCAL/MOL
REMARK 922        TOTAL FREE ENERGY PREDICTED BY IDOCK:   -2.24 KCAL/MOL
REMARK 923 INTER-LIGAND FREE ENERGY PREDICTED BY IDOCK:   -2.74 KCAL/MOL
REMARK 924 INTRA-LIGAND FREE ENERGY PREDICTED BY IDOCK:    0.50 KCAL/MOL
REMARK 927      BINDING AFFINITY PREDICTED BY RF-SCORE:    0.00 PKD
ROOT
HETATM    1  N   UNL     1      -7.721  10.797  64.949  1.00  0.00    -0.354 NA 
HETATM    2  CA  UNL     1      -6.650  10.019  64.237  1.00  0.00    -0.130 C  
HETATM    3  H1  UNL     1      -8.199  11.478  64.359  1.00  0.00     0.000 HD 
HETATM    4  H2  UNL     1      -7.343  11.247  65.783  1.00  0.00     0.000 HD 
HETATM    5  OXT UNL     1      -6.749   8.468  62.336  1.00  0.00    -0.095 OA 
HETATM    6  C   UNL     1      -7.307   9.274  63.064  1.00  0.00    -0.105 C  
HETATM    7  O   UNL     1      -8.616   9.618  62.930  1.00  0.00    -0.169 OA 
ENDROOT
BRANCH   2   8
HETATM    8  C   UNL     1      -5.929   8.993  65.126  1.00  0.00    -0.059 C  
BRANCH   8   9
HETATM    9  C   UNL     1      -6.690   7.717  65.329  1.00  0.00    -0.047 A  
HETATM   10  C   UNL     1      -6.302   6.461  64.907  1.00  0.00    -0.034 A  
HETATM   11  N   UNL     1      -7.277   5.566  65.260  1.00  0.00    -0.066 NA 
HETATM   12  H   UNL     1      -7.248   4.565  65.066  1.00  0.00     0.000 HD 
HETATM   13  C   UNL     1      -8.301   6.211  65.914  1.00  0.00    -0.140 A  
HETATM   14  C   UNL     1      -7.969   7.567  65.959  1.00  0.00    -0.113 A  
HETATM   15  C   UNL     1      -8.881   8.462  66.563  1.00  0.00    -0.172 A  
HETATM   16  C   UNL     1     -10.063   7.958  67.109  1.00  0.00    -0.258 A  
HETATM   17  C   UNL     1     -10.366   6.605  67.056  1.00  0.00    -0.330 A  
HETATM   18  O   UNL     1     -10.966   8.783  67.714  1.00  0.00    -0.494 OA 
HETATM   19  C   UNL     1      -9.489   5.702  66.449  1.00  0.00    -0.170 A  
HETATM   20  H   UNL     1     -11.771   8.439  68.085  1.00  0.00     0.000 HD 
ENDBRANCH   8   9
ENDBRANCH   2   8
TORSDOF 2
ENDMDL
MODEL      282
REMARK 921   NORMALIZED FREE ENERGY PREDICTED BY IDOCK:   -0.90 KCAL/MOL
REMARK 922        TOTAL FREE ENERGY PREDICTED BY IDOCK:   -1.30 KCAL/MOL
REMARK 923 INTER-LIGAND FREE ENERGY PREDICTED BY IDOCK:   -2.32 KCAL/MOL
REMARK 924 INTRA-LIGAND FREE ENERGY PREDICTED BY IDOCK:    1.02 KCAL/MOL
REMARK 927      BINDING AFFINITY PREDICTED BY RF-SCORE:    0.00 PKD
ROOT
HETATM    1  N   UNL     1     -13.418   7.686  70.721  1.00  0.00    -0.411 NA 
HETATM    2  CA  UNL     1     -12.254   6.740  70.622  1.00  0.00    -0.254 C  
HETATM    3  H1  UNL     1     -14.046   7.489  71.501  1.00  0.00     0.000 HD 
HETATM    4  H2  UNL     1     -13.935   7.713  69.843  1.00  0.00     0.000 HD 
HETATM    5  OXT UNL     1     -10.390   6.278  72.151  1.00  0.00    -0.188 OA 
HETATM    6  C   UNL     1     -11.453   6.835  71.930  1.00  0.00    -0.282 C  
HETATM    7  O   UNL     1     -12.078   7.636  72.836  1.00  0.00    -0.089 OA 
ENDROOT
BRANCH   2   8
HETATM    8  C   UNL     1     -11.309   7.036  69.448  1.00  0.00    -0.090 C  
BRANCH   8   9
HETATM    9  C   UNL     1     -10.010   6.288  69.503  1.00  0.00    -0.198 A  
HETATM   10  C   UNL     1      -9.838   4.938  69.272  1.00  0.00    -0.201 A  
HETATM   11  N   UNL     1      -8.513   4.636  69.444  1.00  0.00    -0.081 NA 
HETATM   12  H   UNL     1      -8.108   3.705  69.338  1.00  0.00     0.000 HD 
HETATM   13  C   UNL     1      -7.806   5.768  69.780  1.00  0.00    -0.095 A  
HETATM   14  C   UNL     1      -8.722   6.820  69.840  1.00  0.00    -0.141 A  
HETATM   15  C   UNL     1      -8.249   8.103  70.196  1.00  0.00    -0.119 A  
HETATM   16  C   UNL     1      -6.887   8.275  70.451  1.00  0.00    -0.036 A  
HETATM   17  C   UNL     1      -5.997   7.213  70.378  1.00  0.00    -0.024 A  
HETATM   18  O   UNL     1      -6.383   9.498  70.785  1.00  0.00    -0.073 OA 
HETATM   19  C   UNL     1      -6.443   5.931  70.045  1.00  0.00    -0.039 A  
HETATM   20  H   UNL     1      -5.456   9.615  70.959  1.00  0.00     0.000 HD 
ENDBRANCH   8   9
ENDBRANCH   2   8
TORSDOF 2
ENDMDL
MODEL      283
REMARK 921   NORMALIZED FREE ENERGY PREDICTED BY IDOCK:   -0.43 KCAL/MOL
REMARK 922        TOTAL FREE ENERGY PREDICTED BY IDOCK:   -0.78 KCAL/MOL
REMARK 923 INTER-LIGAND FREE ENERGY PREDICTED BY IDOCK:   -0.68 KCAL/MOL
REMARK 924 INTRA-LIGAND FREE ENERGY PREDICTED BY IDOCK:   -0.10 KCAL/MOL
REMARK 927      BINDING AFFINITY PREDICTED BY RF-SCORE:    0.00 PKD
ROOT
HETATM    1  N   UNL     1      -5.266   8.399  67.800  1.00  0.00    -0.033 NA 
HETATM    2  CA  UNL     1      -6.478   8.169  68.659  1.00  0.00    -0.053 C  
HETATM    3  H1  UNL     1      -5.092   9.381  67.585  1.00  0.00     0.000 HD 
HETATM    4  H2  UNL     1      -5.323   7.849  66.944  1.00  0.00     0.000 HD 
HETATM    5  OXT UNL     1      -7.021   8.882  70.945  1.00  0.00    -0.062 OA 
HETATM    6  C   UNL     1      -6.277   8.931  69.978  1.00  0.00    -0.037 C  
HETATM    7  O   UNL     1      -5.142   9.681  69.948  1.00  0.00    -0.033 OA 
ENDROOT
BRANCH   2   8
HETATM    8  C   UNL     1      -6.740   6.690  68.984  1.00  0.00    -0.052 C  
BRANCH   8   9
HETATM    9  C   UNL     1      -8.108   6.211  68.598  1.00  0.00    -0.108 A  
HETATM   10  C   UNL     1      -8.399   5.272  67.629  1.00  0.00    -0.106 A  
HETATM   11  N   UNL     1      -9.759   5.130  67.559  1.00  0.00    -0.143 NA 
HETATM   12  H   UNL     1     -10.249   4.501  66.922  1.00  0.00     0.000 HD 
HETATM   13  C   UNL     1     -10.372   5.958  68.472  1.00  0.00    -0.214 A  
HETATM   14  C   UNL     1      -9.361   6.662  69.130  1.00  0.00    -0.134 A  
HETATM   15  C   UNL     1      -9.730   7.610  70.110  1.00  0.00    -0.179 A  
HETATM   16  C   UNL     1     -11.084   7.790  70.400  1.00  0.00    -0.251 A  
HETATM   17  C   UNL     1     -12.069   7.072  69.737  1.00  0.00     0.260 A  
HETATM   18  O   UNL     1     -11.488   8.684  71.349  1.00  0.00    -0.259 OA 
HETATM   19  C   UNL     1     -11.730   6.142  68.750  1.00  0.00     0.723 A  
HETATM   20  H   UNL     1     -12.409   8.807  71.546  1.00  0.00     0.000 HD 
ENDBRANCH   8   9
ENDBRANCH   2   8
TORSDOF 2
ENDMDL
MODEL      284
REMARK 921   NORMALIZED FREE ENERGY PREDICTED BY IDOCK:    1.54 KCAL/MOL
REMARK 922        TOTAL FREE ENERGY PREDICTED BY IDOCK:    1.42 KCAL/MOL
REMARK 923 INTER-LIGAND FREE ENERGY PREDICTED BY IDOCK:   -0.30 KCAL/MOL
REMARK 924 INTRA-LIGAND FREE ENERGY PREDICTED BY IDOCK:    1.72 KCAL/MOL
REMARK 927      BINDING AFFINITY PREDICTED BY RF-SCORE:    0.00 PKD
ROOT
HETATM    1  N   UNL     1     -11.206  17.993  67.734  1.00  0.00     0.094 NA 
HETATM    2  CA  UNL     1      -9.927  17.257  68.020  1.00  0.00    -0.304 C  
HETATM    3  H1  UNL     1     -12.037  17.541  68.116  1.00  0.00     0.000 HD 
HETATM    4  H2  UNL     1     -11.312  18.151  66.732  1.00  0.00     0.000 HD 
HETATM    5  OXT UNL     1      -8.794  16.707  70.128  1.00  0.00     1.177 OA 
HETATM    6  C   UNL     1      -9.769  17.154  69.545  1.00  0.00     0.182 C  
HETATM    7  O   UNL     1     -10.867  17.636  70.189  1.00  0.00     0.566 OA 
ENDROOT
BRANCH   2   8
HETATM    8  C   UNL     1      -8.674  17.937  67.444  1.00  0.00    -0.237 C  
BRANCH   8   9
HETATM    9  C   UNL     1      -7.465  17.052  67.394  1.00  0.00    -0.184 A  
HETATM   10  C   UNL     1      -6.193  17.432  67.014  1.00  0.00    -0.168 A  
HETATM   11  N   UNL     1      -5.378  16.333  67.077  1.00  0.00    -0.347 NA 
HETATM   12  H   UNL     1      -4.384  16.330  66.845  1.00  0.00     0.000 HD 
HETATM   13  C   UNL     1      -6.090  15.234  67.498  1.00  0.00    -0.041 A  
HETATM   14  C   UNL     1      -7.410  15.651  67.691  1.00  0.00    -0.190 A  
HETATM   15  C   UNL     1      -8.363  14.693  68.103  1.00  0.00    -0.144 A  
HETATM   16  C   UNL     1      -7.949  13.378  68.323  1.00  0.00    -0.147 A  
HETATM   17  C   UNL     1      -6.630  12.991  68.131  1.00  0.00    -0.103 A  
HETATM   18  O   UNL     1      -8.832  12.422  68.735  1.00  0.00    -0.375 OA 
HETATM   19  C   UNL     1      -5.672  13.916  67.706  1.00  0.00    -0.079 A  
HETATM   20  H   UNL     1      -8.549  11.527  68.884  1.00  0.00     0.000 HD 
ENDBRANCH   8   9
ENDBRANCH   2   8
TORSDOF 2
ENDMDL
