MODEL        1
REMARK 921   NORMALIZED FREE ENERGY PREDICTED BY IDOCK:   -5.87 KCAL/MOL
REMARK 922        TOTAL FREE ENERGY PREDICTED BY IDOCK:   -8.45 KCAL/MOL
REMARK 923 INTER-LIGAND FREE ENERGY PREDICTED BY IDOCK:   -7.93 KCAL/MOL
REMARK 924 INTRA-LIGAND FREE ENERGY PREDICTED BY IDOCK:   -0.53 KCAL/MOL
REMARK 927      BINDING AFFINITY PREDICTED BY RF-SCORE:    0.00 PKD
ROOT
HETATM    1  C   UNL     1     -10.236  10.441  65.142  1.00  0.00    -0.326 C  
HETATM    2  C   UNL     1     -10.546  11.897  65.486  1.00  0.00    -0.269 C  
ENDROOT
BRANCH   2   3
HETATM    3  N   UNL     1     -11.857  12.133  66.127  1.00  0.00    -0.582 NA 
BRANCH   3   4
HETATM    4  C   UNL     1     -11.768  12.473  67.555  1.00  0.00    -0.374 C  
HETATM    5  C   UNL     1     -11.703  11.297  68.523  1.00  0.00    -0.378 C  
ENDBRANCH   3   4
BRANCH   3   6
HETATM    6  C   UNL     1     -12.622  13.112  65.319  1.00  0.00    -0.472 C  
BRANCH   6   7
HETATM    7  C   UNL     1     -11.824  13.871  64.244  1.00  0.00    -0.441 C  
BRANCH   7   8
HETATM    8  C   UNL     1     -11.359  15.196  64.743  1.00  0.00    -0.395 A  
HETATM    9  N   UNL     1     -10.727  15.516  65.852  1.00  0.00    -0.331 NA 
HETATM   10  C   UNL     1     -10.646  16.895  65.764  1.00  0.00    -0.230 A  
HETATM   11  N   UNL     1     -11.179  17.390  64.634  1.00  0.00    -0.824 NA 
HETATM   12  O   UNL     1     -11.662  16.272  63.968  1.00  0.00    -0.930 OA 
BRANCH  10  13
HETATM   13  C   UNL     1     -10.074  17.740  66.813  1.00  0.00    -0.349 A  
HETATM   14  C   UNL     1     -10.698  18.930  67.213  1.00  0.00    -0.523 A  
HETATM   15  C   UNL     1     -10.117  19.745  68.193  1.00  0.00    -0.574 A  
HETATM   16  C   UNL     1      -8.908  19.379  68.785  1.00  0.00    -0.385 A  
HETATM   17  C   UNL     1      -8.283  18.194  68.407  1.00  0.00    -0.314 A  
HETATM   18  C   UNL     1      -8.863  17.380  67.430  1.00  0.00    -0.230 A  
ENDBRANCH  10  13
ENDBRANCH   7   8
ENDBRANCH   6   7
ENDBRANCH   3   6
ENDBRANCH   2   3
TORSDOF 6
ENDMDL
MODEL        2
REMARK 921   NORMALIZED FREE ENERGY PREDICTED BY IDOCK:   -5.73 KCAL/MOL
REMARK 922        TOTAL FREE ENERGY PREDICTED BY IDOCK:   -8.26 KCAL/MOL
REMARK 923 INTER-LIGAND FREE ENERGY PREDICTED BY IDOCK:   -7.85 KCAL/MOL
REMARK 924 INTRA-LIGAND FREE ENERGY PREDICTED BY IDOCK:   -0.41 KCAL/MOL
REMARK 927      BINDING AFFINITY PREDICTED BY RF-SCORE:    0.00 PKD
ROOT
HETATM    1  C   UNL     1     -13.599  13.044  72.357  1.00  0.00    -0.628 C  
HETATM    2  C   UNL     1     -14.144  14.443  72.078  1.00  0.00    -0.530 C  
ENDROOT
BRANCH   2   3
HETATM    3  N   UNL     1     -13.125  15.494  71.872  1.00  0.00    -0.425 NA 
BRANCH   3   4
HETATM    4  C   UNL     1     -12.033  15.464  72.857  1.00  0.00    -0.448 C  
HETATM    5  C   UNL     1     -12.415  15.797  74.295  1.00  0.00    -0.800 C  
ENDBRANCH   3   4
BRANCH   3   6
HETATM    6  C   UNL     1     -12.669  15.458  70.462  1.00  0.00    -0.405 C  
BRANCH   6   7
HETATM    7  C   UNL     1     -11.332  14.742  70.204  1.00  0.00    -0.291 C  
BRANCH   7   8
HETATM    8  C   UNL     1     -11.456  13.727  69.121  1.00  0.00    -0.298 A  
HETATM    9  N   UNL     1     -11.169  13.809  67.839  1.00  0.00    -0.263 NA 
HETATM   10  C   UNL     1     -11.569  12.572  67.362  1.00  0.00    -0.370 A  
HETATM   11  N   UNL     1     -12.051  11.761  68.320  1.00  0.00    -0.506 NA 
HETATM   12  O   UNL     1     -11.990  12.528  69.476  1.00  0.00    -0.303 OA 
BRANCH  10  13
HETATM   13  C   UNL     1     -11.514  12.193  65.949  1.00  0.00    -0.418 A  
HETATM   14  C   UNL     1     -10.538  11.310  65.468  1.00  0.00    -0.306 A  
HETATM   15  C   UNL     1     -10.477  10.989  64.106  1.00  0.00    -0.434 A  
HETATM   16  C   UNL     1     -11.393  11.542  63.212  1.00  0.00    -0.208 A  
HETATM   17  C   UNL     1     -12.377  12.410  63.677  1.00  0.00    -0.647 A  
HETATM   18  C   UNL     1     -12.438  12.731  65.036  1.00  0.00    -0.572 A  
ENDBRANCH  10  13
ENDBRANCH   7   8
ENDBRANCH   6   7
ENDBRANCH   3   6
ENDBRANCH   2   3
TORSDOF 6
ENDMDL
MODEL        3
REMARK 921   NORMALIZED FREE ENERGY PREDICTED BY IDOCK:   -5.63 KCAL/MOL
REMARK 922        TOTAL FREE ENERGY PREDICTED BY IDOCK:   -8.14 KCAL/MOL
REMARK 923 INTER-LIGAND FREE ENERGY PREDICTED BY IDOCK:   -7.63 KCAL/MOL
REMARK 924 INTRA-LIGAND FREE ENERGY PREDICTED BY IDOCK:   -0.50 KCAL/MOL
REMARK 927      BINDING AFFINITY PREDICTED BY RF-SCORE:    0.00 PKD
ROOT
HETATM    1  C   UNL     1     -12.545  15.636  73.997  1.00  0.00    -0.767 C  
HETATM    2  C   UNL     1     -13.587  15.676  72.881  1.00  0.00    -0.572 C  
ENDROOT
BRANCH   2   3
HETATM    3  N   UNL     1     -13.046  15.651  71.505  1.00  0.00    -0.490 NA 
BRANCH   3   4
HETATM    4  C   UNL     1     -11.616  15.987  71.423  1.00  0.00    -0.455 C  
HETATM    5  C   UNL     1     -11.077  16.295  70.030  1.00  0.00    -0.351 C  
ENDBRANCH   3   4
BRANCH   3   6
HETATM    6  C   UNL     1     -13.401  14.361  70.867  1.00  0.00    -0.238 C  
BRANCH   6   7
HETATM    7  C   UNL     1     -12.373  13.227  71.021  1.00  0.00    -0.379 C  
BRANCH   7   8
HETATM    8  C   UNL     1     -12.071  12.583  69.712  1.00  0.00    -0.224 A  
HETATM    9  N   UNL     1     -11.817  13.118  68.537  1.00  0.00    -0.340 NA 
HETATM   10  C   UNL     1     -11.692  12.006  67.721  1.00  0.00    -0.309 A  
HETATM   11  N   UNL     1     -11.832  10.843  68.379  1.00  0.00    -0.525 NA 
HETATM   12  O   UNL     1     -12.097  11.223  69.688  1.00  0.00    -0.315 OA 
BRANCH  10  13
HETATM   13  C   UNL     1     -11.469  12.084  66.276  1.00  0.00    -0.408 A  
HETATM   14  C   UNL     1     -12.271  12.890  65.456  1.00  0.00    -0.527 A  
HETATM   15  C   UNL     1     -12.067  12.922  64.071  1.00  0.00    -0.526 A  
HETATM   16  C   UNL     1     -11.057  12.154  63.491  1.00  0.00    -0.525 A  
HETATM   17  C   UNL     1     -10.244  11.359  64.294  1.00  0.00    -0.367 A  
HETATM   18  C   UNL     1     -10.447  11.326  65.677  1.00  0.00    -0.317 A  
ENDBRANCH  10  13
ENDBRANCH   7   8
ENDBRANCH   6   7
ENDBRANCH   3   6
ENDBRANCH   2   3
TORSDOF 6
ENDMDL
MODEL        4
REMARK 921   NORMALIZED FREE ENERGY PREDICTED BY IDOCK:   -5.63 KCAL/MOL
REMARK 922        TOTAL FREE ENERGY PREDICTED BY IDOCK:   -8.13 KCAL/MOL
REMARK 923 INTER-LIGAND FREE ENERGY PREDICTED BY IDOCK:   -7.55 KCAL/MOL
REMARK 924 INTRA-LIGAND FREE ENERGY PREDICTED BY IDOCK:   -0.58 KCAL/MOL
REMARK 927      BINDING AFFINITY PREDICTED BY RF-SCORE:    0.00 PKD
ROOT
HETATM    1  C   UNL     1     -10.559  19.609  65.873  1.00  0.00    -0.566 C  
HETATM    2  C   UNL     1      -9.746  18.539  66.597  1.00  0.00    -0.341 C  
ENDROOT
BRANCH   2   3
HETATM    3  N   UNL     1      -9.355  17.373  65.776  1.00  0.00    -0.508 NA 
BRANCH   3   4
HETATM    4  C   UNL     1      -8.143  16.690  66.253  1.00  0.00    -0.326 C  
HETATM    5  C   UNL     1      -6.933  17.578  66.523  1.00  0.00    -0.288 C  
ENDBRANCH   3   4
BRANCH   3   6
HETATM    6  C   UNL     1     -10.527  16.480  65.612  1.00  0.00    -0.324 C  
BRANCH   6   7
HETATM    7  C   UNL     1     -10.340  15.028  66.085  1.00  0.00    -0.310 C  
BRANCH   7   8
HETATM    8  C   UNL     1     -11.066  14.771  67.360  1.00  0.00    -0.324 A  
HETATM    9  N   UNL     1     -11.337  15.577  68.364  1.00  0.00    -0.338 NA 
HETATM   10  C   UNL     1     -11.964  14.734  69.265  1.00  0.00    -0.294 A  
HETATM   11  N   UNL     1     -12.097  13.474  68.814  1.00  0.00    -0.326 NA 
HETATM   12  O   UNL     1     -11.492  13.495  67.565  1.00  0.00    -0.296 OA 
BRANCH  10  13
HETATM   13  C   UNL     1     -12.405  15.155  70.596  1.00  0.00    -0.420 A  
HETATM   14  C   UNL     1     -11.589  15.945  71.418  1.00  0.00    -0.529 A  
HETATM   15  C   UNL     1     -12.013  16.308  72.704  1.00  0.00    -0.644 A  
HETATM   16  C   UNL     1     -13.255  15.889  73.179  1.00  0.00    -0.692 A  
HETATM   17  C   UNL     1     -14.081  15.115  72.369  1.00  0.00    -0.593 A  
HETATM   18  C   UNL     1     -13.660  14.753  71.086  1.00  0.00    -0.432 A  
ENDBRANCH  10  13
ENDBRANCH   7   8
ENDBRANCH   6   7
ENDBRANCH   3   6
ENDBRANCH   2   3
TORSDOF 6
ENDMDL
MODEL        5
REMARK 921   NORMALIZED FREE ENERGY PREDICTED BY IDOCK:   -5.59 KCAL/MOL
REMARK 922        TOTAL FREE ENERGY PREDICTED BY IDOCK:   -8.08 KCAL/MOL
REMARK 923 INTER-LIGAND FREE ENERGY PREDICTED BY IDOCK:   -7.64 KCAL/MOL
REMARK 924 INTRA-LIGAND FREE ENERGY PREDICTED BY IDOCK:   -0.44 KCAL/MOL
REMARK 927      BINDING AFFINITY PREDICTED BY RF-SCORE:    0.00 PKD
ROOT
HETATM    1  C   UNL     1     -11.241  11.883  67.657  1.00  0.00    -0.340 C  
HETATM    2  C   UNL     1     -11.530  12.111  66.174  1.00  0.00    -0.371 C  
ENDROOT
BRANCH   2   3
HETATM    3  N   UNL     1     -10.369  11.968  65.270  1.00  0.00    -0.265 NA 
BRANCH   3   4
HETATM    4  C   UNL     1     -10.139  10.589  64.813  1.00  0.00    -0.336 C  
HETATM    5  C   UNL     1      -9.371  10.434  63.504  1.00  0.00    -0.333 C  
ENDBRANCH   3   4
BRANCH   3   6
HETATM    6  C   UNL     1     -10.483  12.958  64.173  1.00  0.00    -0.406 C  
BRANCH   6   7
HETATM    7  C   UNL     1     -11.660  13.943  64.273  1.00  0.00    -0.377 C  
BRANCH   7   8
HETATM    8  C   UNL     1     -11.218  15.273  64.779  1.00  0.00    -0.396 A  
HETATM    9  N   UNL     1     -10.541  15.591  65.863  1.00  0.00    -0.324 NA 
HETATM   10  C   UNL     1     -10.513  16.974  65.804  1.00  0.00    -0.251 A  
HETATM   11  N   UNL     1     -11.121  17.474  64.714  1.00  0.00    -0.812 NA 
HETATM   12  O   UNL     1     -11.598  16.354  64.047  1.00  0.00    -1.071 OA 
BRANCH  10  13
HETATM   13  C   UNL     1      -9.919  17.816  66.843  1.00  0.00    -0.332 A  
HETATM   14  C   UNL     1     -10.635  18.870  67.427  1.00  0.00    -0.534 A  
HETATM   15  C   UNL     1     -10.036  19.689  68.393  1.00  0.00    -0.557 A  
HETATM   16  C   UNL     1      -8.719  19.462  68.788  1.00  0.00    -0.377 A  
HETATM   17  C   UNL     1      -7.999  18.411  68.227  1.00  0.00    -0.317 A  
HETATM   18  C   UNL     1      -8.596  17.593  67.263  1.00  0.00    -0.238 A  
ENDBRANCH  10  13
ENDBRANCH   7   8
ENDBRANCH   6   7
ENDBRANCH   3   6
ENDBRANCH   2   3
TORSDOF 6
ENDMDL
MODEL        6
REMARK 921   NORMALIZED FREE ENERGY PREDICTED BY IDOCK:   -5.58 KCAL/MOL
REMARK 922        TOTAL FREE ENERGY PREDICTED BY IDOCK:   -8.06 KCAL/MOL
REMARK 923 INTER-LIGAND FREE ENERGY PREDICTED BY IDOCK:   -7.56 KCAL/MOL
REMARK 924 INTRA-LIGAND FREE ENERGY PREDICTED BY IDOCK:   -0.50 KCAL/MOL
REMARK 927      BINDING AFFINITY PREDICTED BY RF-SCORE:    0.00 PKD
ROOT
HETATM    1  C   UNL     1      -6.941  18.391  68.895  1.00  0.00    -0.297 C  
HETATM    2  C   UNL     1      -8.279  19.020  68.511  1.00  0.00    -0.355 C  
ENDROOT
BRANCH   2   3
HETATM    3  N   UNL     1      -8.257  19.878  67.307  1.00  0.00    -0.301 NA 
BRANCH   3   4
HETATM    4  C   UNL     1      -6.904  20.253  66.870  1.00  0.00    -0.239 C  
HETATM    5  C   UNL     1      -6.526  19.867  65.444  1.00  0.00    -0.297 C  
ENDBRANCH   3   4
BRANCH   3   6
HETATM    6  C   UNL     1      -9.081  19.249  66.248  1.00  0.00    -0.329 C  
BRANCH   6   7
HETATM    7  C   UNL     1     -10.397  18.601  66.713  1.00  0.00    -0.449 C  
BRANCH   7   8
HETATM    8  C   UNL     1     -10.754  17.424  65.872  1.00  0.00    -0.123 A  
HETATM    9  N   UNL     1     -10.653  16.136  66.122  1.00  0.00    -0.306 NA 
HETATM   10  C   UNL     1     -11.075  15.565  64.933  1.00  0.00    -0.416 A  
HETATM   11  N   UNL     1     -11.446  16.469  64.010  1.00  0.00    -1.122 NA 
HETATM   12  O   UNL     1     -11.221  17.694  64.623  1.00  0.00    -0.857 OA 
BRANCH  10  13
HETATM   13  C   UNL     1     -11.080  14.122  64.686  1.00  0.00    -0.378 A  
HETATM   14  C   UNL     1     -10.196  13.264  65.355  1.00  0.00    -0.304 A  
HETATM   15  C   UNL     1     -10.189  11.891  65.077  1.00  0.00    -0.316 A  
HETATM   16  C   UNL     1     -11.067  11.361  64.132  1.00  0.00    -0.382 A  
HETATM   17  C   UNL     1     -11.959  12.199  63.468  1.00  0.00    -0.619 A  
HETATM   18  C   UNL     1     -11.967  13.569  63.745  1.00  0.00    -0.475 A  
ENDBRANCH  10  13
ENDBRANCH   7   8
ENDBRANCH   6   7
ENDBRANCH   3   6
ENDBRANCH   2   3
TORSDOF 6
ENDMDL
MODEL        7
REMARK 921   NORMALIZED FREE ENERGY PREDICTED BY IDOCK:   -5.57 KCAL/MOL
REMARK 922        TOTAL FREE ENERGY PREDICTED BY IDOCK:   -8.05 KCAL/MOL
REMARK 923 INTER-LIGAND FREE ENERGY PREDICTED BY IDOCK:   -7.48 KCAL/MOL
REMARK 924 INTRA-LIGAND FREE ENERGY PREDICTED BY IDOCK:   -0.56 KCAL/MOL
REMARK 927      BINDING AFFINITY PREDICTED BY RF-SCORE:    0.00 PKD
ROOT
HETATM    1  C   UNL     1     -11.365  15.120  64.843  1.00  0.00    -0.402 C  
HETATM    2  C   UNL     1     -12.330  14.065  65.380  1.00  0.00    -0.478 C  
ENDROOT
BRANCH   2   3
HETATM    3  N   UNL     1     -11.952  12.661  65.111  1.00  0.00    -0.404 NA 
BRANCH   3   4
HETATM    4  C   UNL     1     -11.631  12.393  63.701  1.00  0.00    -0.499 C  
HETATM    5  C   UNL     1     -10.225  11.873  63.418  1.00  0.00    -0.478 C  
ENDBRANCH   3   4
BRANCH   3   6
HETATM    6  C   UNL     1     -10.890  12.253  66.061  1.00  0.00    -0.275 C  
BRANCH   6   7
HETATM    7  C   UNL     1     -11.256  11.121  67.036  1.00  0.00    -0.291 C  
BRANCH   7   8
HETATM    8  C   UNL     1     -11.662  11.656  68.366  1.00  0.00    -0.307 A  
HETATM    9  N   UNL     1     -11.860  12.895  68.762  1.00  0.00    -0.319 NA 
HETATM   10  C   UNL     1     -12.146  12.738  70.108  1.00  0.00    -0.298 A  
HETATM   11  N   UNL     1     -12.152  11.454  70.506  1.00  0.00    -0.379 NA 
HETATM   12  O   UNL     1     -11.819  10.742  69.362  1.00  0.00    -0.294 OA 
BRANCH  10  13
HETATM   13  C   UNL     1     -12.378  13.858  71.022  1.00  0.00    -0.453 A  
HETATM   14  C   UNL     1     -11.572  15.005  70.991  1.00  0.00    -0.367 A  
HETATM   15  C   UNL     1     -11.786  16.050  71.898  1.00  0.00    -0.619 A  
HETATM   16  C   UNL     1     -12.809  15.964  72.842  1.00  0.00    -0.584 A  
HETATM   17  C   UNL     1     -13.627  14.837  72.876  1.00  0.00    -0.478 A  
HETATM   18  C   UNL     1     -13.414  13.793  71.971  1.00  0.00    -0.559 A  
ENDBRANCH  10  13
ENDBRANCH   7   8
ENDBRANCH   6   7
ENDBRANCH   3   6
ENDBRANCH   2   3
TORSDOF 6
ENDMDL
MODEL        8
REMARK 921   NORMALIZED FREE ENERGY PREDICTED BY IDOCK:   -5.57 KCAL/MOL
REMARK 922        TOTAL FREE ENERGY PREDICTED BY IDOCK:   -8.05 KCAL/MOL
REMARK 923 INTER-LIGAND FREE ENERGY PREDICTED BY IDOCK:   -7.56 KCAL/MOL
REMARK 924 INTRA-LIGAND FREE ENERGY PREDICTED BY IDOCK:   -0.49 KCAL/MOL
REMARK 927      BINDING AFFINITY PREDICTED BY RF-SCORE:    0.00 PKD
ROOT
HETATM    1  C   UNL     1     -13.192  12.859  71.935  1.00  0.00    -0.521 C  
HETATM    2  C   UNL     1     -13.844  14.067  72.604  1.00  0.00    -0.405 C  
ENDROOT
BRANCH   2   3
HETATM    3  N   UNL     1     -13.340  15.386  72.164  1.00  0.00    -0.406 NA 
BRANCH   3   4
HETATM    4  C   UNL     1     -12.211  15.886  72.962  1.00  0.00    -0.504 C  
HETATM    5  C   UNL     1     -12.324  15.712  74.473  1.00  0.00    -0.776 C  
ENDBRANCH   3   4
BRANCH   3   6
HETATM    6  C   UNL     1     -13.079  15.344  70.706  1.00  0.00    -0.424 C  
BRANCH   6   7
HETATM    7  C   UNL     1     -11.683  15.809  70.257  1.00  0.00    -0.373 C  
BRANCH   7   8
HETATM    8  C   UNL     1     -11.442  15.505  68.819  1.00  0.00    -0.355 A  
HETATM    9  N   UNL     1     -11.930  14.550  68.056  1.00  0.00    -0.307 NA 
HETATM   10  C   UNL     1     -11.273  14.761  66.855  1.00  0.00    -0.347 A  
HETATM   11  N   UNL     1     -10.445  15.819  66.878  1.00  0.00    -0.311 NA 
HETATM   12  O   UNL     1     -10.544  16.300  68.176  1.00  0.00    -0.281 OA 
BRANCH  10  13
HETATM   13  C   UNL     1     -11.431  13.896  65.684  1.00  0.00    -0.321 A  
HETATM   14  C   UNL     1     -12.694  13.442  65.278  1.00  0.00    -0.481 A  
HETATM   15  C   UNL     1     -12.822  12.584  64.178  1.00  0.00    -0.333 A  
HETATM   16  C   UNL     1     -11.692  12.175  63.470  1.00  0.00    -0.579 A  
HETATM   17  C   UNL     1     -10.433  12.629  63.853  1.00  0.00    -0.441 A  
HETATM   18  C   UNL     1     -10.304  13.485  64.951  1.00  0.00    -0.395 A  
ENDBRANCH  10  13
ENDBRANCH   7   8
ENDBRANCH   6   7
ENDBRANCH   3   6
ENDBRANCH   2   3
TORSDOF 6
ENDMDL
MODEL        9
REMARK 921   NORMALIZED FREE ENERGY PREDICTED BY IDOCK:   -5.56 KCAL/MOL
REMARK 922        TOTAL FREE ENERGY PREDICTED BY IDOCK:   -8.04 KCAL/MOL
REMARK 923 INTER-LIGAND FREE ENERGY PREDICTED BY IDOCK:   -7.51 KCAL/MOL
REMARK 924 INTRA-LIGAND FREE ENERGY PREDICTED BY IDOCK:   -0.53 KCAL/MOL
REMARK 927      BINDING AFFINITY PREDICTED BY RF-SCORE:    0.00 PKD
ROOT
HETATM    1  C   UNL     1      -6.926  17.084  66.367  1.00  0.00    -0.267 C  
HETATM    2  C   UNL     1      -7.027  18.588  66.122  1.00  0.00    -0.260 C  
ENDROOT
BRANCH   2   3
HETATM    3  N   UNL     1      -7.996  19.308  66.976  1.00  0.00    -0.252 NA 
BRANCH   3   4
HETATM    4  C   UNL     1      -7.542  20.642  67.396  1.00  0.00    -0.330 C  
HETATM    5  C   UNL     1      -6.216  21.116  66.810  1.00  0.00    -0.381 C  
ENDBRANCH   3   4
BRANCH   3   6
HETATM    6  C   UNL     1      -9.323  19.301  66.316  1.00  0.00    -0.339 C  
BRANCH   6   7
HETATM    7  C   UNL     1     -10.377  18.363  66.931  1.00  0.00    -0.417 C  
BRANCH   7   8
HETATM    8  C   UNL     1     -10.747  17.267  65.992  1.00  0.00    -0.110 A  
HETATM    9  N   UNL     1     -10.650  15.961  66.125  1.00  0.00    -0.312 NA 
HETATM   10  C   UNL     1     -11.086  15.501  64.894  1.00  0.00    -0.416 A  
HETATM   11  N   UNL     1     -11.462  16.485  64.059  1.00  0.00    -1.122 NA 
HETATM   12  O   UNL     1     -11.224  17.649  64.777  1.00  0.00    -0.834 OA 
BRANCH  10  13
HETATM   13  C   UNL     1     -11.100  14.086  64.518  1.00  0.00    -0.360 A  
HETATM   14  C   UNL     1     -12.157  13.539  63.778  1.00  0.00    -0.482 A  
HETATM   15  C   UNL     1     -12.172  12.175  63.460  1.00  0.00    -0.670 A  
HETATM   16  C   UNL     1     -11.131  11.345  63.874  1.00  0.00    -0.410 A  
HETATM   17  C   UNL     1     -10.068  11.877  64.599  1.00  0.00    -0.301 A  
HETATM   18  C   UNL     1     -10.052  13.238  64.917  1.00  0.00    -0.247 A  
ENDBRANCH  10  13
ENDBRANCH   7   8
ENDBRANCH   6   7
ENDBRANCH   3   6
ENDBRANCH   2   3
TORSDOF 6
ENDMDL
MODEL       10
REMARK 921   NORMALIZED FREE ENERGY PREDICTED BY IDOCK:   -5.56 KCAL/MOL
REMARK 922        TOTAL FREE ENERGY PREDICTED BY IDOCK:   -8.04 KCAL/MOL
REMARK 923 INTER-LIGAND FREE ENERGY PREDICTED BY IDOCK:   -7.53 KCAL/MOL
REMARK 924 INTRA-LIGAND FREE ENERGY PREDICTED BY IDOCK:   -0.51 KCAL/MOL
REMARK 927      BINDING AFFINITY PREDICTED BY RF-SCORE:    0.00 PKD
ROOT
HETATM    1  C   UNL     1     -10.068  10.110  66.003  1.00  0.00    -0.317 C  
HETATM    2  C   UNL     1     -10.893  10.477  67.234  1.00  0.00    -0.279 C  
ENDROOT
BRANCH   2   3
HETATM    3  N   UNL     1     -11.804  11.630  67.068  1.00  0.00    -0.575 NA 
BRANCH   3   4
HETATM    4  C   UNL     1     -11.795  12.563  68.205  1.00  0.00    -0.317 C  
HETATM    5  C   UNL     1     -11.703  11.933  69.591  1.00  0.00    -0.413 C  
ENDBRANCH   3   4
BRANCH   3   6
HETATM    6  C   UNL     1     -11.543  12.271  65.758  1.00  0.00    -0.388 C  
BRANCH   6   7
HETATM    7  C   UNL     1     -12.543  13.358  65.327  1.00  0.00    -0.518 C  
BRANCH   7   8
HETATM    8  C   UNL     1     -11.878  14.682  65.173  1.00  0.00    -0.351 A  
HETATM    9  N   UNL     1     -11.053  15.320  65.976  1.00  0.00    -0.314 NA 
HETATM   10  C   UNL     1     -10.850  16.516  65.309  1.00  0.00    -0.221 A  
HETATM   11  N   UNL     1     -11.501  16.590  64.135  1.00  0.00    -1.092 NA 
HETATM   12  O   UNL     1     -12.190  15.387  64.053  1.00  0.00    -0.629 OA 
BRANCH  10  13
HETATM   13  C   UNL     1     -10.041  17.613  65.843  1.00  0.00    -0.192 A  
HETATM   14  C   UNL     1      -8.748  17.392  66.338  1.00  0.00    -0.275 A  
HETATM   15  C   UNL     1      -8.004  18.448  66.880  1.00  0.00    -0.249 A  
HETATM   16  C   UNL     1      -8.540  19.734  66.930  1.00  0.00    -0.380 A  
HETATM   17  C   UNL     1      -9.818  19.971  66.430  1.00  0.00    -0.578 A  
HETATM   18  C   UNL     1     -10.562  18.919  65.889  1.00  0.00    -0.438 A  
ENDBRANCH  10  13
ENDBRANCH   7   8
ENDBRANCH   6   7
ENDBRANCH   3   6
ENDBRANCH   2   3
TORSDOF 6
ENDMDL
MODEL       11
REMARK 921   NORMALIZED FREE ENERGY PREDICTED BY IDOCK:   -5.51 KCAL/MOL
REMARK 922        TOTAL FREE ENERGY PREDICTED BY IDOCK:   -7.97 KCAL/MOL
REMARK 923 INTER-LIGAND FREE ENERGY PREDICTED BY IDOCK:   -7.37 KCAL/MOL
REMARK 924 INTRA-LIGAND FREE ENERGY PREDICTED BY IDOCK:   -0.60 KCAL/MOL
REMARK 927      BINDING AFFINITY PREDICTED BY RF-SCORE:    0.00 PKD
ROOT
HETATM    1  C   UNL     1     -12.482  12.087  63.273  1.00  0.00    -0.544 C  
HETATM    2  C   UNL     1     -11.014  12.103  63.694  1.00  0.00    -0.461 C  
ENDROOT
BRANCH   2   3
HETATM    3  N   UNL     1     -10.582  13.295  64.454  1.00  0.00    -0.416 NA 
BRANCH   3   4
HETATM    4  C   UNL     1     -11.548  14.404  64.418  1.00  0.00    -0.334 C  
HETATM    5  C   UNL     1     -11.034  15.759  64.894  1.00  0.00    -0.443 C  
ENDBRANCH   3   4
BRANCH   3   6
HETATM    6  C   UNL     1     -10.186  12.882  65.821  1.00  0.00    -0.288 C  
BRANCH   6   7
HETATM    7  C   UNL     1     -11.337  12.523  66.777  1.00  0.00    -0.390 C  
BRANCH   7   8
HETATM    8  C   UNL     1     -11.296  13.350  68.015  1.00  0.00    -0.286 A  
HETATM    9  N   UNL     1     -12.122  13.392  69.040  1.00  0.00    -0.307 NA 
HETATM   10  C   UNL     1     -11.581  14.401  69.819  1.00  0.00    -0.298 A  
HETATM   11  N   UNL     1     -10.457  14.929  69.305  1.00  0.00    -0.241 NA 
HETATM   12  O   UNL     1     -10.278  14.247  68.109  1.00  0.00    -0.222 OA 
BRANCH  10  13
HETATM   13  C   UNL     1     -12.191  14.878  71.062  1.00  0.00    -0.379 A  
HETATM   14  C   UNL     1     -13.581  14.857  71.247  1.00  0.00    -0.504 A  
HETATM   15  C   UNL     1     -14.149  15.353  72.427  1.00  0.00    -0.645 A  
HETATM   16  C   UNL     1     -13.336  15.871  73.436  1.00  0.00    -0.609 A  
HETATM   17  C   UNL     1     -11.954  15.886  73.271  1.00  0.00    -0.553 A  
HETATM   18  C   UNL     1     -11.386  15.391  72.094  1.00  0.00    -0.447 A  
ENDBRANCH  10  13
ENDBRANCH   7   8
ENDBRANCH   6   7
ENDBRANCH   3   6
ENDBRANCH   2   3
TORSDOF 6
ENDMDL
MODEL       12
REMARK 921   NORMALIZED FREE ENERGY PREDICTED BY IDOCK:   -5.48 KCAL/MOL
REMARK 922        TOTAL FREE ENERGY PREDICTED BY IDOCK:   -7.93 KCAL/MOL
REMARK 923 INTER-LIGAND FREE ENERGY PREDICTED BY IDOCK:   -7.41 KCAL/MOL
REMARK 924 INTRA-LIGAND FREE ENERGY PREDICTED BY IDOCK:   -0.52 KCAL/MOL
REMARK 927      BINDING AFFINITY PREDICTED BY RF-SCORE:    0.00 PKD
ROOT
HETATM    1  C   UNL     1     -10.159  10.558  66.225  1.00  0.00    -0.290 C  
HETATM    2  C   UNL     1     -11.007  11.752  65.793  1.00  0.00    -0.301 C  
ENDROOT
BRANCH   2   3
HETATM    3  N   UNL     1     -10.402  12.624  64.764  1.00  0.00    -0.309 NA 
BRANCH   3   4
HETATM    4  C   UNL     1     -11.116  12.610  63.478  1.00  0.00    -0.395 C  
HETATM    5  C   UNL     1     -12.504  11.979  63.487  1.00  0.00    -0.654 C  
ENDBRANCH   3   4
BRANCH   3   6
HETATM    6  C   UNL     1     -10.204  13.979  65.330  1.00  0.00    -0.347 C  
BRANCH   6   7
HETATM    7  C   UNL     1     -11.476  14.705  65.802  1.00  0.00    -0.338 C  
BRANCH   7   8
HETATM    8  C   UNL     1     -11.404  15.048  67.250  1.00  0.00    -0.332 A  
HETATM    9  N   UNL     1     -11.947  14.458  68.294  1.00  0.00    -0.318 NA 
HETATM   10  C   UNL     1     -11.571  15.288  69.337  1.00  0.00    -0.330 A  
HETATM   11  N   UNL     1     -10.805  16.321  68.947  1.00  0.00    -0.295 NA 
HETATM   12  O   UNL     1     -10.708  16.172  67.570  1.00  0.00    -0.311 OA 
BRANCH  10  13
HETATM   13  C   UNL     1     -11.995  15.088  70.724  1.00  0.00    -0.371 A  
HETATM   14  C   UNL     1     -12.737  13.960  71.104  1.00  0.00    -0.441 A  
HETATM   15  C   UNL     1     -13.167  13.805  72.428  1.00  0.00    -0.580 A  
HETATM   16  C   UNL     1     -12.858  14.770  73.386  1.00  0.00    -0.597 A  
HETATM   17  C   UNL     1     -12.111  15.888  73.026  1.00  0.00    -0.615 A  
HETATM   18  C   UNL     1     -11.681  16.044  71.705  1.00  0.00    -0.583 A  
ENDBRANCH  10  13
ENDBRANCH   7   8
ENDBRANCH   6   7
ENDBRANCH   3   6
ENDBRANCH   2   3
TORSDOF 6
ENDMDL
MODEL       13
REMARK 921   NORMALIZED FREE ENERGY PREDICTED BY IDOCK:   -5.48 KCAL/MOL
REMARK 922        TOTAL FREE ENERGY PREDICTED BY IDOCK:   -7.93 KCAL/MOL
REMARK 923 INTER-LIGAND FREE ENERGY PREDICTED BY IDOCK:   -7.48 KCAL/MOL
REMARK 924 INTRA-LIGAND FREE ENERGY PREDICTED BY IDOCK:   -0.45 KCAL/MOL
REMARK 927      BINDING AFFINITY PREDICTED BY RF-SCORE:    0.00 PKD
ROOT
HETATM    1  C   UNL     1     -14.207   7.505  71.599  1.00  0.00    -0.592 C  
HETATM    2  C   UNL     1     -13.828   8.882  72.141  1.00  0.00    -0.473 C  
ENDROOT
BRANCH   2   3
HETATM    3  N   UNL     1     -12.377   9.132  72.281  1.00  0.00    -0.342 NA 
BRANCH   3   4
HETATM    4  C   UNL     1     -11.589   7.921  72.551  1.00  0.00    -0.386 C  
HETATM    5  C   UNL     1     -10.077   8.107  72.632  1.00  0.00    -0.379 C  
ENDBRANCH   3   4
BRANCH   3   6
HETATM    6  C   UNL     1     -11.905   9.914  71.113  1.00  0.00    -0.386 C  
BRANCH   6   7
HETATM    7  C   UNL     1     -12.500  11.324  70.960  1.00  0.00    -0.503 C  
BRANCH   7   8
HETATM    8  C   UNL     1     -12.234  11.886  69.606  1.00  0.00    -0.153 A  
HETATM    9  N   UNL     1     -12.153  11.288  68.436  1.00  0.00    -0.609 NA 
HETATM   10  C   UNL     1     -11.817  12.331  67.589  1.00  0.00    -0.264 A  
HETATM   11  N   UNL     1     -11.727  13.518  68.214  1.00  0.00    -0.339 NA 
HETATM   12  O   UNL     1     -11.987  13.222  69.545  1.00  0.00    -0.307 OA 
BRANCH  10  13
HETATM   13  C   UNL     1     -11.544  12.157  66.161  1.00  0.00    -0.418 A  
HETATM   14  C   UNL     1     -12.380  12.718  65.186  1.00  0.00    -0.555 A  
HETATM   15  C   UNL     1     -12.125  12.510  63.824  1.00  0.00    -0.615 A  
HETATM   16  C   UNL     1     -11.031  11.744  63.423  1.00  0.00    -0.458 A  
HETATM   17  C   UNL     1     -10.184  11.192  64.380  1.00  0.00    -0.390 A  
HETATM   18  C   UNL     1     -10.438  11.399  65.739  1.00  0.00    -0.314 A  
ENDBRANCH  10  13
ENDBRANCH   7   8
ENDBRANCH   6   7
ENDBRANCH   3   6
ENDBRANCH   2   3
TORSDOF 6
ENDMDL
MODEL       14
REMARK 921   NORMALIZED FREE ENERGY PREDICTED BY IDOCK:   -5.47 KCAL/MOL
REMARK 922        TOTAL FREE ENERGY PREDICTED BY IDOCK:   -7.91 KCAL/MOL
REMARK 923 INTER-LIGAND FREE ENERGY PREDICTED BY IDOCK:   -7.44 KCAL/MOL
REMARK 924 INTRA-LIGAND FREE ENERGY PREDICTED BY IDOCK:   -0.48 KCAL/MOL
REMARK 927      BINDING AFFINITY PREDICTED BY RF-SCORE:    0.00 PKD
ROOT
HETATM    1  C   UNL     1     -10.475   9.312  67.048  1.00  0.00    -0.303 C  
HETATM    2  C   UNL     1     -10.836  10.784  67.237  1.00  0.00    -0.288 C  
ENDROOT
BRANCH   2   3
HETATM    3  N   UNL     1     -10.705  11.630  66.032  1.00  0.00    -0.272 NA 
BRANCH   3   4
HETATM    4  C   UNL     1     -10.411  10.875  64.805  1.00  0.00    -0.303 C  
HETATM    5  C   UNL     1     -10.621  11.620  63.490  1.00  0.00    -0.496 C  
ENDBRANCH   3   4
BRANCH   3   6
HETATM    6  C   UNL     1     -11.891  12.514  65.929  1.00  0.00    -0.430 C  
BRANCH   6   7
HETATM    7  C   UNL     1     -11.604  14.025  65.894  1.00  0.00    -0.350 C  
BRANCH   7   8
HETATM    8  C   UNL     1     -11.602  14.613  67.263  1.00  0.00    -0.387 A  
HETATM    9  N   UNL     1     -12.008  14.107  68.408  1.00  0.00    -0.349 NA 
HETATM   10  C   UNL     1     -11.810  15.158  69.287  1.00  0.00    -0.320 A  
HETATM   11  N   UNL     1     -11.277  16.247  68.706  1.00  0.00    -0.347 NA 
HETATM   12  O   UNL     1     -11.154  15.893  67.370  1.00  0.00    -0.301 OA 
BRANCH  10  13
HETATM   13  C   UNL     1     -12.181  15.109  70.703  1.00  0.00    -0.401 A  
HETATM   14  C   UNL     1     -11.744  16.090  71.605  1.00  0.00    -0.583 A  
HETATM   15  C   UNL     1     -12.077  16.006  72.963  1.00  0.00    -0.628 A  
HETATM   16  C   UNL     1     -12.852  14.946  73.433  1.00  0.00    -0.638 A  
HETATM   17  C   UNL     1     -13.304  13.972  72.546  1.00  0.00    -0.639 A  
HETATM   18  C   UNL     1     -12.972  14.055  71.191  1.00  0.00    -0.402 A  
ENDBRANCH  10  13
ENDBRANCH   7   8
ENDBRANCH   6   7
ENDBRANCH   3   6
ENDBRANCH   2   3
TORSDOF 6
ENDMDL
MODEL       15
REMARK 921   NORMALIZED FREE ENERGY PREDICTED BY IDOCK:   -5.44 KCAL/MOL
REMARK 922        TOTAL FREE ENERGY PREDICTED BY IDOCK:   -7.87 KCAL/MOL
REMARK 923 INTER-LIGAND FREE ENERGY PREDICTED BY IDOCK:   -7.34 KCAL/MOL
REMARK 924 INTRA-LIGAND FREE ENERGY PREDICTED BY IDOCK:   -0.53 KCAL/MOL
REMARK 927      BINDING AFFINITY PREDICTED BY RF-SCORE:    0.00 PKD
ROOT
HETATM    1  C   UNL     1     -12.324  15.946  74.036  1.00  0.00    -0.730 C  
HETATM    2  C   UNL     1     -13.525  15.911  73.094  1.00  0.00    -0.563 C  
ENDROOT
BRANCH   2   3
HETATM    3  N   UNL     1     -13.206  15.704  71.665  1.00  0.00    -0.490 NA 
BRANCH   3   4
HETATM    4  C   UNL     1     -11.780  15.863  71.345  1.00  0.00    -0.467 C  
HETATM    5  C   UNL     1     -11.400  15.724  69.875  1.00  0.00    -0.349 C  
ENDBRANCH   3   4
BRANCH   3   6
HETATM    6  C   UNL     1     -13.785  14.414  71.220  1.00  0.00    -0.298 C  
BRANCH   6   7
HETATM    7  C   UNL     1     -13.668  13.244  72.213  1.00  0.00    -0.686 C  
BRANCH   7   8
HETATM    8  C   UNL     1     -12.960  12.082  71.607  1.00  0.00    -0.334 A  
HETATM    9  N   UNL     1     -12.976  10.808  71.937  1.00  0.00    -0.463 NA 
HETATM   10  C   UNL     1     -12.068  10.257  71.049  1.00  0.00    -0.386 A  
HETATM   11  N   UNL     1     -11.545  11.154  70.195  1.00  0.00    -0.322 NA 
HETATM   12  O   UNL     1     -12.122  12.359  70.573  1.00  0.00    -0.363 OA 
BRANCH  10  13
HETATM   13  C   UNL     1     -11.680   8.845  71.060  1.00  0.00    -0.340 A  
HETATM   14  C   UNL     1     -10.627   8.372  70.265  1.00  0.00    -0.234 A  
HETATM   15  C   UNL     1     -10.295   7.011  70.261  1.00  0.00    -0.219 A  
HETATM   16  C   UNL     1     -11.008   6.110  71.051  1.00  0.00    -0.354 A  
HETATM   17  C   UNL     1     -12.048   6.568  71.856  1.00  0.00    -0.388 A  
HETATM   18  C   UNL     1     -12.380   7.926  71.861  1.00  0.00    -0.350 A  
ENDBRANCH  10  13
ENDBRANCH   7   8
ENDBRANCH   6   7
ENDBRANCH   3   6
ENDBRANCH   2   3
TORSDOF 6
ENDMDL
MODEL       16
REMARK 921   NORMALIZED FREE ENERGY PREDICTED BY IDOCK:   -5.44 KCAL/MOL
REMARK 922        TOTAL FREE ENERGY PREDICTED BY IDOCK:   -7.87 KCAL/MOL
REMARK 923 INTER-LIGAND FREE ENERGY PREDICTED BY IDOCK:   -7.32 KCAL/MOL
REMARK 924 INTRA-LIGAND FREE ENERGY PREDICTED BY IDOCK:   -0.55 KCAL/MOL
REMARK 927      BINDING AFFINITY PREDICTED BY RF-SCORE:    0.00 PKD
ROOT
HETATM    1  C   UNL     1     -12.499  11.970  63.232  1.00  0.00    -0.544 C  
HETATM    2  C   UNL     1     -11.152  11.797  63.932  1.00  0.00    -0.408 C  
ENDROOT
BRANCH   2   3
HETATM    3  N   UNL     1     -10.630  13.002  64.612  1.00  0.00    -0.356 NA 
BRANCH   3   4
HETATM    4  C   UNL     1     -11.534  14.160  64.545  1.00  0.00    -0.372 C  
HETATM    5  C   UNL     1     -10.944  15.498  64.978  1.00  0.00    -0.454 C  
ENDBRANCH   3   4
BRANCH   3   6
HETATM    6  C   UNL     1     -10.211  12.640  65.986  1.00  0.00    -0.272 C  
BRANCH   6   7
HETATM    7  C   UNL     1     -10.993  11.494  66.650  1.00  0.00    -0.349 C  
BRANCH   7   8
HETATM    8  C   UNL     1     -11.522  11.894  67.984  1.00  0.00    -0.323 A  
HETATM    9  N   UNL     1     -11.597  13.080  68.551  1.00  0.00    -0.305 NA 
HETATM   10  C   UNL     1     -12.112  12.783  69.801  1.00  0.00    -0.237 A  
HETATM   11  N   UNL     1     -12.369  11.475  69.976  1.00  0.00    -0.246 NA 
HETATM   12  O   UNL     1     -11.966  10.888  68.784  1.00  0.00    -0.441 OA 
BRANCH  10  13
HETATM   13  C   UNL     1     -12.320  13.784  70.849  1.00  0.00    -0.456 A  
HETATM   14  C   UNL     1     -11.603  14.989  70.859  1.00  0.00    -0.364 A  
HETATM   15  C   UNL     1     -11.789  15.919  71.891  1.00  0.00    -0.595 A  
HETATM   16  C   UNL     1     -12.694  15.657  72.919  1.00  0.00    -0.559 A  
HETATM   17  C   UNL     1     -13.423  14.471  72.914  1.00  0.00    -0.525 A  
HETATM   18  C   UNL     1     -13.239  13.543  71.886  1.00  0.00    -0.510 A  
ENDBRANCH  10  13
ENDBRANCH   7   8
ENDBRANCH   6   7
ENDBRANCH   3   6
ENDBRANCH   2   3
TORSDOF 6
ENDMDL
MODEL       17
REMARK 921   NORMALIZED FREE ENERGY PREDICTED BY IDOCK:   -5.43 KCAL/MOL
REMARK 922        TOTAL FREE ENERGY PREDICTED BY IDOCK:   -7.87 KCAL/MOL
REMARK 923 INTER-LIGAND FREE ENERGY PREDICTED BY IDOCK:   -7.26 KCAL/MOL
REMARK 924 INTRA-LIGAND FREE ENERGY PREDICTED BY IDOCK:   -0.61 KCAL/MOL
REMARK 927      BINDING AFFINITY PREDICTED BY RF-SCORE:    0.00 PKD
ROOT
HETATM    1  C   UNL     1     -12.497  12.069  63.408  1.00  0.00    -0.625 C  
HETATM    2  C   UNL     1     -11.121  12.589  63.819  1.00  0.00    -0.448 C  
ENDROOT
BRANCH   2   3
HETATM    3  N   UNL     1     -10.955  12.879  65.259  1.00  0.00    -0.279 NA 
BRANCH   3   4
HETATM    4  C   UNL     1     -10.450  11.739  66.040  1.00  0.00    -0.246 C  
HETATM    5  C   UNL     1     -11.218  11.403  67.314  1.00  0.00    -0.370 C  
ENDBRANCH   3   4
BRANCH   3   6
HETATM    6  C   UNL     1     -10.160  14.119  65.416  1.00  0.00    -0.333 C  
BRANCH   6   7
HETATM    7  C   UNL     1     -10.958  15.396  65.733  1.00  0.00    -0.311 C  
BRANCH   7   8
HETATM    8  C   UNL     1     -11.067  15.622  67.201  1.00  0.00    -0.218 A  
HETATM    9  N   UNL     1     -11.621  14.883  68.139  1.00  0.00    -0.328 NA 
HETATM   10  C   UNL     1     -11.458  15.662  69.271  1.00  0.00    -0.362 A  
HETATM   11  N   UNL     1     -10.804  16.813  69.037  1.00  0.00    -0.314 NA 
HETATM   12  O   UNL     1     -10.560  16.794  67.671  1.00  0.00    -0.324 OA 
BRANCH  10  13
HETATM   13  C   UNL     1     -11.979  15.294  70.589  1.00  0.00    -0.386 A  
HETATM   14  C   UNL     1     -12.768  14.149  70.767  1.00  0.00    -0.414 A  
HETATM   15  C   UNL     1     -13.289  13.833  72.028  1.00  0.00    -0.536 A  
HETATM   16  C   UNL     1     -13.025  14.653  73.124  1.00  0.00    -0.605 A  
HETATM   17  C   UNL     1     -12.232  15.786  72.965  1.00  0.00    -0.593 A  
HETATM   18  C   UNL     1     -11.711  16.103  71.707  1.00  0.00    -0.568 A  
ENDBRANCH  10  13
ENDBRANCH   7   8
ENDBRANCH   6   7
ENDBRANCH   3   6
ENDBRANCH   2   3
TORSDOF 6
ENDMDL
MODEL       18
REMARK 921   NORMALIZED FREE ENERGY PREDICTED BY IDOCK:   -5.43 KCAL/MOL
REMARK 922        TOTAL FREE ENERGY PREDICTED BY IDOCK:   -7.86 KCAL/MOL
REMARK 923 INTER-LIGAND FREE ENERGY PREDICTED BY IDOCK:   -7.34 KCAL/MOL
REMARK 924 INTRA-LIGAND FREE ENERGY PREDICTED BY IDOCK:   -0.52 KCAL/MOL
REMARK 927      BINDING AFFINITY PREDICTED BY RF-SCORE:    0.00 PKD
ROOT
HETATM    1  C   UNL     1     -10.629  19.191  67.607  1.00  0.00    -0.546 C  
HETATM    2  C   UNL     1     -10.322  18.579  66.242  1.00  0.00    -0.427 C  
ENDROOT
BRANCH   2   3
HETATM    3  N   UNL     1      -8.940  18.085  66.063  1.00  0.00    -0.513 NA 
BRANCH   3   4
HETATM    4  C   UNL     1      -7.913  18.981  66.618  1.00  0.00    -0.271 C  
HETATM    5  C   UNL     1      -7.233  19.919  65.626  1.00  0.00    -0.331 C  
ENDBRANCH   3   4
BRANCH   3   6
HETATM    6  C   UNL     1      -8.855  16.690  66.556  1.00  0.00    -0.279 C  
BRANCH   6   7
HETATM    7  C   UNL     1      -9.958  15.735  66.069  1.00  0.00    -0.358 C  
BRANCH   7   8
HETATM    8  C   UNL     1     -10.802  15.254  67.199  1.00  0.00    -0.322 A  
HETATM    9  N   UNL     1     -10.881  15.675  68.443  1.00  0.00    -0.277 NA 
HETATM   10  C   UNL     1     -11.781  14.785  69.005  1.00  0.00    -0.312 A  
HETATM   11  N   UNL     1     -12.253  13.880  68.130  1.00  0.00    -0.263 NA 
HETATM   12  O   UNL     1     -11.596  14.179  66.944  1.00  0.00    -0.351 OA 
BRANCH  10  13
HETATM   13  C   UNL     1     -12.155  14.797  70.420  1.00  0.00    -0.381 A  
HETATM   14  C   UNL     1     -12.913  13.761  70.984  1.00  0.00    -0.324 A  
HETATM   15  C   UNL     1     -13.293  13.809  72.331  1.00  0.00    -0.635 A  
HETATM   16  C   UNL     1     -12.918  14.889  73.130  1.00  0.00    -0.627 A  
HETATM   17  C   UNL     1     -12.154  15.919  72.587  1.00  0.00    -0.615 A  
HETATM   18  C   UNL     1     -11.774  15.872  71.243  1.00  0.00    -0.504 A  
ENDBRANCH  10  13
ENDBRANCH   7   8
ENDBRANCH   6   7
ENDBRANCH   3   6
ENDBRANCH   2   3
TORSDOF 6
ENDMDL
MODEL       19
REMARK 921   NORMALIZED FREE ENERGY PREDICTED BY IDOCK:   -5.42 KCAL/MOL
REMARK 922        TOTAL FREE ENERGY PREDICTED BY IDOCK:   -7.85 KCAL/MOL
REMARK 923 INTER-LIGAND FREE ENERGY PREDICTED BY IDOCK:   -7.22 KCAL/MOL
REMARK 924 INTRA-LIGAND FREE ENERGY PREDICTED BY IDOCK:   -0.63 KCAL/MOL
REMARK 927      BINDING AFFINITY PREDICTED BY RF-SCORE:    0.00 PKD
ROOT
HETATM    1  C   UNL     1      -9.250  11.374  65.834  1.00  0.00    -0.231 C  
HETATM    2  C   UNL     1     -10.225  11.631  64.686  1.00  0.00    -0.281 C  
ENDROOT
BRANCH   2   3
HETATM    3  N   UNL     1     -10.676  13.031  64.537  1.00  0.00    -0.362 NA 
BRANCH   3   4
HETATM    4  C   UNL     1     -11.935  13.173  63.791  1.00  0.00    -0.508 C  
HETATM    5  C   UNL     1     -12.609  11.876  63.355  1.00  0.00    -0.555 C  
ENDBRANCH   3   4
BRANCH   3   6
HETATM    6  C   UNL     1     -10.685  13.683  65.868  1.00  0.00    -0.281 C  
BRANCH   6   7
HETATM    7  C   UNL     1     -12.051  13.758  66.573  1.00  0.00    -0.483 C  
BRANCH   7   8
HETATM    8  C   UNL     1     -11.999  13.146  67.930  1.00  0.00    -0.303 A  
HETATM    9  N   UNL     1     -11.940  11.883  68.295  1.00  0.00    -0.493 NA 
HETATM   10  C   UNL     1     -11.989  11.966  69.676  1.00  0.00    -0.298 A  
HETATM   11  N   UNL     1     -12.043  13.229  70.133  1.00  0.00    -0.348 NA 
HETATM   12  O   UNL     1     -12.065  14.006  68.982  1.00  0.00    -0.346 OA 
BRANCH  10  13
HETATM   13  C   UNL     1     -12.019  10.797  70.556  1.00  0.00    -0.456 A  
HETATM   14  C   UNL     1     -10.952   9.889  70.600  1.00  0.00    -0.405 A  
HETATM   15  C   UNL     1     -11.015   8.756  71.421  1.00  0.00    -0.360 A  
HETATM   16  C   UNL     1     -12.141   8.519  72.208  1.00  0.00    -0.455 A  
HETATM   17  C   UNL     1     -13.203   9.419  72.185  1.00  0.00    -0.541 A  
HETATM   18  C   UNL     1     -13.141  10.551  71.366  1.00  0.00    -0.509 A  
ENDBRANCH  10  13
ENDBRANCH   7   8
ENDBRANCH   6   7
ENDBRANCH   3   6
ENDBRANCH   2   3
TORSDOF 6
ENDMDL
MODEL       20
REMARK 921   NORMALIZED FREE ENERGY PREDICTED BY IDOCK:   -5.40 KCAL/MOL
REMARK 922        TOTAL FREE ENERGY PREDICTED BY IDOCK:   -7.82 KCAL/MOL
REMARK 923 INTER-LIGAND FREE ENERGY PREDICTED BY IDOCK:   -7.26 KCAL/MOL
REMARK 924 INTRA-LIGAND FREE ENERGY PREDICTED BY IDOCK:   -0.57 KCAL/MOL
REMARK 927      BINDING AFFINITY PREDICTED BY RF-SCORE:    0.00 PKD
ROOT
HETATM    1  C   UNL     1      -9.596  11.128  62.974  1.00  0.00    -0.389 C  
HETATM    2  C   UNL     1     -10.062  10.951  64.418  1.00  0.00    -0.339 C  
ENDROOT
BRANCH   2   3
HETATM    3  N   UNL     1     -11.124  11.879  64.862  1.00  0.00    -0.310 NA 
BRANCH   3   4
HETATM    4  C   UNL     1     -11.199  12.041  66.322  1.00  0.00    -0.342 C  
HETATM    5  C   UNL     1      -9.870  12.016  67.070  1.00  0.00    -0.205 C  
ENDBRANCH   3   4
BRANCH   3   6
HETATM    6  C   UNL     1     -10.997  13.154  64.117  1.00  0.00    -0.390 C  
BRANCH   6   7
HETATM    7  C   UNL     1     -12.081  14.210  64.398  1.00  0.00    -0.486 C  
BRANCH   7   8
HETATM    8  C   UNL     1     -11.484  15.500  64.844  1.00  0.00    -0.279 A  
HETATM    9  N   UNL     1     -10.803  15.794  65.931  1.00  0.00    -0.303 NA 
HETATM   10  C   UNL     1     -10.593  17.156  65.795  1.00  0.00    -0.195 A  
HETATM   11  N   UNL     1     -11.098  17.663  64.657  1.00  0.00    -0.587 NA 
HETATM   12  O   UNL     1     -11.698  16.574  64.037  1.00  0.00    -1.111 OA 
BRANCH  10  13
HETATM   13  C   UNL     1      -9.924  17.977  66.806  1.00  0.00    -0.346 A  
HETATM   14  C   UNL     1      -8.559  17.821  67.085  1.00  0.00    -0.242 A  
HETATM   15  C   UNL     1      -7.945  18.589  68.082  1.00  0.00    -0.308 A  
HETATM   16  C   UNL     1      -8.685  19.523  68.808  1.00  0.00    -0.342 A  
HETATM   17  C   UNL     1     -10.038  19.698  68.532  1.00  0.00    -0.557 A  
HETATM   18  C   UNL     1     -10.652  18.932  67.537  1.00  0.00    -0.524 A  
ENDBRANCH  10  13
ENDBRANCH   7   8
ENDBRANCH   6   7
ENDBRANCH   3   6
ENDBRANCH   2   3
TORSDOF 6
ENDMDL
MODEL       21
REMARK 921   NORMALIZED FREE ENERGY PREDICTED BY IDOCK:   -5.39 KCAL/MOL
REMARK 922        TOTAL FREE ENERGY PREDICTED BY IDOCK:   -7.81 KCAL/MOL
REMARK 923 INTER-LIGAND FREE ENERGY PREDICTED BY IDOCK:   -7.33 KCAL/MOL
REMARK 924 INTRA-LIGAND FREE ENERGY PREDICTED BY IDOCK:   -0.48 KCAL/MOL
REMARK 927      BINDING AFFINITY PREDICTED BY RF-SCORE:    0.00 PKD
ROOT
HETATM    1  C   UNL     1     -14.394   7.947  71.817  1.00  0.00    -0.589 C  
HETATM    2  C   UNL     1     -13.665   9.268  72.052  1.00  0.00    -0.428 C  
ENDROOT
BRANCH   2   3
HETATM    3  N   UNL     1     -12.194   9.172  72.166  1.00  0.00    -0.360 NA 
BRANCH   3   4
HETATM    4  C   UNL     1     -11.681   7.796  72.087  1.00  0.00    -0.320 C  
HETATM    5  C   UNL     1     -10.985   7.411  70.786  1.00  0.00    -0.272 C  
ENDBRANCH   3   4
BRANCH   3   6
HETATM    6  C   UNL     1     -11.570  10.107  71.200  1.00  0.00    -0.346 C  
BRANCH   6   7
HETATM    7  C   UNL     1     -12.326  11.423  70.950  1.00  0.00    -0.483 C  
BRANCH   7   8
HETATM    8  C   UNL     1     -12.133  11.907  69.554  1.00  0.00    -0.226 A  
HETATM    9  N   UNL     1     -11.986  11.236  68.432  1.00  0.00    -0.603 NA 
HETATM   10  C   UNL     1     -11.780  12.244  67.505  1.00  0.00    -0.332 A  
HETATM   11  N   UNL     1     -11.830  13.477  68.037  1.00  0.00    -0.360 NA 
HETATM   12  O   UNL     1     -12.048  13.255  69.390  1.00  0.00    -0.300 OA 
BRANCH  10  13
HETATM   13  C   UNL     1     -11.493  11.995  66.091  1.00  0.00    -0.401 A  
HETATM   14  C   UNL     1     -10.494  11.095  65.696  1.00  0.00    -0.308 A  
HETATM   15  C   UNL     1     -10.208  10.899  64.339  1.00  0.00    -0.423 A  
HETATM   16  C   UNL     1     -10.920  11.596  63.362  1.00  0.00    -0.442 A  
HETATM   17  C   UNL     1     -11.924  12.483  63.739  1.00  0.00    -0.598 A  
HETATM   18  C   UNL     1     -12.210  12.680  65.093  1.00  0.00    -0.539 A  
ENDBRANCH  10  13
ENDBRANCH   7   8
ENDBRANCH   6   7
ENDBRANCH   3   6
ENDBRANCH   2   3
TORSDOF 6
ENDMDL
MODEL       22
REMARK 921   NORMALIZED FREE ENERGY PREDICTED BY IDOCK:   -5.38 KCAL/MOL
REMARK 922        TOTAL FREE ENERGY PREDICTED BY IDOCK:   -7.79 KCAL/MOL
REMARK 923 INTER-LIGAND FREE ENERGY PREDICTED BY IDOCK:   -7.31 KCAL/MOL
REMARK 924 INTRA-LIGAND FREE ENERGY PREDICTED BY IDOCK:   -0.48 KCAL/MOL
REMARK 927      BINDING AFFINITY PREDICTED BY RF-SCORE:    0.00 PKD
ROOT
HETATM    1  C   UNL     1     -12.406  12.447  63.519  1.00  0.00    -0.648 C  
HETATM    2  C   UNL     1     -10.945  12.508  63.961  1.00  0.00    -0.398 C  
ENDROOT
BRANCH   2   3
HETATM    3  N   UNL     1     -10.460  11.334  64.717  1.00  0.00    -0.308 NA 
BRANCH   3   4
HETATM    4  C   UNL     1      -9.322  10.649  64.085  1.00  0.00    -0.258 C  
HETATM    5  C   UNL     1      -9.437  10.399  62.585  1.00  0.00    -0.324 C  
ENDBRANCH   3   4
BRANCH   3   6
HETATM    6  C   UNL     1     -10.222  11.728  66.126  1.00  0.00    -0.220 C  
BRANCH   6   7
HETATM    7  C   UNL     1     -11.398  11.512  67.094  1.00  0.00    -0.354 C  
BRANCH   7   8
HETATM    8  C   UNL     1     -11.627  12.709  67.951  1.00  0.00    -0.349 A  
HETATM    9  N   UNL     1     -11.874  12.800  69.240  1.00  0.00    -0.310 NA 
HETATM   10  C   UNL     1     -12.059  14.161  69.415  1.00  0.00    -0.328 A  
HETATM   11  N   UNL     1     -11.900  14.871  68.285  1.00  0.00    -0.310 NA 
HETATM   12  O   UNL     1     -11.631  13.913  67.317  1.00  0.00    -0.325 OA 
BRANCH  10  13
HETATM   13  C   UNL     1     -12.431  14.769  70.694  1.00  0.00    -0.407 A  
HETATM   14  C   UNL     1     -11.459  15.229  71.593  1.00  0.00    -0.471 A  
HETATM   15  C   UNL     1     -11.833  15.773  72.828  1.00  0.00    -0.584 A  
HETATM   16  C   UNL     1     -13.180  15.868  73.177  1.00  0.00    -0.692 A  
HETATM   17  C   UNL     1     -14.157  15.428  72.288  1.00  0.00    -0.660 A  
HETATM   18  C   UNL     1     -13.785  14.885  71.055  1.00  0.00    -0.367 A  
ENDBRANCH  10  13
ENDBRANCH   7   8
ENDBRANCH   6   7
ENDBRANCH   3   6
ENDBRANCH   2   3
TORSDOF 6
ENDMDL
MODEL       23
REMARK 921   NORMALIZED FREE ENERGY PREDICTED BY IDOCK:   -5.36 KCAL/MOL
REMARK 922        TOTAL FREE ENERGY PREDICTED BY IDOCK:   -7.76 KCAL/MOL
REMARK 923 INTER-LIGAND FREE ENERGY PREDICTED BY IDOCK:   -7.49 KCAL/MOL
REMARK 924 INTRA-LIGAND FREE ENERGY PREDICTED BY IDOCK:   -0.28 KCAL/MOL
REMARK 927      BINDING AFFINITY PREDICTED BY RF-SCORE:    0.00 PKD
ROOT
HETATM    1  C   UNL     1     -11.565  11.970  68.947  1.00  0.00    -0.377 C  
HETATM    2  C   UNL     1     -11.864  12.969  67.831  1.00  0.00    -0.343 C  
ENDROOT
BRANCH   2   3
HETATM    3  N   UNL     1     -11.272  12.648  66.515  1.00  0.00    -0.281 NA 
BRANCH   3   4
HETATM    4  C   UNL     1     -10.692  11.299  66.437  1.00  0.00    -0.267 C  
HETATM    5  C   UNL     1      -9.366  11.178  65.694  1.00  0.00    -0.243 C  
ENDBRANCH   3   4
BRANCH   3   6
HETATM    6  C   UNL     1     -12.261  12.943  65.451  1.00  0.00    -0.478 C  
BRANCH   6   7
HETATM    7  C   UNL     1     -11.750  13.784  64.269  1.00  0.00    -0.426 C  
BRANCH   7   8
HETATM    8  C   UNL     1     -11.319  15.141  64.709  1.00  0.00    -0.395 A  
HETATM    9  N   UNL     1     -10.646  15.517  65.775  1.00  0.00    -0.337 NA 
HETATM   10  C   UNL     1     -10.629  16.896  65.648  1.00  0.00    -0.221 A  
HETATM   11  N   UNL     1     -11.240  17.337  64.535  1.00  0.00    -0.924 NA 
HETATM   12  O   UNL     1     -11.708  16.181  63.924  1.00  0.00    -0.860 OA 
BRANCH  10  13
HETATM   13  C   UNL     1     -10.042  17.793  66.645  1.00  0.00    -0.350 A  
HETATM   14  C   UNL     1      -8.870  17.450  67.334  1.00  0.00    -0.230 A  
HETATM   15  C   UNL     1      -8.344  18.305  68.312  1.00  0.00    -0.316 A  
HETATM   16  C   UNL     1      -8.979  19.510  68.608  1.00  0.00    -0.386 A  
HETATM   17  C   UNL     1     -10.137  19.870  67.923  1.00  0.00    -0.571 A  
HETATM   18  C   UNL     1     -10.663  19.018  66.947  1.00  0.00    -0.484 A  
ENDBRANCH  10  13
ENDBRANCH   7   8
ENDBRANCH   6   7
ENDBRANCH   3   6
ENDBRANCH   2   3
TORSDOF 6
ENDMDL
MODEL       24
REMARK 921   NORMALIZED FREE ENERGY PREDICTED BY IDOCK:   -5.30 KCAL/MOL
REMARK 922        TOTAL FREE ENERGY PREDICTED BY IDOCK:   -7.68 KCAL/MOL
REMARK 923 INTER-LIGAND FREE ENERGY PREDICTED BY IDOCK:   -7.08 KCAL/MOL
REMARK 924 INTRA-LIGAND FREE ENERGY PREDICTED BY IDOCK:   -0.61 KCAL/MOL
REMARK 927      BINDING AFFINITY PREDICTED BY RF-SCORE:    0.00 PKD
ROOT
HETATM    1  C   UNL     1      -6.690  19.779  69.200  1.00  0.00    -0.381 C  
HETATM    2  C   UNL     1      -6.602  20.490  67.851  1.00  0.00    -0.308 C  
ENDROOT
BRANCH   2   3
HETATM    3  N   UNL     1      -7.544  20.011  66.817  1.00  0.00    -0.265 NA 
BRANCH   3   4
HETATM    4  C   UNL     1      -6.918  19.162  65.792  1.00  0.00    -0.275 C  
HETATM    5  C   UNL     1      -6.733  17.693  66.157  1.00  0.00    -0.321 C  
ENDBRANCH   3   4
BRANCH   3   6
HETATM    6  C   UNL     1      -8.718  19.395  67.478  1.00  0.00    -0.304 C  
BRANCH   6   7
HETATM    7  C   UNL     1     -10.059  19.531  66.735  1.00  0.00    -0.519 C  
BRANCH   7   8
HETATM    8  C   UNL     1     -10.510  18.225  66.178  1.00  0.00    -0.383 A  
HETATM    9  N   UNL     1     -10.610  17.043  66.750  1.00  0.00    -0.245 NA 
HETATM   10  C   UNL     1     -11.014  16.235  65.700  1.00  0.00    -0.106 A  
HETATM   11  N   UNL     1     -11.182  16.904  64.546  1.00  0.00    -1.066 NA 
HETATM   12  O   UNL     1     -10.836  18.212  64.858  1.00  0.00    -0.666 OA 
BRANCH  10  13
HETATM   13  C   UNL     1     -11.201  14.788  65.819  1.00  0.00    -0.337 A  
HETATM   14  C   UNL     1     -12.165  14.112  65.059  1.00  0.00    -0.450 A  
HETATM   15  C   UNL     1     -12.356  12.733  65.213  1.00  0.00    -0.546 A  
HETATM   16  C   UNL     1     -11.583  12.015  66.126  1.00  0.00    -0.371 A  
HETATM   17  C   UNL     1     -10.613  12.670  66.878  1.00  0.00    -0.256 A  
HETATM   18  C   UNL     1     -10.422  14.046  66.724  1.00  0.00    -0.277 A  
ENDBRANCH  10  13
ENDBRANCH   7   8
ENDBRANCH   6   7
ENDBRANCH   3   6
ENDBRANCH   2   3
TORSDOF 6
ENDMDL
MODEL       25
REMARK 921   NORMALIZED FREE ENERGY PREDICTED BY IDOCK:   -5.29 KCAL/MOL
REMARK 922        TOTAL FREE ENERGY PREDICTED BY IDOCK:   -7.67 KCAL/MOL
REMARK 923 INTER-LIGAND FREE ENERGY PREDICTED BY IDOCK:   -7.26 KCAL/MOL
REMARK 924 INTRA-LIGAND FREE ENERGY PREDICTED BY IDOCK:   -0.41 KCAL/MOL
REMARK 927      BINDING AFFINITY PREDICTED BY RF-SCORE:    0.00 PKD
ROOT
HETATM    1  C   UNL     1     -11.375  16.192  64.359  1.00  0.00    -0.210 C  
HETATM    2  C   UNL     1     -11.058  14.739  64.708  1.00  0.00    -0.383 C  
ENDROOT
BRANCH   2   3
HETATM    3  N   UNL     1     -12.205  13.808  64.659  1.00  0.00    -0.468 NA 
BRANCH   3   4
HETATM    4  C   UNL     1     -12.124  12.822  63.571  1.00  0.00    -0.559 C  
HETATM    5  C   UNL     1     -10.903  11.908  63.582  1.00  0.00    -0.510 C  
ENDBRANCH   3   4
BRANCH   3   6
HETATM    6  C   UNL     1     -12.405  13.212  66.001  1.00  0.00    -0.359 C  
BRANCH   6   7
HETATM    7  C   UNL     1     -11.928  14.060  67.193  1.00  0.00    -0.465 C  
BRANCH   7   8
HETATM    8  C   UNL     1     -11.985  13.291  68.468  1.00  0.00    -0.304 A  
HETATM    9  N   UNL     1     -11.770  12.014  68.704  1.00  0.00    -0.309 NA 
HETATM   10  C   UNL     1     -12.048  11.908  70.057  1.00  0.00    -0.291 A  
HETATM   11  N   UNL     1     -12.386  13.078  70.625  1.00  0.00    -0.347 NA 
HETATM   12  O   UNL     1     -12.360  13.987  69.576  1.00  0.00    -0.332 OA 
BRANCH  10  13
HETATM   13  C   UNL     1     -12.016  10.643  70.792  1.00  0.00    -0.477 A  
HETATM   14  C   UNL     1     -13.106  10.223  71.568  1.00  0.00    -0.534 A  
HETATM   15  C   UNL     1     -13.043   9.027  72.295  1.00  0.00    -0.508 A  
HETATM   16  C   UNL     1     -11.895   8.237  72.252  1.00  0.00    -0.451 A  
HETATM   17  C   UNL     1     -10.810   8.635  71.475  1.00  0.00    -0.352 A  
HETATM   18  C   UNL     1     -10.871   9.828  70.749  1.00  0.00    -0.403 A  
ENDBRANCH  10  13
ENDBRANCH   7   8
ENDBRANCH   6   7
ENDBRANCH   3   6
ENDBRANCH   2   3
TORSDOF 6
ENDMDL
MODEL       26
REMARK 921   NORMALIZED FREE ENERGY PREDICTED BY IDOCK:   -5.29 KCAL/MOL
REMARK 922        TOTAL FREE ENERGY PREDICTED BY IDOCK:   -7.67 KCAL/MOL
REMARK 923 INTER-LIGAND FREE ENERGY PREDICTED BY IDOCK:   -7.18 KCAL/MOL
REMARK 924 INTRA-LIGAND FREE ENERGY PREDICTED BY IDOCK:   -0.49 KCAL/MOL
REMARK 927      BINDING AFFINITY PREDICTED BY RF-SCORE:    0.00 PKD
ROOT
HETATM    1  C   UNL     1     -10.486  16.109  65.106  1.00  0.00    -0.295 C  
HETATM    2  C   UNL     1     -10.535  14.583  65.100  1.00  0.00    -0.416 C  
ENDROOT
BRANCH   2   3
HETATM    3  N   UNL     1     -11.832  13.989  64.709  1.00  0.00    -0.381 NA 
BRANCH   3   4
HETATM    4  C   UNL     1     -11.709  12.827  63.818  1.00  0.00    -0.493 C  
HETATM    5  C   UNL     1     -10.325  12.191  63.729  1.00  0.00    -0.465 C  
ENDBRANCH   3   4
BRANCH   3   6
HETATM    6  C   UNL     1     -12.636  13.734  65.928  1.00  0.00    -0.447 C  
BRANCH   6   7
HETATM    7  C   UNL     1     -11.880  13.822  67.265  1.00  0.00    -0.436 C  
BRANCH   7   8
HETATM    8  C   UNL     1     -11.780  12.490  67.925  1.00  0.00    -0.359 A  
HETATM    9  N   UNL     1     -11.812  12.165  69.200  1.00  0.00    -0.312 NA 
HETATM   10  C   UNL     1     -11.600  10.797  69.166  1.00  0.00    -0.305 A  
HETATM   11  N   UNL     1     -11.476  10.306  67.921  1.00  0.00    -0.314 NA 
HETATM   12  O   UNL     1     -11.579  11.424  67.103  1.00  0.00    -0.519 OA 
BRANCH  10  13
HETATM   13  C   UNL     1     -11.482   9.967  70.366  1.00  0.00    -0.389 A  
HETATM   14  C   UNL     1     -10.236   9.507  70.815  1.00  0.00    -0.363 A  
HETATM   15  C   UNL     1     -10.146   8.683  71.944  1.00  0.00    -0.398 A  
HETATM   16  C   UNL     1     -11.298   8.313  72.639  1.00  0.00    -0.421 A  
HETATM   17  C   UNL     1     -12.540   8.773  72.213  1.00  0.00    -0.460 A  
HETATM   18  C   UNL     1     -12.631   9.596  71.086  1.00  0.00    -0.411 A  
ENDBRANCH  10  13
ENDBRANCH   7   8
ENDBRANCH   6   7
ENDBRANCH   3   6
ENDBRANCH   2   3
TORSDOF 6
ENDMDL
MODEL       27
REMARK 921   NORMALIZED FREE ENERGY PREDICTED BY IDOCK:   -5.28 KCAL/MOL
REMARK 922        TOTAL FREE ENERGY PREDICTED BY IDOCK:   -7.66 KCAL/MOL
REMARK 923 INTER-LIGAND FREE ENERGY PREDICTED BY IDOCK:   -7.20 KCAL/MOL
REMARK 924 INTRA-LIGAND FREE ENERGY PREDICTED BY IDOCK:   -0.45 KCAL/MOL
REMARK 927      BINDING AFFINITY PREDICTED BY RF-SCORE:    0.00 PKD
ROOT
HETATM    1  C   UNL     1     -10.765  19.247  67.148  1.00  0.00    -0.584 C  
HETATM    2  C   UNL     1      -9.974  18.019  67.593  1.00  0.00    -0.329 C  
ENDROOT
BRANCH   2   3
HETATM    3  N   UNL     1     -10.566  16.714  67.229  1.00  0.00    -0.310 NA 
BRANCH   3   4
HETATM    4  C   UNL     1      -9.994  16.121  66.011  1.00  0.00    -0.348 C  
HETATM    5  C   UNL     1     -10.981  15.786  64.898  1.00  0.00    -0.443 C  
ENDBRANCH   3   4
BRANCH   3   6
HETATM    6  C   UNL     1     -10.534  15.820  68.410  1.00  0.00    -0.245 C  
BRANCH   6   7
HETATM    7  C   UNL     1     -11.902  15.383  68.963  1.00  0.00    -0.357 C  
BRANCH   7   8
HETATM    8  C   UNL     1     -11.972  13.906  69.142  1.00  0.00    -0.363 A  
HETATM    9  N   UNL     1     -12.079  13.184  70.238  1.00  0.00    -0.356 NA 
HETATM   10  C   UNL     1     -12.021  11.889  69.751  1.00  0.00    -0.307 A  
HETATM   11  N   UNL     1     -11.915  11.826  68.412  1.00  0.00    -0.490 NA 
HETATM   12  O   UNL     1     -11.867  13.155  68.013  1.00  0.00    -0.348 OA 
BRANCH  10  13
HETATM   13  C   UNL     1     -12.033  10.702  70.607  1.00  0.00    -0.466 A  
HETATM   14  C   UNL     1     -13.131  10.405  71.427  1.00  0.00    -0.512 A  
HETATM   15  C   UNL     1     -13.109   9.285  72.268  1.00  0.00    -0.517 A  
HETATM   16  C   UNL     1     -11.993   8.448  72.296  1.00  0.00    -0.455 A  
HETATM   17  C   UNL     1     -10.901   8.723  71.478  1.00  0.00    -0.374 A  
HETATM   18  C   UNL     1     -10.922   9.841  70.638  1.00  0.00    -0.398 A  
ENDBRANCH  10  13
ENDBRANCH   7   8
ENDBRANCH   6   7
ENDBRANCH   3   6
ENDBRANCH   2   3
TORSDOF 6
ENDMDL
MODEL       28
REMARK 921   NORMALIZED FREE ENERGY PREDICTED BY IDOCK:   -5.26 KCAL/MOL
REMARK 922        TOTAL FREE ENERGY PREDICTED BY IDOCK:   -7.63 KCAL/MOL
REMARK 923 INTER-LIGAND FREE ENERGY PREDICTED BY IDOCK:   -7.17 KCAL/MOL
REMARK 924 INTRA-LIGAND FREE ENERGY PREDICTED BY IDOCK:   -0.45 KCAL/MOL
REMARK 927      BINDING AFFINITY PREDICTED BY RF-SCORE:    0.00 PKD
ROOT
HETATM    1  C   UNL     1     -14.410   8.198  71.859  1.00  0.00    -0.566 C  
HETATM    2  C   UNL     1     -13.283   9.089  72.379  1.00  0.00    -0.447 C  
ENDROOT
BRANCH   2   3
HETATM    3  N   UNL     1     -11.919   8.537  72.237  1.00  0.00    -0.380 NA 
BRANCH   3   4
HETATM    4  C   UNL     1     -11.890   7.104  71.907  1.00  0.00    -0.300 C  
HETATM    5  C   UNL     1     -11.458   6.749  70.488  1.00  0.00    -0.413 C  
ENDBRANCH   3   4
BRANCH   3   6
HETATM    6  C   UNL     1     -11.145   9.389  71.303  1.00  0.00    -0.376 C  
BRANCH   6   7
HETATM    7  C   UNL     1     -11.870  10.637  70.770  1.00  0.00    -0.459 C  
BRANCH   7   8
HETATM    8  C   UNL     1     -11.395  11.003  69.406  1.00  0.00    -0.284 A  
HETATM    9  N   UNL     1     -12.051  11.506  68.381  1.00  0.00    -0.560 NA 
HETATM   10  C   UNL     1     -11.079  11.551  67.396  1.00  0.00    -0.282 A  
HETATM   11  N   UNL     1      -9.875  11.123  67.814  1.00  0.00    -0.169 NA 
HETATM   12  O   UNL     1     -10.087  10.748  69.133  1.00  0.00    -0.213 OA 
BRANCH  10  13
HETATM   13  C   UNL     1     -11.340  11.983  66.022  1.00  0.00    -0.398 A  
HETATM   14  C   UNL     1     -10.883  11.240  64.924  1.00  0.00    -0.299 A  
HETATM   15  C   UNL     1     -11.110  11.688  63.617  1.00  0.00    -0.506 A  
HETATM   16  C   UNL     1     -11.797  12.881  63.392  1.00  0.00    -0.576 A  
HETATM   17  C   UNL     1     -12.269  13.622  64.471  1.00  0.00    -0.444 A  
HETATM   18  C   UNL     1     -12.043  13.175  65.776  1.00  0.00    -0.502 A  
ENDBRANCH  10  13
ENDBRANCH   7   8
ENDBRANCH   6   7
ENDBRANCH   3   6
ENDBRANCH   2   3
TORSDOF 6
ENDMDL
MODEL       29
REMARK 921   NORMALIZED FREE ENERGY PREDICTED BY IDOCK:   -5.22 KCAL/MOL
REMARK 922        TOTAL FREE ENERGY PREDICTED BY IDOCK:   -7.58 KCAL/MOL
REMARK 923 INTER-LIGAND FREE ENERGY PREDICTED BY IDOCK:   -7.03 KCAL/MOL
REMARK 924 INTRA-LIGAND FREE ENERGY PREDICTED BY IDOCK:   -0.54 KCAL/MOL
REMARK 927      BINDING AFFINITY PREDICTED BY RF-SCORE:    0.00 PKD
ROOT
HETATM    1  C   UNL     1     -10.101  10.259  65.422  1.00  0.00    -0.354 C  
HETATM    2  C   UNL     1      -9.956  11.725  65.826  1.00  0.00    -0.238 C  
ENDROOT
BRANCH   2   3
HETATM    3  N   UNL     1     -10.811  12.677  65.085  1.00  0.00    -0.283 NA 
BRANCH   3   4
HETATM    4  C   UNL     1     -11.085  12.274  63.698  1.00  0.00    -0.469 C  
HETATM    5  C   UNL     1     -12.550  12.049  63.339  1.00  0.00    -0.592 C  
ENDBRANCH   3   4
BRANCH   3   6
HETATM    6  C   UNL     1     -12.027  12.961  65.883  1.00  0.00    -0.448 C  
BRANCH   6   7
HETATM    7  C   UNL     1     -11.822  13.088  67.403  1.00  0.00    -0.411 C  
BRANCH   7   8
HETATM    8  C   UNL     1     -11.600  14.505  67.807  1.00  0.00    -0.365 A  
HETATM    9  N   UNL     1     -11.108  15.518  67.127  1.00  0.00    -0.296 NA 
HETATM   10  C   UNL     1     -11.093  16.533  68.069  1.00  0.00    -0.275 A  
HETATM   11  N   UNL     1     -11.585  16.160  69.263  1.00  0.00    -0.309 NA 
HETATM   12  O   UNL     1     -11.905  14.819  69.095  1.00  0.00    -0.292 OA 
BRANCH  10  13
HETATM   13  C   UNL     1     -10.559  17.871  67.808  1.00  0.00    -0.399 A  
HETATM   14  C   UNL     1      -9.964  18.630  68.826  1.00  0.00    -0.427 A  
HETATM   15  C   UNL     1      -9.493  19.923  68.567  1.00  0.00    -0.335 A  
HETATM   16  C   UNL     1      -9.606  20.470  67.289  1.00  0.00    -0.580 A  
HETATM   17  C   UNL     1     -10.183  19.723  66.265  1.00  0.00    -0.615 A  
HETATM   18  C   UNL     1     -10.653  18.433  66.523  1.00  0.00    -0.344 A  
ENDBRANCH  10  13
ENDBRANCH   7   8
ENDBRANCH   6   7
ENDBRANCH   3   6
ENDBRANCH   2   3
TORSDOF 6
ENDMDL
MODEL       30
REMARK 921   NORMALIZED FREE ENERGY PREDICTED BY IDOCK:   -5.21 KCAL/MOL
REMARK 922        TOTAL FREE ENERGY PREDICTED BY IDOCK:   -7.57 KCAL/MOL
REMARK 923 INTER-LIGAND FREE ENERGY PREDICTED BY IDOCK:   -7.05 KCAL/MOL
REMARK 924 INTRA-LIGAND FREE ENERGY PREDICTED BY IDOCK:   -0.52 KCAL/MOL
REMARK 927      BINDING AFFINITY PREDICTED BY RF-SCORE:    0.00 PKD
ROOT
HETATM    1  C   UNL     1     -10.527  19.743  65.714  1.00  0.00    -0.545 C  
HETATM    2  C   UNL     1      -9.208  19.677  66.481  1.00  0.00    -0.378 C  
ENDROOT
BRANCH   2   3
HETATM    3  N   UNL     1      -8.277  18.611  66.055  1.00  0.00    -0.486 NA 
BRANCH   3   4
HETATM    4  C   UNL     1      -6.896  19.074  65.851  1.00  0.00    -0.264 C  
HETATM    5  C   UNL     1      -6.691  20.585  65.825  1.00  0.00    -0.254 C  
ENDBRANCH   3   4
BRANCH   3   6
HETATM    6  C   UNL     1      -8.398  17.461  66.983  1.00  0.00    -0.217 C  
BRANCH   6   7
HETATM    7  C   UNL     1      -9.015  17.767  68.359  1.00  0.00    -0.281 C  
BRANCH   7   8
HETATM    8  C   UNL     1     -10.156  16.858  68.660  1.00  0.00    -0.291 A  
HETATM    9  N   UNL     1     -10.665  16.482  69.815  1.00  0.00    -0.326 NA 
HETATM   10  C   UNL     1     -11.649  15.586  69.431  1.00  0.00    -0.355 A  
HETATM   11  N   UNL     1     -11.754  15.447  68.099  1.00  0.00    -0.324 NA 
HETATM   12  O   UNL     1     -10.760  16.273  67.591  1.00  0.00    -0.313 OA 
BRANCH  10  13
HETATM   13  C   UNL     1     -12.469  14.831  70.380  1.00  0.00    -0.405 A  
HETATM   14  C   UNL     1     -13.481  15.453  71.125  1.00  0.00    -0.565 A  
HETATM   15  C   UNL     1     -14.231  14.722  72.056  1.00  0.00    -0.626 A  
HETATM   16  C   UNL     1     -13.981  13.363  72.249  1.00  0.00    -0.605 A  
HETATM   17  C   UNL     1     -12.988  12.730  71.507  1.00  0.00    -0.388 A  
HETATM   18  C   UNL     1     -12.239  13.458  70.578  1.00  0.00    -0.425 A  
ENDBRANCH  10  13
ENDBRANCH   7   8
ENDBRANCH   6   7
ENDBRANCH   3   6
ENDBRANCH   2   3
TORSDOF 6
ENDMDL
MODEL       31
REMARK 921   NORMALIZED FREE ENERGY PREDICTED BY IDOCK:   -5.21 KCAL/MOL
REMARK 922        TOTAL FREE ENERGY PREDICTED BY IDOCK:   -7.56 KCAL/MOL
REMARK 923 INTER-LIGAND FREE ENERGY PREDICTED BY IDOCK:   -7.02 KCAL/MOL
REMARK 924 INTRA-LIGAND FREE ENERGY PREDICTED BY IDOCK:   -0.53 KCAL/MOL
REMARK 927      BINDING AFFINITY PREDICTED BY RF-SCORE:    0.00 PKD
ROOT
HETATM    1  C   UNL     1     -13.279  12.571  71.990  1.00  0.00    -0.524 C  
HETATM    2  C   UNL     1     -14.141  13.824  72.134  1.00  0.00    -0.511 C  
ENDROOT
BRANCH   2   3
HETATM    3  N   UNL     1     -13.461  15.102  71.834  1.00  0.00    -0.385 NA 
BRANCH   3   4
HETATM    4  C   UNL     1     -13.287  15.972  73.007  1.00  0.00    -0.501 C  
HETATM    5  C   UNL     1     -12.507  15.379  74.175  1.00  0.00    -0.785 C  
ENDBRANCH   3   4
BRANCH   3   6
HETATM    6  C   UNL     1     -12.206  14.823  71.097  1.00  0.00    -0.325 C  
BRANCH   6   7
HETATM    7  C   UNL     1     -12.085  15.464  69.704  1.00  0.00    -0.354 C  
BRANCH   7   8
HETATM    8  C   UNL     1     -11.857  14.437  68.648  1.00  0.00    -0.331 A  
HETATM    9  N   UNL     1     -11.384  13.212  68.738  1.00  0.00    -0.272 NA 
HETATM   10  C   UNL     1     -11.350  12.805  67.415  1.00  0.00    -0.313 A  
HETATM   11  N   UNL     1     -11.812  13.734  66.559  1.00  0.00    -0.383 NA 
HETATM   12  O   UNL     1     -12.132  14.814  67.370  1.00  0.00    -0.303 OA 
BRANCH  10  13
HETATM   13  C   UNL     1     -10.826  11.510  66.980  1.00  0.00    -0.320 A  
HETATM   14  C   UNL     1     -10.186  11.360  65.742  1.00  0.00    -0.295 A  
HETATM   15  C   UNL     1      -9.724  10.105  65.326  1.00  0.00    -0.365 A  
HETATM   16  C   UNL     1      -9.894   8.987  66.143  1.00  0.00    -0.349 A  
HETATM   17  C   UNL     1     -10.516   9.123  67.381  1.00  0.00    -0.339 A  
HETATM   18  C   UNL     1     -10.976  10.375  67.797  1.00  0.00    -0.369 A  
ENDBRANCH  10  13
ENDBRANCH   7   8
ENDBRANCH   6   7
ENDBRANCH   3   6
ENDBRANCH   2   3
TORSDOF 6
ENDMDL
MODEL       32
REMARK 921   NORMALIZED FREE ENERGY PREDICTED BY IDOCK:   -5.20 KCAL/MOL
REMARK 922        TOTAL FREE ENERGY PREDICTED BY IDOCK:   -7.55 KCAL/MOL
REMARK 923 INTER-LIGAND FREE ENERGY PREDICTED BY IDOCK:   -7.13 KCAL/MOL
REMARK 924 INTRA-LIGAND FREE ENERGY PREDICTED BY IDOCK:   -0.42 KCAL/MOL
REMARK 927      BINDING AFFINITY PREDICTED BY RF-SCORE:    0.00 PKD
ROOT
HETATM    1  C   UNL     1     -14.406   7.738  71.681  1.00  0.00    -0.607 C  
HETATM    2  C   UNL     1     -13.817   9.061  72.166  1.00  0.00    -0.466 C  
ENDROOT
BRANCH   2   3
HETATM    3  N   UNL     1     -12.347   9.083  72.324  1.00  0.00    -0.356 NA 
BRANCH   3   4
HETATM    4  C   UNL     1     -11.740   7.747  72.424  1.00  0.00    -0.341 C  
HETATM    5  C   UNL     1     -10.329   7.690  72.999  1.00  0.00    -0.393 C  
ENDBRANCH   3   4
BRANCH   3   6
HETATM    6  C   UNL     1     -11.758   9.938  71.266  1.00  0.00    -0.392 C  
BRANCH   6   7
HETATM    7  C   UNL     1     -12.435  11.301  71.046  1.00  0.00    -0.503 C  
BRANCH   7   8
HETATM    8  C   UNL     1     -12.092  11.873  69.714  1.00  0.00    -0.252 A  
HETATM    9  N   UNL     1     -11.630  13.062  69.390  1.00  0.00    -0.296 NA 
HETATM   10  C   UNL     1     -11.587  13.001  68.007  1.00  0.00    -0.343 A  
HETATM   11  N   UNL     1     -11.977  11.813  67.513  1.00  0.00    -0.607 NA 
HETATM   12  O   UNL     1     -12.324  11.075  68.637  1.00  0.00    -0.539 OA 
BRANCH  10  13
HETATM   13  C   UNL     1     -11.196  14.128  67.159  1.00  0.00    -0.330 A  
HETATM   14  C   UNL     1     -10.790  15.351  67.712  1.00  0.00    -0.302 A  
HETATM   15  C   UNL     1     -10.456  16.430  66.884  1.00  0.00    -0.289 A  
HETATM   16  C   UNL     1     -10.519  16.299  65.497  1.00  0.00    -0.383 A  
HETATM   17  C   UNL     1     -10.907  15.087  64.934  1.00  0.00    -0.430 A  
HETATM   18  C   UNL     1     -11.241  14.009  65.759  1.00  0.00    -0.303 A  
ENDBRANCH  10  13
ENDBRANCH   7   8
ENDBRANCH   6   7
ENDBRANCH   3   6
ENDBRANCH   2   3
TORSDOF 6
ENDMDL
MODEL       33
REMARK 921   NORMALIZED FREE ENERGY PREDICTED BY IDOCK:   -5.19 KCAL/MOL
REMARK 922        TOTAL FREE ENERGY PREDICTED BY IDOCK:   -7.53 KCAL/MOL
REMARK 923 INTER-LIGAND FREE ENERGY PREDICTED BY IDOCK:   -7.01 KCAL/MOL
REMARK 924 INTRA-LIGAND FREE ENERGY PREDICTED BY IDOCK:   -0.52 KCAL/MOL
REMARK 927      BINDING AFFINITY PREDICTED BY RF-SCORE:    0.00 PKD
ROOT
HETATM    1  C   UNL     1     -12.433  15.829  74.242  1.00  0.00    -0.800 C  
HETATM    2  C   UNL     1     -13.534  15.976  73.194  1.00  0.00    -0.504 C  
ENDROOT
BRANCH   2   3
HETATM    3  N   UNL     1     -13.129  15.690  71.801  1.00  0.00    -0.462 NA 
BRANCH   3   4
HETATM    4  C   UNL     1     -11.673  15.651  71.602  1.00  0.00    -0.446 C  
HETATM    5  C   UNL     1     -11.163  16.167  70.260  1.00  0.00    -0.389 C  
ENDBRANCH   3   4
BRANCH   3   6
HETATM    6  C   UNL     1     -13.836  14.475  71.330  1.00  0.00    -0.371 C  
BRANCH   6   7
HETATM    7  C   UNL     1     -13.783  13.257  72.269  1.00  0.00    -0.686 C  
BRANCH   7   8
HETATM    8  C   UNL     1     -13.003  12.139  71.668  1.00  0.00    -0.321 A  
HETATM    9  N   UNL     1     -12.137  12.139  70.677  1.00  0.00    -0.331 NA 
HETATM   10  C   UNL     1     -11.821  10.797  70.554  1.00  0.00    -0.356 A  
HETATM   11  N   UNL     1     -12.445  10.017  71.454  1.00  0.00    -0.378 NA 
HETATM   12  O   UNL     1     -13.236  10.899  72.178  1.00  0.00    -0.474 OA 
BRANCH  10  13
HETATM   13  C   UNL     1     -10.928  10.267  69.523  1.00  0.00    -0.300 A  
HETATM   14  C   UNL     1      -9.804   9.497  69.856  1.00  0.00    -0.254 A  
HETATM   15  C   UNL     1      -8.940   9.031  68.857  1.00  0.00    -0.140 A  
HETATM   16  C   UNL     1      -9.189   9.324  67.517  1.00  0.00    -0.140 A  
HETATM   17  C   UNL     1     -10.308  10.077  67.170  1.00  0.00    -0.300 A  
HETATM   18  C   UNL     1     -11.172  10.542  68.166  1.00  0.00    -0.357 A  
ENDBRANCH  10  13
ENDBRANCH   7   8
ENDBRANCH   6   7
ENDBRANCH   3   6
ENDBRANCH   2   3
TORSDOF 6
ENDMDL
MODEL       34
REMARK 921   NORMALIZED FREE ENERGY PREDICTED BY IDOCK:   -5.16 KCAL/MOL
REMARK 922        TOTAL FREE ENERGY PREDICTED BY IDOCK:   -7.49 KCAL/MOL
REMARK 923 INTER-LIGAND FREE ENERGY PREDICTED BY IDOCK:   -6.92 KCAL/MOL
REMARK 924 INTRA-LIGAND FREE ENERGY PREDICTED BY IDOCK:   -0.58 KCAL/MOL
REMARK 927      BINDING AFFINITY PREDICTED BY RF-SCORE:    0.00 PKD
ROOT
HETATM    1  C   UNL     1     -10.777  18.497  67.721  1.00  0.00    -0.378 C  
HETATM    2  C   UNL     1     -10.405  17.571  68.877  1.00  0.00    -0.338 C  
ENDROOT
BRANCH   2   3
HETATM    3  N   UNL     1     -11.165  16.304  68.948  1.00  0.00    -0.343 NA 
BRANCH   3   4
HETATM    4  C   UNL     1     -10.563  15.206  68.178  1.00  0.00    -0.246 C  
HETATM    5  C   UNL     1     -11.481  14.495  67.189  1.00  0.00    -0.383 C  
ENDBRANCH   3   4
BRANCH   3   6
HETATM    6  C   UNL     1     -11.427  15.974  70.369  1.00  0.00    -0.377 C  
BRANCH   6   7
HETATM    7  C   UNL     1     -12.875  15.585  70.715  1.00  0.00    -0.513 C  
BRANCH   7   8
HETATM    8  C   UNL     1     -12.960  14.183  71.212  1.00  0.00    -0.356 A  
HETATM    9  N   UNL     1     -12.389  13.084  70.766  1.00  0.00    -0.360 NA 
HETATM   10  C   UNL     1     -12.915  12.113  71.601  1.00  0.00    -0.321 A  
HETATM   11  N   UNL     1     -13.746  12.605  72.536  1.00  0.00    -0.397 NA 
HETATM   12  O   UNL     1     -13.787  13.967  72.270  1.00  0.00    -0.468 OA 
BRANCH  10  13
HETATM   13  C   UNL     1     -12.630  10.684  71.459  1.00  0.00    -0.517 A  
HETATM   14  C   UNL     1     -11.508  10.231  70.751  1.00  0.00    -0.438 A  
HETATM   15  C   UNL     1     -11.272   8.859  70.594  1.00  0.00    -0.308 A  
HETATM   16  C   UNL     1     -12.150   7.926  71.146  1.00  0.00    -0.294 A  
HETATM   17  C   UNL     1     -13.261   8.362  71.863  1.00  0.00    -0.381 A  
HETATM   18  C   UNL     1     -13.497   9.730  72.021  1.00  0.00    -0.498 A  
ENDBRANCH  10  13
ENDBRANCH   7   8
ENDBRANCH   6   7
ENDBRANCH   3   6
ENDBRANCH   2   3
TORSDOF 6
ENDMDL
MODEL       35
REMARK 921   NORMALIZED FREE ENERGY PREDICTED BY IDOCK:   -5.12 KCAL/MOL
REMARK 922        TOTAL FREE ENERGY PREDICTED BY IDOCK:   -7.45 KCAL/MOL
REMARK 923 INTER-LIGAND FREE ENERGY PREDICTED BY IDOCK:   -6.94 KCAL/MOL
REMARK 924 INTRA-LIGAND FREE ENERGY PREDICTED BY IDOCK:   -0.51 KCAL/MOL
REMARK 927      BINDING AFFINITY PREDICTED BY RF-SCORE:    0.00 PKD
ROOT
HETATM    1  C   UNL     1     -10.395   6.116  69.740  1.00  0.00    -0.269 C  
HETATM    2  C   UNL     1     -10.608   7.624  69.613  1.00  0.00    -0.243 C  
ENDROOT
BRANCH   2   3
HETATM    3  N   UNL     1     -11.523   8.222  70.609  1.00  0.00    -0.259 NA 
BRANCH   3   4
HETATM    4  C   UNL     1     -11.765   7.369  71.781  1.00  0.00    -0.286 C  
HETATM    5  C   UNL     1     -10.912   7.658  73.012  1.00  0.00    -0.457 C  
ENDBRANCH   3   4
BRANCH   3   6
HETATM    6  C   UNL     1     -11.052   9.588  70.942  1.00  0.00    -0.336 C  
BRANCH   6   7
HETATM    7  C   UNL     1     -12.104  10.706  70.845  1.00  0.00    -0.489 C  
BRANCH   7   8
HETATM    8  C   UNL     1     -11.986  11.457  69.564  1.00  0.00    -0.341 A  
HETATM    9  N   UNL     1     -12.015  11.030  68.319  1.00  0.00    -0.597 NA 
HETATM   10  C   UNL     1     -11.784  12.190  67.599  1.00  0.00    -0.316 A  
HETATM   11  N   UNL     1     -11.652  13.281  68.372  1.00  0.00    -0.314 NA 
HETATM   12  O   UNL     1     -11.771  12.797  69.667  1.00  0.00    -0.304 OA 
BRANCH  10  13
HETATM   13  C   UNL     1     -11.655  12.224  66.141  1.00  0.00    -0.450 A  
HETATM   14  C   UNL     1     -10.773  11.369  65.466  1.00  0.00    -0.313 A  
HETATM   15  C   UNL     1     -10.635  11.442  64.074  1.00  0.00    -0.444 A  
HETATM   16  C   UNL     1     -11.379  12.367  63.341  1.00  0.00    -0.507 A  
HETATM   17  C   UNL     1     -12.269  13.213  63.996  1.00  0.00    -0.482 A  
HETATM   18  C   UNL     1     -12.408  13.141  65.385  1.00  0.00    -0.532 A  
ENDBRANCH  10  13
ENDBRANCH   7   8
ENDBRANCH   6   7
ENDBRANCH   3   6
ENDBRANCH   2   3
TORSDOF 6
ENDMDL
MODEL       36
REMARK 921   NORMALIZED FREE ENERGY PREDICTED BY IDOCK:   -5.12 KCAL/MOL
REMARK 922        TOTAL FREE ENERGY PREDICTED BY IDOCK:   -7.44 KCAL/MOL
REMARK 923 INTER-LIGAND FREE ENERGY PREDICTED BY IDOCK:   -7.01 KCAL/MOL
REMARK 924 INTRA-LIGAND FREE ENERGY PREDICTED BY IDOCK:   -0.43 KCAL/MOL
REMARK 927      BINDING AFFINITY PREDICTED BY RF-SCORE:    0.00 PKD
ROOT
HETATM    1  C   UNL     1     -12.497  12.066  63.412  1.00  0.00    -0.625 C  
HETATM    2  C   UNL     1     -11.460  12.561  64.419  1.00  0.00    -0.349 C  
ENDROOT
BRANCH   2   3
HETATM    3  N   UNL     1     -11.997  12.973  65.734  1.00  0.00    -0.407 NA 
BRANCH   3   4
HETATM    4  C   UNL     1     -11.651  12.057  66.831  1.00  0.00    -0.318 C  
HETATM    5  C   UNL     1     -11.586  12.671  68.225  1.00  0.00    -0.377 C  
ENDBRANCH   3   4
BRANCH   3   6
HETATM    6  C   UNL     1     -11.628  14.386  65.987  1.00  0.00    -0.363 C  
BRANCH   6   7
HETATM    7  C   UNL     1     -10.684  15.031  64.958  1.00  0.00    -0.448 C  
BRANCH   7   8
HETATM    8  C   UNL     1     -10.202  16.364  65.418  1.00  0.00    -0.189 A  
HETATM    9  N   UNL     1      -9.101  16.699  66.057  1.00  0.00    -0.478 NA 
HETATM   10  C   UNL     1      -9.271  18.058  66.257  1.00  0.00    -0.187 A  
HETATM   11  N   UNL     1     -10.414  18.535  65.735  1.00  0.00    -0.628 NA 
HETATM   12  O   UNL     1     -11.035  17.416  65.195  1.00  0.00    -0.582 OA 
BRANCH  10  13
HETATM   13  C   UNL     1      -8.324  18.892  66.999  1.00  0.00    -0.287 A  
HETATM   14  C   UNL     1      -7.733  20.021  66.415  1.00  0.00    -0.324 A  
HETATM   15  C   UNL     1      -6.800  20.784  67.128  1.00  0.00    -0.395 A  
HETATM   16  C   UNL     1      -6.450  20.432  68.431  1.00  0.00    -0.340 A  
HETATM   17  C   UNL     1      -7.039  19.321  69.029  1.00  0.00    -0.391 A  
HETATM   18  C   UNL     1      -7.971  18.558  68.318  1.00  0.00    -0.325 A  
ENDBRANCH  10  13
ENDBRANCH   7   8
ENDBRANCH   6   7
ENDBRANCH   3   6
ENDBRANCH   2   3
TORSDOF 6
ENDMDL
MODEL       37
REMARK 921   NORMALIZED FREE ENERGY PREDICTED BY IDOCK:   -5.09 KCAL/MOL
REMARK 922        TOTAL FREE ENERGY PREDICTED BY IDOCK:   -7.41 KCAL/MOL
REMARK 923 INTER-LIGAND FREE ENERGY PREDICTED BY IDOCK:   -6.91 KCAL/MOL
REMARK 924 INTRA-LIGAND FREE ENERGY PREDICTED BY IDOCK:   -0.50 KCAL/MOL
REMARK 927      BINDING AFFINITY PREDICTED BY RF-SCORE:    0.00 PKD
ROOT
HETATM    1  C   UNL     1     -12.125  12.920  63.368  1.00  0.00    -0.610 C  
HETATM    2  C   UNL     1     -10.786  12.642  64.048  1.00  0.00    -0.425 C  
ENDROOT
BRANCH   2   3
HETATM    3  N   UNL     1     -10.829  11.682  65.171  1.00  0.00    -0.295 NA 
BRANCH   3   4
HETATM    4  C   UNL     1      -9.938  10.525  64.999  1.00  0.00    -0.322 C  
HETATM    5  C   UNL     1      -9.909   9.522  66.147  1.00  0.00    -0.343 C  
ENDBRANCH   3   4
BRANCH   3   6
HETATM    6  C   UNL     1     -10.630  12.415  66.444  1.00  0.00    -0.244 C  
BRANCH   6   7
HETATM    7  C   UNL     1     -11.890  13.040  67.067  1.00  0.00    -0.437 C  
BRANCH   7   8
HETATM    8  C   UNL     1     -11.645  14.442  67.506  1.00  0.00    -0.373 A  
HETATM    9  N   UNL     1     -11.067  15.444  66.877  1.00  0.00    -0.296 NA 
HETATM   10  C   UNL     1     -11.083  16.447  67.831  1.00  0.00    -0.249 A  
HETATM   11  N   UNL     1     -11.674  16.080  68.981  1.00  0.00    -0.356 NA 
HETATM   12  O   UNL     1     -12.031  14.755  68.772  1.00  0.00    -0.304 OA 
BRANCH  10  13
HETATM   13  C   UNL     1     -10.481  17.766  67.628  1.00  0.00    -0.393 A  
HETATM   14  C   UNL     1     -10.653  18.470  66.428  1.00  0.00    -0.365 A  
HETATM   15  C   UNL     1     -10.039  19.714  66.238  1.00  0.00    -0.578 A  
HETATM   16  C   UNL     1      -9.249  20.269  67.244  1.00  0.00    -0.523 A  
HETATM   17  C   UNL     1      -9.079  19.588  68.446  1.00  0.00    -0.410 A  
HETATM   18  C   UNL     1      -9.693  18.347  68.637  1.00  0.00    -0.387 A  
ENDBRANCH  10  13
ENDBRANCH   7   8
ENDBRANCH   6   7
ENDBRANCH   3   6
ENDBRANCH   2   3
TORSDOF 6
ENDMDL
MODEL       38
REMARK 921   NORMALIZED FREE ENERGY PREDICTED BY IDOCK:   -5.09 KCAL/MOL
REMARK 922        TOTAL FREE ENERGY PREDICTED BY IDOCK:   -7.40 KCAL/MOL
REMARK 923 INTER-LIGAND FREE ENERGY PREDICTED BY IDOCK:   -6.86 KCAL/MOL
REMARK 924 INTRA-LIGAND FREE ENERGY PREDICTED BY IDOCK:   -0.53 KCAL/MOL
REMARK 927      BINDING AFFINITY PREDICTED BY RF-SCORE:    0.00 PKD
ROOT
HETATM    1  C   UNL     1     -10.147  18.375  66.899  1.00  0.00    -0.385 C  
HETATM    2  C   UNL     1     -10.400  17.671  68.230  1.00  0.00    -0.384 C  
ENDROOT
BRANCH   2   3
HETATM    3  N   UNL     1     -10.178  16.209  68.230  1.00  0.00    -0.242 NA 
BRANCH   3   4
HETATM    4  C   UNL     1      -9.112  15.770  69.144  1.00  0.00    -0.262 C  
HETATM    5  C   UNL     1      -8.276  14.582  68.681  1.00  0.00    -0.152 C  
ENDBRANCH   3   4
BRANCH   3   6
HETATM    6  C   UNL     1     -11.474  15.520  68.437  1.00  0.00    -0.363 C  
BRANCH   6   7
HETATM    7  C   UNL     1     -11.859  14.475  67.375  1.00  0.00    -0.416 C  
BRANCH   7   8
HETATM    8  C   UNL     1     -11.908  13.103  67.953  1.00  0.00    -0.348 A  
HETATM    9  N   UNL     1     -11.940  12.706  69.207  1.00  0.00    -0.278 NA 
HETATM   10  C   UNL     1     -11.904  11.327  69.087  1.00  0.00    -0.355 A  
HETATM   11  N   UNL     1     -11.883  10.903  67.812  1.00  0.00    -0.524 NA 
HETATM   12  O   UNL     1     -11.870  12.073  67.064  1.00  0.00    -0.573 OA 
BRANCH  10  13
HETATM   13  C   UNL     1     -11.854  10.417  70.232  1.00  0.00    -0.399 A  
HETATM   14  C   UNL     1     -10.659   9.790  70.614  1.00  0.00    -0.382 A  
HETATM   15  C   UNL     1     -10.638   8.893  71.689  1.00  0.00    -0.422 A  
HETATM   16  C   UNL     1     -11.807   8.614  72.396  1.00  0.00    -0.402 A  
HETATM   17  C   UNL     1     -12.998   9.239  72.037  1.00  0.00    -0.504 A  
HETATM   18  C   UNL     1     -13.021  10.135  70.964  1.00  0.00    -0.473 A  
ENDBRANCH  10  13
ENDBRANCH   7   8
ENDBRANCH   6   7
ENDBRANCH   3   6
ENDBRANCH   2   3
TORSDOF 6
ENDMDL
MODEL       39
REMARK 921   NORMALIZED FREE ENERGY PREDICTED BY IDOCK:   -5.08 KCAL/MOL
REMARK 922        TOTAL FREE ENERGY PREDICTED BY IDOCK:   -7.39 KCAL/MOL
REMARK 923 INTER-LIGAND FREE ENERGY PREDICTED BY IDOCK:   -6.97 KCAL/MOL
REMARK 924 INTRA-LIGAND FREE ENERGY PREDICTED BY IDOCK:   -0.42 KCAL/MOL
REMARK 927      BINDING AFFINITY PREDICTED BY RF-SCORE:    0.00 PKD
ROOT
HETATM    1  C   UNL     1     -11.355   9.333  70.849  1.00  0.00    -0.373 C  
HETATM    2  C   UNL     1     -11.227  10.641  70.071  1.00  0.00    -0.309 C  
ENDROOT
BRANCH   2   3
HETATM    3  N   UNL     1     -12.353  11.586  70.226  1.00  0.00    -0.294 NA 
BRANCH   3   4
HETATM    4  C   UNL     1     -12.839  11.709  71.608  1.00  0.00    -0.349 C  
HETATM    5  C   UNL     1     -13.401  13.070  72.005  1.00  0.00    -0.588 C  
ENDBRANCH   3   4
BRANCH   3   6
HETATM    6  C   UNL     1     -11.992  12.878  69.595  1.00  0.00    -0.292 C  
BRANCH   6   7
HETATM    7  C   UNL     1     -11.798  12.852  68.069  1.00  0.00    -0.390 C  
BRANCH   7   8
HETATM    8  C   UNL     1     -11.246  14.142  67.567  1.00  0.00    -0.306 A  
HETATM    9  N   UNL     1     -11.124  15.308  68.165  1.00  0.00    -0.295 NA 
HETATM   10  C   UNL     1     -10.612  16.110  67.159  1.00  0.00    -0.294 A  
HETATM   11  N   UNL     1     -10.402  15.451  66.006  1.00  0.00    -0.304 NA 
HETATM   12  O   UNL     1     -10.834  14.158  66.270  1.00  0.00    -0.295 OA 
BRANCH  10  13
HETATM   13  C   UNL     1     -10.360  17.543  67.316  1.00  0.00    -0.337 A  
HETATM   14  C   UNL     1     -10.134  18.110  68.578  1.00  0.00    -0.413 A  
HETATM   15  C   UNL     1      -9.932  19.489  68.713  1.00  0.00    -0.547 A  
HETATM   16  C   UNL     1      -9.950  20.316  67.590  1.00  0.00    -0.551 A  
HETATM   17  C   UNL     1     -10.159  19.765  66.329  1.00  0.00    -0.601 A  
HETATM   18  C   UNL     1     -10.361  18.389  66.193  1.00  0.00    -0.431 A  
ENDBRANCH  10  13
ENDBRANCH   7   8
ENDBRANCH   6   7
ENDBRANCH   3   6
ENDBRANCH   2   3
TORSDOF 6
ENDMDL
MODEL       40
REMARK 921   NORMALIZED FREE ENERGY PREDICTED BY IDOCK:   -5.08 KCAL/MOL
REMARK 922        TOTAL FREE ENERGY PREDICTED BY IDOCK:   -7.39 KCAL/MOL
REMARK 923 INTER-LIGAND FREE ENERGY PREDICTED BY IDOCK:   -6.87 KCAL/MOL
REMARK 924 INTRA-LIGAND FREE ENERGY PREDICTED BY IDOCK:   -0.52 KCAL/MOL
REMARK 927      BINDING AFFINITY PREDICTED BY RF-SCORE:    0.00 PKD
ROOT
HETATM    1  C   UNL     1     -10.020  17.203  68.039  1.00  0.00    -0.295 C  
HETATM    2  C   UNL     1     -10.500  16.005  67.222  1.00  0.00    -0.308 C  
ENDROOT
BRANCH   2   3
HETATM    3  N   UNL     1     -11.497  15.140  67.886  1.00  0.00    -0.334 NA 
BRANCH   3   4
HETATM    4  C   UNL     1     -11.700  13.845  67.218  1.00  0.00    -0.386 C  
HETATM    5  C   UNL     1     -12.188  13.903  65.775  1.00  0.00    -0.488 C  
ENDBRANCH   3   4
BRANCH   3   6
HETATM    6  C   UNL     1     -11.163  15.031  69.326  1.00  0.00    -0.286 C  
BRANCH   6   7
HETATM    7  C   UNL     1     -12.354  15.064  70.299  1.00  0.00    -0.392 C  
BRANCH   7   8
HETATM    8  C   UNL     1     -12.617  13.721  70.888  1.00  0.00    -0.356 A  
HETATM    9  N   UNL     1     -12.178  12.533  70.530  1.00  0.00    -0.352 NA 
HETATM   10  C   UNL     1     -12.831  11.693  71.416  1.00  0.00    -0.356 A  
HETATM   11  N   UNL     1     -13.609  12.346  72.296  1.00  0.00    -0.427 NA 
HETATM   12  O   UNL     1     -13.480  13.681  71.938  1.00  0.00    -0.383 OA 
BRANCH  10  13
HETATM   13  C   UNL     1     -12.720  10.234  71.378  1.00  0.00    -0.547 A  
HETATM   14  C   UNL     1     -13.785   9.410  71.769  1.00  0.00    -0.418 A  
HETATM   15  C   UNL     1     -13.647   8.017  71.762  1.00  0.00    -0.395 A  
HETATM   16  C   UNL     1     -12.447   7.430  71.361  1.00  0.00    -0.402 A  
HETATM   17  C   UNL     1     -11.385   8.234  70.958  1.00  0.00    -0.299 A  
HETATM   18  C   UNL     1     -11.521   9.626  70.964  1.00  0.00    -0.444 A  
ENDBRANCH  10  13
ENDBRANCH   7   8
ENDBRANCH   6   7
ENDBRANCH   3   6
ENDBRANCH   2   3
TORSDOF 6
ENDMDL
MODEL       41
REMARK 921   NORMALIZED FREE ENERGY PREDICTED BY IDOCK:   -5.07 KCAL/MOL
REMARK 922        TOTAL FREE ENERGY PREDICTED BY IDOCK:   -7.37 KCAL/MOL
REMARK 923 INTER-LIGAND FREE ENERGY PREDICTED BY IDOCK:   -6.79 KCAL/MOL
REMARK 924 INTRA-LIGAND FREE ENERGY PREDICTED BY IDOCK:   -0.58 KCAL/MOL
REMARK 927      BINDING AFFINITY PREDICTED BY RF-SCORE:    0.00 PKD
ROOT
HETATM    1  C   UNL     1     -10.651  15.443  64.948  1.00  0.00    -0.380 C  
HETATM    2  C   UNL     1     -10.611  13.919  64.855  1.00  0.00    -0.419 C  
ENDROOT
BRANCH   2   3
HETATM    3  N   UNL     1     -11.658  13.207  65.619  1.00  0.00    -0.325 NA 
BRANCH   3   4
HETATM    4  C   UNL     1     -12.833  12.838  64.814  1.00  0.00    -0.293 C  
HETATM    5  C   UNL     1     -12.562  11.977  63.584  1.00  0.00    -0.605 C  
ENDBRANCH   3   4
BRANCH   3   6
HETATM    6  C   UNL     1     -11.043  12.072  66.346  1.00  0.00    -0.318 C  
BRANCH   6   7
HETATM    7  C   UNL     1      -9.842  12.418  67.244  1.00  0.00    -0.207 C  
BRANCH   7   8
HETATM    8  C   UNL     1     -10.224  13.375  68.320  1.00  0.00    -0.250 A  
HETATM    9  N   UNL     1     -11.170  13.301  69.232  1.00  0.00    -0.238 NA 
HETATM   10  C   UNL     1     -11.060  14.520  69.879  1.00  0.00    -0.163 A  
HETATM   11  N   UNL     1     -10.068  15.291  69.400  1.00  0.00    -0.252 NA 
HETATM   12  O   UNL     1      -9.527  14.543  68.363  1.00  0.00    -0.197 OA 
BRANCH  10  13
HETATM   13  C   UNL     1     -11.959  14.950  70.951  1.00  0.00    -0.374 A  
HETATM   14  C   UNL     1     -13.351  14.862  70.816  1.00  0.00    -0.338 A  
HETATM   15  C   UNL     1     -14.196  15.313  71.838  1.00  0.00    -0.681 A  
HETATM   16  C   UNL     1     -13.660  15.854  73.006  1.00  0.00    -0.616 A  
HETATM   17  C   UNL     1     -12.279  15.936  73.160  1.00  0.00    -0.622 A  
HETATM   18  C   UNL     1     -11.435  15.486  72.141  1.00  0.00    -0.512 A  
ENDBRANCH  10  13
ENDBRANCH   7   8
ENDBRANCH   6   7
ENDBRANCH   3   6
ENDBRANCH   2   3
TORSDOF 6
ENDMDL
MODEL       42
REMARK 921   NORMALIZED FREE ENERGY PREDICTED BY IDOCK:   -5.06 KCAL/MOL
REMARK 922        TOTAL FREE ENERGY PREDICTED BY IDOCK:   -7.36 KCAL/MOL
REMARK 923 INTER-LIGAND FREE ENERGY PREDICTED BY IDOCK:   -6.82 KCAL/MOL
REMARK 924 INTRA-LIGAND FREE ENERGY PREDICTED BY IDOCK:   -0.54 KCAL/MOL
REMARK 927      BINDING AFFINITY PREDICTED BY RF-SCORE:    0.00 PKD
ROOT
HETATM    1  C   UNL     1     -10.996   4.518  73.235  1.00  0.00    -0.369 C  
HETATM    2  C   UNL     1      -9.958   5.390  72.531  1.00  0.00    -0.168 C  
ENDROOT
BRANCH   2   3
HETATM    3  N   UNL     1     -10.506   6.460  71.669  1.00  0.00    -0.213 NA 
BRANCH   3   4
HETATM    4  C   UNL     1     -11.100   5.967  70.417  1.00  0.00    -0.329 C  
HETATM    5  C   UNL     1     -10.195   5.116  69.532  1.00  0.00    -0.318 C  
ENDBRANCH   3   4
BRANCH   3   6
HETATM    6  C   UNL     1     -11.411   7.315  72.472  1.00  0.00    -0.281 C  
BRANCH   6   7
HETATM    7  C   UNL     1     -12.642   7.872  71.736  1.00  0.00    -0.353 C  
BRANCH   7   8
HETATM    8  C   UNL     1     -12.450   9.300  71.354  1.00  0.00    -0.341 A  
HETATM    9  N   UNL     1     -12.921  10.400  71.903  1.00  0.00    -0.456 NA 
HETATM   10  C   UNL     1     -12.448  11.385  71.053  1.00  0.00    -0.383 A  
HETATM   11  N   UNL     1     -11.695  10.907  70.047  1.00  0.00    -0.313 NA 
HETATM   12  O   UNL     1     -11.709   9.531  70.237  1.00  0.00    -0.223 OA 
BRANCH  10  13
HETATM   13  C   UNL     1     -12.766  12.806  71.205  1.00  0.00    -0.364 A  
HETATM   14  C   UNL     1     -13.637  13.255  72.208  1.00  0.00    -0.703 A  
HETATM   15  C   UNL     1     -13.959  14.614  72.315  1.00  0.00    -0.589 A  
HETATM   16  C   UNL     1     -13.413  15.538  71.425  1.00  0.00    -0.583 A  
HETATM   17  C   UNL     1     -12.537  15.109  70.432  1.00  0.00    -0.405 A  
HETATM   18  C   UNL     1     -12.215  13.753  70.325  1.00  0.00    -0.429 A  
ENDBRANCH  10  13
ENDBRANCH   7   8
ENDBRANCH   6   7
ENDBRANCH   3   6
ENDBRANCH   2   3
TORSDOF 6
ENDMDL
MODEL       43
REMARK 921   NORMALIZED FREE ENERGY PREDICTED BY IDOCK:   -5.05 KCAL/MOL
REMARK 922        TOTAL FREE ENERGY PREDICTED BY IDOCK:   -7.35 KCAL/MOL
REMARK 923 INTER-LIGAND FREE ENERGY PREDICTED BY IDOCK:   -6.94 KCAL/MOL
REMARK 924 INTRA-LIGAND FREE ENERGY PREDICTED BY IDOCK:   -0.41 KCAL/MOL
REMARK 927      BINDING AFFINITY PREDICTED BY RF-SCORE:    0.00 PKD
ROOT
HETATM    1  C   UNL     1     -10.469   8.802  68.127  1.00  0.00    -0.243 C  
HETATM    2  C   UNL     1     -10.843  10.244  67.790  1.00  0.00    -0.292 C  
ENDROOT
BRANCH   2   3
HETATM    3  N   UNL     1     -11.798  10.887  68.718  1.00  0.00    -0.432 NA 
BRANCH   3   4
HETATM    4  C   UNL     1     -11.702  10.400  70.102  1.00  0.00    -0.312 C  
HETATM    5  C   UNL     1     -12.695  10.993  71.095  1.00  0.00    -0.521 C  
ENDBRANCH   3   4
BRANCH   3   6
HETATM    6  C   UNL     1     -11.688  12.359  68.586  1.00  0.00    -0.326 C  
BRANCH   6   7
HETATM    7  C   UNL     1     -11.898  12.927  67.171  1.00  0.00    -0.424 C  
BRANCH   7   8
HETATM    8  C   UNL     1     -11.192  14.227  66.994  1.00  0.00    -0.323 A  
HETATM    9  N   UNL     1     -11.321  15.363  67.646  1.00  0.00    -0.321 NA 
HETATM   10  C   UNL     1     -10.450  16.199  66.968  1.00  0.00    -0.306 A  
HETATM   11  N   UNL     1      -9.795  15.587  65.966  1.00  0.00    -0.308 NA 
HETATM   12  O   UNL     1     -10.295  14.292  65.973  1.00  0.00    -0.289 OA 
BRANCH  10  13
HETATM   13  C   UNL     1     -10.283  17.619  67.281  1.00  0.00    -0.343 A  
HETATM   14  C   UNL     1     -10.367  18.600  66.283  1.00  0.00    -0.483 A  
HETATM   15  C   UNL     1     -10.168  19.951  66.595  1.00  0.00    -0.609 A  
HETATM   16  C   UNL     1      -9.886  20.336  67.906  1.00  0.00    -0.492 A  
HETATM   17  C   UNL     1      -9.813  19.374  68.909  1.00  0.00    -0.523 A  
HETATM   18  C   UNL     1     -10.012  18.026  68.599  1.00  0.00    -0.396 A  
ENDBRANCH  10  13
ENDBRANCH   7   8
ENDBRANCH   6   7
ENDBRANCH   3   6
ENDBRANCH   2   3
TORSDOF 6
ENDMDL
MODEL       44
REMARK 921   NORMALIZED FREE ENERGY PREDICTED BY IDOCK:   -5.05 KCAL/MOL
REMARK 922        TOTAL FREE ENERGY PREDICTED BY IDOCK:   -7.34 KCAL/MOL
REMARK 923 INTER-LIGAND FREE ENERGY PREDICTED BY IDOCK:   -6.98 KCAL/MOL
REMARK 924 INTRA-LIGAND FREE ENERGY PREDICTED BY IDOCK:   -0.36 KCAL/MOL
REMARK 927      BINDING AFFINITY PREDICTED BY RF-SCORE:    0.00 PKD
ROOT
HETATM    1  C   UNL     1     -11.360  11.239  67.253  1.00  0.00    -0.329 C  
HETATM    2  C   UNL     1     -11.617  12.395  66.288  1.00  0.00    -0.393 C  
ENDROOT
BRANCH   2   3
HETATM    3  N   UNL     1     -10.565  12.623  65.275  1.00  0.00    -0.285 NA 
BRANCH   3   4
HETATM    4  C   UNL     1     -10.997  12.344  63.897  1.00  0.00    -0.414 C  
HETATM    5  C   UNL     1     -12.503  12.323  63.656  1.00  0.00    -0.647 C  
ENDBRANCH   3   4
BRANCH   3   6
HETATM    6  C   UNL     1      -9.992  13.977  65.466  1.00  0.00    -0.276 C  
BRANCH   6   7
HETATM    7  C   UNL     1     -10.804  15.142  64.875  1.00  0.00    -0.437 C  
BRANCH   7   8
HETATM    8  C   UNL     1     -10.295  16.459  65.350  1.00  0.00    -0.262 A  
HETATM    9  N   UNL     1      -9.239  16.753  66.079  1.00  0.00    -0.482 NA 
HETATM   10  C   UNL     1      -9.353  18.124  66.235  1.00  0.00    -0.208 A  
HETATM   11  N   UNL     1     -10.418  18.646  65.602  1.00  0.00    -0.594 NA 
HETATM   12  O   UNL     1     -11.046  17.548  65.031  1.00  0.00    -0.698 OA 
BRANCH  10  13
HETATM   13  C   UNL     1      -8.433  18.925  67.043  1.00  0.00    -0.292 A  
HETATM   14  C   UNL     1      -8.207  18.635  68.396  1.00  0.00    -0.361 A  
HETATM   15  C   UNL     1      -7.352  19.436  69.163  1.00  0.00    -0.364 A  
HETATM   16  C   UNL     1      -6.710  20.532  68.587  1.00  0.00    -0.198 A  
HETATM   17  C   UNL     1      -6.914  20.825  67.241  1.00  0.00    -0.414 A  
HETATM   18  C   UNL     1      -7.767  20.026  66.475  1.00  0.00    -0.325 A  
ENDBRANCH  10  13
ENDBRANCH   7   8
ENDBRANCH   6   7
ENDBRANCH   3   6
ENDBRANCH   2   3
TORSDOF 6
ENDMDL
MODEL       45
REMARK 921   NORMALIZED FREE ENERGY PREDICTED BY IDOCK:   -4.99 KCAL/MOL
REMARK 922        TOTAL FREE ENERGY PREDICTED BY IDOCK:   -7.27 KCAL/MOL
REMARK 923 INTER-LIGAND FREE ENERGY PREDICTED BY IDOCK:   -6.81 KCAL/MOL
REMARK 924 INTRA-LIGAND FREE ENERGY PREDICTED BY IDOCK:   -0.46 KCAL/MOL
REMARK 927      BINDING AFFINITY PREDICTED BY RF-SCORE:    0.00 PKD
ROOT
HETATM    1  C   UNL     1     -12.320  14.553  69.916  1.00  0.00    -0.347 C  
HETATM    2  C   UNL     1     -12.026  13.092  70.250  1.00  0.00    -0.285 C  
ENDROOT
BRANCH   2   3
HETATM    3  N   UNL     1     -11.430  12.297  69.155  1.00  0.00    -0.277 NA 
BRANCH   3   4
HETATM    4  C   UNL     1     -11.486  10.844  69.378  1.00  0.00    -0.302 C  
HETATM    5  C   UNL     1     -12.222  10.384  70.632  1.00  0.00    -0.441 C  
ENDBRANCH   3   4
BRANCH   3   6
HETATM    6  C   UNL     1     -12.014  12.733  67.865  1.00  0.00    -0.266 C  
BRANCH   6   7
HETATM    7  C   UNL     1     -11.024  12.899  66.699  1.00  0.00    -0.302 C  
BRANCH   7   8
HETATM    8  C   UNL     1     -10.737  14.335  66.426  1.00  0.00    -0.297 A  
HETATM    9  N   UNL     1     -10.569  15.344  67.255  1.00  0.00    -0.288 NA 
HETATM   10  C   UNL     1     -10.408  16.416  66.394  1.00  0.00    -0.313 A  
HETATM   11  N   UNL     1     -10.444  16.069  65.096  1.00  0.00    -0.574 NA 
HETATM   12  O   UNL     1     -10.676  14.700  65.117  1.00  0.00    -0.358 OA 
BRANCH  10  13
HETATM   13  C   UNL     1     -10.252  17.800  66.846  1.00  0.00    -0.346 A  
HETATM   14  C   UNL     1     -10.412  18.878  65.964  1.00  0.00    -0.507 A  
HETATM   15  C   UNL     1     -10.222  20.193  66.406  1.00  0.00    -0.552 A  
HETATM   16  C   UNL     1      -9.875  20.447  67.732  1.00  0.00    -0.494 A  
HETATM   17  C   UNL     1      -9.726  19.387  68.623  1.00  0.00    -0.504 A  
HETATM   18  C   UNL     1      -9.916  18.074  68.183  1.00  0.00    -0.356 A  
ENDBRANCH  10  13
ENDBRANCH   7   8
ENDBRANCH   6   7
ENDBRANCH   3   6
ENDBRANCH   2   3
TORSDOF 6
ENDMDL
MODEL       46
REMARK 921   NORMALIZED FREE ENERGY PREDICTED BY IDOCK:   -4.98 KCAL/MOL
REMARK 922        TOTAL FREE ENERGY PREDICTED BY IDOCK:   -7.25 KCAL/MOL
REMARK 923 INTER-LIGAND FREE ENERGY PREDICTED BY IDOCK:   -6.70 KCAL/MOL
REMARK 924 INTRA-LIGAND FREE ENERGY PREDICTED BY IDOCK:   -0.54 KCAL/MOL
REMARK 927      BINDING AFFINITY PREDICTED BY RF-SCORE:    0.00 PKD
ROOT
HETATM    1  C   UNL     1     -10.672  14.214  67.358  1.00  0.00    -0.284 C  
HETATM    2  C   UNL     1     -11.153  15.549  67.921  1.00  0.00    -0.321 C  
ENDROOT
BRANCH   2   3
HETATM    3  N   UNL     1     -10.320  16.122  69.000  1.00  0.00    -0.241 NA 
BRANCH   3   4
HETATM    4  C   UNL     1      -9.913  17.514  68.761  1.00  0.00    -0.342 C  
HETATM    5  C   UNL     1     -10.486  18.178  67.513  1.00  0.00    -0.425 C  
ENDBRANCH   3   4
BRANCH   3   6
HETATM    6  C   UNL     1     -10.995  15.904  70.302  1.00  0.00    -0.362 C  
BRANCH   6   7
HETATM    7  C   UNL     1     -12.464  15.453  70.232  1.00  0.00    -0.413 C  
BRANCH   7   8
HETATM    8  C   UNL     1     -12.653  14.110  70.851  1.00  0.00    -0.363 A  
HETATM    9  N   UNL     1     -12.203  12.930  70.481  1.00  0.00    -0.361 NA 
HETATM   10  C   UNL     1     -12.777  12.084  71.414  1.00  0.00    -0.275 A  
HETATM   11  N   UNL     1     -13.520  12.726  72.331  1.00  0.00    -0.520 NA 
HETATM   12  O   UNL     1     -13.451  14.060  71.951  1.00  0.00    -0.360 OA 
BRANCH  10  13
HETATM   13  C   UNL     1     -12.627  10.628  71.386  1.00  0.00    -0.526 A  
HETATM   14  C   UNL     1     -13.643   9.780  71.849  1.00  0.00    -0.421 A  
HETATM   15  C   UNL     1     -13.466   8.391  71.849  1.00  0.00    -0.385 A  
HETATM   16  C   UNL     1     -12.276   7.833  71.384  1.00  0.00    -0.343 A  
HETATM   17  C   UNL     1     -11.263   8.661  70.909  1.00  0.00    -0.311 A  
HETATM   18  C   UNL     1     -11.438  10.048  70.908  1.00  0.00    -0.452 A  
ENDBRANCH  10  13
ENDBRANCH   7   8
ENDBRANCH   6   7
ENDBRANCH   3   6
ENDBRANCH   2   3
TORSDOF 6
ENDMDL
MODEL       47
REMARK 921   NORMALIZED FREE ENERGY PREDICTED BY IDOCK:   -4.97 KCAL/MOL
REMARK 922        TOTAL FREE ENERGY PREDICTED BY IDOCK:   -7.24 KCAL/MOL
REMARK 923 INTER-LIGAND FREE ENERGY PREDICTED BY IDOCK:   -6.60 KCAL/MOL
REMARK 924 INTRA-LIGAND FREE ENERGY PREDICTED BY IDOCK:   -0.64 KCAL/MOL
REMARK 927      BINDING AFFINITY PREDICTED BY RF-SCORE:    0.00 PKD
ROOT
HETATM    1  C   UNL     1     -10.101   5.469  69.789  1.00  0.00    -0.302 C  
HETATM    2  C   UNL     1     -11.342   6.330  69.564  1.00  0.00    -0.404 C  
ENDROOT
BRANCH   2   3
HETATM    3  N   UNL     1     -11.279   7.696  70.129  1.00  0.00    -0.226 NA 
BRANCH   3   4
HETATM    4  C   UNL     1     -11.416   7.740  71.592  1.00  0.00    -0.261 C  
HETATM    5  C   UNL     1     -10.368   8.556  72.342  1.00  0.00    -0.372 C  
ENDBRANCH   3   4
BRANCH   3   6
HETATM    6  C   UNL     1     -10.068   8.378  69.614  1.00  0.00    -0.199 C  
BRANCH   6   7
HETATM    7  C   UNL     1     -10.264   9.242  68.356  1.00  0.00    -0.231 C  
BRANCH   7   8
HETATM    8  C   UNL     1     -10.947  10.526  68.677  1.00  0.00    -0.248 A  
HETATM    9  N   UNL     1     -11.106  11.143  69.828  1.00  0.00    -0.236 NA 
HETATM   10  C   UNL     1     -11.879  12.238  69.478  1.00  0.00    -0.315 A  
HETATM   11  N   UNL     1     -12.152  12.300  68.163  1.00  0.00    -0.382 NA 
HETATM   12  O   UNL     1     -11.551  11.164  67.637  1.00  0.00    -0.512 OA 
BRANCH  10  13
HETATM   13  C   UNL     1     -12.386  13.212  70.445  1.00  0.00    -0.351 A  
HETATM   14  C   UNL     1     -13.054  12.806  71.609  1.00  0.00    -0.428 A  
HETATM   15  C   UNL     1     -13.566  13.754  72.504  1.00  0.00    -0.680 A  
HETATM   16  C   UNL     1     -13.413  15.116  72.249  1.00  0.00    -0.539 A  
HETATM   17  C   UNL     1     -12.741  15.535  71.105  1.00  0.00    -0.525 A  
HETATM   18  C   UNL     1     -12.229  14.590  70.211  1.00  0.00    -0.391 A  
ENDBRANCH  10  13
ENDBRANCH   7   8
ENDBRANCH   6   7
ENDBRANCH   3   6
ENDBRANCH   2   3
TORSDOF 6
ENDMDL
MODEL       48
REMARK 921   NORMALIZED FREE ENERGY PREDICTED BY IDOCK:   -4.93 KCAL/MOL
REMARK 922        TOTAL FREE ENERGY PREDICTED BY IDOCK:   -7.19 KCAL/MOL
REMARK 923 INTER-LIGAND FREE ENERGY PREDICTED BY IDOCK:   -6.68 KCAL/MOL
REMARK 924 INTRA-LIGAND FREE ENERGY PREDICTED BY IDOCK:   -0.51 KCAL/MOL
REMARK 927      BINDING AFFINITY PREDICTED BY RF-SCORE:    0.00 PKD
ROOT
HETATM    1  C   UNL     1      -8.742  14.716  68.337  1.00  0.00    -0.175 C  
HETATM    2  C   UNL     1      -8.881  15.016  66.846  1.00  0.00    -0.258 C  
ENDROOT
BRANCH   2   3
HETATM    3  N   UNL     1     -10.266  15.072  66.334  1.00  0.00    -0.267 NA 
BRANCH   3   4
HETATM    4  C   UNL     1     -10.508  16.178  65.395  1.00  0.00    -0.373 C  
HETATM    5  C   UNL     1     -10.402  17.586  65.973  1.00  0.00    -0.309 C  
ENDBRANCH   3   4
BRANCH   3   6
HETATM    6  C   UNL     1     -10.645  13.739  65.808  1.00  0.00    -0.293 C  
BRANCH   6   7
HETATM    7  C   UNL     1     -12.006  13.193  66.272  1.00  0.00    -0.473 C  
BRANCH   7   8
HETATM    8  C   UNL     1     -11.950  12.709  67.680  1.00  0.00    -0.247 A  
HETATM    9  N   UNL     1     -11.890  11.485  68.159  1.00  0.00    -0.573 NA 
HETATM   10  C   UNL     1     -11.934  11.695  69.527  1.00  0.00    -0.317 A  
HETATM   11  N   UNL     1     -11.987  12.995  69.865  1.00  0.00    -0.330 NA 
HETATM   12  O   UNL     1     -12.012  13.663  68.648  1.00  0.00    -0.350 OA 
BRANCH  10  13
HETATM   13  C   UNL     1     -11.961  10.612  70.511  1.00  0.00    -0.446 A  
HETATM   14  C   UNL     1     -10.840   9.801  70.735  1.00  0.00    -0.403 A  
HETATM   15  C   UNL     1     -10.897   8.745  71.654  1.00  0.00    -0.399 A  
HETATM   16  C   UNL     1     -12.072   8.492  72.362  1.00  0.00    -0.436 A  
HETATM   17  C   UNL     1     -13.189   9.297  72.160  1.00  0.00    -0.535 A  
HETATM   18  C   UNL     1     -13.133  10.351  71.243  1.00  0.00    -0.494 A  
ENDBRANCH  10  13
ENDBRANCH   7   8
ENDBRANCH   6   7
ENDBRANCH   3   6
ENDBRANCH   2   3
TORSDOF 6
ENDMDL
MODEL       49
REMARK 921   NORMALIZED FREE ENERGY PREDICTED BY IDOCK:   -4.92 KCAL/MOL
REMARK 922        TOTAL FREE ENERGY PREDICTED BY IDOCK:   -7.17 KCAL/MOL
REMARK 923 INTER-LIGAND FREE ENERGY PREDICTED BY IDOCK:   -6.73 KCAL/MOL
REMARK 924 INTRA-LIGAND FREE ENERGY PREDICTED BY IDOCK:   -0.44 KCAL/MOL
REMARK 927      BINDING AFFINITY PREDICTED BY RF-SCORE:    0.00 PKD
ROOT
HETATM    1  C   UNL     1      -7.644  17.016  66.691  1.00  0.00    -0.298 C  
HETATM    2  C   UNL     1      -9.148  17.154  66.460  1.00  0.00    -0.269 C  
ENDROOT
BRANCH   2   3
HETATM    3  N   UNL     1      -9.949  17.467  67.663  1.00  0.00    -0.289 NA 
BRANCH   3   4
HETATM    4  C   UNL     1     -10.690  18.734  67.570  1.00  0.00    -0.411 C  
HETATM    5  C   UNL     1      -9.854  20.008  67.626  1.00  0.00    -0.548 C  
ENDBRANCH   3   4
BRANCH   3   6
HETATM    6  C   UNL     1     -10.793  16.296  68.001  1.00  0.00    -0.339 C  
BRANCH   6   7
HETATM    7  C   UNL     1     -10.996  15.264  66.879  1.00  0.00    -0.315 C  
BRANCH   7   8
HETATM    8  C   UNL     1     -11.367  13.929  67.425  1.00  0.00    -0.326 A  
HETATM    9  N   UNL     1     -11.403  13.496  68.668  1.00  0.00    -0.268 NA 
HETATM   10  C   UNL     1     -11.751  12.165  68.512  1.00  0.00    -0.330 A  
HETATM   11  N   UNL     1     -11.949  11.811  67.230  1.00  0.00    -0.607 NA 
HETATM   12  O   UNL     1     -11.682  12.970  66.513  1.00  0.00    -0.344 OA 
BRANCH  10  13
HETATM   13  C   UNL     1     -11.855  11.220  69.625  1.00  0.00    -0.430 A  
HETATM   14  C   UNL     1     -11.131  10.019  69.633  1.00  0.00    -0.300 A  
HETATM   15  C   UNL     1     -11.273   9.110  70.690  1.00  0.00    -0.322 A  
HETATM   16  C   UNL     1     -12.134   9.392  71.750  1.00  0.00    -0.454 A  
HETATM   17  C   UNL     1     -12.849  10.587  71.762  1.00  0.00    -0.559 A  
HETATM   18  C   UNL     1     -12.708  11.495  70.708  1.00  0.00    -0.318 A  
ENDBRANCH  10  13
ENDBRANCH   7   8
ENDBRANCH   6   7
ENDBRANCH   3   6
ENDBRANCH   2   3
TORSDOF 6
ENDMDL
MODEL       50
REMARK 921   NORMALIZED FREE ENERGY PREDICTED BY IDOCK:   -4.86 KCAL/MOL
REMARK 922        TOTAL FREE ENERGY PREDICTED BY IDOCK:   -7.09 KCAL/MOL
REMARK 923 INTER-LIGAND FREE ENERGY PREDICTED BY IDOCK:   -6.67 KCAL/MOL
REMARK 924 INTRA-LIGAND FREE ENERGY PREDICTED BY IDOCK:   -0.42 KCAL/MOL
REMARK 927      BINDING AFFINITY PREDICTED BY RF-SCORE:    0.00 PKD
ROOT
HETATM    1  C   UNL     1     -10.317  11.553  63.288  1.00  0.00    -0.435 C  
HETATM    2  C   UNL     1      -9.548  10.346  63.822  1.00  0.00    -0.310 C  
ENDROOT
BRANCH   2   3
HETATM    3  N   UNL     1      -9.971   9.860  65.152  1.00  0.00    -0.292 NA 
BRANCH   3   4
HETATM    4  C   UNL     1      -8.989   8.981  65.804  1.00  0.00    -0.197 C  
HETATM    5  C   UNL     1      -7.556   9.501  65.863  1.00  0.00    -0.100 C  
ENDBRANCH   3   4
BRANCH   3   6
HETATM    6  C   UNL     1     -10.392  11.015  65.980  1.00  0.00    -0.254 C  
BRANCH   6   7
HETATM    7  C   UNL     1     -10.973  10.677  67.364  1.00  0.00    -0.361 C  
BRANCH   7   8
HETATM    8  C   UNL     1     -11.327  11.909  68.124  1.00  0.00    -0.288 A  
HETATM    9  N   UNL     1     -11.456  12.105  69.419  1.00  0.00    -0.290 NA 
HETATM   10  C   UNL     1     -11.864  13.426  69.484  1.00  0.00    -0.332 A  
HETATM   11  N   UNL     1     -11.951  14.018  68.280  1.00  0.00    -0.365 NA 
HETATM   12  O   UNL     1     -11.611  13.014  67.383  1.00  0.00    -0.314 OA 
BRANCH  10  13
HETATM   13  C   UNL     1     -12.209  14.106  70.733  1.00  0.00    -0.435 A  
HETATM   14  C   UNL     1     -13.184  13.590  71.599  1.00  0.00    -0.449 A  
HETATM   15  C   UNL     1     -13.528  14.274  72.772  1.00  0.00    -0.590 A  
HETATM   16  C   UNL     1     -12.900  15.477  73.095  1.00  0.00    -0.610 A  
HETATM   17  C   UNL     1     -11.921  15.995  72.251  1.00  0.00    -0.633 A  
HETATM   18  C   UNL     1     -11.577  15.313  71.080  1.00  0.00    -0.416 A  
ENDBRANCH  10  13
ENDBRANCH   7   8
ENDBRANCH   6   7
ENDBRANCH   3   6
ENDBRANCH   2   3
TORSDOF 6
ENDMDL
MODEL       51
REMARK 921   NORMALIZED FREE ENERGY PREDICTED BY IDOCK:   -4.85 KCAL/MOL
REMARK 922        TOTAL FREE ENERGY PREDICTED BY IDOCK:   -7.08 KCAL/MOL
REMARK 923 INTER-LIGAND FREE ENERGY PREDICTED BY IDOCK:   -6.69 KCAL/MOL
REMARK 924 INTRA-LIGAND FREE ENERGY PREDICTED BY IDOCK:   -0.40 KCAL/MOL
REMARK 927      BINDING AFFINITY PREDICTED BY RF-SCORE:    0.00 PKD
ROOT
HETATM    1  C   UNL     1     -10.657  19.321  67.420  1.00  0.00    -0.594 C  
HETATM    2  C   UNL     1     -10.451  18.778  66.007  1.00  0.00    -0.432 C  
ENDROOT
BRANCH   2   3
HETATM    3  N   UNL     1      -9.287  17.884  65.834  1.00  0.00    -0.514 NA 
BRANCH   3   4
HETATM    4  C   UNL     1      -8.105  18.289  66.609  1.00  0.00    -0.260 C  
HETATM    5  C   UNL     1      -7.226  19.367  65.982  1.00  0.00    -0.301 C  
ENDBRANCH   3   4
BRANCH   3   6
HETATM    6  C   UNL     1      -9.712  16.483  66.067  1.00  0.00    -0.301 C  
BRANCH   6   7
HETATM    7  C   UNL     1     -10.839  15.960  65.160  1.00  0.00    -0.438 C  
BRANCH   7   8
HETATM    8  C   UNL     1     -11.125  14.521  65.419  1.00  0.00    -0.345 A  
HETATM    9  N   UNL     1     -10.417  13.612  66.054  1.00  0.00    -0.294 NA 
HETATM   10  C   UNL     1     -11.180  12.468  65.890  1.00  0.00    -0.320 A  
HETATM   11  N   UNL     1     -12.320  12.680  65.210  1.00  0.00    -0.576 NA 
HETATM   12  O   UNL     1     -12.277  14.030  64.887  1.00  0.00    -0.400 OA 
BRANCH  10  13
HETATM   13  C   UNL     1     -10.772  11.147  66.372  1.00  0.00    -0.303 A  
HETATM   14  C   UNL     1     -10.118  10.235  65.533  1.00  0.00    -0.351 A  
HETATM   15  C   UNL     1      -9.769   8.961  66.001  1.00  0.00    -0.308 A  
HETATM   16  C   UNL     1     -10.066   8.588  67.311  1.00  0.00    -0.317 A  
HETATM   17  C   UNL     1     -10.704   9.488  68.160  1.00  0.00    -0.247 A  
HETATM   18  C   UNL     1     -11.052  10.759  67.694  1.00  0.00    -0.384 A  
ENDBRANCH  10  13
ENDBRANCH   7   8
ENDBRANCH   6   7
ENDBRANCH   3   6
ENDBRANCH   2   3
TORSDOF 6
ENDMDL
MODEL       52
REMARK 921   NORMALIZED FREE ENERGY PREDICTED BY IDOCK:   -4.85 KCAL/MOL
REMARK 922        TOTAL FREE ENERGY PREDICTED BY IDOCK:   -7.07 KCAL/MOL
REMARK 923 INTER-LIGAND FREE ENERGY PREDICTED BY IDOCK:   -6.52 KCAL/MOL
REMARK 924 INTRA-LIGAND FREE ENERGY PREDICTED BY IDOCK:   -0.55 KCAL/MOL
REMARK 927      BINDING AFFINITY PREDICTED BY RF-SCORE:    0.00 PKD
ROOT
HETATM    1  C   UNL     1      -9.815  20.215  66.513  1.00  0.00    -0.574 C  
HETATM    2  C   UNL     1     -10.214  18.771  66.812  1.00  0.00    -0.393 C  
ENDROOT
BRANCH   2   3
HETATM    3  N   UNL     1      -9.545  17.744  65.986  1.00  0.00    -0.529 NA 
BRANCH   3   4
HETATM    4  C   UNL     1      -8.322  17.197  66.593  1.00  0.00    -0.251 C  
HETATM    5  C   UNL     1      -8.278  17.178  68.117  1.00  0.00    -0.224 C  
ENDBRANCH   3   4
BRANCH   3   6
HETATM    6  C   UNL     1     -10.537  16.715  65.593  1.00  0.00    -0.270 C  
BRANCH   6   7
HETATM    7  C   UNL     1     -10.003  15.277  65.468  1.00  0.00    -0.383 C  
BRANCH   7   8
HETATM    8  C   UNL     1     -10.764  14.335  66.336  1.00  0.00    -0.297 A  
HETATM    9  N   UNL     1     -10.810  14.232  67.648  1.00  0.00    -0.265 NA 
HETATM   10  C   UNL     1     -11.629  13.131  67.834  1.00  0.00    -0.336 A  
HETATM   11  N   UNL     1     -12.086  12.605  66.685  1.00  0.00    -0.539 NA 
HETATM   12  O   UNL     1     -11.504  13.389  65.697  1.00  0.00    -0.308 OA 
BRANCH  10  13
HETATM   13  C   UNL     1     -11.937  12.566  69.149  1.00  0.00    -0.287 A  
HETATM   14  C   UNL     1     -11.828  11.190  69.395  1.00  0.00    -0.415 A  
HETATM   15  C   UNL     1     -12.163  10.662  70.648  1.00  0.00    -0.459 A  
HETATM   16  C   UNL     1     -12.608  11.502  71.669  1.00  0.00    -0.299 A  
HETATM   17  C   UNL     1     -12.709  12.872  71.443  1.00  0.00    -0.366 A  
HETATM   18  C   UNL     1     -12.374  13.400  70.193  1.00  0.00    -0.322 A  
ENDBRANCH  10  13
ENDBRANCH   7   8
ENDBRANCH   6   7
ENDBRANCH   3   6
ENDBRANCH   2   3
TORSDOF 6
ENDMDL
MODEL       53
REMARK 921   NORMALIZED FREE ENERGY PREDICTED BY IDOCK:   -4.84 KCAL/MOL
REMARK 922        TOTAL FREE ENERGY PREDICTED BY IDOCK:   -7.07 KCAL/MOL
REMARK 923 INTER-LIGAND FREE ENERGY PREDICTED BY IDOCK:   -6.46 KCAL/MOL
REMARK 924 INTRA-LIGAND FREE ENERGY PREDICTED BY IDOCK:   -0.60 KCAL/MOL
REMARK 927      BINDING AFFINITY PREDICTED BY RF-SCORE:    0.00 PKD
ROOT
HETATM    1  C   UNL     1      -6.251  20.411  69.083  1.00  0.00    -0.345 C  
HETATM    2  C   UNL     1      -7.098  19.622  68.086  1.00  0.00    -0.292 C  
ENDROOT
BRANCH   2   3
HETATM    3  N   UNL     1      -7.724  20.421  67.012  1.00  0.00    -0.319 NA 
BRANCH   3   4
HETATM    4  C   UNL     1      -7.321  20.016  65.657  1.00  0.00    -0.291 C  
HETATM    5  C   UNL     1      -6.465  18.757  65.559  1.00  0.00    -0.317 C  
ENDBRANCH   3   4
BRANCH   3   6
HETATM    6  C   UNL     1      -9.191  20.451  67.222  1.00  0.00    -0.394 C  
BRANCH   6   7
HETATM    7  C   UNL     1     -10.039  19.720  66.166  1.00  0.00    -0.600 C  
BRANCH   7   8
HETATM    8  C   UNL     1     -10.310  18.310  66.565  1.00  0.00    -0.392 A  
HETATM    9  N   UNL     1     -10.911  17.826  67.631  1.00  0.00    -0.312 NA 
HETATM   10  C   UNL     1     -10.783  16.459  67.454  1.00  0.00    -0.278 A  
HETATM   11  N   UNL     1     -10.157  16.126  66.311  1.00  0.00    -0.302 NA 
HETATM   12  O   UNL     1      -9.832  17.345  65.733  1.00  0.00    -0.536 OA 
BRANCH  10  13
HETATM   13  C   UNL     1     -11.244  15.470  68.429  1.00  0.00    -0.341 A  
HETATM   14  C   UNL     1     -11.863  15.859  69.625  1.00  0.00    -0.298 A  
HETATM   15  C   UNL     1     -12.264  14.899  70.564  1.00  0.00    -0.388 A  
HETATM   16  C   UNL     1     -12.055  13.543  70.316  1.00  0.00    -0.425 A  
HETATM   17  C   UNL     1     -11.453  13.141  69.127  1.00  0.00    -0.358 A  
HETATM   18  C   UNL     1     -11.053  14.098  68.190  1.00  0.00    -0.276 A  
ENDBRANCH  10  13
ENDBRANCH   7   8
ENDBRANCH   6   7
ENDBRANCH   3   6
ENDBRANCH   2   3
TORSDOF 6
ENDMDL
MODEL       54
REMARK 921   NORMALIZED FREE ENERGY PREDICTED BY IDOCK:   -4.84 KCAL/MOL
REMARK 922        TOTAL FREE ENERGY PREDICTED BY IDOCK:   -7.06 KCAL/MOL
REMARK 923 INTER-LIGAND FREE ENERGY PREDICTED BY IDOCK:   -6.40 KCAL/MOL
REMARK 924 INTRA-LIGAND FREE ENERGY PREDICTED BY IDOCK:   -0.67 KCAL/MOL
REMARK 927      BINDING AFFINITY PREDICTED BY RF-SCORE:    0.00 PKD
ROOT
HETATM    1  C   UNL     1      -6.335  17.716  65.933  1.00  0.00    -0.213 C  
HETATM    2  C   UNL     1      -6.421  18.994  66.765  1.00  0.00    -0.188 C  
ENDROOT
BRANCH   2   3
HETATM    3  N   UNL     1      -7.603  19.101  67.647  1.00  0.00    -0.237 NA 
BRANCH   3   4
HETATM    4  C   UNL     1      -7.271  19.171  69.078  1.00  0.00    -0.335 C  
HETATM    5  C   UNL     1      -6.233  20.214  69.478  1.00  0.00    -0.370 C  
ENDBRANCH   3   4
BRANCH   3   6
HETATM    6  C   UNL     1      -8.465  20.208  67.172  1.00  0.00    -0.342 C  
BRANCH   6   7
HETATM    7  C   UNL     1      -9.980  19.935  67.180  1.00  0.00    -0.557 C  
BRANCH   7   8
HETATM    8  C   UNL     1     -10.280  18.516  66.837  1.00  0.00    -0.381 A  
HETATM    9  N   UNL     1     -10.656  17.515  67.605  1.00  0.00    -0.370 NA 
HETATM   10  C   UNL     1     -10.702  16.456  66.714  1.00  0.00    -0.180 A  
HETATM   11  N   UNL     1     -10.397  16.805  65.452  1.00  0.00    -0.632 NA 
HETATM   12  O   UNL     1     -10.104  18.160  65.536  1.00  0.00    -0.488 OA 
BRANCH  10  13
HETATM   13  C   UNL     1     -11.011  15.080  67.108  1.00  0.00    -0.329 A  
HETATM   14  C   UNL     1     -10.991  14.032  66.177  1.00  0.00    -0.295 A  
HETATM   15  C   UNL     1     -11.327  12.729  66.565  1.00  0.00    -0.369 A  
HETATM   16  C   UNL     1     -11.682  12.458  67.886  1.00  0.00    -0.421 A  
HETATM   17  C   UNL     1     -11.693  13.486  68.825  1.00  0.00    -0.373 A  
HETATM   18  C   UNL     1     -11.358  14.787  68.439  1.00  0.00    -0.317 A  
ENDBRANCH  10  13
ENDBRANCH   7   8
ENDBRANCH   6   7
ENDBRANCH   3   6
ENDBRANCH   2   3
TORSDOF 6
ENDMDL
MODEL       55
REMARK 921   NORMALIZED FREE ENERGY PREDICTED BY IDOCK:   -4.80 KCAL/MOL
REMARK 922        TOTAL FREE ENERGY PREDICTED BY IDOCK:   -7.01 KCAL/MOL
REMARK 923 INTER-LIGAND FREE ENERGY PREDICTED BY IDOCK:   -6.57 KCAL/MOL
REMARK 924 INTRA-LIGAND FREE ENERGY PREDICTED BY IDOCK:   -0.44 KCAL/MOL
REMARK 927      BINDING AFFINITY PREDICTED BY RF-SCORE:    0.00 PKD
ROOT
HETATM    1  C   UNL     1     -10.453  19.693  67.549  1.00  0.00    -0.589 C  
HETATM    2  C   UNL     1     -10.529  18.869  66.265  1.00  0.00    -0.445 C  
ENDROOT
BRANCH   2   3
HETATM    3  N   UNL     1      -9.289  18.153  65.894  1.00  0.00    -0.492 NA 
BRANCH   3   4
HETATM    4  C   UNL     1      -8.082  18.678  66.550  1.00  0.00    -0.284 C  
HETATM    5  C   UNL     1      -7.166  19.536  65.684  1.00  0.00    -0.283 C  
ENDBRANCH   3   4
BRANCH   3   6
HETATM    6  C   UNL     1      -9.494  16.697  66.081  1.00  0.00    -0.287 C  
BRANCH   6   7
HETATM    7  C   UNL     1     -10.658  16.074  65.291  1.00  0.00    -0.424 C  
BRANCH   7   8
HETATM    8  C   UNL     1     -11.225  14.891  65.997  1.00  0.00    -0.327 A  
HETATM    9  N   UNL     1     -10.938  14.383  67.177  1.00  0.00    -0.296 NA 
HETATM   10  C   UNL     1     -11.747  13.261  67.226  1.00  0.00    -0.377 A  
HETATM   11  N   UNL     1     -12.516  13.109  66.134  1.00  0.00    -0.423 NA 
HETATM   12  O   UNL     1     -12.162  14.175  65.318  1.00  0.00    -0.396 OA 
BRANCH  10  13
HETATM   13  C   UNL     1     -11.740  12.306  68.336  1.00  0.00    -0.390 A  
HETATM   14  C   UNL     1     -12.070  12.702  69.640  1.00  0.00    -0.277 A  
HETATM   15  C   UNL     1     -12.022  11.783  70.696  1.00  0.00    -0.320 A  
HETATM   16  C   UNL     1     -11.646  10.461  70.462  1.00  0.00    -0.433 A  
HETATM   17  C   UNL     1     -11.327  10.051  69.170  1.00  0.00    -0.146 A  
HETATM   18  C   UNL     1     -11.376  10.966  68.115  1.00  0.00    -0.383 A  
ENDBRANCH  10  13
ENDBRANCH   7   8
ENDBRANCH   6   7
ENDBRANCH   3   6
ENDBRANCH   2   3
TORSDOF 6
ENDMDL
MODEL       56
REMARK 921   NORMALIZED FREE ENERGY PREDICTED BY IDOCK:   -4.75 KCAL/MOL
REMARK 922        TOTAL FREE ENERGY PREDICTED BY IDOCK:   -6.95 KCAL/MOL
REMARK 923 INTER-LIGAND FREE ENERGY PREDICTED BY IDOCK:   -6.55 KCAL/MOL
REMARK 924 INTRA-LIGAND FREE ENERGY PREDICTED BY IDOCK:   -0.40 KCAL/MOL
REMARK 927      BINDING AFFINITY PREDICTED BY RF-SCORE:    0.00 PKD
ROOT
HETATM    1  C   UNL     1     -10.724   5.502  70.366  1.00  0.00    -0.321 C  
HETATM    2  C   UNL     1     -11.646   6.713  70.244  1.00  0.00    -0.395 C  
ENDROOT
BRANCH   2   3
HETATM    3  N   UNL     1     -11.909   7.442  71.503  1.00  0.00    -0.283 NA 
BRANCH   3   4
HETATM    4  C   UNL     1     -11.092   6.982  72.637  1.00  0.00    -0.281 C  
HETATM    5  C   UNL     1      -9.904   7.862  73.010  1.00  0.00    -0.355 C  
ENDBRANCH   3   4
BRANCH   3   6
HETATM    6  C   UNL     1     -11.823   8.899  71.248  1.00  0.00    -0.310 C  
BRANCH   6   7
HETATM    7  C   UNL     1     -12.939   9.759  71.868  1.00  0.00    -0.535 C  
BRANCH   7   8
HETATM    8  C   UNL     1     -12.848  11.177  71.421  1.00  0.00    -0.439 A  
HETATM    9  N   UNL     1     -12.279  11.701  70.355  1.00  0.00    -0.358 NA 
HETATM   10  C   UNL     1     -12.475  13.058  70.547  1.00  0.00    -0.231 A  
HETATM   11  N   UNL     1     -13.162  13.345  71.666  1.00  0.00    -0.377 NA 
HETATM   12  O   UNL     1     -13.395  12.107  72.249  1.00  0.00    -0.500 OA 
BRANCH  10  13
HETATM   13  C   UNL     1     -11.953  14.086  69.644  1.00  0.00    -0.393 A  
HETATM   14  C   UNL     1     -11.788  13.838  68.274  1.00  0.00    -0.413 A  
HETATM   15  C   UNL     1     -11.252  14.821  67.433  1.00  0.00    -0.346 A  
HETATM   16  C   UNL     1     -10.878  16.061  67.949  1.00  0.00    -0.333 A  
HETATM   17  C   UNL     1     -11.048  16.326  69.305  1.00  0.00    -0.325 A  
HETATM   18  C   UNL     1     -11.583  15.346  70.146  1.00  0.00    -0.351 A  
ENDBRANCH  10  13
ENDBRANCH   7   8
ENDBRANCH   6   7
ENDBRANCH   3   6
ENDBRANCH   2   3
TORSDOF 6
ENDMDL
MODEL       57
REMARK 921   NORMALIZED FREE ENERGY PREDICTED BY IDOCK:   -4.75 KCAL/MOL
REMARK 922        TOTAL FREE ENERGY PREDICTED BY IDOCK:   -6.95 KCAL/MOL
REMARK 923 INTER-LIGAND FREE ENERGY PREDICTED BY IDOCK:   -6.34 KCAL/MOL
REMARK 924 INTRA-LIGAND FREE ENERGY PREDICTED BY IDOCK:   -0.61 KCAL/MOL
REMARK 927      BINDING AFFINITY PREDICTED BY RF-SCORE:    0.00 PKD
ROOT
HETATM    1  C   UNL     1      -6.841  19.290  69.253  1.00  0.00    -0.353 C  
HETATM    2  C   UNL     1      -8.256  19.302  68.678  1.00  0.00    -0.373 C  
ENDROOT
BRANCH   2   3
HETATM    3  N   UNL     1      -8.345  19.454  67.210  1.00  0.00    -0.287 NA 
BRANCH   3   4
HETATM    4  C   UNL     1      -7.139  19.011  66.493  1.00  0.00    -0.219 C  
HETATM    5  C   UNL     1      -7.156  17.579  65.970  1.00  0.00    -0.299 C  
ENDBRANCH   3   4
BRANCH   3   6
HETATM    6  C   UNL     1      -9.598  18.825  66.731  1.00  0.00    -0.321 C  
BRANCH   6   7
HETATM    7  C   UNL     1     -10.450  18.120  67.801  1.00  0.00    -0.421 C  
BRANCH   7   8
HETATM    8  C   UNL     1     -10.786  16.725  67.401  1.00  0.00    -0.176 A  
HETATM    9  N   UNL     1     -10.491  16.058  66.305  1.00  0.00    -0.315 NA 
HETATM   10  C   UNL     1     -11.142  14.852  66.503  1.00  0.00    -0.341 A  
HETATM   11  N   UNL     1     -11.780  14.778  67.684  1.00  0.00    -0.358 NA 
HETATM   12  O   UNL     1     -11.558  16.017  68.269  1.00  0.00    -0.338 OA 
BRANCH  10  13
HETATM   13  C   UNL     1     -11.171  13.776  65.511  1.00  0.00    -0.303 A  
HETATM   14  C   UNL     1     -12.068  13.800  64.434  1.00  0.00    -0.474 A  
HETATM   15  C   UNL     1     -12.106  12.743  63.516  1.00  0.00    -0.642 A  
HETATM   16  C   UNL     1     -11.248  11.653  63.662  1.00  0.00    -0.497 A  
HETATM   17  C   UNL     1     -10.344  11.621  64.719  1.00  0.00    -0.331 A  
HETATM   18  C   UNL     1     -10.304  12.676  65.636  1.00  0.00    -0.293 A  
ENDBRANCH  10  13
ENDBRANCH   7   8
ENDBRANCH   6   7
ENDBRANCH   3   6
ENDBRANCH   2   3
TORSDOF 6
ENDMDL
MODEL       58
REMARK 921   NORMALIZED FREE ENERGY PREDICTED BY IDOCK:   -4.73 KCAL/MOL
REMARK 922        TOTAL FREE ENERGY PREDICTED BY IDOCK:   -6.92 KCAL/MOL
REMARK 923 INTER-LIGAND FREE ENERGY PREDICTED BY IDOCK:   -6.46 KCAL/MOL
REMARK 924 INTRA-LIGAND FREE ENERGY PREDICTED BY IDOCK:   -0.46 KCAL/MOL
REMARK 927      BINDING AFFINITY PREDICTED BY RF-SCORE:    0.00 PKD
ROOT
HETATM    1  C   UNL     1     -12.096  16.641  73.938  1.00  0.00    -0.352 C  
HETATM    2  C   UNL     1     -12.250  15.130  74.100  1.00  0.00    -0.553 C  
ENDROOT
BRANCH   2   3
HETATM    3  N   UNL     1     -12.228  14.349  72.845  1.00  0.00    -0.071 NA 
BRANCH   3   4
HETATM    4  C   UNL     1     -13.535  13.788  72.472  1.00  0.00    -0.578 C  
HETATM    5  C   UNL     1     -13.530  12.348  71.968  1.00  0.00    -0.460 C  
ENDBRANCH   3   4
BRANCH   3   6
HETATM    6  C   UNL     1     -11.593  15.161  71.780  1.00  0.00    -0.408 C  
BRANCH   6   7
HETATM    7  C   UNL     1     -12.397  15.311  70.476  1.00  0.00    -0.434 C  
BRANCH   7   8
HETATM    8  C   UNL     1     -11.804  14.504  69.373  1.00  0.00    -0.325 A  
HETATM    9  N   UNL     1     -12.131  14.429  68.100  1.00  0.00    -0.277 NA 
HETATM   10  C   UNL     1     -11.261  13.464  67.623  1.00  0.00    -0.276 A  
HETATM   11  N   UNL     1     -10.419  12.995  68.559  1.00  0.00    -0.253 NA 
HETATM   12  O   UNL     1     -10.786  13.669  69.716  1.00  0.00     0.045 OA 
BRANCH  10  13
HETATM   13  C   UNL     1     -11.278  12.969  66.245  1.00  0.00    -0.332 A  
HETATM   14  C   UNL     1     -12.294  13.337  65.351  1.00  0.00    -0.528 A  
HETATM   15  C   UNL     1     -12.315  12.824  64.048  1.00  0.00    -0.492 A  
HETATM   16  C   UNL     1     -11.321  11.942  63.623  1.00  0.00    -0.536 A  
HETATM   17  C   UNL     1     -10.299  11.579  64.495  1.00  0.00    -0.354 A  
HETATM   18  C   UNL     1     -10.277  12.091  65.796  1.00  0.00    -0.274 A  
ENDBRANCH  10  13
ENDBRANCH   7   8
ENDBRANCH   6   7
ENDBRANCH   3   6
ENDBRANCH   2   3
TORSDOF 6
ENDMDL
MODEL       59
REMARK 921   NORMALIZED FREE ENERGY PREDICTED BY IDOCK:   -4.73 KCAL/MOL
REMARK 922        TOTAL FREE ENERGY PREDICTED BY IDOCK:   -6.91 KCAL/MOL
REMARK 923 INTER-LIGAND FREE ENERGY PREDICTED BY IDOCK:   -6.39 KCAL/MOL
REMARK 924 INTRA-LIGAND FREE ENERGY PREDICTED BY IDOCK:   -0.52 KCAL/MOL
REMARK 927      BINDING AFFINITY PREDICTED BY RF-SCORE:    0.00 PKD
ROOT
HETATM    1  C   UNL     1     -10.369   5.849  71.935  1.00  0.00    -0.255 C  
HETATM    2  C   UNL     1     -11.701   6.350  71.381  1.00  0.00    -0.306 C  
ENDROOT
BRANCH   2   3
HETATM    3  N   UNL     1     -11.739   7.781  71.013  1.00  0.00    -0.285 NA 
BRANCH   3   4
HETATM    4  C   UNL     1     -12.221   8.659  72.090  1.00  0.00    -0.386 C  
HETATM    5  C   UNL     1     -13.716   8.960  72.094  1.00  0.00    -0.527 C  
ENDBRANCH   3   4
BRANCH   3   6
HETATM    6  C   UNL     1     -10.423   8.175  70.456  1.00  0.00    -0.214 C  
BRANCH   6   7
HETATM    7  C   UNL     1     -10.095   9.678  70.498  1.00  0.00    -0.338 C  
BRANCH   7   8
HETATM    8  C   UNL     1     -10.706  10.402  69.348  1.00  0.00    -0.244 A  
HETATM    9  N   UNL     1     -10.380  10.405  68.073  1.00  0.00    -0.169 NA 
HETATM   10  C   UNL     1     -11.271  11.321  67.538  1.00  0.00    -0.291 A  
HETATM   11  N   UNL     1     -12.122  11.829  68.445  1.00  0.00    -0.480 NA 
HETATM   12  O   UNL     1     -11.741  11.235  69.640  1.00  0.00    -0.286 OA 
BRANCH  10  13
HETATM   13  C   UNL     1     -11.264  11.729  66.132  1.00  0.00    -0.363 A  
HETATM   14  C   UNL     1     -12.099  12.754  65.667  1.00  0.00    -0.514 A  
HETATM   15  C   UNL     1     -12.106  13.106  64.311  1.00  0.00    -0.477 A  
HETATM   16  C   UNL     1     -11.278  12.441  63.407  1.00  0.00    -0.492 A  
HETATM   17  C   UNL     1     -10.433  11.430  63.857  1.00  0.00    -0.444 A  
HETATM   18  C   UNL     1     -10.425  11.079  65.210  1.00  0.00    -0.316 A  
ENDBRANCH  10  13
ENDBRANCH   7   8
ENDBRANCH   6   7
ENDBRANCH   3   6
ENDBRANCH   2   3
TORSDOF 6
ENDMDL
MODEL       60
REMARK 921   NORMALIZED FREE ENERGY PREDICTED BY IDOCK:   -4.69 KCAL/MOL
REMARK 922        TOTAL FREE ENERGY PREDICTED BY IDOCK:   -6.86 KCAL/MOL
REMARK 923 INTER-LIGAND FREE ENERGY PREDICTED BY IDOCK:   -6.44 KCAL/MOL
REMARK 924 INTRA-LIGAND FREE ENERGY PREDICTED BY IDOCK:   -0.43 KCAL/MOL
REMARK 927      BINDING AFFINITY PREDICTED BY RF-SCORE:    0.00 PKD
ROOT
HETATM    1  C   UNL     1     -11.715  15.535  72.104  1.00  0.00    -0.566 C  
HETATM    2  C   UNL     1     -12.779  14.456  71.910  1.00  0.00    -0.349 C  
ENDROOT
BRANCH   2   3
HETATM    3  N   UNL     1     -12.786  13.801  70.585  1.00  0.00    -0.293 NA 
BRANCH   3   4
HETATM    4  C   UNL     1     -11.952  14.480  69.582  1.00  0.00    -0.328 C  
HETATM    5  C   UNL     1     -11.932  13.857  68.190  1.00  0.00    -0.385 C  
ENDBRANCH   3   4
BRANCH   3   6
HETATM    6  C   UNL     1     -12.477  12.361  70.754  1.00  0.00    -0.267 C  
BRANCH   6   7
HETATM    7  C   UNL     1     -13.156  11.661  71.943  1.00  0.00    -0.490 C  
BRANCH   7   8
HETATM    8  C   UNL     1     -12.967  10.184  71.888  1.00  0.00    -0.447 A  
HETATM    9  N   UNL     1     -11.939   9.471  71.479  1.00  0.00    -0.374 NA 
HETATM   10  C   UNL     1     -12.404   8.173  71.609  1.00  0.00    -0.314 A  
HETATM   11  N   UNL     1     -13.651   8.100  72.106  1.00  0.00    -0.265 NA 
HETATM   12  O   UNL     1     -14.027   9.425  72.276  1.00  0.00    -0.412 OA 
BRANCH  10  13
HETATM   13  C   UNL     1     -11.634   6.994  71.209  1.00  0.00    -0.342 A  
HETATM   14  C   UNL     1     -11.000   6.180  72.158  1.00  0.00    -0.307 A  
HETATM   15  C   UNL     1     -10.236   5.077  71.753  1.00  0.00    -0.272 A  
HETATM   16  C   UNL     1     -10.100   4.775  70.399  1.00  0.00    -0.301 A  
HETATM   17  C   UNL     1     -10.734   5.566  69.446  1.00  0.00    -0.312 A  
HETATM   18  C   UNL     1     -11.497   6.667  69.848  1.00  0.00    -0.414 A  
ENDBRANCH  10  13
ENDBRANCH   7   8
ENDBRANCH   6   7
ENDBRANCH   3   6
ENDBRANCH   2   3
TORSDOF 6
ENDMDL
MODEL       61
REMARK 921   NORMALIZED FREE ENERGY PREDICTED BY IDOCK:   -4.69 KCAL/MOL
REMARK 922        TOTAL FREE ENERGY PREDICTED BY IDOCK:   -6.86 KCAL/MOL
REMARK 923 INTER-LIGAND FREE ENERGY PREDICTED BY IDOCK:   -6.30 KCAL/MOL
REMARK 924 INTRA-LIGAND FREE ENERGY PREDICTED BY IDOCK:   -0.56 KCAL/MOL
REMARK 927      BINDING AFFINITY PREDICTED BY RF-SCORE:    0.00 PKD
ROOT
HETATM    1  C   UNL     1     -10.482   7.807  67.535  1.00  0.00    -0.338 C  
HETATM    2  C   UNL     1     -10.065   7.887  69.002  1.00  0.00    -0.200 C  
ENDROOT
BRANCH   2   3
HETATM    3  N   UNL     1     -11.149   8.213  69.954  1.00  0.00    -0.165 NA 
BRANCH   3   4
HETATM    4  C   UNL     1     -11.415   7.153  70.937  1.00  0.00    -0.297 C  
HETATM    5  C   UNL     1     -12.860   7.015  71.403  1.00  0.00    -0.407 C  
ENDBRANCH   3   4
BRANCH   3   6
HETATM    6  C   UNL     1     -10.883   9.542  70.554  1.00  0.00    -0.292 C  
BRANCH   6   7
HETATM    7  C   UNL     1     -11.991  10.595  70.377  1.00  0.00    -0.436 C  
BRANCH   7   8
HETATM    8  C   UNL     1     -11.770  11.419  69.155  1.00  0.00    -0.342 A  
HETATM    9  N   UNL     1     -11.318  12.649  69.026  1.00  0.00    -0.277 NA 
HETATM   10  C   UNL     1     -11.415  12.862  67.662  1.00  0.00    -0.334 A  
HETATM   11  N   UNL     1     -11.876  11.796  66.986  1.00  0.00    -0.607 NA 
HETATM   12  O   UNL     1     -12.125  10.850  67.971  1.00  0.00    -0.563 OA 
BRANCH  10  13
HETATM   13  C   UNL     1     -11.086  14.135  67.017  1.00  0.00    -0.314 A  
HETATM   14  C   UNL     1     -11.029  14.252  65.621  1.00  0.00    -0.309 A  
HETATM   15  C   UNL     1     -10.676  15.469  65.023  1.00  0.00    -0.463 A  
HETATM   16  C   UNL     1     -10.381  16.581  65.811  1.00  0.00    -0.359 A  
HETATM   17  C   UNL     1     -10.447  16.483  67.198  1.00  0.00    -0.300 A  
HETATM   18  C   UNL     1     -10.799  15.269  67.796  1.00  0.00    -0.295 A  
ENDBRANCH  10  13
ENDBRANCH   7   8
ENDBRANCH   6   7
ENDBRANCH   3   6
ENDBRANCH   2   3
TORSDOF 6
ENDMDL
MODEL       62
REMARK 921   NORMALIZED FREE ENERGY PREDICTED BY IDOCK:   -4.69 KCAL/MOL
REMARK 922        TOTAL FREE ENERGY PREDICTED BY IDOCK:   -6.86 KCAL/MOL
REMARK 923 INTER-LIGAND FREE ENERGY PREDICTED BY IDOCK:   -6.30 KCAL/MOL
REMARK 924 INTRA-LIGAND FREE ENERGY PREDICTED BY IDOCK:   -0.56 KCAL/MOL
REMARK 927      BINDING AFFINITY PREDICTED BY RF-SCORE:    0.00 PKD
ROOT
HETATM    1  C   UNL     1     -11.046   5.325  73.135  1.00  0.00    -0.384 C  
HETATM    2  C   UNL     1     -10.065   6.139  72.294  1.00  0.00    -0.179 C  
ENDROOT
BRANCH   2   3
HETATM    3  N   UNL     1     -10.671   7.196  71.457  1.00  0.00    -0.223 NA 
BRANCH   3   4
HETATM    4  C   UNL     1     -11.607   6.687  70.443  1.00  0.00    -0.398 C  
HETATM    5  C   UNL     1     -10.984   6.181  69.146  1.00  0.00    -0.450 C  
ENDBRANCH   3   4
BRANCH   3   6
HETATM    6  C   UNL     1     -11.243   8.244  72.335  1.00  0.00    -0.381 C  
BRANCH   6   7
HETATM    7  C   UNL     1     -12.675   8.695  72.002  1.00  0.00    -0.427 C  
BRANCH   7   8
HETATM    8  C   UNL     1     -12.714  10.124  71.581  1.00  0.00    -0.447 A  
HETATM    9  N   UNL     1     -12.177  10.720  70.537  1.00  0.00    -0.334 NA 
HETATM   10  C   UNL     1     -12.508  12.048  70.746  1.00  0.00    -0.279 A  
HETATM   11  N   UNL     1     -13.242  12.247  71.855  1.00  0.00    -0.451 NA 
HETATM   12  O   UNL     1     -13.364  10.981  72.413  1.00  0.00    -0.257 OA 
BRANCH  10  13
HETATM   13  C   UNL     1     -12.071  13.138  69.873  1.00  0.00    -0.357 A  
HETATM   14  C   UNL     1     -11.412  12.883  68.662  1.00  0.00    -0.346 A  
HETATM   15  C   UNL     1     -10.967  13.939  67.857  1.00  0.00    -0.265 A  
HETATM   16  C   UNL     1     -11.179  15.261  68.250  1.00  0.00    -0.318 A  
HETATM   17  C   UNL     1     -11.843  15.529  69.444  1.00  0.00    -0.392 A  
HETATM   18  C   UNL     1     -12.288  14.476  70.248  1.00  0.00    -0.408 A  
ENDBRANCH  10  13
ENDBRANCH   7   8
ENDBRANCH   6   7
ENDBRANCH   3   6
ENDBRANCH   2   3
TORSDOF 6
ENDMDL
MODEL       63
REMARK 921   NORMALIZED FREE ENERGY PREDICTED BY IDOCK:   -4.67 KCAL/MOL
REMARK 922        TOTAL FREE ENERGY PREDICTED BY IDOCK:   -6.84 KCAL/MOL
REMARK 923 INTER-LIGAND FREE ENERGY PREDICTED BY IDOCK:   -6.25 KCAL/MOL
REMARK 924 INTRA-LIGAND FREE ENERGY PREDICTED BY IDOCK:   -0.59 KCAL/MOL
REMARK 927      BINDING AFFINITY PREDICTED BY RF-SCORE:    0.00 PKD
ROOT
HETATM    1  C   UNL     1     -11.474   6.468  70.392  1.00  0.00    -0.465 C  
HETATM    2  C   UNL     1     -12.350   7.426  71.196  1.00  0.00    -0.314 C  
ENDROOT
BRANCH   2   3
HETATM    3  N   UNL     1     -11.624   8.344  72.099  1.00  0.00    -0.347 NA 
BRANCH   3   4
HETATM    4  C   UNL     1     -10.744   7.661  73.060  1.00  0.00    -0.391 C  
HETATM    5  C   UNL     1      -9.274   8.068  73.033  1.00  0.00    -0.337 C  
ENDBRANCH   3   4
BRANCH   3   6
HETATM    6  C   UNL     1     -10.944   9.384  71.291  1.00  0.00    -0.370 C  
BRANCH   6   7
HETATM    7  C   UNL     1     -11.847  10.492  70.720  1.00  0.00    -0.465 C  
BRANCH   7   8
HETATM    8  C   UNL     1     -11.624  10.680  69.259  1.00  0.00    -0.275 A  
HETATM    9  N   UNL     1     -10.863  10.010  68.420  1.00  0.00    -0.237 NA 
HETATM   10  C   UNL     1     -11.031  10.711  67.237  1.00  0.00    -0.284 A  
HETATM   11  N   UNL     1     -11.883  11.746  67.347  1.00  0.00    -0.624 NA 
HETATM   12  O   UNL     1     -12.261  11.734  68.682  1.00  0.00    -0.405 OA 
BRANCH  10  13
HETATM   13  C   UNL     1     -10.323  10.388  65.997  1.00  0.00    -0.262 A  
HETATM   14  C   UNL     1     -10.589  11.075  64.805  1.00  0.00    -0.350 A  
HETATM   15  C   UNL     1      -9.929  10.727  63.620  1.00  0.00    -0.405 A  
HETATM   16  C   UNL     1      -8.995   9.691  63.614  1.00  0.00    -0.248 A  
HETATM   17  C   UNL     1      -8.711   9.008  64.793  1.00  0.00    -0.187 A  
HETATM   18  C   UNL     1      -9.369   9.355  65.976  1.00  0.00    -0.279 A  
ENDBRANCH  10  13
ENDBRANCH   7   8
ENDBRANCH   6   7
ENDBRANCH   3   6
ENDBRANCH   2   3
TORSDOF 6
ENDMDL
MODEL       64
REMARK 921   NORMALIZED FREE ENERGY PREDICTED BY IDOCK:   -4.66 KCAL/MOL
REMARK 922        TOTAL FREE ENERGY PREDICTED BY IDOCK:   -6.82 KCAL/MOL
REMARK 923 INTER-LIGAND FREE ENERGY PREDICTED BY IDOCK:   -6.33 KCAL/MOL
REMARK 924 INTRA-LIGAND FREE ENERGY PREDICTED BY IDOCK:   -0.49 KCAL/MOL
REMARK 927      BINDING AFFINITY PREDICTED BY RF-SCORE:    0.00 PKD
ROOT
HETATM    1  C   UNL     1     -12.050  12.779  63.718  1.00  0.00    -0.596 C  
HETATM    2  C   UNL     1     -11.310  12.066  64.848  1.00  0.00    -0.310 C  
ENDROOT
BRANCH   2   3
HETATM    3  N   UNL     1     -11.911  12.207  66.191  1.00  0.00    -0.600 NA 
BRANCH   3   4
HETATM    4  C   UNL     1     -11.193  11.472  67.244  1.00  0.00    -0.301 C  
HETATM    5  C   UNL     1      -9.670  11.525  67.182  1.00  0.00    -0.199 C  
ENDBRANCH   3   4
BRANCH   3   6
HETATM    6  C   UNL     1     -12.109  13.646  66.486  1.00  0.00    -0.423 C  
BRANCH   6   7
HETATM    7  C   UNL     1     -12.128  14.033  67.975  1.00  0.00    -0.312 C  
BRANCH   7   8
HETATM    8  C   UNL     1     -11.182  15.148  68.262  1.00  0.00    -0.308 A  
HETATM    9  N   UNL     1     -11.048  16.322  67.682  1.00  0.00    -0.243 NA 
HETATM   10  C   UNL     1      -9.962  16.863  68.349  1.00  0.00    -0.275 A  
HETATM   11  N   UNL     1      -9.477  16.064  69.315  1.00  0.00    -0.247 NA 
HETATM   12  O   UNL     1     -10.271  14.928  69.248  1.00  0.00    -0.229 OA 
BRANCH  10  13
HETATM   13  C   UNL     1      -9.370  18.159  68.013  1.00  0.00    -0.289 A  
HETATM   14  C   UNL     1      -8.027  18.444  68.296  1.00  0.00    -0.317 A  
HETATM   15  C   UNL     1      -7.489  19.703  68.002  1.00  0.00    -0.331 A  
HETATM   16  C   UNL     1      -8.284  20.689  67.419  1.00  0.00    -0.296 A  
HETATM   17  C   UNL     1      -9.616  20.417  67.120  1.00  0.00    -0.587 A  
HETATM   18  C   UNL     1     -10.154  19.161  67.413  1.00  0.00    -0.465 A  
ENDBRANCH  10  13
ENDBRANCH   7   8
ENDBRANCH   6   7
ENDBRANCH   3   6
ENDBRANCH   2   3
TORSDOF 6
ENDMDL
MODEL       65
REMARK 921   NORMALIZED FREE ENERGY PREDICTED BY IDOCK:   -4.63 KCAL/MOL
REMARK 922        TOTAL FREE ENERGY PREDICTED BY IDOCK:   -6.77 KCAL/MOL
REMARK 923 INTER-LIGAND FREE ENERGY PREDICTED BY IDOCK:   -6.39 KCAL/MOL
REMARK 924 INTRA-LIGAND FREE ENERGY PREDICTED BY IDOCK:   -0.38 KCAL/MOL
REMARK 927      BINDING AFFINITY PREDICTED BY RF-SCORE:    0.00 PKD
ROOT
HETATM    1  C   UNL     1     -13.469   9.226  71.596  1.00  0.00    -0.465 C  
HETATM    2  C   UNL     1     -13.104  10.670  71.938  1.00  0.00    -0.458 C  
ENDROOT
BRANCH   2   3
HETATM    3  N   UNL     1     -11.972  11.238  71.175  1.00  0.00    -0.133 NA 
BRANCH   3   4
HETATM    4  C   UNL     1     -11.479  10.360  70.103  1.00  0.00    -0.319 C  
HETATM    5  C   UNL     1     -10.170   9.628  70.383  1.00  0.00    -0.348 C  
ENDBRANCH   3   4
BRANCH   3   6
HETATM    6  C   UNL     1     -12.329  12.603  70.723  1.00  0.00    -0.283 C  
BRANCH   6   7
HETATM    7  C   UNL     1     -11.751  13.036  69.364  1.00  0.00    -0.386 C  
BRANCH   7   8
HETATM    8  C   UNL     1     -11.429  14.490  69.345  1.00  0.00    -0.285 A  
HETATM    9  N   UNL     1     -11.209  15.301  68.332  1.00  0.00    -0.293 NA 
HETATM   10  C   UNL     1     -10.898  16.493  68.964  1.00  0.00    -0.329 A  
HETATM   11  N   UNL     1     -10.957  16.418  70.305  1.00  0.00    -0.320 NA 
HETATM   12  O   UNL     1     -11.293  15.094  70.556  1.00  0.00    -0.267 OA 
BRANCH  10  13
HETATM   13  C   UNL     1     -10.503  17.709  68.250  1.00  0.00    -0.376 A  
HETATM   14  C   UNL     1      -9.919  18.792  68.922  1.00  0.00    -0.423 A  
HETATM   15  C   UNL     1      -9.582  19.961  68.228  1.00  0.00    -0.436 A  
HETATM   16  C   UNL     1      -9.821  20.060  66.858  1.00  0.00    -0.571 A  
HETATM   17  C   UNL     1     -10.388  18.987  66.175  1.00  0.00    -0.537 A  
HETATM   18  C   UNL     1     -10.724  17.820  66.866  1.00  0.00    -0.165 A  
ENDBRANCH  10  13
ENDBRANCH   7   8
ENDBRANCH   6   7
ENDBRANCH   3   6
ENDBRANCH   2   3
TORSDOF 6
ENDMDL
MODEL       66
REMARK 921   NORMALIZED FREE ENERGY PREDICTED BY IDOCK:   -4.62 KCAL/MOL
REMARK 922        TOTAL FREE ENERGY PREDICTED BY IDOCK:   -6.76 KCAL/MOL
REMARK 923 INTER-LIGAND FREE ENERGY PREDICTED BY IDOCK:   -6.34 KCAL/MOL
REMARK 924 INTRA-LIGAND FREE ENERGY PREDICTED BY IDOCK:   -0.43 KCAL/MOL
REMARK 927      BINDING AFFINITY PREDICTED BY RF-SCORE:    0.00 PKD
ROOT
HETATM    1  C   UNL     1      -9.096  14.317  66.838  1.00  0.00    -0.268 C  
HETATM    2  C   UNL     1     -10.154  13.535  66.063  1.00  0.00    -0.310 C  
ENDROOT
BRANCH   2   3
HETATM    3  N   UNL     1     -11.528  13.618  66.602  1.00  0.00    -0.329 NA 
BRANCH   3   4
HETATM    4  C   UNL     1     -12.567  13.721  65.566  1.00  0.00    -0.512 C  
HETATM    5  C   UNL     1     -12.076  13.767  64.123  1.00  0.00    -0.478 C  
ENDBRANCH   3   4
BRANCH   3   6
HETATM    6  C   UNL     1     -11.741  12.510  67.563  1.00  0.00    -0.374 C  
BRANCH   6   7
HETATM    7  C   UNL     1     -11.873  12.916  69.041  1.00  0.00    -0.352 C  
BRANCH   7   8
HETATM    8  C   UNL     1     -11.923  11.724  69.933  1.00  0.00    -0.332 A  
HETATM    9  N   UNL     1     -11.324  10.556  69.829  1.00  0.00    -0.278 NA 
HETATM   10  C   UNL     1     -11.825   9.864  70.919  1.00  0.00    -0.356 A  
HETATM   11  N   UNL     1     -12.670  10.591  71.671  1.00  0.00    -0.436 NA 
HETATM   12  O   UNL     1     -12.745  11.812  71.013  1.00  0.00    -0.348 OA 
BRANCH  10  13
HETATM   13  C   UNL     1     -11.504   8.465  71.206  1.00  0.00    -0.325 A  
HETATM   14  C   UNL     1     -11.448   7.985  72.522  1.00  0.00    -0.471 A  
HETATM   15  C   UNL     1     -11.101   6.653  72.780  1.00  0.00    -0.283 A  
HETATM   16  C   UNL     1     -10.811   5.785  71.727  1.00  0.00    -0.311 A  
HETATM   17  C   UNL     1     -10.875   6.244  70.414  1.00  0.00    -0.360 A  
HETATM   18  C   UNL     1     -11.221   7.574  70.156  1.00  0.00    -0.213 A  
ENDBRANCH  10  13
ENDBRANCH   7   8
ENDBRANCH   6   7
ENDBRANCH   3   6
ENDBRANCH   2   3
TORSDOF 6
ENDMDL
MODEL       67
REMARK 921   NORMALIZED FREE ENERGY PREDICTED BY IDOCK:   -4.58 KCAL/MOL
REMARK 922        TOTAL FREE ENERGY PREDICTED BY IDOCK:   -6.71 KCAL/MOL
REMARK 923 INTER-LIGAND FREE ENERGY PREDICTED BY IDOCK:   -6.28 KCAL/MOL
REMARK 924 INTRA-LIGAND FREE ENERGY PREDICTED BY IDOCK:   -0.43 KCAL/MOL
REMARK 927      BINDING AFFINITY PREDICTED BY RF-SCORE:    0.00 PKD
ROOT
HETATM    1  C   UNL     1      -9.147   9.656  69.991  1.00  0.00    -0.269 C  
HETATM    2  C   UNL     1     -10.171  10.570  69.320  1.00  0.00    -0.225 C  
ENDROOT
BRANCH   2   3
HETATM    3  N   UNL     1     -11.474  10.679  70.010  1.00  0.00    -0.299 NA 
BRANCH   3   4
HETATM    4  C   UNL     1     -11.493  10.063  71.345  1.00  0.00    -0.255 C  
HETATM    5  C   UNL     1     -12.854   9.595  71.850  1.00  0.00    -0.515 C  
ENDBRANCH   3   4
BRANCH   3   6
HETATM    6  C   UNL     1     -11.916  12.094  69.991  1.00  0.00    -0.315 C  
BRANCH   6   7
HETATM    7  C   UNL     1     -11.903  12.786  68.617  1.00  0.00    -0.341 C  
BRANCH   7   8
HETATM    8  C   UNL     1     -11.591  14.237  68.739  1.00  0.00    -0.322 A  
HETATM    9  N   UNL     1     -11.352  15.139  67.810  1.00  0.00    -0.324 NA 
HETATM   10  C   UNL     1     -11.063  16.269  68.556  1.00  0.00    -0.368 A  
HETATM   11  N   UNL     1     -11.153  16.070  69.883  1.00  0.00    -0.327 NA 
HETATM   12  O   UNL     1     -11.486  14.727  70.003  1.00  0.00    -0.257 OA 
BRANCH  10  13
HETATM   13  C   UNL     1     -10.660  17.547  67.967  1.00  0.00    -0.384 A  
HETATM   14  C   UNL     1     -10.649  17.738  66.578  1.00  0.00    -0.220 A  
HETATM   15  C   UNL     1     -10.223  18.955  66.030  1.00  0.00    -0.437 A  
HETATM   16  C   UNL     1      -9.808  19.994  66.863  1.00  0.00    -0.571 A  
HETATM   17  C   UNL     1      -9.826  19.823  68.244  1.00  0.00    -0.537 A  
HETATM   18  C   UNL     1     -10.251  18.609  68.792  1.00  0.00    -0.316 A  
ENDBRANCH  10  13
ENDBRANCH   7   8
ENDBRANCH   6   7
ENDBRANCH   3   6
ENDBRANCH   2   3
TORSDOF 6
ENDMDL
MODEL       68
REMARK 921   NORMALIZED FREE ENERGY PREDICTED BY IDOCK:   -4.57 KCAL/MOL
REMARK 922        TOTAL FREE ENERGY PREDICTED BY IDOCK:   -6.70 KCAL/MOL
REMARK 923 INTER-LIGAND FREE ENERGY PREDICTED BY IDOCK:   -6.00 KCAL/MOL
REMARK 924 INTRA-LIGAND FREE ENERGY PREDICTED BY IDOCK:   -0.70 KCAL/MOL
REMARK 927      BINDING AFFINITY PREDICTED BY RF-SCORE:    0.00 PKD
ROOT
HETATM    1  C   UNL     1     -12.534  12.880  65.243  1.00  0.00    -0.552 C  
HETATM    2  C   UNL     1     -12.367  14.192  66.006  1.00  0.00    -0.445 C  
ENDROOT
BRANCH   2   3
HETATM    3  N   UNL     1     -10.998  14.752  66.017  1.00  0.00    -0.322 NA 
BRANCH   3   4
HETATM    4  C   UNL     1     -10.735  15.656  67.147  1.00  0.00    -0.314 C  
HETATM    5  C   UNL     1     -11.656  15.509  68.354  1.00  0.00    -0.368 C  
ENDBRANCH   3   4
BRANCH   3   6
HETATM    6  C   UNL     1     -10.020  13.645  65.888  1.00  0.00    -0.291 C  
BRANCH   6   7
HETATM    7  C   UNL     1      -9.029  13.482  67.054  1.00  0.00    -0.237 C  
BRANCH   7   8
HETATM    8  C   UNL     1      -9.424  12.364  67.955  1.00  0.00    -0.198 A  
HETATM    9  N   UNL     1     -10.555  12.140  68.590  1.00  0.00    -0.227 NA 
HETATM   10  C   UNL     1     -10.273  10.992  69.310  1.00  0.00    -0.127 A  
HETATM   11  N   UNL     1      -9.032  10.520  69.097  1.00  0.00    -0.176 NA 
HETATM   12  O   UNL     1      -8.468  11.432  68.216  1.00  0.00    -0.141 OA 
BRANCH  10  13
HETATM   13  C   UNL     1     -11.214  10.370  70.244  1.00  0.00    -0.395 A  
HETATM   14  C   UNL     1     -12.255  11.106  70.827  1.00  0.00    -0.484 A  
HETATM   15  C   UNL     1     -13.123  10.504  71.748  1.00  0.00    -0.570 A  
HETATM   16  C   UNL     1     -12.962   9.162  72.092  1.00  0.00    -0.498 A  
HETATM   17  C   UNL     1     -11.940   8.416  71.511  1.00  0.00    -0.344 A  
HETATM   18  C   UNL     1     -11.074   9.015  70.592  1.00  0.00    -0.314 A  
ENDBRANCH  10  13
ENDBRANCH   7   8
ENDBRANCH   6   7
ENDBRANCH   3   6
ENDBRANCH   2   3
TORSDOF 6
ENDMDL
MODEL       69
REMARK 921   NORMALIZED FREE ENERGY PREDICTED BY IDOCK:   -4.56 KCAL/MOL
REMARK 922        TOTAL FREE ENERGY PREDICTED BY IDOCK:   -6.69 KCAL/MOL
REMARK 923 INTER-LIGAND FREE ENERGY PREDICTED BY IDOCK:   -6.27 KCAL/MOL
REMARK 924 INTRA-LIGAND FREE ENERGY PREDICTED BY IDOCK:   -0.41 KCAL/MOL
REMARK 927      BINDING AFFINITY PREDICTED BY RF-SCORE:    0.00 PKD
ROOT
HETATM    1  C   UNL     1     -10.633  19.542  67.283  1.00  0.00    -0.610 C  
HETATM    2  C   UNL     1     -10.442  18.781  65.972  1.00  0.00    -0.432 C  
ENDROOT
BRANCH   2   3
HETATM    3  N   UNL     1      -9.317  17.822  65.951  1.00  0.00    -0.514 NA 
BRANCH   3   4
HETATM    4  C   UNL     1      -8.237  18.153  66.893  1.00  0.00    -0.243 C  
HETATM    5  C   UNL     1      -8.025  17.175  68.043  1.00  0.00    -0.212 C  
ENDBRANCH   3   4
BRANCH   3   6
HETATM    6  C   UNL     1      -9.849  16.447  66.099  1.00  0.00    -0.338 C  
BRANCH   6   7
HETATM    7  C   UNL     1     -10.813  15.974  64.997  1.00  0.00    -0.421 C  
BRANCH   7   8
HETATM    8  C   UNL     1     -10.981  14.494  65.017  1.00  0.00    -0.398 A  
HETATM    9  N   UNL     1     -10.440  13.585  65.800  1.00  0.00    -0.286 NA 
HETATM   10  C   UNL     1     -10.932  12.403  65.272  1.00  0.00    -0.298 A  
HETATM   11  N   UNL     1     -11.763  12.588  64.232  1.00  0.00    -0.356 NA 
HETATM   12  O   UNL     1     -11.783  13.965  64.054  1.00  0.00    -0.370 OA 
BRANCH  10  13
HETATM   13  C   UNL     1     -10.558  11.077  65.768  1.00  0.00    -0.260 A  
HETATM   14  C   UNL     1     -10.969  10.628  67.031  1.00  0.00    -0.274 A  
HETATM   15  C   UNL     1     -10.569   9.372  67.505  1.00  0.00    -0.333 A  
HETATM   16  C   UNL     1      -9.759   8.550  66.722  1.00  0.00    -0.303 A  
HETATM   17  C   UNL     1      -9.353   8.978  65.460  1.00  0.00    -0.255 A  
HETATM   18  C   UNL     1      -9.752  10.231  64.987  1.00  0.00    -0.370 A  
ENDBRANCH  10  13
ENDBRANCH   7   8
ENDBRANCH   6   7
ENDBRANCH   3   6
ENDBRANCH   2   3
TORSDOF 6
ENDMDL
MODEL       70
REMARK 921   NORMALIZED FREE ENERGY PREDICTED BY IDOCK:   -4.55 KCAL/MOL
REMARK 922        TOTAL FREE ENERGY PREDICTED BY IDOCK:   -6.68 KCAL/MOL
REMARK 923 INTER-LIGAND FREE ENERGY PREDICTED BY IDOCK:   -6.13 KCAL/MOL
REMARK 924 INTRA-LIGAND FREE ENERGY PREDICTED BY IDOCK:   -0.55 KCAL/MOL
REMARK 927      BINDING AFFINITY PREDICTED BY RF-SCORE:    0.00 PKD
ROOT
HETATM    1  C   UNL     1      -7.187  14.541  67.491  1.00  0.00    -0.210 C  
HETATM    2  C   UNL     1      -8.636  14.669  67.024  1.00  0.00    -0.224 C  
ENDROOT
BRANCH   2   3
HETATM    3  N   UNL     1      -9.275  15.976  67.288  1.00  0.00    -0.203 NA 
BRANCH   3   4
HETATM    4  C   UNL     1      -8.866  17.037  66.355  1.00  0.00    -0.278 C  
HETATM    5  C   UNL     1      -8.511  18.382  66.980  1.00  0.00    -0.257 C  
ENDBRANCH   3   4
BRANCH   3   6
HETATM    6  C   UNL     1     -10.743  15.788  67.382  1.00  0.00    -0.317 C  
BRANCH   6   7
HETATM    7  C   UNL     1     -11.400  16.262  68.690  1.00  0.00    -0.333 C  
BRANCH   7   8
HETATM    8  C   UNL     1     -11.833  15.111  69.532  1.00  0.00    -0.332 A  
HETATM    9  N   UNL     1     -11.481  13.844  69.489  1.00  0.00    -0.275 NA 
HETATM   10  C   UNL     1     -12.277  13.278  70.471  1.00  0.00    -0.340 A  
HETATM   11  N   UNL     1     -13.058  14.171  71.105  1.00  0.00    -0.340 NA 
HETATM   12  O   UNL     1     -12.776  15.376  70.476  1.00  0.00    -0.410 OA 
BRANCH  10  13
HETATM   13  C   UNL     1     -12.302  11.845  70.767  1.00  0.00    -0.416 A  
HETATM   14  C   UNL     1     -13.125  11.321  71.774  1.00  0.00    -0.527 A  
HETATM   15  C   UNL     1     -13.106   9.952  72.068  1.00  0.00    -0.545 A  
HETATM   16  C   UNL     1     -12.270   9.091  71.357  1.00  0.00    -0.387 A  
HETATM   17  C   UNL     1     -11.457   9.594  70.346  1.00  0.00    -0.325 A  
HETATM   18  C   UNL     1     -11.474  10.961  70.051  1.00  0.00    -0.411 A  
ENDBRANCH  10  13
ENDBRANCH   7   8
ENDBRANCH   6   7
ENDBRANCH   3   6
ENDBRANCH   2   3
TORSDOF 6
ENDMDL
MODEL       71
REMARK 921   NORMALIZED FREE ENERGY PREDICTED BY IDOCK:   -4.54 KCAL/MOL
REMARK 922        TOTAL FREE ENERGY PREDICTED BY IDOCK:   -6.66 KCAL/MOL
REMARK 923 INTER-LIGAND FREE ENERGY PREDICTED BY IDOCK:   -6.13 KCAL/MOL
REMARK 924 INTRA-LIGAND FREE ENERGY PREDICTED BY IDOCK:   -0.52 KCAL/MOL
REMARK 927      BINDING AFFINITY PREDICTED BY RF-SCORE:    0.00 PKD
ROOT
HETATM    1  C   UNL     1      -7.566  17.536  68.398  1.00  0.00    -0.254 C  
HETATM    2  C   UNL     1      -8.788  16.682  68.729  1.00  0.00    -0.264 C  
ENDROOT
BRANCH   2   3
HETATM    3  N   UNL     1     -10.055  17.426  68.901  1.00  0.00    -0.331 NA 
BRANCH   3   4
HETATM    4  C   UNL     1      -9.958  18.852  68.558  1.00  0.00    -0.406 C  
HETATM    5  C   UNL     1     -10.876  19.340  67.442  1.00  0.00    -0.554 C  
ENDBRANCH   3   4
BRANCH   3   6
HETATM    6  C   UNL     1     -11.140  16.706  68.193  1.00  0.00    -0.285 C  
BRANCH   6   7
HETATM    7  C   UNL     1     -11.735  15.492  68.927  1.00  0.00    -0.385 C  
BRANCH   7   8
HETATM    8  C   UNL     1     -11.563  14.239  68.139  1.00  0.00    -0.332 A  
HETATM    9  N   UNL     1     -10.957  14.032  66.990  1.00  0.00    -0.294 NA 
HETATM   10  C   UNL     1     -11.205  12.689  66.758  1.00  0.00    -0.300 A  
HETATM   11  N   UNL     1     -11.906  12.098  67.741  1.00  0.00    -0.514 NA 
HETATM   12  O   UNL     1     -12.155  13.123  68.644  1.00  0.00    -0.315 OA 
BRANCH  10  13
HETATM   13  C   UNL     1     -10.783  11.986  65.545  1.00  0.00    -0.318 A  
HETATM   14  C   UNL     1     -11.288  12.338  64.285  1.00  0.00    -0.415 A  
HETATM   15  C   UNL     1     -10.901  11.630  63.140  1.00  0.00    -0.281 A  
HETATM   16  C   UNL     1     -10.005  10.566  63.240  1.00  0.00    -0.231 A  
HETATM   17  C   UNL     1      -9.485  10.214  64.483  1.00  0.00    -0.364 A  
HETATM   18  C   UNL     1      -9.870  10.920  65.626  1.00  0.00    -0.292 A  
ENDBRANCH  10  13
ENDBRANCH   7   8
ENDBRANCH   6   7
ENDBRANCH   3   6
ENDBRANCH   2   3
TORSDOF 6
ENDMDL
MODEL       72
REMARK 921   NORMALIZED FREE ENERGY PREDICTED BY IDOCK:   -4.54 KCAL/MOL
REMARK 922        TOTAL FREE ENERGY PREDICTED BY IDOCK:   -6.65 KCAL/MOL
REMARK 923 INTER-LIGAND FREE ENERGY PREDICTED BY IDOCK:   -6.16 KCAL/MOL
REMARK 924 INTRA-LIGAND FREE ENERGY PREDICTED BY IDOCK:   -0.49 KCAL/MOL
REMARK 927      BINDING AFFINITY PREDICTED BY RF-SCORE:    0.00 PKD
ROOT
HETATM    1  C   UNL     1     -12.380  12.013  63.446  1.00  0.00    -0.635 C  
HETATM    2  C   UNL     1     -11.565  11.304  64.526  1.00  0.00     0.181 C  
ENDROOT
BRANCH   2   3
HETATM    3  N   UNL     1     -11.764  11.802  65.904  1.00  0.00    -0.384 NA 
BRANCH   3   4
HETATM    4  C   UNL     1     -10.590  11.631  66.773  1.00  0.00    -0.244 C  
HETATM    5  C   UNL     1      -9.376  10.960  66.139  1.00  0.00    -0.211 C  
ENDBRANCH   3   4
BRANCH   3   6
HETATM    6  C   UNL     1     -12.278  13.191  65.848  1.00  0.00    -0.436 C  
BRANCH   6   7
HETATM    7  C   UNL     1     -11.951  14.080  67.060  1.00  0.00    -0.472 C  
BRANCH   7   8
HETATM    8  C   UNL     1     -11.230  15.318  66.651  1.00  0.00    -0.232 A  
HETATM    9  N   UNL     1     -10.616  16.227  67.379  1.00  0.00    -0.312 NA 
HETATM   10  C   UNL     1     -10.216  17.152  66.429  1.00  0.00    -0.328 A  
HETATM   11  N   UNL     1     -10.547  16.804  65.173  1.00  0.00    -0.682 NA 
HETATM   12  O   UNL     1     -11.228  15.604  65.321  1.00  0.00    -0.311 OA 
BRANCH  10  13
HETATM   13  C   UNL     1      -9.536  18.406  66.757  1.00  0.00    -0.297 A  
HETATM   14  C   UNL     1     -10.245  19.608  66.884  1.00  0.00    -0.560 A  
HETATM   15  C   UNL     1      -9.572  20.805  67.161  1.00  0.00    -0.465 A  
HETATM   16  C   UNL     1      -8.186  20.813  67.318  1.00  0.00    -0.239 A  
HETATM   17  C   UNL     1      -7.471  19.625  67.208  1.00  0.00    -0.278 A  
HETATM   18  C   UNL     1      -8.141  18.429  66.932  1.00  0.00    -0.257 A  
ENDBRANCH  10  13
ENDBRANCH   7   8
ENDBRANCH   6   7
ENDBRANCH   3   6
ENDBRANCH   2   3
TORSDOF 6
ENDMDL
MODEL       73
REMARK 921   NORMALIZED FREE ENERGY PREDICTED BY IDOCK:   -4.51 KCAL/MOL
REMARK 922        TOTAL FREE ENERGY PREDICTED BY IDOCK:   -6.62 KCAL/MOL
REMARK 923 INTER-LIGAND FREE ENERGY PREDICTED BY IDOCK:   -6.03 KCAL/MOL
REMARK 924 INTRA-LIGAND FREE ENERGY PREDICTED BY IDOCK:   -0.59 KCAL/MOL
REMARK 927      BINDING AFFINITY PREDICTED BY RF-SCORE:    0.00 PKD
ROOT
HETATM    1  C   UNL     1     -12.611  15.921  74.010  1.00  0.00    -0.755 C  
HETATM    2  C   UNL     1     -13.625  15.727  72.885  1.00  0.00    -0.577 C  
ENDROOT
BRANCH   2   3
HETATM    3  N   UNL     1     -13.052  15.405  71.560  1.00  0.00    -0.433 NA 
BRANCH   3   4
HETATM    4  C   UNL     1     -11.593  15.579  71.486  1.00  0.00    -0.419 C  
HETATM    5  C   UNL     1     -11.028  15.938  70.116  1.00  0.00    -0.369 C  
ENDBRANCH   3   4
BRANCH   3   6
HETATM    6  C   UNL     1     -13.522  14.063  71.141  1.00  0.00    -0.185 C  
BRANCH   6   7
HETATM    7  C   UNL     1     -12.581  12.889  71.458  1.00  0.00    -0.269 C  
BRANCH   7   8
HETATM    8  C   UNL     1     -12.160  12.176  70.219  1.00  0.00    -0.302 A  
HETATM    9  N   UNL     1     -11.616  10.988  70.062  1.00  0.00    -0.318 NA 
HETATM   10  C   UNL     1     -11.400  10.935  68.695  1.00  0.00    -0.295 A  
HETATM   11  N   UNL     1     -11.823  12.032  68.045  1.00  0.00    -0.498 NA 
HETATM   12  O   UNL     1     -12.311  12.856  69.051  1.00  0.00    -0.110 OA 
BRANCH  10  13
HETATM   13  C   UNL     1     -10.739   9.815  68.024  1.00  0.00    -0.298 A  
HETATM   14  C   UNL     1     -10.266   9.929  66.709  1.00  0.00    -0.301 A  
HETATM   15  C   UNL     1      -9.670   8.834  66.069  1.00  0.00    -0.276 A  
HETATM   16  C   UNL     1      -9.536   7.617  66.737  1.00  0.00    -0.269 A  
HETATM   17  C   UNL     1      -9.989   7.492  68.047  1.00  0.00    -0.204 A  
HETATM   18  C   UNL     1     -10.584   8.584  68.686  1.00  0.00    -0.154 A  
ENDBRANCH  10  13
ENDBRANCH   7   8
ENDBRANCH   6   7
ENDBRANCH   3   6
ENDBRANCH   2   3
TORSDOF 6
ENDMDL
MODEL       74
REMARK 921   NORMALIZED FREE ENERGY PREDICTED BY IDOCK:   -4.51 KCAL/MOL
REMARK 922        TOTAL FREE ENERGY PREDICTED BY IDOCK:   -6.62 KCAL/MOL
REMARK 923 INTER-LIGAND FREE ENERGY PREDICTED BY IDOCK:   -6.19 KCAL/MOL
REMARK 924 INTRA-LIGAND FREE ENERGY PREDICTED BY IDOCK:   -0.42 KCAL/MOL
REMARK 927      BINDING AFFINITY PREDICTED BY RF-SCORE:    0.00 PKD
ROOT
HETATM    1  C   UNL     1     -10.450  16.124  69.460  1.00  0.00    -0.295 C  
HETATM    2  C   UNL     1     -10.067  14.832  68.740  1.00  0.00    -0.237 C  
ENDROOT
BRANCH   2   3
HETATM    3  N   UNL     1     -11.186  14.099  68.110  1.00  0.00    -0.265 NA 
BRANCH   3   4
HETATM    4  C   UNL     1     -11.070  13.980  66.649  1.00  0.00    -0.309 C  
HETATM    5  C   UNL     1     -11.803  12.805  66.010  1.00  0.00    -0.495 C  
ENDBRANCH   3   4
BRANCH   3   6
HETATM    6  C   UNL     1     -11.374  12.806  68.809  1.00  0.00    -0.288 C  
BRANCH   6   7
HETATM    7  C   UNL     1     -12.178  12.859  70.120  1.00  0.00    -0.336 C  
BRANCH   7   8
HETATM    8  C   UNL     1     -12.193  11.536  70.805  1.00  0.00    -0.363 A  
HETATM    9  N   UNL     1     -11.394  10.498  70.674  1.00  0.00    -0.323 NA 
HETATM   10  C   UNL     1     -11.971   9.566  71.520  1.00  0.00    -0.399 A  
HETATM   11  N   UNL     1     -13.057  10.029  72.162  1.00  0.00    -0.426 NA 
HETATM   12  O   UNL     1     -13.213  11.321  71.680  1.00  0.00    -0.419 OA 
BRANCH  10  13
HETATM   13  C   UNL     1     -11.475   8.198  71.674  1.00  0.00    -0.323 A  
HETATM   14  C   UNL     1     -11.463   7.300  70.597  1.00  0.00    -0.322 A  
HETATM   15  C   UNL     1     -11.020   5.983  70.772  1.00  0.00    -0.364 A  
HETATM   16  C   UNL     1     -10.581   5.550  72.023  1.00  0.00    -0.284 A  
HETATM   17  C   UNL     1     -10.574   6.433  73.099  1.00  0.00    -0.278 A  
HETATM   18  C   UNL     1     -11.016   7.748  72.925  1.00  0.00    -0.467 A  
ENDBRANCH  10  13
ENDBRANCH   7   8
ENDBRANCH   6   7
ENDBRANCH   3   6
ENDBRANCH   2   3
TORSDOF 6
ENDMDL
MODEL       75
REMARK 921   NORMALIZED FREE ENERGY PREDICTED BY IDOCK:   -4.51 KCAL/MOL
REMARK 922        TOTAL FREE ENERGY PREDICTED BY IDOCK:   -6.62 KCAL/MOL
REMARK 923 INTER-LIGAND FREE ENERGY PREDICTED BY IDOCK:   -6.21 KCAL/MOL
REMARK 924 INTRA-LIGAND FREE ENERGY PREDICTED BY IDOCK:   -0.41 KCAL/MOL
REMARK 927      BINDING AFFINITY PREDICTED BY RF-SCORE:    0.00 PKD
ROOT
HETATM    1  C   UNL     1     -12.898  11.598  71.662  1.00  0.00    -0.454 C  
HETATM    2  C   UNL     1     -13.372  13.029  71.905  1.00  0.00    -0.446 C  
ENDROOT
BRANCH   2   3
HETATM    3  N   UNL     1     -12.765  14.057  71.033  1.00  0.00    -0.346 NA 
BRANCH   3   4
HETATM    4  C   UNL     1     -11.755  14.887  71.708  1.00  0.00    -0.330 C  
HETATM    5  C   UNL     1     -12.279  16.104  72.463  1.00  0.00    -0.609 C  
ENDBRANCH   3   4
BRANCH   3   6
HETATM    6  C   UNL     1     -12.286  13.415  69.787  1.00  0.00    -0.245 C  
BRANCH   6   7
HETATM    7  C   UNL     1     -12.157  14.336  68.560  1.00  0.00    -0.295 C  
BRANCH   7   8
HETATM    8  C   UNL     1     -11.844  13.562  67.327  1.00  0.00    -0.385 A  
HETATM    9  N   UNL     1     -10.842  12.751  67.061  1.00  0.00    -0.253 NA 
HETATM   10  C   UNL     1     -11.075  12.408  65.740  1.00  0.00    -0.315 A  
HETATM   11  N   UNL     1     -12.189  12.964  65.233  1.00  0.00    -0.452 NA 
HETATM   12  O   UNL     1     -12.688  13.736  66.274  1.00  0.00    -0.373 OA 
BRANCH  10  13
HETATM   13  C   UNL     1     -10.179  11.559  64.954  1.00  0.00    -0.324 A  
HETATM   14  C   UNL     1     -10.405  11.325  63.590  1.00  0.00    -0.464 A  
HETATM   15  C   UNL     1      -9.557  10.479  62.863  1.00  0.00    -0.355 A  
HETATM   16  C   UNL     1      -8.475   9.861  63.488  1.00  0.00    -0.183 A  
HETATM   17  C   UNL     1      -8.230  10.094  64.839  1.00  0.00    -0.157 A  
HETATM   18  C   UNL     1      -9.075  10.939  65.565  1.00  0.00    -0.221 A  
ENDBRANCH  10  13
ENDBRANCH   7   8
ENDBRANCH   6   7
ENDBRANCH   3   6
ENDBRANCH   2   3
TORSDOF 6
ENDMDL
MODEL       76
REMARK 921   NORMALIZED FREE ENERGY PREDICTED BY IDOCK:   -4.49 KCAL/MOL
REMARK 922        TOTAL FREE ENERGY PREDICTED BY IDOCK:   -6.59 KCAL/MOL
REMARK 923 INTER-LIGAND FREE ENERGY PREDICTED BY IDOCK:   -6.08 KCAL/MOL
REMARK 924 INTRA-LIGAND FREE ENERGY PREDICTED BY IDOCK:   -0.51 KCAL/MOL
REMARK 927      BINDING AFFINITY PREDICTED BY RF-SCORE:    0.00 PKD
ROOT
HETATM    1  C   UNL     1      -7.153  18.065  68.229  1.00  0.00    -0.241 C  
HETATM    2  C   UNL     1      -8.399  18.161  67.350  1.00  0.00    -0.239 C  
ENDROOT
BRANCH   2   3
HETATM    3  N   UNL     1      -9.688  18.177  68.074  1.00  0.00    -0.298 NA 
BRANCH   3   4
HETATM    4  C   UNL     1     -10.294  19.513  68.179  1.00  0.00    -0.433 C  
HETATM    5  C   UNL     1      -9.861  20.532  67.131  1.00  0.00    -0.567 C  
ENDBRANCH   3   4
BRANCH   3   6
HETATM    6  C   UNL     1     -10.585  17.151  67.492  1.00  0.00    -0.323 C  
BRANCH   6   7
HETATM    7  C   UNL     1     -10.364  16.828  66.004  1.00  0.00    -0.346 C  
BRANCH   7   8
HETATM    8  C   UNL     1     -10.620  15.390  65.713  1.00  0.00    -0.348 A  
HETATM    9  N   UNL     1     -10.237  14.308  66.358  1.00  0.00    -0.284 NA 
HETATM   10  C   UNL     1     -10.727  13.291  65.556  1.00  0.00    -0.289 A  
HETATM   11  N   UNL     1     -11.406  13.736  64.485  1.00  0.00    -0.375 NA 
HETATM   12  O   UNL     1     -11.323  15.119  64.581  1.00  0.00    -0.390 OA 
BRANCH  10  13
HETATM   13  C   UNL     1     -10.497  11.870  65.821  1.00  0.00    -0.295 A  
HETATM   14  C   UNL     1     -10.973  11.259  66.990  1.00  0.00    -0.352 A  
HETATM   15  C   UNL     1     -10.711   9.907  67.244  1.00  0.00    -0.304 A  
HETATM   16  C   UNL     1      -9.974   9.150  66.334  1.00  0.00    -0.358 A  
HETATM   17  C   UNL     1      -9.506   9.740  65.163  1.00  0.00    -0.338 A  
HETATM   18  C   UNL     1      -9.767  11.089  64.908  1.00  0.00    -0.303 A  
ENDBRANCH  10  13
ENDBRANCH   7   8
ENDBRANCH   6   7
ENDBRANCH   3   6
ENDBRANCH   2   3
TORSDOF 6
ENDMDL
MODEL       77
REMARK 921   NORMALIZED FREE ENERGY PREDICTED BY IDOCK:   -4.49 KCAL/MOL
REMARK 922        TOTAL FREE ENERGY PREDICTED BY IDOCK:   -6.59 KCAL/MOL
REMARK 923 INTER-LIGAND FREE ENERGY PREDICTED BY IDOCK:   -6.04 KCAL/MOL
REMARK 924 INTRA-LIGAND FREE ENERGY PREDICTED BY IDOCK:   -0.54 KCAL/MOL
REMARK 927      BINDING AFFINITY PREDICTED BY RF-SCORE:    0.00 PKD
ROOT
HETATM    1  C   UNL     1      -7.114  10.239  62.931  1.00  0.00    -0.127 C  
HETATM    2  C   UNL     1      -7.835   9.794  64.201  1.00  0.00    -0.134 C  
ENDROOT
BRANCH   2   3
HETATM    3  N   UNL     1      -9.306   9.944  64.183  1.00  0.00    -0.269 NA 
BRANCH   3   4
HETATM    4  C   UNL     1      -9.925   9.886  65.516  1.00  0.00    -0.292 C  
HETATM    5  C   UNL     1      -9.149  10.553  66.648  1.00  0.00    -0.172 C  
ENDBRANCH   3   4
BRANCH   3   6
HETATM    6  C   UNL     1      -9.661  11.153  63.404  1.00  0.00    -0.352 C  
BRANCH   6   7
HETATM    7  C   UNL     1     -11.158  11.505  63.350  1.00  0.00    -0.370 C  
BRANCH   7   8
HETATM    8  C   UNL     1     -11.461  12.726  64.147  1.00  0.00    -0.393 A  
HETATM    9  N   UNL     1     -10.662  13.519  64.829  1.00  0.00    -0.377 NA 
HETATM   10  C   UNL     1     -11.547  14.420  65.398  1.00  0.00    -0.347 A  
HETATM   11  N   UNL     1     -12.827  14.202  65.051  1.00  0.00    -0.713 NA 
HETATM   12  O   UNL     1     -12.772  13.077  64.239  1.00  0.00    -0.653 OA 
BRANCH  10  13
HETATM   13  C   UNL     1     -11.139  15.482  66.319  1.00  0.00    -0.177 A  
HETATM   14  C   UNL     1     -10.370  16.570  65.884  1.00  0.00    -0.365 A  
HETATM   15  C   UNL     1      -9.957  17.557  66.788  1.00  0.00    -0.313 A  
HETATM   16  C   UNL     1     -10.312  17.471  68.134  1.00  0.00    -0.375 A  
HETATM   17  C   UNL     1     -11.087  16.403  68.578  1.00  0.00    -0.357 A  
HETATM   18  C   UNL     1     -11.499  15.417  67.677  1.00  0.00    -0.255 A  
ENDBRANCH  10  13
ENDBRANCH   7   8
ENDBRANCH   6   7
ENDBRANCH   3   6
ENDBRANCH   2   3
TORSDOF 6
ENDMDL
MODEL       78
REMARK 921   NORMALIZED FREE ENERGY PREDICTED BY IDOCK:   -4.48 KCAL/MOL
REMARK 922        TOTAL FREE ENERGY PREDICTED BY IDOCK:   -6.58 KCAL/MOL
REMARK 923 INTER-LIGAND FREE ENERGY PREDICTED BY IDOCK:   -6.01 KCAL/MOL
REMARK 924 INTRA-LIGAND FREE ENERGY PREDICTED BY IDOCK:   -0.57 KCAL/MOL
REMARK 927      BINDING AFFINITY PREDICTED BY RF-SCORE:    0.00 PKD
ROOT
HETATM    1  C   UNL     1      -8.493  19.112  68.924  1.00  0.00    -0.318 C  
HETATM    2  C   UNL     1      -9.548  18.232  68.257  1.00  0.00    -0.318 C  
ENDROOT
BRANCH   2   3
HETATM    3  N   UNL     1      -9.088  16.887  67.849  1.00  0.00    -0.229 NA 
BRANCH   3   4
HETATM    4  C   UNL     1      -7.945  16.388  68.628  1.00  0.00    -0.220 C  
HETATM    5  C   UNL     1      -8.076  14.975  69.186  1.00  0.00    -0.192 C  
ENDBRANCH   3   4
BRANCH   3   6
HETATM    6  C   UNL     1     -10.249  15.965  67.821  1.00  0.00    -0.260 C  
BRANCH   6   7
HETATM    7  C   UNL     1     -11.425  16.334  68.742  1.00  0.00    -0.289 C  
BRANCH   7   8
HETATM    8  C   UNL     1     -11.864  15.168  69.560  1.00  0.00    -0.332 A  
HETATM    9  N   UNL     1     -11.440  13.922  69.566  1.00  0.00    -0.275 NA 
HETATM   10  C   UNL     1     -12.285  13.322  70.484  1.00  0.00    -0.340 A  
HETATM   11  N   UNL     1     -13.166  14.174  71.036  1.00  0.00    -0.312 NA 
HETATM   12  O   UNL     1     -12.899  15.388  70.416  1.00  0.00    -0.390 OA 
BRANCH  10  13
HETATM   13  C   UNL     1     -12.255  11.892  70.797  1.00  0.00    -0.401 A  
HETATM   14  C   UNL     1     -11.444  11.005  70.075  1.00  0.00    -0.398 A  
HETATM   15  C   UNL     1     -11.457   9.634  70.364  1.00  0.00    -0.325 A  
HETATM   16  C   UNL     1     -12.275   9.136  71.378  1.00  0.00    -0.407 A  
HETATM   17  C   UNL     1     -13.075  10.008  72.112  1.00  0.00    -0.482 A  
HETATM   18  C   UNL     1     -13.063  11.376  71.825  1.00  0.00    -0.523 A  
ENDBRANCH  10  13
ENDBRANCH   7   8
ENDBRANCH   6   7
ENDBRANCH   3   6
ENDBRANCH   2   3
TORSDOF 6
ENDMDL
MODEL       79
REMARK 921   NORMALIZED FREE ENERGY PREDICTED BY IDOCK:   -4.48 KCAL/MOL
REMARK 922        TOTAL FREE ENERGY PREDICTED BY IDOCK:   -6.58 KCAL/MOL
REMARK 923 INTER-LIGAND FREE ENERGY PREDICTED BY IDOCK:   -6.12 KCAL/MOL
REMARK 924 INTRA-LIGAND FREE ENERGY PREDICTED BY IDOCK:   -0.45 KCAL/MOL
REMARK 927      BINDING AFFINITY PREDICTED BY RF-SCORE:    0.00 PKD
ROOT
HETATM    1  C   UNL     1     -10.590  19.925  66.302  1.00  0.00    -0.534 C  
HETATM    2  C   UNL     1      -9.465  20.270  67.275  1.00  0.00    -0.423 C  
ENDROOT
BRANCH   2   3
HETATM    3  N   UNL     1      -8.100  19.940  66.812  1.00  0.00    -0.302 NA 
BRANCH   3   4
HETATM    4  C   UNL     1      -7.082  20.921  67.215  1.00  0.00    -0.370 C  
HETATM    5  C   UNL     1      -6.127  20.485  68.321  1.00  0.00    -0.346 C  
ENDBRANCH   3   4
BRANCH   3   6
HETATM    6  C   UNL     1      -7.781  18.545  67.199  1.00  0.00    -0.225 C  
BRANCH   6   7
HETATM    7  C   UNL     1      -7.656  17.537  66.043  1.00  0.00    -0.256 C  
BRANCH   7   8
HETATM    8  C   UNL     1      -8.713  16.489  66.116  1.00  0.00    -0.300 A  
HETATM    9  N   UNL     1      -8.677  15.276  66.624  1.00  0.00    -0.282 NA 
HETATM   10  C   UNL     1      -9.936  14.785  66.319  1.00  0.00    -0.291 A  
HETATM   11  N   UNL     1     -10.714  15.674  65.679  1.00  0.00    -0.352 NA 
HETATM   12  O   UNL     1      -9.904  16.792  65.532  1.00  0.00    -0.564 OA 
BRANCH  10  13
HETATM   13  C   UNL     1     -10.367  13.420  66.624  1.00  0.00    -0.269 A  
HETATM   14  C   UNL     1     -11.187  13.143  67.727  1.00  0.00    -0.308 A  
HETATM   15  C   UNL     1     -11.559  11.826  68.025  1.00  0.00    -0.386 A  
HETATM   16  C   UNL     1     -11.120  10.773  67.223  1.00  0.00    -0.339 A  
HETATM   17  C   UNL     1     -10.317  11.033  66.116  1.00  0.00    -0.306 A  
HETATM   18  C   UNL     1      -9.945  12.348  65.818  1.00  0.00    -0.270 A  
ENDBRANCH  10  13
ENDBRANCH   7   8
ENDBRANCH   6   7
ENDBRANCH   3   6
ENDBRANCH   2   3
TORSDOF 6
ENDMDL
MODEL       80
REMARK 921   NORMALIZED FREE ENERGY PREDICTED BY IDOCK:   -4.48 KCAL/MOL
REMARK 922        TOTAL FREE ENERGY PREDICTED BY IDOCK:   -6.58 KCAL/MOL
REMARK 923 INTER-LIGAND FREE ENERGY PREDICTED BY IDOCK:   -6.10 KCAL/MOL
REMARK 924 INTRA-LIGAND FREE ENERGY PREDICTED BY IDOCK:   -0.48 KCAL/MOL
REMARK 927      BINDING AFFINITY PREDICTED BY RF-SCORE:    0.00 PKD
ROOT
HETATM    1  C   UNL     1      -6.770  17.610  68.882  1.00  0.00    -0.236 C  
HETATM    2  C   UNL     1      -7.519  18.895  68.536  1.00  0.00    -0.307 C  
ENDROOT
BRANCH   2   3
HETATM    3  N   UNL     1      -7.997  18.996  67.140  1.00  0.00    -0.252 NA 
BRANCH   3   4
HETATM    4  C   UNL     1      -7.397  18.006  66.234  1.00  0.00    -0.282 C  
HETATM    5  C   UNL     1      -6.221  18.490  65.391  1.00  0.00    -0.307 C  
ENDBRANCH   3   4
BRANCH   3   6
HETATM    6  C   UNL     1      -9.479  19.001  67.134  1.00  0.00    -0.307 C  
BRANCH   6   7
HETATM    7  C   UNL     1     -10.160  18.599  68.454  1.00  0.00    -0.426 C  
BRANCH   7   8
HETATM    8  C   UNL     1     -10.618  17.181  68.422  1.00  0.00    -0.371 A  
HETATM    9  N   UNL     1     -10.947  16.369  69.404  1.00  0.00    -0.327 NA 
HETATM   10  C   UNL     1     -11.210  15.184  68.738  1.00  0.00    -0.284 A  
HETATM   11  N   UNL     1     -11.076  15.280  67.404  1.00  0.00    -0.326 NA 
HETATM   12  O   UNL     1     -10.671  16.592  67.197  1.00  0.00    -0.303 OA 
BRANCH  10  13
HETATM   13  C   UNL     1     -11.560  13.935  69.418  1.00  0.00    -0.350 A  
HETATM   14  C   UNL     1     -11.173  12.691  68.902  1.00  0.00    -0.329 A  
HETATM   15  C   UNL     1     -11.549  11.505  69.545  1.00  0.00    -0.400 A  
HETATM   16  C   UNL     1     -12.312  11.549  70.711  1.00  0.00    -0.472 A  
HETATM   17  C   UNL     1     -12.693  12.778  71.243  1.00  0.00    -0.364 A  
HETATM   18  C   UNL     1     -12.318  13.962  70.602  1.00  0.00    -0.451 A  
ENDBRANCH  10  13
ENDBRANCH   7   8
ENDBRANCH   6   7
ENDBRANCH   3   6
ENDBRANCH   2   3
TORSDOF 6
ENDMDL
MODEL       81
REMARK 921   NORMALIZED FREE ENERGY PREDICTED BY IDOCK:   -4.47 KCAL/MOL
REMARK 922        TOTAL FREE ENERGY PREDICTED BY IDOCK:   -6.56 KCAL/MOL
REMARK 923 INTER-LIGAND FREE ENERGY PREDICTED BY IDOCK:   -6.23 KCAL/MOL
REMARK 924 INTRA-LIGAND FREE ENERGY PREDICTED BY IDOCK:   -0.33 KCAL/MOL
REMARK 927      BINDING AFFINITY PREDICTED BY RF-SCORE:    0.00 PKD
ROOT
HETATM    1  C   UNL     1     -10.238  11.104  63.264  1.00  0.00    -0.403 C  
HETATM    2  C   UNL     1      -9.668  11.166  64.680  1.00  0.00    -0.262 C  
ENDROOT
BRANCH   2   3
HETATM    3  N   UNL     1     -10.308  10.266  65.663  1.00  0.00    -0.211 NA 
BRANCH   3   4
HETATM    4  C   UNL     1      -9.513   9.070  65.979  1.00  0.00    -0.256 C  
HETATM    5  C   UNL     1      -8.062   9.313  66.382  1.00  0.00    -0.107 C  
ENDBRANCH   3   4
BRANCH   3   6
HETATM    6  C   UNL     1     -10.712  11.054  66.852  1.00  0.00    -0.274 C  
BRANCH   6   7
HETATM    7  C   UNL     1     -10.937  10.254  68.147  1.00  0.00    -0.328 C  
BRANCH   7   8
HETATM    8  C   UNL     1     -11.600  11.082  69.193  1.00  0.00    -0.319 A  
HETATM    9  N   UNL     1     -11.521  12.374  69.434  1.00  0.00    -0.280 NA 
HETATM   10  C   UNL     1     -12.303  12.516  70.567  1.00  0.00    -0.262 A  
HETATM   11  N   UNL     1     -12.860  11.363  70.979  1.00  0.00    -0.324 NA 
HETATM   12  O   UNL     1     -12.384  10.416  70.082  1.00  0.00    -0.273 OA 
BRANCH  10  13
HETATM   13  C   UNL     1     -12.479  13.785  71.275  1.00  0.00    -0.428 A  
HETATM   14  C   UNL     1     -11.611  14.865  71.063  1.00  0.00    -0.344 A  
HETATM   15  C   UNL     1     -11.772  16.059  71.778  1.00  0.00    -0.593 A  
HETATM   16  C   UNL     1     -12.802  16.188  72.708  1.00  0.00    -0.446 A  
HETATM   17  C   UNL     1     -13.680  15.129  72.920  1.00  0.00    -0.497 A  
HETATM   18  C   UNL     1     -13.521  13.937  72.207  1.00  0.00    -0.623 A  
ENDBRANCH  10  13
ENDBRANCH   7   8
ENDBRANCH   6   7
ENDBRANCH   3   6
ENDBRANCH   2   3
TORSDOF 6
ENDMDL
MODEL       82
REMARK 921   NORMALIZED FREE ENERGY PREDICTED BY IDOCK:   -4.47 KCAL/MOL
REMARK 922        TOTAL FREE ENERGY PREDICTED BY IDOCK:   -6.56 KCAL/MOL
REMARK 923 INTER-LIGAND FREE ENERGY PREDICTED BY IDOCK:   -6.16 KCAL/MOL
REMARK 924 INTRA-LIGAND FREE ENERGY PREDICTED BY IDOCK:   -0.40 KCAL/MOL
REMARK 927      BINDING AFFINITY PREDICTED BY RF-SCORE:    0.00 PKD
ROOT
HETATM    1  C   UNL     1      -9.720   3.794  70.528  1.00  0.00    -0.230 C  
HETATM    2  C   UNL     1      -9.792   4.960  71.512  1.00  0.00    -0.183 C  
ENDROOT
BRANCH   2   3
HETATM    3  N   UNL     1     -10.958   4.954  72.420  1.00  0.00    -0.141 NA 
BRANCH   3   4
HETATM    4  C   UNL     1     -10.615   4.686  73.825  1.00  0.00    -0.263 C  
HETATM    5  C   UNL     1     -10.481   3.218  74.216  1.00  0.00    -0.253 C  
ENDBRANCH   3   4
BRANCH   3   6
HETATM    6  C   UNL     1     -11.739   6.197  72.216  1.00  0.00    -0.302 C  
BRANCH   6   7
HETATM    7  C   UNL     1     -11.128   7.482  72.801  1.00  0.00    -0.416 C  
BRANCH   7   8
HETATM    8  C   UNL     1     -11.713   8.700  72.174  1.00  0.00    -0.371 A  
HETATM    9  N   UNL     1     -11.206   9.530  71.288  1.00  0.00    -0.358 NA 
HETATM   10  C   UNL     1     -12.201  10.485  71.167  1.00  0.00    -0.391 A  
HETATM   11  N   UNL     1     -13.281  10.229  71.926  1.00  0.00    -0.455 NA 
HETATM   12  O   UNL     1     -12.953   9.061  72.601  1.00  0.00    -0.405 OA 
BRANCH  10  13
HETATM   13  C   UNL     1     -12.079  11.679  70.329  1.00  0.00    -0.443 A  
HETATM   14  C   UNL     1     -11.713  11.589  68.979  1.00  0.00    -0.400 A  
HETATM   15  C   UNL     1     -11.564  12.745  68.203  1.00  0.00    -0.380 A  
HETATM   16  C   UNL     1     -11.784  14.003  68.765  1.00  0.00    -0.388 A  
HETATM   17  C   UNL     1     -12.161  14.107  70.101  1.00  0.00    -0.415 A  
HETATM   18  C   UNL     1     -12.310  12.954  70.876  1.00  0.00    -0.365 A  
ENDBRANCH  10  13
ENDBRANCH   7   8
ENDBRANCH   6   7
ENDBRANCH   3   6
ENDBRANCH   2   3
TORSDOF 6
ENDMDL
MODEL       83
REMARK 921   NORMALIZED FREE ENERGY PREDICTED BY IDOCK:   -4.46 KCAL/MOL
REMARK 922        TOTAL FREE ENERGY PREDICTED BY IDOCK:   -6.56 KCAL/MOL
REMARK 923 INTER-LIGAND FREE ENERGY PREDICTED BY IDOCK:   -5.99 KCAL/MOL
REMARK 924 INTRA-LIGAND FREE ENERGY PREDICTED BY IDOCK:   -0.57 KCAL/MOL
REMARK 927      BINDING AFFINITY PREDICTED BY RF-SCORE:    0.00 PKD
ROOT
HETATM    1  C   UNL     1     -10.298   7.026  73.753  1.00  0.00    -0.408 C  
HETATM    2  C   UNL     1     -10.749   7.833  72.537  1.00  0.00    -0.314 C  
ENDROOT
BRANCH   2   3
HETATM    3  N   UNL     1     -12.056   7.445  71.965  1.00  0.00    -0.295 NA 
BRANCH   3   4
HETATM    4  C   UNL     1     -13.071   8.508  72.026  1.00  0.00    -0.371 C  
HETATM    5  C   UNL     1     -14.398   8.212  71.336  1.00  0.00    -0.472 C  
ENDBRANCH   3   4
BRANCH   3   6
HETATM    6  C   UNL     1     -11.846   6.887  70.609  1.00  0.00    -0.368 C  
BRANCH   6   7
HETATM    7  C   UNL     1     -10.498   7.218  69.945  1.00  0.00    -0.236 C  
BRANCH   7   8
HETATM    8  C   UNL     1     -10.607   8.405  69.051  1.00  0.00    -0.154 A  
HETATM    9  N   UNL     1     -10.971   9.641  69.316  1.00  0.00    -0.204 NA 
HETATM   10  C   UNL     1     -10.935  10.239  68.067  1.00  0.00    -0.289 A  
HETATM   11  N   UNL     1     -10.535   9.408  67.089  1.00  0.00    -0.254 NA 
HETATM   12  O   UNL     1     -10.333   8.195  67.735  1.00  0.00    -0.214 OA 
BRANCH  10  13
HETATM   13  C   UNL     1     -11.331  11.627  67.823  1.00  0.00    -0.356 A  
HETATM   14  C   UNL     1     -11.550  12.105  66.524  1.00  0.00    -0.425 A  
HETATM   15  C   UNL     1     -11.892  13.446  66.307  1.00  0.00    -0.438 A  
HETATM   16  C   UNL     1     -12.021  14.322  67.384  1.00  0.00    -0.426 A  
HETATM   17  C   UNL     1     -11.820  13.858  68.681  1.00  0.00    -0.407 A  
HETATM   18  C   UNL     1     -11.479  12.520  68.899  1.00  0.00    -0.355 A  
ENDBRANCH  10  13
ENDBRANCH   7   8
ENDBRANCH   6   7
ENDBRANCH   3   6
ENDBRANCH   2   3
TORSDOF 6
ENDMDL
MODEL       84
REMARK 921   NORMALIZED FREE ENERGY PREDICTED BY IDOCK:   -4.42 KCAL/MOL
REMARK 922        TOTAL FREE ENERGY PREDICTED BY IDOCK:   -6.49 KCAL/MOL
REMARK 923 INTER-LIGAND FREE ENERGY PREDICTED BY IDOCK:   -5.87 KCAL/MOL
REMARK 924 INTRA-LIGAND FREE ENERGY PREDICTED BY IDOCK:   -0.62 KCAL/MOL
REMARK 927      BINDING AFFINITY PREDICTED BY RF-SCORE:    0.00 PKD
ROOT
HETATM    1  C   UNL     1     -11.893  13.157  68.326  1.00  0.00    -0.384 C  
HETATM    2  C   UNL     1     -11.533  13.633  66.920  1.00  0.00    -0.345 C  
ENDROOT
BRANCH   2   3
HETATM    3  N   UNL     1     -11.624  12.607  65.859  1.00  0.00    -0.374 NA 
BRANCH   3   4
HETATM    4  C   UNL     1     -12.453  13.010  64.713  1.00  0.00    -0.427 C  
HETATM    5  C   UNL     1     -12.385  12.110  63.484  1.00  0.00    -0.682 C  
ENDBRANCH   3   4
BRANCH   3   6
HETATM    6  C   UNL     1     -10.258  12.166  65.491  1.00  0.00    -0.265 C  
BRANCH   6   7
HETATM    7  C   UNL     1      -9.988  10.654  65.588  1.00  0.00    -0.327 C  
BRANCH   7   8
HETATM    8  C   UNL     1      -9.982  10.190  67.004  1.00  0.00    -0.199 A  
HETATM    9  N   UNL     1     -10.656   9.221  67.587  1.00  0.00    -0.272 NA 
HETATM   10  C   UNL     1     -10.268   9.340  68.911  1.00  0.00    -0.202 A  
HETATM   11  N   UNL     1      -9.372  10.320  69.118  1.00  0.00    -0.195 NA 
HETATM   12  O   UNL     1      -9.195  10.890  67.865  1.00  0.00    -0.147 OA 
BRANCH  10  13
HETATM   13  C   UNL     1     -10.808   8.510  69.989  1.00  0.00    -0.225 A  
HETATM   14  C   UNL     1     -11.306   9.080  71.169  1.00  0.00    -0.375 A  
HETATM   15  C   UNL     1     -11.784   8.268  72.205  1.00  0.00    -0.453 A  
HETATM   16  C   UNL     1     -11.772   6.880  72.074  1.00  0.00    -0.336 A  
HETATM   17  C   UNL     1     -11.291   6.300  70.903  1.00  0.00    -0.389 A  
HETATM   18  C   UNL     1     -10.815   7.109  69.868  1.00  0.00    -0.276 A  
ENDBRANCH  10  13
ENDBRANCH   7   8
ENDBRANCH   6   7
ENDBRANCH   3   6
ENDBRANCH   2   3
TORSDOF 6
ENDMDL
MODEL       85
REMARK 921   NORMALIZED FREE ENERGY PREDICTED BY IDOCK:   -4.39 KCAL/MOL
REMARK 922        TOTAL FREE ENERGY PREDICTED BY IDOCK:   -6.45 KCAL/MOL
REMARK 923 INTER-LIGAND FREE ENERGY PREDICTED BY IDOCK:   -5.95 KCAL/MOL
REMARK 924 INTRA-LIGAND FREE ENERGY PREDICTED BY IDOCK:   -0.50 KCAL/MOL
REMARK 927      BINDING AFFINITY PREDICTED BY RF-SCORE:    0.00 PKD
ROOT
HETATM    1  C   UNL     1      -7.855   8.609  70.022  1.00  0.00    -0.103 C  
HETATM    2  C   UNL     1      -8.688   9.843  69.678  1.00  0.00    -0.204 C  
ENDROOT
BRANCH   2   3
HETATM    3  N   UNL     1     -10.101   9.580  69.331  1.00  0.00    -0.187 NA 
BRANCH   3   4
HETATM    4  C   UNL     1     -10.320   8.282  68.675  1.00  0.00    -0.200 C  
HETATM    5  C   UNL     1     -10.239   8.276  67.152  1.00  0.00    -0.365 C  
ENDBRANCH   3   4
BRANCH   3   6
HETATM    6  C   UNL     1     -10.945   9.802  70.529  1.00  0.00    -0.321 C  
BRANCH   6   7
HETATM    7  C   UNL     1     -12.128  10.768  70.350  1.00  0.00    -0.443 C  
BRANCH   7   8
HETATM    8  C   UNL     1     -11.904  11.703  69.212  1.00  0.00    -0.331 A  
HETATM    9  N   UNL     1     -11.426  12.929  69.197  1.00  0.00    -0.291 NA 
HETATM   10  C   UNL     1     -11.533  13.277  67.861  1.00  0.00    -0.306 A  
HETATM   11  N   UNL     1     -12.027  12.292  67.091  1.00  0.00    -0.576 NA 
HETATM   12  O   UNL     1     -12.285  11.260  67.984  1.00  0.00    -0.621 OA 
BRANCH  10  13
HETATM   13  C   UNL     1     -11.184  14.599  67.339  1.00  0.00    -0.351 A  
HETATM   14  C   UNL     1     -10.905  14.796  65.979  1.00  0.00    -0.318 A  
HETATM   15  C   UNL     1     -10.536  16.061  65.504  1.00  0.00    -0.426 A  
HETATM   16  C   UNL     1     -10.445  17.142  66.380  1.00  0.00    -0.255 A  
HETATM   17  C   UNL     1     -10.731  16.965  67.731  1.00  0.00    -0.315 A  
HETATM   18  C   UNL     1     -11.100  15.703  68.206  1.00  0.00    -0.336 A  
ENDBRANCH  10  13
ENDBRANCH   7   8
ENDBRANCH   6   7
ENDBRANCH   3   6
ENDBRANCH   2   3
TORSDOF 6
ENDMDL
MODEL       86
REMARK 921   NORMALIZED FREE ENERGY PREDICTED BY IDOCK:   -4.39 KCAL/MOL
REMARK 922        TOTAL FREE ENERGY PREDICTED BY IDOCK:   -6.45 KCAL/MOL
REMARK 923 INTER-LIGAND FREE ENERGY PREDICTED BY IDOCK:   -6.02 KCAL/MOL
REMARK 924 INTRA-LIGAND FREE ENERGY PREDICTED BY IDOCK:   -0.44 KCAL/MOL
REMARK 927      BINDING AFFINITY PREDICTED BY RF-SCORE:    0.00 PKD
ROOT
HETATM    1  C   UNL     1      -8.945   9.272  66.702  1.00  0.00    -0.165 C  
HETATM    2  C   UNL     1     -10.365   9.791  66.485  1.00  0.00    -0.192 C  
ENDROOT
BRANCH   2   3
HETATM    3  N   UNL     1     -11.008  10.400  67.669  1.00  0.00    -0.307 NA 
BRANCH   3   4
HETATM    4  C   UNL     1     -10.821   9.631  68.908  1.00  0.00    -0.174 C  
HETATM    5  C   UNL     1     -10.857  10.428  70.207  1.00  0.00    -0.308 C  
ENDBRANCH   3   4
BRANCH   3   6
HETATM    6  C   UNL     1     -10.592  11.820  67.770  1.00  0.00    -0.200 C  
BRANCH   6   7
HETATM    7  C   UNL     1     -11.192  12.774  66.722  1.00  0.00    -0.338 C  
BRANCH   7   8
HETATM    8  C   UNL     1     -11.220  14.179  67.217  1.00  0.00    -0.316 A  
HETATM    9  N   UNL     1     -10.639  15.261  66.744  1.00  0.00    -0.299 NA 
HETATM   10  C   UNL     1     -10.989  16.222  67.677  1.00  0.00    -0.245 A  
HETATM   11  N   UNL     1     -11.775  15.750  68.660  1.00  0.00    -0.379 NA 
HETATM   12  O   UNL     1     -11.915  14.401  68.365  1.00  0.00    -0.331 OA 
BRANCH  10  13
HETATM   13  C   UNL     1     -10.518  17.608  67.627  1.00  0.00    -0.372 A  
HETATM   14  C   UNL     1     -10.247  18.329  68.799  1.00  0.00    -0.342 A  
HETATM   15  C   UNL     1      -9.834  19.665  68.732  1.00  0.00    -0.519 A  
HETATM   16  C   UNL     1      -9.684  20.295  67.496  1.00  0.00    -0.575 A  
HETATM   17  C   UNL     1      -9.938  19.587  66.324  1.00  0.00    -0.538 A  
HETATM   18  C   UNL     1     -10.350  18.253  66.390  1.00  0.00    -0.418 A  
ENDBRANCH  10  13
ENDBRANCH   7   8
ENDBRANCH   6   7
ENDBRANCH   3   6
ENDBRANCH   2   3
TORSDOF 6
ENDMDL
MODEL       87
REMARK 921   NORMALIZED FREE ENERGY PREDICTED BY IDOCK:   -4.37 KCAL/MOL
REMARK 922        TOTAL FREE ENERGY PREDICTED BY IDOCK:   -6.42 KCAL/MOL
REMARK 923 INTER-LIGAND FREE ENERGY PREDICTED BY IDOCK:   -6.04 KCAL/MOL
REMARK 924 INTRA-LIGAND FREE ENERGY PREDICTED BY IDOCK:   -0.39 KCAL/MOL
REMARK 927      BINDING AFFINITY PREDICTED BY RF-SCORE:    0.00 PKD
ROOT
HETATM    1  C   UNL     1     -12.028  14.493  67.124  1.00  0.00    -0.373 C  
HETATM    2  C   UNL     1     -12.390  13.579  65.955  1.00  0.00    -0.433 C  
ENDROOT
BRANCH   2   3
HETATM    3  N   UNL     1     -11.699  12.272  65.931  1.00  0.00    -0.463 NA 
BRANCH   3   4
HETATM    4  C   UNL     1     -10.582  12.209  64.977  1.00  0.00    -0.291 C  
HETATM    5  C   UNL     1     -10.916  11.683  63.585  1.00  0.00    -0.507 C  
ENDBRANCH   3   4
BRANCH   3   6
HETATM    6  C   UNL     1     -11.333  11.891  67.316  1.00  0.00    -0.329 C  
BRANCH   6   7
HETATM    7  C   UNL     1     -10.952  10.416  67.531  1.00  0.00    -0.358 C  
BRANCH   7   8
HETATM    8  C   UNL     1     -10.910  10.068  68.979  1.00  0.00    -0.222 A  
HETATM    9  N   UNL     1     -10.126   9.237  69.634  1.00  0.00    -0.188 NA 
HETATM   10  C   UNL     1     -10.628   9.305  70.923  1.00  0.00    -0.296 A  
HETATM   11  N   UNL     1     -11.654  10.164  71.052  1.00  0.00    -0.372 NA 
HETATM   12  O   UNL     1     -11.849  10.656  69.768  1.00  0.00    -0.278 OA 
BRANCH  10  13
HETATM   13  C   UNL     1     -10.123   8.493  72.031  1.00  0.00    -0.386 A  
HETATM   14  C   UNL     1      -8.772   8.529  72.405  1.00  0.00    -0.242 A  
HETATM   15  C   UNL     1      -8.299   7.717  73.444  1.00  0.00    -0.230 A  
HETATM   16  C   UNL     1      -9.169   6.864  74.122  1.00  0.00    -0.253 A  
HETATM   17  C   UNL     1     -10.516   6.827  73.770  1.00  0.00    -0.383 A  
HETATM   18  C   UNL     1     -10.989   7.637  72.734  1.00  0.00    -0.432 A  
ENDBRANCH  10  13
ENDBRANCH   7   8
ENDBRANCH   6   7
ENDBRANCH   3   6
ENDBRANCH   2   3
TORSDOF 6
ENDMDL
MODEL       88
REMARK 921   NORMALIZED FREE ENERGY PREDICTED BY IDOCK:   -4.36 KCAL/MOL
REMARK 922        TOTAL FREE ENERGY PREDICTED BY IDOCK:   -6.42 KCAL/MOL
REMARK 923 INTER-LIGAND FREE ENERGY PREDICTED BY IDOCK:   -5.91 KCAL/MOL
REMARK 924 INTRA-LIGAND FREE ENERGY PREDICTED BY IDOCK:   -0.51 KCAL/MOL
REMARK 927      BINDING AFFINITY PREDICTED BY RF-SCORE:    0.00 PKD
ROOT
HETATM    1  C   UNL     1     -10.167   9.822  66.352  1.00  0.00    -0.288 C  
HETATM    2  C   UNL     1      -9.719  11.218  65.924  1.00  0.00    -0.224 C  
ENDROOT
BRANCH   2   3
HETATM    3  N   UNL     1     -10.687  12.305  66.186  1.00  0.00    -0.253 NA 
BRANCH   3   4
HETATM    4  C   UNL     1     -11.306  12.855  64.971  1.00  0.00    -0.305 C  
HETATM    5  C   UNL     1     -10.848  12.248  63.649  1.00  0.00    -0.522 C  
ENDBRANCH   3   4
BRANCH   3   6
HETATM    6  C   UNL     1     -11.660  11.853  67.209  1.00  0.00    -0.293 C  
BRANCH   6   7
HETATM    7  C   UNL     1     -11.546  12.521  68.590  1.00  0.00    -0.357 C  
BRANCH   7   8
HETATM    8  C   UNL     1     -11.716  11.533  69.691  1.00  0.00    -0.351 A  
HETATM    9  N   UNL     1     -11.149  10.360  69.879  1.00  0.00    -0.284 NA 
HETATM   10  C   UNL     1     -11.771   9.907  71.031  1.00  0.00    -0.382 A  
HETATM   11  N   UNL     1     -12.657  10.782  71.538  1.00  0.00    -0.399 NA 
HETATM   12  O   UNL     1     -12.632  11.846  70.647  1.00  0.00    -0.268 OA 
BRANCH  10  13
HETATM   13  C   UNL     1     -11.523   8.590  71.620  1.00  0.00    -0.365 A  
HETATM   14  C   UNL     1     -12.443   7.542  71.477  1.00  0.00    -0.375 A  
HETATM   15  C   UNL     1     -12.206   6.300  72.079  1.00  0.00    -0.270 A  
HETATM   16  C   UNL     1     -11.047   6.090  72.827  1.00  0.00    -0.305 A  
HETATM   17  C   UNL     1     -10.118   7.118  72.966  1.00  0.00    -0.267 A  
HETATM   18  C   UNL     1     -10.354   8.358  72.365  1.00  0.00    -0.399 A  
ENDBRANCH  10  13
ENDBRANCH   7   8
ENDBRANCH   6   7
ENDBRANCH   3   6
ENDBRANCH   2   3
TORSDOF 6
ENDMDL
MODEL       89
REMARK 921   NORMALIZED FREE ENERGY PREDICTED BY IDOCK:   -4.35 KCAL/MOL
REMARK 922        TOTAL FREE ENERGY PREDICTED BY IDOCK:   -6.41 KCAL/MOL
REMARK 923 INTER-LIGAND FREE ENERGY PREDICTED BY IDOCK:   -5.88 KCAL/MOL
REMARK 924 INTRA-LIGAND FREE ENERGY PREDICTED BY IDOCK:   -0.52 KCAL/MOL
REMARK 927      BINDING AFFINITY PREDICTED BY RF-SCORE:    0.00 PKD
ROOT
HETATM    1  C   UNL     1     -11.787  12.625  65.814  1.00  0.00    -0.497 C  
HETATM    2  C   UNL     1     -10.493  13.189  66.397  1.00  0.00    -0.282 C  
ENDROOT
BRANCH   2   3
HETATM    3  N   UNL     1     -10.555  13.579  67.822  1.00  0.00    -0.243 NA 
BRANCH   3   4
HETATM    4  C   UNL     1     -10.016  14.921  68.094  1.00  0.00    -0.222 C  
HETATM    5  C   UNL     1      -9.614  15.744  66.874  1.00  0.00    -0.243 C  
ENDBRANCH   3   4
BRANCH   3   6
HETATM    6  C   UNL     1     -11.933  13.368  68.324  1.00  0.00    -0.317 C  
BRANCH   6   7
HETATM    7  C   UNL     1     -12.113  13.439  69.850  1.00  0.00    -0.389 C  
BRANCH   7   8
HETATM    8  C   UNL     1     -12.133  12.080  70.462  1.00  0.00    -0.311 A  
HETATM    9  N   UNL     1     -11.481  10.986  70.129  1.00  0.00    -0.304 NA 
HETATM   10  C   UNL     1     -11.979  10.056  71.026  1.00  0.00    -0.376 A  
HETATM   11  N   UNL     1     -12.872  10.571  71.889  1.00  0.00    -0.442 NA 
HETATM   12  O   UNL     1     -12.984  11.902  71.507  1.00  0.00    -0.409 OA 
BRANCH  10  13
HETATM   13  C   UNL     1     -11.603   8.641  71.016  1.00  0.00    -0.325 A  
HETATM   14  C   UNL     1     -10.692   8.135  70.078  1.00  0.00    -0.243 A  
HETATM   15  C   UNL     1     -10.374   6.771  70.060  1.00  0.00    -0.225 A  
HETATM   16  C   UNL     1     -10.959   5.900  70.978  1.00  0.00    -0.335 A  
HETATM   17  C   UNL     1     -11.855   6.390  71.924  1.00  0.00    -0.380 A  
HETATM   18  C   UNL     1     -12.173   7.752  71.944  1.00  0.00    -0.341 A  
ENDBRANCH  10  13
ENDBRANCH   7   8
ENDBRANCH   6   7
ENDBRANCH   3   6
ENDBRANCH   2   3
TORSDOF 6
ENDMDL
MODEL       90
REMARK 921   NORMALIZED FREE ENERGY PREDICTED BY IDOCK:   -4.35 KCAL/MOL
REMARK 922        TOTAL FREE ENERGY PREDICTED BY IDOCK:   -6.40 KCAL/MOL
REMARK 923 INTER-LIGAND FREE ENERGY PREDICTED BY IDOCK:   -5.94 KCAL/MOL
REMARK 924 INTRA-LIGAND FREE ENERGY PREDICTED BY IDOCK:   -0.46 KCAL/MOL
REMARK 927      BINDING AFFINITY PREDICTED BY RF-SCORE:    0.00 PKD
ROOT
HETATM    1  C   UNL     1     -13.843   9.369  72.314  1.00  0.00    -0.441 C  
HETATM    2  C   UNL     1     -12.518   8.609  72.342  1.00  0.00    -0.362 C  
ENDROOT
BRANCH   2   3
HETATM    3  N   UNL     1     -11.456   9.151  71.469  1.00  0.00    -0.339 NA 
BRANCH   3   4
HETATM    4  C   UNL     1     -10.879   8.158  70.550  1.00  0.00    -0.240 C  
HETATM    5  C   UNL     1     -11.651   6.851  70.400  1.00  0.00    -0.385 C  
ENDBRANCH   3   4
BRANCH   3   6
HETATM    6  C   UNL     1     -11.954  10.376  70.801  1.00  0.00    -0.363 C  
BRANCH   6   7
HETATM    7  C   UNL     1     -11.206  10.800  69.525  1.00  0.00    -0.342 C  
BRANCH   7   8
HETATM    8  C   UNL     1     -11.381  12.253  69.246  1.00  0.00    -0.256 A  
HETATM    9  N   UNL     1     -10.855  13.010  68.307  1.00  0.00    -0.237 NA 
HETATM   10  C   UNL     1     -11.346  14.266  68.624  1.00  0.00    -0.275 A  
HETATM   11  N   UNL     1     -12.162  14.265  69.692  1.00  0.00    -0.335 NA 
HETATM   12  O   UNL     1     -12.173  12.942  70.111  1.00  0.00    -0.322 OA 
BRANCH  10  13
HETATM   13  C   UNL     1     -10.985  15.483  67.896  1.00  0.00    -0.316 A  
HETATM   14  C   UNL     1     -10.792  16.701  68.562  1.00  0.00    -0.356 A  
HETATM   15  C   UNL     1     -10.484  17.864  67.844  1.00  0.00    -0.404 A  
HETATM   16  C   UNL     1     -10.360  17.822  66.456  1.00  0.00    -0.345 A  
HETATM   17  C   UNL     1     -10.535  16.616  65.782  1.00  0.00    -0.324 A  
HETATM   18  C   UNL     1     -10.843  15.455  66.497  1.00  0.00    -0.298 A  
ENDBRANCH  10  13
ENDBRANCH   7   8
ENDBRANCH   6   7
ENDBRANCH   3   6
ENDBRANCH   2   3
TORSDOF 6
ENDMDL
MODEL       91
REMARK 921   NORMALIZED FREE ENERGY PREDICTED BY IDOCK:   -4.34 KCAL/MOL
REMARK 922        TOTAL FREE ENERGY PREDICTED BY IDOCK:   -6.39 KCAL/MOL
REMARK 923 INTER-LIGAND FREE ENERGY PREDICTED BY IDOCK:   -5.92 KCAL/MOL
REMARK 924 INTRA-LIGAND FREE ENERGY PREDICTED BY IDOCK:   -0.48 KCAL/MOL
REMARK 927      BINDING AFFINITY PREDICTED BY RF-SCORE:    0.00 PKD
ROOT
HETATM    1  C   UNL     1     -11.116   6.102  69.879  1.00  0.00    -0.481 C  
HETATM    2  C   UNL     1     -10.558   5.964  68.464  1.00  0.00    -0.252 C  
ENDROOT
BRANCH   2   3
HETATM    3  N   UNL     1      -9.809   7.134  67.958  1.00  0.00    -0.135 NA 
BRANCH   3   4
HETATM    4  C   UNL     1      -8.729   6.788  67.022  1.00  0.00    -0.114 C  
HETATM    5  C   UNL     1      -8.672   5.333  66.569  1.00  0.00    -0.115 C  
ENDBRANCH   3   4
BRANCH   3   6
HETATM    6  C   UNL     1     -10.768   8.134  67.432  1.00  0.00    -0.177 C  
BRANCH   6   7
HETATM    7  C   UNL     1     -10.321   9.604  67.511  1.00  0.00    -0.297 C  
BRANCH   7   8
HETATM    8  C   UNL     1     -10.957  10.308  68.660  1.00  0.00    -0.244 A  
HETATM    9  N   UNL     1     -11.496  11.506  68.732  1.00  0.00    -0.258 NA 
HETATM   10  C   UNL     1     -11.841  11.599  70.070  1.00  0.00    -0.355 A  
HETATM   11  N   UNL     1     -11.551  10.491  70.774  1.00  0.00    -0.347 NA 
HETATM   12  O   UNL     1     -10.955   9.646  69.848  1.00  0.00    -0.234 OA 
BRANCH  10  13
HETATM   13  C   UNL     1     -12.426  12.798  70.673  1.00  0.00    -0.328 A  
HETATM   14  C   UNL     1     -12.245  14.065  70.100  1.00  0.00    -0.425 A  
HETATM   15  C   UNL     1     -12.781  15.205  70.712  1.00  0.00    -0.463 A  
HETATM   16  C   UNL     1     -13.504  15.093  71.899  1.00  0.00    -0.522 A  
HETATM   17  C   UNL     1     -13.703  13.840  72.473  1.00  0.00    -0.667 A  
HETATM   18  C   UNL     1     -13.169  12.701  71.863  1.00  0.00    -0.504 A  
ENDBRANCH  10  13
ENDBRANCH   7   8
ENDBRANCH   6   7
ENDBRANCH   3   6
ENDBRANCH   2   3
TORSDOF 6
ENDMDL
MODEL       92
REMARK 921   NORMALIZED FREE ENERGY PREDICTED BY IDOCK:   -4.33 KCAL/MOL
REMARK 922        TOTAL FREE ENERGY PREDICTED BY IDOCK:   -6.38 KCAL/MOL
REMARK 923 INTER-LIGAND FREE ENERGY PREDICTED BY IDOCK:   -5.85 KCAL/MOL
REMARK 924 INTRA-LIGAND FREE ENERGY PREDICTED BY IDOCK:   -0.54 KCAL/MOL
REMARK 927      BINDING AFFINITY PREDICTED BY RF-SCORE:    0.00 PKD
ROOT
HETATM    1  C   UNL     1     -12.284  12.660  63.267  1.00  0.00    -0.512 C  
HETATM    2  C   UNL     1     -10.966  12.165  63.858  1.00  0.00    -0.402 C  
ENDROOT
BRANCH   2   3
HETATM    3  N   UNL     1     -10.721  12.537  65.268  1.00  0.00    -0.278 NA 
BRANCH   3   4
HETATM    4  C   UNL     1     -11.950  12.763  66.044  1.00  0.00    -0.432 C  
HETATM    5  C   UNL     1     -11.979  14.020  66.907  1.00  0.00    -0.479 C  
ENDBRANCH   3   4
BRANCH   3   6
HETATM    6  C   UNL     1      -9.794  11.553  65.876  1.00  0.00    -0.231 C  
BRANCH   6   7
HETATM    7  C   UNL     1      -9.954  10.097  65.407  1.00  0.00    -0.377 C  
BRANCH   7   8
HETATM    8  C   UNL     1     -10.103   9.165  66.559  1.00  0.00    -0.287 A  
HETATM    9  N   UNL     1     -10.588   9.371  67.765  1.00  0.00    -0.263 NA 
HETATM   10  C   UNL     1     -10.387   8.148  68.383  1.00  0.00    -0.199 A  
HETATM   11  N   UNL     1      -9.832   7.227  67.576  1.00  0.00    -0.146 NA 
HETATM   12  O   UNL     1      -9.631   7.902  66.379  1.00  0.00    -0.209 OA 
BRANCH  10  13
HETATM   13  C   UNL     1     -10.708   7.888  69.787  1.00  0.00    -0.233 A  
HETATM   14  C   UNL     1     -10.290   8.759  70.804  1.00  0.00    -0.264 A  
HETATM   15  C   UNL     1     -10.574   8.474  72.146  1.00  0.00    -0.419 A  
HETATM   16  C   UNL     1     -11.280   7.321  72.486  1.00  0.00    -0.342 A  
HETATM   17  C   UNL     1     -11.713   6.454  71.486  1.00  0.00    -0.369 A  
HETATM   18  C   UNL     1     -11.431   6.737  70.147  1.00  0.00    -0.404 A  
ENDBRANCH  10  13
ENDBRANCH   7   8
ENDBRANCH   6   7
ENDBRANCH   3   6
ENDBRANCH   2   3
TORSDOF 6
ENDMDL
MODEL       93
REMARK 921   NORMALIZED FREE ENERGY PREDICTED BY IDOCK:   -4.33 KCAL/MOL
REMARK 922        TOTAL FREE ENERGY PREDICTED BY IDOCK:   -6.37 KCAL/MOL
REMARK 923 INTER-LIGAND FREE ENERGY PREDICTED BY IDOCK:   -5.79 KCAL/MOL
REMARK 924 INTRA-LIGAND FREE ENERGY PREDICTED BY IDOCK:   -0.58 KCAL/MOL
REMARK 927      BINDING AFFINITY PREDICTED BY RF-SCORE:    0.00 PKD
ROOT
HETATM    1  C   UNL     1      -9.511  18.967  68.742  1.00  0.00    -0.407 C  
HETATM    2  C   UNL     1     -10.331  18.775  67.468  1.00  0.00    -0.416 C  
ENDROOT
BRANCH   2   3
HETATM    3  N   UNL     1     -10.667  17.375  67.132  1.00  0.00    -0.250 NA 
BRANCH   3   4
HETATM    4  C   UNL     1     -10.037  16.895  65.893  1.00  0.00    -0.283 C  
HETATM    5  C   UNL     1     -10.985  16.466  64.778  1.00  0.00    -0.246 C  
ENDBRANCH   3   4
BRANCH   3   6
HETATM    6  C   UNL     1     -10.410  16.517  68.313  1.00  0.00    -0.293 C  
BRANCH   6   7
HETATM    7  C   UNL     1     -11.542  15.552  68.704  1.00  0.00    -0.379 C  
BRANCH   7   8
HETATM    8  C   UNL     1     -11.538  14.331  67.850  1.00  0.00    -0.336 A  
HETATM    9  N   UNL     1     -10.712  13.306  67.831  1.00  0.00    -0.235 NA 
HETATM   10  C   UNL     1     -11.198  12.549  66.778  1.00  0.00    -0.296 A  
HETATM   11  N   UNL     1     -12.292  13.075  66.202  1.00  0.00    -0.475 NA 
HETATM   12  O   UNL     1     -12.507  14.257  66.898  1.00  0.00    -0.338 OA 
BRANCH  10  13
HETATM   13  C   UNL     1     -10.563  11.316  66.309  1.00  0.00    -0.315 A  
HETATM   14  C   UNL     1     -10.541  10.159  67.101  1.00  0.00    -0.308 A  
HETATM   15  C   UNL     1      -9.896   9.000  66.651  1.00  0.00    -0.316 A  
HETATM   16  C   UNL     1      -9.271   8.983  65.404  1.00  0.00    -0.241 A  
HETATM   17  C   UNL     1      -9.296  10.119  64.601  1.00  0.00    -0.334 A  
HETATM   18  C   UNL     1      -9.940  11.276  65.049  1.00  0.00    -0.323 A  
ENDBRANCH  10  13
ENDBRANCH   7   8
ENDBRANCH   6   7
ENDBRANCH   3   6
ENDBRANCH   2   3
TORSDOF 6
ENDMDL
MODEL       94
REMARK 921   NORMALIZED FREE ENERGY PREDICTED BY IDOCK:   -4.32 KCAL/MOL
REMARK 922        TOTAL FREE ENERGY PREDICTED BY IDOCK:   -6.37 KCAL/MOL
REMARK 923 INTER-LIGAND FREE ENERGY PREDICTED BY IDOCK:   -5.96 KCAL/MOL
REMARK 924 INTRA-LIGAND FREE ENERGY PREDICTED BY IDOCK:   -0.41 KCAL/MOL
REMARK 927      BINDING AFFINITY PREDICTED BY RF-SCORE:    0.00 PKD
ROOT
HETATM    1  C   UNL     1     -10.627   6.835  73.691  1.00  0.00    -0.347 C  
HETATM    2  C   UNL     1     -10.667   8.023  72.732  1.00  0.00    -0.362 C  
ENDROOT
BRANCH   2   3
HETATM    3  N   UNL     1     -11.839   8.075  71.832  1.00  0.00    -0.290 NA 
BRANCH   3   4
HETATM    4  C   UNL     1     -13.011   8.741  72.420  1.00  0.00    -0.383 C  
HETATM    5  C   UNL     1     -14.292   8.702  71.593  1.00  0.00    -0.451 C  
ENDBRANCH   3   4
BRANCH   3   6
HETATM    6  C   UNL     1     -11.421   8.630  70.522  1.00  0.00    -0.188 C  
BRANCH   6   7
HETATM    7  C   UNL     1     -10.956  10.097  70.530  1.00  0.00    -0.380 C  
BRANCH   7   8
HETATM    8  C   UNL     1     -10.899  10.658  69.151  1.00  0.00    -0.237 A  
HETATM    9  N   UNL     1     -11.018  11.900  68.731  1.00  0.00    -0.224 NA 
HETATM   10  C   UNL     1     -10.946  11.760  67.355  1.00  0.00    -0.262 A  
HETATM   11  N   UNL     1     -10.760  10.489  66.958  1.00  0.00    -0.264 NA 
HETATM   12  O   UNL     1     -10.744   9.762  68.140  1.00  0.00    -0.227 OA 
BRANCH  10  13
HETATM   13  C   UNL     1     -11.098  12.875  66.419  1.00  0.00    -0.316 A  
HETATM   14  C   UNL     1     -10.031  13.738  66.134  1.00  0.00    -0.318 A  
HETATM   15  C   UNL     1     -10.205  14.823  65.265  1.00  0.00    -0.415 A  
HETATM   16  C   UNL     1     -11.445  15.054  64.669  1.00  0.00    -0.382 A  
HETATM   17  C   UNL     1     -12.510  14.197  64.932  1.00  0.00    -0.419 A  
HETATM   18  C   UNL     1     -12.337  13.115  65.799  1.00  0.00    -0.496 A  
ENDBRANCH  10  13
ENDBRANCH   7   8
ENDBRANCH   6   7
ENDBRANCH   3   6
ENDBRANCH   2   3
TORSDOF 6
ENDMDL
MODEL       95
REMARK 921   NORMALIZED FREE ENERGY PREDICTED BY IDOCK:   -4.31 KCAL/MOL
REMARK 922        TOTAL FREE ENERGY PREDICTED BY IDOCK:   -6.34 KCAL/MOL
REMARK 923 INTER-LIGAND FREE ENERGY PREDICTED BY IDOCK:   -5.74 KCAL/MOL
REMARK 924 INTRA-LIGAND FREE ENERGY PREDICTED BY IDOCK:   -0.60 KCAL/MOL
REMARK 927      BINDING AFFINITY PREDICTED BY RF-SCORE:    0.00 PKD
ROOT
HETATM    1  C   UNL     1      -7.183  20.312  67.698  1.00  0.00    -0.336 C  
HETATM    2  C   UNL     1      -7.517  19.345  68.832  1.00  0.00    -0.364 C  
ENDROOT
BRANCH   2   3
HETATM    3  N   UNL     1      -8.147  18.073  68.419  1.00  0.00    -0.291 NA 
BRANCH   3   4
HETATM    4  C   UNL     1      -7.678  16.903  69.176  1.00  0.00    -0.138 C  
HETATM    5  C   UNL     1      -7.235  15.700  68.349  1.00  0.00    -0.115 C  
ENDBRANCH   3   4
BRANCH   3   6
HETATM    6  C   UNL     1      -9.620  18.240  68.416  1.00  0.00    -0.335 C  
BRANCH   6   7
HETATM    7  C   UNL     1     -10.365  17.632  67.214  1.00  0.00    -0.354 C  
BRANCH   7   8
HETATM    8  C   UNL     1     -10.857  16.258  67.515  1.00  0.00    -0.268 A  
HETATM    9  N   UNL     1     -11.046  15.653  68.669  1.00  0.00    -0.297 NA 
HETATM   10  C   UNL     1     -11.440  14.384  68.281  1.00  0.00    -0.305 A  
HETATM   11  N   UNL     1     -11.517  14.233  66.947  1.00  0.00    -0.346 NA 
HETATM   12  O   UNL     1     -11.118  15.463  66.442  1.00  0.00    -0.313 OA 
BRANCH  10  13
HETATM   13  C   UNL     1     -11.708  13.297  69.224  1.00  0.00    -0.380 A  
HETATM   14  C   UNL     1     -11.223  12.001  69.001  1.00  0.00    -0.313 A  
HETATM   15  C   UNL     1     -11.521  10.965  69.895  1.00  0.00    -0.402 A  
HETATM   16  C   UNL     1     -12.304  11.213  71.023  1.00  0.00    -0.487 A  
HETATM   17  C   UNL     1     -12.782  12.498  71.264  1.00  0.00    -0.350 A  
HETATM   18  C   UNL     1     -12.484  13.532  70.373  1.00  0.00    -0.345 A  
ENDBRANCH  10  13
ENDBRANCH   7   8
ENDBRANCH   6   7
ENDBRANCH   3   6
ENDBRANCH   2   3
TORSDOF 6
ENDMDL
MODEL       96
REMARK 921   NORMALIZED FREE ENERGY PREDICTED BY IDOCK:   -4.28 KCAL/MOL
REMARK 922        TOTAL FREE ENERGY PREDICTED BY IDOCK:   -6.31 KCAL/MOL
REMARK 923 INTER-LIGAND FREE ENERGY PREDICTED BY IDOCK:   -5.80 KCAL/MOL
REMARK 924 INTRA-LIGAND FREE ENERGY PREDICTED BY IDOCK:   -0.51 KCAL/MOL
REMARK 927      BINDING AFFINITY PREDICTED BY RF-SCORE:    0.00 PKD
ROOT
HETATM    1  C   UNL     1      -6.119  19.838  69.095  1.00  0.00    -0.317 C  
HETATM    2  C   UNL     1      -7.606  19.524  69.249  1.00  0.00    -0.202 C  
ENDROOT
BRANCH   2   3
HETATM    3  N   UNL     1      -8.418  19.680  68.023  1.00  0.00    -0.309 NA 
BRANCH   3   4
HETATM    4  C   UNL     1      -7.883  18.957  66.860  1.00  0.00    -0.246 C  
HETATM    5  C   UNL     1      -7.482  19.812  65.663  1.00  0.00    -0.269 C  
ENDBRANCH   3   4
BRANCH   3   6
HETATM    6  C   UNL     1      -9.832  19.361  68.335  1.00  0.00    -0.428 C  
BRANCH   6   7
HETATM    7  C   UNL     1     -10.491  18.286  67.453  1.00  0.00    -0.430 C  
BRANCH   7   8
HETATM    8  C   UNL     1     -10.704  17.018  68.206  1.00  0.00    -0.372 A  
HETATM    9  N   UNL     1     -10.917  15.794  67.771  1.00  0.00    -0.316 NA 
HETATM   10  C   UNL     1     -11.104  15.087  68.947  1.00  0.00    -0.266 A  
HETATM   11  N   UNL     1     -10.978  15.843  70.051  1.00  0.00    -0.329 NA 
HETATM   12  O   UNL     1     -10.729  17.118  69.562  1.00  0.00    -0.269 OA 
BRANCH  10  13
HETATM   13  C   UNL     1     -11.446  13.664  68.989  1.00  0.00    -0.346 A  
HETATM   14  C   UNL     1     -11.891  13.055  70.170  1.00  0.00    -0.324 A  
HETATM   15  C   UNL     1     -12.177  11.684  70.201  1.00  0.00    -0.367 A  
HETATM   16  C   UNL     1     -12.025  10.908  69.052  1.00  0.00    -0.322 A  
HETATM   17  C   UNL     1     -11.596  11.501  67.868  1.00  0.00    -0.352 A  
HETATM   18  C   UNL     1     -11.311  12.870  67.836  1.00  0.00    -0.336 A  
ENDBRANCH  10  13
ENDBRANCH   7   8
ENDBRANCH   6   7
ENDBRANCH   3   6
ENDBRANCH   2   3
TORSDOF 6
ENDMDL
MODEL       97
REMARK 921   NORMALIZED FREE ENERGY PREDICTED BY IDOCK:   -4.28 KCAL/MOL
REMARK 922        TOTAL FREE ENERGY PREDICTED BY IDOCK:   -6.31 KCAL/MOL
REMARK 923 INTER-LIGAND FREE ENERGY PREDICTED BY IDOCK:   -5.80 KCAL/MOL
REMARK 924 INTRA-LIGAND FREE ENERGY PREDICTED BY IDOCK:   -0.51 KCAL/MOL
REMARK 927      BINDING AFFINITY PREDICTED BY RF-SCORE:    0.00 PKD
ROOT
HETATM    1  C   UNL     1      -7.489   8.814  71.512  1.00  0.00    -0.116 C  
HETATM    2  C   UNL     1      -8.669   8.249  72.301  1.00  0.00    -0.200 C  
ENDROOT
BRANCH   2   3
HETATM    3  N   UNL     1      -9.639   7.458  71.514  1.00  0.00    -0.152 NA 
BRANCH   3   4
HETATM    4  C   UNL     1      -9.251   6.051  71.334  1.00  0.00    -0.143 C  
HETATM    5  C   UNL     1      -9.631   5.414  70.001  1.00  0.00    -0.227 C  
ENDBRANCH   3   4
BRANCH   3   6
HETATM    6  C   UNL     1     -10.994   7.643  72.086  1.00  0.00    -0.257 C  
BRANCH   6   7
HETATM    7  C   UNL     1     -12.070   8.162  71.116  1.00  0.00    -0.281 C  
BRANCH   7   8
HETATM    8  C   UNL     1     -11.983   9.639  70.942  1.00  0.00    -0.309 A  
HETATM    9  N   UNL     1     -12.637  10.609  71.544  1.00  0.00    -0.407 NA 
HETATM   10  C   UNL     1     -12.163  11.738  70.898  1.00  0.00    -0.276 A  
HETATM   11  N   UNL     1     -11.236  11.468  69.963  1.00  0.00    -0.122 NA 
HETATM   12  O   UNL     1     -11.128  10.084  69.981  1.00  0.00    -0.256 OA 
BRANCH  10  13
HETATM   13  C   UNL     1     -12.649  13.091  71.173  1.00  0.00    -0.388 A  
HETATM   14  C   UNL     1     -12.203  14.191  70.427  1.00  0.00    -0.427 A  
HETATM   15  C   UNL     1     -12.651  15.484  70.729  1.00  0.00    -0.505 A  
HETATM   16  C   UNL     1     -13.549  15.691  71.775  1.00  0.00    -0.510 A  
HETATM   17  C   UNL     1     -14.010  14.607  72.516  1.00  0.00    -0.518 A  
HETATM   18  C   UNL     1     -13.564  13.316  72.216  1.00  0.00    -0.703 A  
ENDBRANCH  10  13
ENDBRANCH   7   8
ENDBRANCH   6   7
ENDBRANCH   3   6
ENDBRANCH   2   3
TORSDOF 6
ENDMDL
MODEL       98
REMARK 921   NORMALIZED FREE ENERGY PREDICTED BY IDOCK:   -4.27 KCAL/MOL
REMARK 922        TOTAL FREE ENERGY PREDICTED BY IDOCK:   -6.30 KCAL/MOL
REMARK 923 INTER-LIGAND FREE ENERGY PREDICTED BY IDOCK:   -5.79 KCAL/MOL
REMARK 924 INTRA-LIGAND FREE ENERGY PREDICTED BY IDOCK:   -0.51 KCAL/MOL
REMARK 927      BINDING AFFINITY PREDICTED BY RF-SCORE:    0.00 PKD
ROOT
HETATM    1  C   UNL     1     -11.697  15.355  71.625  1.00  0.00    -0.483 C  
HETATM    2  C   UNL     1     -12.291  15.517  70.227  1.00  0.00    -0.396 C  
ENDROOT
BRANCH   2   3
HETATM    3  N   UNL     1     -11.323  15.443  69.112  1.00  0.00    -0.293 NA 
BRANCH   3   4
HETATM    4  C   UNL     1     -10.256  16.452  69.184  1.00  0.00    -0.280 C  
HETATM    5  C   UNL     1     -10.551  17.792  68.518  1.00  0.00    -0.260 C  
ENDBRANCH   3   4
BRANCH   3   6
HETATM    6  C   UNL     1     -10.831  14.051  68.988  1.00  0.00    -0.243 C  
BRANCH   6   7
HETATM    7  C   UNL     1     -11.890  12.990  68.642  1.00  0.00    -0.353 C  
BRANCH   7   8
HETATM    8  C   UNL     1     -11.871  11.861  69.614  1.00  0.00    -0.337 A  
HETATM    9  N   UNL     1     -11.400  10.638  69.493  1.00  0.00    -0.256 NA 
HETATM   10  C   UNL     1     -11.746  10.062  70.703  1.00  0.00    -0.337 A  
HETATM   11  N   UNL     1     -12.373  10.909  71.538  1.00  0.00    -0.291 NA 
HETATM   12  O   UNL     1     -12.469  12.090  70.815  1.00  0.00    -0.348 OA 
BRANCH  10  13
HETATM   13  C   UNL     1     -11.493   8.658  71.032  1.00  0.00    -0.324 A  
HETATM   14  C   UNL     1     -11.475   8.212  72.361  1.00  0.00    -0.462 A  
HETATM   15  C   UNL     1     -11.194   6.872  72.659  1.00  0.00    -0.297 A  
HETATM   16  C   UNL     1     -10.931   5.964  71.633  1.00  0.00    -0.327 A  
HETATM   17  C   UNL     1     -10.957   6.390  70.308  1.00  0.00    -0.378 A  
HETATM   18  C   UNL     1     -11.238   7.727  70.010  1.00  0.00    -0.126 A  
ENDBRANCH  10  13
ENDBRANCH   7   8
ENDBRANCH   6   7
ENDBRANCH   3   6
ENDBRANCH   2   3
TORSDOF 6
ENDMDL
MODEL       99
REMARK 921   NORMALIZED FREE ENERGY PREDICTED BY IDOCK:   -4.26 KCAL/MOL
REMARK 922        TOTAL FREE ENERGY PREDICTED BY IDOCK:   -6.28 KCAL/MOL
REMARK 923 INTER-LIGAND FREE ENERGY PREDICTED BY IDOCK:   -5.75 KCAL/MOL
REMARK 924 INTRA-LIGAND FREE ENERGY PREDICTED BY IDOCK:   -0.53 KCAL/MOL
REMARK 927      BINDING AFFINITY PREDICTED BY RF-SCORE:    0.00 PKD
ROOT
HETATM    1  C   UNL     1      -6.682  19.969  69.074  1.00  0.00    -0.328 C  
HETATM    2  C   UNL     1      -7.171  20.526  67.739  1.00  0.00    -0.283 C  
ENDROOT
BRANCH   2   3
HETATM    3  N   UNL     1      -7.860  19.558  66.860  1.00  0.00    -0.257 NA 
BRANCH   3   4
HETATM    4  C   UNL     1      -6.972  18.897  65.892  1.00  0.00    -0.269 C  
HETATM    5  C   UNL     1      -6.535  17.478  66.240  1.00  0.00    -0.284 C  
ENDBRANCH   3   4
BRANCH   3   6
HETATM    6  C   UNL     1      -8.649  18.620  67.694  1.00  0.00    -0.272 C  
BRANCH   6   7
HETATM    7  C   UNL     1     -10.145  18.510  67.353  1.00  0.00    -0.377 C  
BRANCH   7   8
HETATM    8  C   UNL     1     -10.569  17.089  67.208  1.00  0.00    -0.267 A  
HETATM    9  N   UNL     1     -10.839  16.182  68.122  1.00  0.00    -0.316 NA 
HETATM   10  C   UNL     1     -11.099  15.056  67.360  1.00  0.00    -0.324 A  
HETATM   11  N   UNL     1     -11.021  15.277  66.037  1.00  0.00    -0.332 NA 
HETATM   12  O   UNL     1     -10.657  16.613  65.936  1.00  0.00    -0.316 OA 
BRANCH  10  13
HETATM   13  C   UNL     1     -11.391  13.741  67.933  1.00  0.00    -0.328 A  
HETATM   14  C   UNL     1     -11.825  13.603  69.259  1.00  0.00    -0.395 A  
HETATM   15  C   UNL     1     -12.063  12.334  69.802  1.00  0.00    -0.298 A  
HETATM   16  C   UNL     1     -11.874  11.190  69.027  1.00  0.00    -0.418 A  
HETATM   17  C   UNL     1     -11.457  11.312  67.704  1.00  0.00    -0.341 A  
HETATM   18  C   UNL     1     -11.219  12.578  67.161  1.00  0.00    -0.352 A  
ENDBRANCH  10  13
ENDBRANCH   7   8
ENDBRANCH   6   7
ENDBRANCH   3   6
ENDBRANCH   2   3
TORSDOF 6
ENDMDL
MODEL      100
REMARK 921   NORMALIZED FREE ENERGY PREDICTED BY IDOCK:   -4.26 KCAL/MOL
REMARK 922        TOTAL FREE ENERGY PREDICTED BY IDOCK:   -6.28 KCAL/MOL
REMARK 923 INTER-LIGAND FREE ENERGY PREDICTED BY IDOCK:   -5.66 KCAL/MOL
REMARK 924 INTRA-LIGAND FREE ENERGY PREDICTED BY IDOCK:   -0.62 KCAL/MOL
REMARK 927      BINDING AFFINITY PREDICTED BY RF-SCORE:    0.00 PKD
ROOT
HETATM    1  C   UNL     1     -11.566  16.128  71.564  1.00  0.00    -0.502 C  
HETATM    2  C   UNL     1     -12.556  15.267  70.781  1.00  0.00    -0.417 C  
ENDROOT
BRANCH   2   3
HETATM    3  N   UNL     1     -12.094  13.900  70.461  1.00  0.00    -0.348 NA 
BRANCH   3   4
HETATM    4  C   UNL     1     -12.769  12.848  71.237  1.00  0.00    -0.278 C  
HETATM    5  C   UNL     1     -13.778  13.323  72.277  1.00  0.00    -0.686 C  
ENDBRANCH   3   4
BRANCH   3   6
HETATM    6  C   UNL     1     -12.151  13.699  68.993  1.00  0.00    -0.309 C  
BRANCH   6   7
HETATM    7  C   UNL     1     -10.796  13.559  68.279  1.00  0.00    -0.277 C  
BRANCH   7   8
HETATM    8  C   UNL     1     -10.078  14.863  68.208  1.00  0.00    -0.221 A  
HETATM    9  N   UNL     1      -8.964  15.255  68.788  1.00  0.00    -0.188 NA 
HETATM   10  C   UNL     1      -8.866  16.577  68.387  1.00  0.00    -0.218 A  
HETATM   11  N   UNL     1      -9.864  16.963  67.573  1.00  0.00    -0.254 NA 
HETATM   12  O   UNL     1     -10.670  15.838  67.466  1.00  0.00    -0.306 OA 
BRANCH  10  13
HETATM   13  C   UNL     1      -7.807  17.482  68.835  1.00  0.00    -0.197 A  
HETATM   14  C   UNL     1      -7.920  18.871  68.682  1.00  0.00    -0.381 A  
HETATM   15  C   UNL     1      -6.879  19.718  69.082  1.00  0.00    -0.373 A  
HETATM   16  C   UNL     1      -5.717  19.189  69.643  1.00  0.00    -0.250 A  
HETATM   17  C   UNL     1      -5.596  17.813  69.814  1.00  0.00    -0.227 A  
HETATM   18  C   UNL     1      -6.634  16.966  69.415  1.00  0.00    -0.228 A  
ENDBRANCH  10  13
ENDBRANCH   7   8
ENDBRANCH   6   7
ENDBRANCH   3   6
ENDBRANCH   2   3
TORSDOF 6
ENDMDL
MODEL      101
REMARK 921   NORMALIZED FREE ENERGY PREDICTED BY IDOCK:   -4.26 KCAL/MOL
REMARK 922        TOTAL FREE ENERGY PREDICTED BY IDOCK:   -6.28 KCAL/MOL
REMARK 923 INTER-LIGAND FREE ENERGY PREDICTED BY IDOCK:   -5.74 KCAL/MOL
REMARK 924 INTRA-LIGAND FREE ENERGY PREDICTED BY IDOCK:   -0.54 KCAL/MOL
REMARK 927      BINDING AFFINITY PREDICTED BY RF-SCORE:    0.00 PKD
ROOT
HETATM    1  C   UNL     1      -6.069  18.926  69.750  1.00  0.00    -0.272 C  
HETATM    2  C   UNL     1      -6.235  17.409  69.790  1.00  0.00    -0.195 C  
ENDROOT
BRANCH   2   3
HETATM    3  N   UNL     1      -7.108  16.837  68.742  1.00  0.00    -0.190 NA 
BRANCH   3   4
HETATM    4  C   UNL     1      -7.943  15.721  69.209  1.00  0.00    -0.239 C  
HETATM    5  C   UNL     1      -7.439  14.320  68.880  1.00  0.00    -0.123 C  
ENDBRANCH   3   4
BRANCH   3   6
HETATM    6  C   UNL     1      -7.869  17.932  68.094  1.00  0.00    -0.266 C  
BRANCH   6   7
HETATM    7  C   UNL     1      -7.870  17.932  66.555  1.00  0.00    -0.298 C  
BRANCH   7   8
HETATM    8  C   UNL     1      -8.949  17.062  66.010  1.00  0.00    -0.133 A  
HETATM    9  N   UNL     1      -9.007  15.753  65.884  1.00  0.00    -0.286 NA 
HETATM   10  C   UNL     1     -10.224  15.565  65.250  1.00  0.00    -0.346 A  
HETATM   11  N   UNL     1     -10.891  16.711  65.027  1.00  0.00    -0.654 NA 
HETATM   12  O   UNL     1     -10.045  17.698  65.514  1.00  0.00    -0.566 OA 
BRANCH  10  13
HETATM   13  C   UNL     1     -10.721  14.256  64.825  1.00  0.00    -0.435 A  
HETATM   14  C   UNL     1     -11.745  14.138  63.875  1.00  0.00    -0.120 A  
HETATM   15  C   UNL     1     -12.234  12.878  63.508  1.00  0.00    -0.595 A  
HETATM   16  C   UNL     1     -11.704  11.723  64.083  1.00  0.00    -0.376 A  
HETATM   17  C   UNL     1     -10.677  11.824  65.018  1.00  0.00    -0.344 A  
HETATM   18  C   UNL     1     -10.188  13.081  65.384  1.00  0.00    -0.301 A  
ENDBRANCH  10  13
ENDBRANCH   7   8
ENDBRANCH   6   7
ENDBRANCH   3   6
ENDBRANCH   2   3
TORSDOF 6
ENDMDL
MODEL      102
REMARK 921   NORMALIZED FREE ENERGY PREDICTED BY IDOCK:   -4.22 KCAL/MOL
REMARK 922        TOTAL FREE ENERGY PREDICTED BY IDOCK:   -6.23 KCAL/MOL
REMARK 923 INTER-LIGAND FREE ENERGY PREDICTED BY IDOCK:   -5.76 KCAL/MOL
REMARK 924 INTRA-LIGAND FREE ENERGY PREDICTED BY IDOCK:   -0.47 KCAL/MOL
REMARK 927      BINDING AFFINITY PREDICTED BY RF-SCORE:    0.00 PKD
ROOT
HETATM    1  C   UNL     1      -8.304   9.023  70.474  1.00  0.00    -0.205 C  
HETATM    2  C   UNL     1      -9.269   9.977  69.773  1.00  0.00    -0.199 C  
ENDROOT
BRANCH   2   3
HETATM    3  N   UNL     1     -10.581   9.400  69.409  1.00  0.00    -0.217 NA 
BRANCH   3   4
HETATM    4  C   UNL     1     -11.262   8.724  70.524  1.00  0.00    -0.247 C  
HETATM    5  C   UNL     1     -12.096   9.613  71.440  1.00  0.00    -0.472 C  
ENDBRANCH   3   4
BRANCH   3   6
HETATM    6  C   UNL     1     -11.400  10.440  68.742  1.00  0.00    -0.214 C  
BRANCH   6   7
HETATM    7  C   UNL     1     -11.002  10.785  67.296  1.00  0.00    -0.359 C  
BRANCH   7   8
HETATM    8  C   UNL     1     -11.168  12.239  67.017  1.00  0.00    -0.310 A  
HETATM    9  N   UNL     1     -10.482  13.275  67.452  1.00  0.00    -0.242 NA 
HETATM   10  C   UNL     1     -11.166  14.343  66.896  1.00  0.00    -0.334 A  
HETATM   11  N   UNL     1     -12.206  13.971  66.131  1.00  0.00    -0.450 NA 
HETATM   12  O   UNL     1     -12.216  12.586  66.222  1.00  0.00    -0.600 OA 
BRANCH  10  13
HETATM   13  C   UNL     1     -10.820  15.743  67.148  1.00  0.00    -0.289 A  
HETATM   14  C   UNL     1     -10.343  16.572  66.123  1.00  0.00    -0.344 A  
HETATM   15  C   UNL     1      -9.982  17.899  66.390  1.00  0.00    -0.358 A  
HETATM   16  C   UNL     1     -10.097  18.412  67.682  1.00  0.00    -0.378 A  
HETATM   17  C   UNL     1     -10.582  17.605  68.707  1.00  0.00    -0.191 A  
HETATM   18  C   UNL     1     -10.943  16.281  68.441  1.00  0.00    -0.351 A  
ENDBRANCH  10  13
ENDBRANCH   7   8
ENDBRANCH   6   7
ENDBRANCH   3   6
ENDBRANCH   2   3
TORSDOF 6
ENDMDL
MODEL      103
REMARK 921   NORMALIZED FREE ENERGY PREDICTED BY IDOCK:   -4.21 KCAL/MOL
REMARK 922        TOTAL FREE ENERGY PREDICTED BY IDOCK:   -6.22 KCAL/MOL
REMARK 923 INTER-LIGAND FREE ENERGY PREDICTED BY IDOCK:   -5.73 KCAL/MOL
REMARK 924 INTRA-LIGAND FREE ENERGY PREDICTED BY IDOCK:   -0.49 KCAL/MOL
REMARK 927      BINDING AFFINITY PREDICTED BY RF-SCORE:    0.00 PKD
ROOT
HETATM    1  C   UNL     1     -11.012  10.264  67.650  1.00  0.00    -0.356 C  
HETATM    2  C   UNL     1     -10.757  11.093  68.908  1.00  0.00    -0.207 C  
ENDROOT
BRANCH   2   3
HETATM    3  N   UNL     1     -11.954  11.713  69.514  1.00  0.00    -0.320 NA 
BRANCH   3   4
HETATM    4  C   UNL     1     -12.295  11.175  70.840  1.00  0.00    -0.399 C  
HETATM    5  C   UNL     1     -11.660   9.838  71.206  1.00  0.00    -0.465 C  
ENDBRANCH   3   4
BRANCH   3   6
HETATM    6  C   UNL     1     -11.807  13.188  69.479  1.00  0.00    -0.322 C  
BRANCH   6   7
HETATM    7  C   UNL     1     -12.081  13.861  68.123  1.00  0.00    -0.317 C  
BRANCH   7   8
HETATM    8  C   UNL     1     -10.926  14.692  67.682  1.00  0.00    -0.293 A  
HETATM    9  N   UNL     1     -10.777  15.999  67.654  1.00  0.00    -0.316 NA 
HETATM   10  C   UNL     1      -9.526  16.147  67.080  1.00  0.00    -0.223 A  
HETATM   11  N   UNL     1      -8.926  14.977  66.799  1.00  0.00    -0.249 NA 
HETATM   12  O   UNL     1      -9.855  14.018  67.182  1.00  0.00    -0.231 OA 
BRANCH  10  13
HETATM   13  C   UNL     1      -8.927  17.446  66.769  1.00  0.00    -0.272 A  
HETATM   14  C   UNL     1      -7.629  17.545  66.249  1.00  0.00    -0.343 A  
HETATM   15  C   UNL     1      -7.058  18.798  65.993  1.00  0.00    -0.302 A  
HETATM   16  C   UNL     1      -7.778  19.964  66.250  1.00  0.00    -0.332 A  
HETATM   17  C   UNL     1      -9.072  19.882  66.755  1.00  0.00    -0.460 A  
HETATM   18  C   UNL     1      -9.643  18.631  67.011  1.00  0.00    -0.319 A  
ENDBRANCH  10  13
ENDBRANCH   7   8
ENDBRANCH   6   7
ENDBRANCH   3   6
ENDBRANCH   2   3
TORSDOF 6
ENDMDL
MODEL      104
REMARK 921   NORMALIZED FREE ENERGY PREDICTED BY IDOCK:   -4.20 KCAL/MOL
REMARK 922        TOTAL FREE ENERGY PREDICTED BY IDOCK:   -6.19 KCAL/MOL
REMARK 923 INTER-LIGAND FREE ENERGY PREDICTED BY IDOCK:   -5.70 KCAL/MOL
REMARK 924 INTRA-LIGAND FREE ENERGY PREDICTED BY IDOCK:   -0.49 KCAL/MOL
REMARK 927      BINDING AFFINITY PREDICTED BY RF-SCORE:    0.00 PKD
ROOT
HETATM    1  C   UNL     1      -8.718   9.578  63.725  1.00  0.00    -0.237 C  
HETATM    2  C   UNL     1      -9.856  10.153  64.566  1.00  0.00    -0.264 C  
ENDROOT
BRANCH   2   3
HETATM    3  N   UNL     1      -9.588  10.253  66.016  1.00  0.00    -0.193 NA 
BRANCH   3   4
HETATM    4  C   UNL     1      -8.227   9.846  66.398  1.00  0.00    -0.117 C  
HETATM    5  C   UNL     1      -7.296  10.962  66.860  1.00  0.00    -0.128 C  
ENDBRANCH   3   4
BRANCH   3   6
HETATM    6  C   UNL     1      -9.969  11.605  66.488  1.00  0.00    -0.203 C  
BRANCH   6   7
HETATM    7  C   UNL     1     -10.995  12.358  65.622  1.00  0.00    -0.321 C  
BRANCH   7   8
HETATM    8  C   UNL     1     -10.771  13.830  65.665  1.00  0.00    -0.288 A  
HETATM    9  N   UNL     1     -10.605  14.637  66.691  1.00  0.00    -0.284 NA 
HETATM   10  C   UNL     1     -10.518  15.879  66.085  1.00  0.00    -0.326 A  
HETATM   11  N   UNL     1     -10.597  15.825  64.745  1.00  0.00    -0.499 NA 
HETATM   12  O   UNL     1     -10.779  14.477  64.469  1.00  0.00    -0.356 OA 
BRANCH  10  13
HETATM   13  C   UNL     1     -10.393  17.134  66.828  1.00  0.00    -0.302 A  
HETATM   14  C   UNL     1     -10.066  17.146  68.191  1.00  0.00    -0.311 A  
HETATM   15  C   UNL     1      -9.989  18.355  68.894  1.00  0.00    -0.374 A  
HETATM   16  C   UNL     1     -10.232  19.564  68.243  1.00  0.00    -0.552 A  
HETATM   17  C   UNL     1     -10.545  19.569  66.886  1.00  0.00    -0.602 A  
HETATM   18  C   UNL     1     -10.622  18.363  66.184  1.00  0.00    -0.346 A  
ENDBRANCH  10  13
ENDBRANCH   7   8
ENDBRANCH   6   7
ENDBRANCH   3   6
ENDBRANCH   2   3
TORSDOF 6
ENDMDL
MODEL      105
REMARK 921   NORMALIZED FREE ENERGY PREDICTED BY IDOCK:   -4.20 KCAL/MOL
REMARK 922        TOTAL FREE ENERGY PREDICTED BY IDOCK:   -6.19 KCAL/MOL
REMARK 923 INTER-LIGAND FREE ENERGY PREDICTED BY IDOCK:   -5.62 KCAL/MOL
REMARK 924 INTRA-LIGAND FREE ENERGY PREDICTED BY IDOCK:   -0.57 KCAL/MOL
REMARK 927      BINDING AFFINITY PREDICTED BY RF-SCORE:    0.00 PKD
ROOT
HETATM    1  C   UNL     1      -9.713  19.190  68.458  1.00  0.00    -0.467 C  
HETATM    2  C   UNL     1     -10.285  18.690  67.132  1.00  0.00    -0.379 C  
ENDROOT
BRANCH   2   3
HETATM    3  N   UNL     1     -10.730  17.280  67.123  1.00  0.00    -0.242 NA 
BRANCH   3   4
HETATM    4  C   UNL     1     -10.090  16.461  66.083  1.00  0.00    -0.346 C  
HETATM    5  C   UNL     1      -8.580  16.279  66.204  1.00  0.00    -0.342 C  
ENDBRANCH   3   4
BRANCH   3   6
HETATM    6  C   UNL     1     -10.607  16.723  68.491  1.00  0.00    -0.354 C  
BRANCH   6   7
HETATM    7  C   UNL     1     -11.899  16.162  69.110  1.00  0.00    -0.182 C  
BRANCH   7   8
HETATM    8  C   UNL     1     -11.803  14.692  69.334  1.00  0.00    -0.329 A  
HETATM    9  N   UNL     1     -11.207  13.758  68.624  1.00  0.00    -0.263 NA 
HETATM   10  C   UNL     1     -11.539  12.602  69.309  1.00  0.00    -0.318 A  
HETATM   11  N   UNL     1     -12.280  12.827  70.408  1.00  0.00    -0.338 NA 
HETATM   12  O   UNL     1     -12.467  14.202  70.416  1.00  0.00    -0.333 OA 
BRANCH  10  13
HETATM   13  C   UNL     1     -11.157  11.260  68.865  1.00  0.00    -0.295 A  
HETATM   14  C   UNL     1     -10.966  10.215  69.780  1.00  0.00    -0.325 A  
HETATM   15  C   UNL     1     -10.564   8.948  69.339  1.00  0.00    -0.226 A  
HETATM   16  C   UNL     1     -10.354   8.709  67.981  1.00  0.00    -0.277 A  
HETATM   17  C   UNL     1     -10.553   9.734  67.060  1.00  0.00    -0.269 A  
HETATM   18  C   UNL     1     -10.954  10.999  67.498  1.00  0.00    -0.338 A  
ENDBRANCH  10  13
ENDBRANCH   7   8
ENDBRANCH   6   7
ENDBRANCH   3   6
ENDBRANCH   2   3
TORSDOF 6
ENDMDL
MODEL      106
REMARK 921   NORMALIZED FREE ENERGY PREDICTED BY IDOCK:   -4.17 KCAL/MOL
REMARK 922        TOTAL FREE ENERGY PREDICTED BY IDOCK:   -6.15 KCAL/MOL
REMARK 923 INTER-LIGAND FREE ENERGY PREDICTED BY IDOCK:   -5.69 KCAL/MOL
REMARK 924 INTRA-LIGAND FREE ENERGY PREDICTED BY IDOCK:   -0.47 KCAL/MOL
REMARK 927      BINDING AFFINITY PREDICTED BY RF-SCORE:    0.00 PKD
ROOT
HETATM    1  C   UNL     1      -9.495   7.976  67.290  1.00  0.00    -0.196 C  
HETATM    2  C   UNL     1     -10.033   7.005  68.340  1.00  0.00    -0.154 C  
ENDROOT
BRANCH   2   3
HETATM    3  N   UNL     1      -9.236   6.905  69.581  1.00  0.00    -0.146 NA 
BRANCH   3   4
HETATM    4  C   UNL     1      -7.783   6.941  69.358  1.00  0.00    -0.105 C  
HETATM    5  C   UNL     1      -6.915   6.414  70.497  1.00  0.00    -0.064 C  
ENDBRANCH   3   4
BRANCH   3   6
HETATM    6  C   UNL     1      -9.723   7.911  70.554  1.00  0.00    -0.174 C  
BRANCH   6   7
HETATM    7  C   UNL     1     -11.114   7.646  71.158  1.00  0.00    -0.269 C  
BRANCH   7   8
HETATM    8  C   UNL     1     -11.874   8.913  71.355  1.00  0.00    -0.317 A  
HETATM    9  N   UNL     1     -11.597  10.141  70.972  1.00  0.00    -0.372 NA 
HETATM   10  C   UNL     1     -12.643  10.868  71.515  1.00  0.00    -0.375 A  
HETATM   11  N   UNL     1     -13.535  10.108  72.174  1.00  0.00    -0.363 NA 
HETATM   12  O   UNL     1     -13.020   8.822  72.081  1.00  0.00    -0.355 OA 
BRANCH  10  13
HETATM   13  C   UNL     1     -12.752  12.324  71.420  1.00  0.00    -0.351 A  
HETATM   14  C   UNL     1     -13.448  13.068  72.383  1.00  0.00    -0.615 A  
HETATM   15  C   UNL     1     -13.573  14.458  72.255  1.00  0.00    -0.549 A  
HETATM   16  C   UNL     1     -13.004  15.118  71.167  1.00  0.00    -0.488 A  
HETATM   17  C   UNL     1     -12.299  14.394  70.209  1.00  0.00    -0.410 A  
HETATM   18  C   UNL     1     -12.173  13.008  70.336  1.00  0.00    -0.386 A  
ENDBRANCH  10  13
ENDBRANCH   7   8
ENDBRANCH   6   7
ENDBRANCH   3   6
ENDBRANCH   2   3
TORSDOF 6
ENDMDL
MODEL      107
REMARK 921   NORMALIZED FREE ENERGY PREDICTED BY IDOCK:   -4.16 KCAL/MOL
REMARK 922        TOTAL FREE ENERGY PREDICTED BY IDOCK:   -6.15 KCAL/MOL
REMARK 923 INTER-LIGAND FREE ENERGY PREDICTED BY IDOCK:   -5.53 KCAL/MOL
REMARK 924 INTRA-LIGAND FREE ENERGY PREDICTED BY IDOCK:   -0.62 KCAL/MOL
REMARK 927      BINDING AFFINITY PREDICTED BY RF-SCORE:    0.00 PKD
ROOT
HETATM    1  C   UNL     1     -13.353   9.772  71.334  1.00  0.00    -0.449 C  
HETATM    2  C   UNL     1     -12.461   8.938  72.251  1.00  0.00    -0.369 C  
ENDROOT
BRANCH   2   3
HETATM    3  N   UNL     1     -11.087   8.700  71.757  1.00  0.00    -0.301 NA 
BRANCH   3   4
HETATM    4  C   UNL     1     -10.219   8.012  72.725  1.00  0.00    -0.319 C  
HETATM    5  C   UNL     1      -8.743   8.392  72.692  1.00  0.00    -0.267 C  
ENDBRANCH   3   4
BRANCH   3   6
HETATM    6  C   UNL     1     -11.156   8.041  70.431  1.00  0.00    -0.238 C  
BRANCH   6   7
HETATM    7  C   UNL     1     -10.327   8.693  69.311  1.00  0.00    -0.228 C  
BRANCH   7   8
HETATM    8  C   UNL     1     -10.786  10.082  69.030  1.00  0.00    -0.220 A  
HETATM    9  N   UNL     1     -10.483  11.217  69.625  1.00  0.00    -0.048 NA 
HETATM   10  C   UNL     1     -11.280  12.129  68.953  1.00  0.00    -0.269 A  
HETATM   11  N   UNL     1     -12.012  11.577  67.971  1.00  0.00    -0.627 NA 
HETATM   12  O   UNL     1     -11.698  10.226  68.031  1.00  0.00    -0.293 OA 
BRANCH  10  13
HETATM   13  C   UNL     1     -11.352  13.549  69.301  1.00  0.00    -0.317 A  
HETATM   14  C   UNL     1     -10.426  14.472  68.795  1.00  0.00    -0.246 A  
HETATM   15  C   UNL     1     -10.489  15.821  69.169  1.00  0.00    -0.240 A  
HETATM   16  C   UNL     1     -11.477  16.262  70.048  1.00  0.00    -0.218 A  
HETATM   17  C   UNL     1     -12.412  15.360  70.548  1.00  0.00    -0.468 A  
HETATM   18  C   UNL     1     -12.351  14.014  70.175  1.00  0.00    -0.409 A  
ENDBRANCH  10  13
ENDBRANCH   7   8
ENDBRANCH   6   7
ENDBRANCH   3   6
ENDBRANCH   2   3
TORSDOF 6
ENDMDL
MODEL      108
REMARK 921   NORMALIZED FREE ENERGY PREDICTED BY IDOCK:   -4.15 KCAL/MOL
REMARK 922        TOTAL FREE ENERGY PREDICTED BY IDOCK:   -6.13 KCAL/MOL
REMARK 923 INTER-LIGAND FREE ENERGY PREDICTED BY IDOCK:   -5.52 KCAL/MOL
REMARK 924 INTRA-LIGAND FREE ENERGY PREDICTED BY IDOCK:   -0.61 KCAL/MOL
REMARK 927      BINDING AFFINITY PREDICTED BY RF-SCORE:    0.00 PKD
ROOT
HETATM    1  C   UNL     1     -10.700  18.246  67.873  1.00  0.00    -0.335 C  
HETATM    2  C   UNL     1      -9.509  19.022  68.431  1.00  0.00    -0.364 C  
ENDROOT
BRANCH   2   3
HETATM    3  N   UNL     1      -8.343  19.133  67.529  1.00  0.00    -0.283 NA 
BRANCH   3   4
HETATM    4  C   UNL     1      -8.006  20.516  67.160  1.00  0.00    -0.311 C  
HETATM    5  C   UNL     1      -6.523  20.818  66.968  1.00  0.00    -0.347 C  
ENDBRANCH   3   4
BRANCH   3   6
HETATM    6  C   UNL     1      -7.211  18.367  68.103  1.00  0.00    -0.261 C  
BRANCH   6   7
HETATM    7  C   UNL     1      -6.598  17.287  67.194  1.00  0.00    -0.203 C  
BRANCH   7   8
HETATM    8  C   UNL     1      -7.538  16.150  66.987  1.00  0.00    -0.225 A  
HETATM    9  N   UNL     1      -8.545  16.018  66.150  1.00  0.00    -0.330 NA 
HETATM   10  C   UNL     1      -9.060  14.779  66.492  1.00  0.00    -0.260 A  
HETATM   11  N   UNL     1      -8.375  14.170  67.475  1.00  0.00    -0.172 NA 
HETATM   12  O   UNL     1      -7.381  15.079  67.812  1.00  0.00    -0.132 OA 
BRANCH  10  13
HETATM   13  C   UNL     1     -10.256  14.202  65.876  1.00  0.00    -0.332 A  
HETATM   14  C   UNL     1     -11.211  15.008  65.242  1.00  0.00    -0.368 A  
HETATM   15  C   UNL     1     -12.368  14.441  64.691  1.00  0.00    -0.435 A  
HETATM   16  C   UNL     1     -12.581  13.065  64.765  1.00  0.00    -0.460 A  
HETATM   17  C   UNL     1     -11.635  12.250  65.380  1.00  0.00    -0.412 A  
HETATM   18  C   UNL     1     -10.480  12.815  65.930  1.00  0.00    -0.295 A  
ENDBRANCH  10  13
ENDBRANCH   7   8
ENDBRANCH   6   7
ENDBRANCH   3   6
ENDBRANCH   2   3
TORSDOF 6
ENDMDL
MODEL      109
REMARK 921   NORMALIZED FREE ENERGY PREDICTED BY IDOCK:   -4.15 KCAL/MOL
REMARK 922        TOTAL FREE ENERGY PREDICTED BY IDOCK:   -6.13 KCAL/MOL
REMARK 923 INTER-LIGAND FREE ENERGY PREDICTED BY IDOCK:   -5.64 KCAL/MOL
REMARK 924 INTRA-LIGAND FREE ENERGY PREDICTED BY IDOCK:   -0.49 KCAL/MOL
REMARK 927      BINDING AFFINITY PREDICTED BY RF-SCORE:    0.00 PKD
ROOT
HETATM    1  C   UNL     1     -11.209  15.907  64.695  1.00  0.00    -0.361 C  
HETATM    2  C   UNL     1     -11.012  14.399  64.843  1.00  0.00    -0.406 C  
ENDROOT
BRANCH   2   3
HETATM    3  N   UNL     1     -12.093  13.683  65.552  1.00  0.00    -0.384 NA 
BRANCH   3   4
HETATM    4  C   UNL     1     -12.631  12.533  64.810  1.00  0.00    -0.413 C  
HETATM    5  C   UNL     1     -12.230  12.433  63.342  1.00  0.00    -0.623 C  
ENDBRANCH   3   4
BRANCH   3   6
HETATM    6  C   UNL     1     -11.641  13.358  66.926  1.00  0.00    -0.365 C  
BRANCH   6   7
HETATM    7  C   UNL     1     -10.125  13.168  67.109  1.00  0.00    -0.242 C  
BRANCH   7   8
HETATM    8  C   UNL     1      -9.820  11.962  67.929  1.00  0.00    -0.190 A  
HETATM    9  N   UNL     1     -10.451  11.456  68.968  1.00  0.00    -0.197 NA 
HETATM   10  C   UNL     1      -9.642  10.388  69.319  1.00  0.00    -0.209 A  
HETATM   11  N   UNL     1      -8.582  10.232  68.507  1.00  0.00    -0.120 NA 
HETATM   12  O   UNL     1      -8.691  11.278  67.601  1.00  0.00    -0.128 OA 
BRANCH  10  13
HETATM   13  C   UNL     1      -9.890   9.534  70.481  1.00  0.00    -0.331 A  
HETATM   14  C   UNL     1     -11.138   9.515  71.120  1.00  0.00    -0.450 A  
HETATM   15  C   UNL     1     -11.345   8.719  72.254  1.00  0.00    -0.356 A  
HETATM   16  C   UNL     1     -10.310   7.932  72.759  1.00  0.00    -0.399 A  
HETATM   17  C   UNL     1      -9.070   7.930  72.127  1.00  0.00    -0.205 A  
HETATM   18  C   UNL     1      -8.862   8.723  70.995  1.00  0.00    -0.260 A  
ENDBRANCH  10  13
ENDBRANCH   7   8
ENDBRANCH   6   7
ENDBRANCH   3   6
ENDBRANCH   2   3
TORSDOF 6
ENDMDL
MODEL      110
REMARK 921   NORMALIZED FREE ENERGY PREDICTED BY IDOCK:   -4.10 KCAL/MOL
REMARK 922        TOTAL FREE ENERGY PREDICTED BY IDOCK:   -6.06 KCAL/MOL
REMARK 923 INTER-LIGAND FREE ENERGY PREDICTED BY IDOCK:   -5.47 KCAL/MOL
REMARK 924 INTRA-LIGAND FREE ENERGY PREDICTED BY IDOCK:   -0.60 KCAL/MOL
REMARK 927      BINDING AFFINITY PREDICTED BY RF-SCORE:    0.00 PKD
ROOT
HETATM    1  C   UNL     1      -8.488  10.186  69.110  1.00  0.00    -0.157 C  
HETATM    2  C   UNL     1      -7.442  10.479  68.036  1.00  0.00    -0.090 C  
ENDROOT
BRANCH   2   3
HETATM    3  N   UNL     1      -7.972  10.697  66.674  1.00  0.00    -0.128 NA 
BRANCH   3   4
HETATM    4  C   UNL     1      -8.886   9.641  66.215  1.00  0.00    -0.151 C  
HETATM    5  C   UNL     1      -8.368   8.740  65.100  1.00  0.00    -0.176 C  
ENDBRANCH   3   4
BRANCH   3   6
HETATM    6  C   UNL     1      -8.537  12.065  66.586  1.00  0.00    -0.143 C  
BRANCH   6   7
HETATM    7  C   UNL     1     -10.049  12.154  66.320  1.00  0.00    -0.247 C  
BRANCH   7   8
HETATM    8  C   UNL     1     -10.728  13.031  67.315  1.00  0.00    -0.250 A  
HETATM    9  N   UNL     1     -11.150  12.769  68.534  1.00  0.00    -0.251 NA 
HETATM   10  C   UNL     1     -11.751  13.960  68.906  1.00  0.00    -0.337 A  
HETATM   11  N   UNL     1     -11.670  14.916  67.963  1.00  0.00    -0.336 NA 
HETATM   12  O   UNL     1     -11.010  14.299  66.909  1.00  0.00    -0.294 OA 
BRANCH  10  13
HETATM   13  C   UNL     1     -12.443  14.154  70.181  1.00  0.00    -0.391 A  
HETATM   14  C   UNL     1     -12.754  13.070  71.014  1.00  0.00    -0.347 A  
HETATM   15  C   UNL     1     -13.450  13.270  72.213  1.00  0.00    -0.679 A  
HETATM   16  C   UNL     1     -13.839  14.554  72.594  1.00  0.00    -0.483 A  
HETATM   17  C   UNL     1     -13.525  15.641  71.784  1.00  0.00    -0.525 A  
HETATM   18  C   UNL     1     -12.830  15.443  70.587  1.00  0.00    -0.484 A  
ENDBRANCH  10  13
ENDBRANCH   7   8
ENDBRANCH   6   7
ENDBRANCH   3   6
ENDBRANCH   2   3
TORSDOF 6
ENDMDL
MODEL      111
REMARK 921   NORMALIZED FREE ENERGY PREDICTED BY IDOCK:   -4.10 KCAL/MOL
REMARK 922        TOTAL FREE ENERGY PREDICTED BY IDOCK:   -6.06 KCAL/MOL
REMARK 923 INTER-LIGAND FREE ENERGY PREDICTED BY IDOCK:   -5.71 KCAL/MOL
REMARK 924 INTRA-LIGAND FREE ENERGY PREDICTED BY IDOCK:   -0.35 KCAL/MOL
REMARK 927      BINDING AFFINITY PREDICTED BY RF-SCORE:    0.00 PKD
ROOT
HETATM    1  C   UNL     1      -9.264  10.542  63.473  1.00  0.00    -0.300 C  
HETATM    2  C   UNL     1     -10.243  11.068  64.521  1.00  0.00    -0.344 C  
ENDROOT
BRANCH   2   3
HETATM    3  N   UNL     1     -10.507  12.522  64.472  1.00  0.00    -0.322 NA 
BRANCH   3   4
HETATM    4  C   UNL     1     -11.640  12.891  63.610  1.00  0.00    -0.485 C  
HETATM    5  C   UNL     1     -12.774  11.875  63.517  1.00  0.00    -0.530 C  
ENDBRANCH   3   4
BRANCH   3   6
HETATM    6  C   UNL     1     -10.604  13.044  65.856  1.00  0.00    -0.275 C  
BRANCH   6   7
HETATM    7  C   UNL     1      -9.328  12.936  66.708  1.00  0.00    -0.243 C  
BRANCH   7   8
HETATM    8  C   UNL     1      -9.411  11.805  67.675  1.00  0.00    -0.180 A  
HETATM    9  N   UNL     1     -10.313  11.533  68.593  1.00  0.00    -0.207 NA 
HETATM   10  C   UNL     1      -9.793  10.402  69.200  1.00  0.00    -0.223 A  
HETATM   11  N   UNL     1      -8.638   9.987  68.652  1.00  0.00    -0.118 NA 
HETATM   12  O   UNL     1      -8.378  10.920  67.657  1.00  0.00    -0.115 OA 
BRANCH  10  13
HETATM   13  C   UNL     1     -10.413   9.744  70.350  1.00  0.00    -0.358 A  
HETATM   14  C   UNL     1      -9.675   8.903  71.195  1.00  0.00    -0.344 A  
HETATM   15  C   UNL     1     -10.295   8.252  72.269  1.00  0.00    -0.386 A  
HETATM   16  C   UNL     1     -11.656   8.435  72.513  1.00  0.00    -0.426 A  
HETATM   17  C   UNL     1     -12.399   9.277  71.690  1.00  0.00    -0.450 A  
HETATM   18  C   UNL     1     -11.781   9.928  70.618  1.00  0.00    -0.404 A  
ENDBRANCH  10  13
ENDBRANCH   7   8
ENDBRANCH   6   7
ENDBRANCH   3   6
ENDBRANCH   2   3
TORSDOF 6
ENDMDL
MODEL      112
REMARK 921   NORMALIZED FREE ENERGY PREDICTED BY IDOCK:   -4.08 KCAL/MOL
REMARK 922        TOTAL FREE ENERGY PREDICTED BY IDOCK:   -6.04 KCAL/MOL
REMARK 923 INTER-LIGAND FREE ENERGY PREDICTED BY IDOCK:   -5.52 KCAL/MOL
REMARK 924 INTRA-LIGAND FREE ENERGY PREDICTED BY IDOCK:   -0.52 KCAL/MOL
REMARK 927      BINDING AFFINITY PREDICTED BY RF-SCORE:    0.00 PKD
ROOT
HETATM    1  C   UNL     1     -13.294  14.559  71.092  1.00  0.00    -0.415 C  
HETATM    2  C   UNL     1     -11.982  14.219  70.387  1.00  0.00    -0.332 C  
ENDROOT
BRANCH   2   3
HETATM    3  N   UNL     1     -11.938  14.526  68.942  1.00  0.00    -0.310 NA 
BRANCH   3   4
HETATM    4  C   UNL     1     -11.698  15.946  68.644  1.00  0.00    -0.322 C  
HETATM    5  C   UNL     1     -10.440  16.558  69.250  1.00  0.00    -0.326 C  
ENDBRANCH   3   4
BRANCH   3   6
HETATM    6  C   UNL     1     -10.990  13.601  68.277  1.00  0.00    -0.254 C  
BRANCH   6   7
HETATM    7  C   UNL     1     -11.622  12.489  67.422  1.00  0.00    -0.434 C  
BRANCH   7   8
HETATM    8  C   UNL     1     -11.374  11.142  68.007  1.00  0.00    -0.312 A  
HETATM    9  N   UNL     1     -11.674  10.659  69.195  1.00  0.00    -0.275 NA 
HETATM   10  C   UNL     1     -11.121   9.391  69.152  1.00  0.00    -0.013 A  
HETATM   11  N   UNL     1     -10.536   9.103  67.977  1.00  0.00    -0.228 NA 
HETATM   12  O   UNL     1     -10.689  10.262  67.228  1.00  0.00    -0.257 OA 
BRANCH  10  13
HETATM   13  C   UNL     1     -11.133   8.465  70.286  1.00  0.00    -0.216 A  
HETATM   14  C   UNL     1     -10.975   7.084  70.102  1.00  0.00    -0.306 A  
HETATM   15  C   UNL     1     -11.027   6.210  71.195  1.00  0.00    -0.343 A  
HETATM   16  C   UNL     1     -11.233   6.704  72.482  1.00  0.00    -0.302 A  
HETATM   17  C   UNL     1     -11.378   8.074  72.682  1.00  0.00    -0.469 A  
HETATM   18  C   UNL     1     -11.326   8.948  71.592  1.00  0.00    -0.407 A  
ENDBRANCH  10  13
ENDBRANCH   7   8
ENDBRANCH   6   7
ENDBRANCH   3   6
ENDBRANCH   2   3
TORSDOF 6
ENDMDL
MODEL      113
REMARK 921   NORMALIZED FREE ENERGY PREDICTED BY IDOCK:   -4.07 KCAL/MOL
REMARK 922        TOTAL FREE ENERGY PREDICTED BY IDOCK:   -6.02 KCAL/MOL
REMARK 923 INTER-LIGAND FREE ENERGY PREDICTED BY IDOCK:   -5.56 KCAL/MOL
REMARK 924 INTRA-LIGAND FREE ENERGY PREDICTED BY IDOCK:   -0.45 KCAL/MOL
REMARK 927      BINDING AFFINITY PREDICTED BY RF-SCORE:    0.00 PKD
ROOT
HETATM    1  C   UNL     1      -9.638   7.943  66.699  1.00  0.00    -0.293 C  
HETATM    2  C   UNL     1      -9.205   8.959  65.644  1.00  0.00    -0.204 C  
ENDROOT
BRANCH   2   3
HETATM    3  N   UNL     1      -8.550  10.177  66.167  1.00  0.00    -0.136 NA 
BRANCH   3   4
HETATM    4  C   UNL     1      -7.189  10.388  65.649  1.00  0.00    -0.146 C  
HETATM    5  C   UNL     1      -6.344   9.135  65.448  1.00  0.00    -0.064 C  
ENDBRANCH   3   4
BRANCH   3   6
HETATM    6  C   UNL     1      -9.455  11.335  65.976  1.00  0.00    -0.216 C  
BRANCH   6   7
HETATM    7  C   UNL     1      -9.237  12.525  66.927  1.00  0.00    -0.211 C  
BRANCH   7   8
HETATM    8  C   UNL     1     -10.309  12.604  67.959  1.00  0.00    -0.228 A  
HETATM    9  N   UNL     1     -10.681  13.606  68.727  1.00  0.00    -0.251 NA 
HETATM   10  C   UNL     1     -11.669  13.033  69.510  1.00  0.00    -0.317 A  
HETATM   11  N   UNL     1     -11.909  11.745  69.208  1.00  0.00    -0.318 NA 
HETATM   12  O   UNL     1     -11.002  11.458  68.196  1.00  0.00    -0.202 OA 
BRANCH  10  13
HETATM   13  C   UNL     1     -12.359  13.742  70.589  1.00  0.00    -0.445 A  
HETATM   14  C   UNL     1     -12.239  15.130  70.743  1.00  0.00    -0.392 A  
HETATM   15  C   UNL     1     -12.876  15.786  71.803  1.00  0.00    -0.517 A  
HETATM   16  C   UNL     1     -13.643  15.065  72.718  1.00  0.00    -0.562 A  
HETATM   17  C   UNL     1     -13.782  13.687  72.570  1.00  0.00    -0.663 A  
HETATM   18  C   UNL     1     -13.146  13.031  71.512  1.00  0.00    -0.400 A  
ENDBRANCH  10  13
ENDBRANCH   7   8
ENDBRANCH   6   7
ENDBRANCH   3   6
ENDBRANCH   2   3
TORSDOF 6
ENDMDL
MODEL      114
REMARK 921   NORMALIZED FREE ENERGY PREDICTED BY IDOCK:   -4.06 KCAL/MOL
REMARK 922        TOTAL FREE ENERGY PREDICTED BY IDOCK:   -6.01 KCAL/MOL
REMARK 923 INTER-LIGAND FREE ENERGY PREDICTED BY IDOCK:   -5.51 KCAL/MOL
REMARK 924 INTRA-LIGAND FREE ENERGY PREDICTED BY IDOCK:   -0.50 KCAL/MOL
REMARK 927      BINDING AFFINITY PREDICTED BY RF-SCORE:    0.00 PKD
ROOT
HETATM    1  C   UNL     1     -10.552  19.640  67.073  1.00  0.00    -0.602 C  
HETATM    2  C   UNL     1      -9.499  19.659  68.179  1.00  0.00    -0.360 C  
ENDROOT
BRANCH   2   3
HETATM    3  N   UNL     1      -8.120  19.339  67.751  1.00  0.00    -0.279 NA 
BRANCH   3   4
HETATM    4  C   UNL     1      -7.116  20.311  68.208  1.00  0.00    -0.231 C  
HETATM    5  C   UNL     1      -6.818  20.318  69.704  1.00  0.00    -0.073 C  
ENDBRANCH   3   4
BRANCH   3   6
HETATM    6  C   UNL     1      -7.812  17.935  68.115  1.00  0.00    -0.266 C  
BRANCH   6   7
HETATM    7  C   UNL     1      -8.084  16.882  67.027  1.00  0.00    -0.228 C  
BRANCH   7   8
HETATM    8  C   UNL     1      -9.231  16.004  67.391  1.00  0.00    -0.208 A  
HETATM    9  N   UNL     1      -9.375  15.161  68.392  1.00  0.00    -0.191 NA 
HETATM   10  C   UNL     1     -10.619  14.606  68.139  1.00  0.00    -0.237 A  
HETATM   11  N   UNL     1     -11.218  15.113  67.048  1.00  0.00    -0.331 NA 
HETATM   12  O   UNL     1     -10.297  16.023  66.546  1.00  0.00    -0.284 OA 
BRANCH  10  13
HETATM   13  C   UNL     1     -11.210  13.543  68.953  1.00  0.00    -0.316 A  
HETATM   14  C   UNL     1     -12.004  13.836  70.071  1.00  0.00    -0.407 A  
HETATM   15  C   UNL     1     -12.530  12.805  70.860  1.00  0.00    -0.373 A  
HETATM   16  C   UNL     1     -12.273  11.472  70.540  1.00  0.00    -0.469 A  
HETATM   17  C   UNL     1     -11.497  11.166  69.425  1.00  0.00    -0.368 A  
HETATM   18  C   UNL     1     -10.971  12.194  68.637  1.00  0.00    -0.284 A  
ENDBRANCH  10  13
ENDBRANCH   7   8
ENDBRANCH   6   7
ENDBRANCH   3   6
ENDBRANCH   2   3
TORSDOF 6
ENDMDL
MODEL      115
REMARK 921   NORMALIZED FREE ENERGY PREDICTED BY IDOCK:   -4.02 KCAL/MOL
REMARK 922        TOTAL FREE ENERGY PREDICTED BY IDOCK:   -5.96 KCAL/MOL
REMARK 923 INTER-LIGAND FREE ENERGY PREDICTED BY IDOCK:   -5.39 KCAL/MOL
REMARK 924 INTRA-LIGAND FREE ENERGY PREDICTED BY IDOCK:   -0.57 KCAL/MOL
REMARK 927      BINDING AFFINITY PREDICTED BY RF-SCORE:    0.00 PKD
ROOT
HETATM    1  C   UNL     1     -10.329  19.444  66.055  1.00  0.00    -0.584 C  
HETATM    2  C   UNL     1      -9.597  20.146  67.197  1.00  0.00    -0.420 C  
ENDROOT
BRANCH   2   3
HETATM    3  N   UNL     1      -8.198  19.718  67.413  1.00  0.00    -0.296 NA 
BRANCH   3   4
HETATM    4  C   UNL     1      -7.234  20.829  67.437  1.00  0.00    -0.354 C  
HETATM    5  C   UNL     1      -6.203  20.850  66.314  1.00  0.00    -0.309 C  
ENDBRANCH   3   4
BRANCH   3   6
HETATM    6  C   UNL     1      -8.137  18.839  68.605  1.00  0.00    -0.333 C  
BRANCH   6   7
HETATM    7  C   UNL     1      -7.552  17.435  68.378  1.00  0.00    -0.255 C  
BRANCH   7   8
HETATM    8  C   UNL     1      -8.613  16.389  68.414  1.00  0.00    -0.209 A  
HETATM    9  N   UNL     1      -8.519  15.077  68.366  1.00  0.00    -0.147 NA 
HETATM   10  C   UNL     1      -9.845  14.681  68.367  1.00  0.00    -0.220 A  
HETATM   11  N   UNL     1     -10.709  15.708  68.444  1.00  0.00    -0.261 NA 
HETATM   12  O   UNL     1      -9.898  16.834  68.459  1.00  0.00    -0.236 OA 
BRANCH  10  13
HETATM   13  C   UNL     1     -10.273  13.285  68.255  1.00  0.00    -0.250 A  
HETATM   14  C   UNL     1      -9.529  12.351  67.520  1.00  0.00    -0.187 A  
HETATM   15  C   UNL     1      -9.974  11.029  67.392  1.00  0.00    -0.209 A  
HETATM   16  C   UNL     1     -11.162  10.624  68.001  1.00  0.00    -0.373 A  
HETATM   17  C   UNL     1     -11.904  11.537  68.745  1.00  0.00    -0.394 A  
HETATM   18  C   UNL     1     -11.461  12.857  68.873  1.00  0.00    -0.350 A  
ENDBRANCH  10  13
ENDBRANCH   7   8
ENDBRANCH   6   7
ENDBRANCH   3   6
ENDBRANCH   2   3
TORSDOF 6
ENDMDL
MODEL      116
REMARK 921   NORMALIZED FREE ENERGY PREDICTED BY IDOCK:   -4.01 KCAL/MOL
REMARK 922        TOTAL FREE ENERGY PREDICTED BY IDOCK:   -5.95 KCAL/MOL
REMARK 923 INTER-LIGAND FREE ENERGY PREDICTED BY IDOCK:   -5.39 KCAL/MOL
REMARK 924 INTRA-LIGAND FREE ENERGY PREDICTED BY IDOCK:   -0.56 KCAL/MOL
REMARK 927      BINDING AFFINITY PREDICTED BY RF-SCORE:    0.00 PKD
ROOT
HETATM    1  C   UNL     1     -11.133  15.775  64.607  1.00  0.00    -0.376 C  
HETATM    2  C   UNL     1     -10.766  14.303  64.785  1.00  0.00    -0.416 C  
ENDROOT
BRANCH   2   3
HETATM    3  N   UNL     1     -11.906  13.362  64.811  1.00  0.00    -0.363 NA 
BRANCH   3   4
HETATM    4  C   UNL     1     -11.638  12.085  64.134  1.00  0.00    -0.379 C  
HETATM    5  C   UNL     1     -10.195  11.842  63.702  1.00  0.00    -0.466 C  
ENDBRANCH   3   4
BRANCH   3   6
HETATM    6  C   UNL     1     -12.384  13.217  66.207  1.00  0.00    -0.317 C  
BRANCH   6   7
HETATM    7  C   UNL     1     -11.292  13.101  67.285  1.00  0.00    -0.344 C  
BRANCH   7   8
HETATM    8  C   UNL     1     -10.741  11.718  67.356  1.00  0.00    -0.236 A  
HETATM    9  N   UNL     1     -11.348  10.567  67.550  1.00  0.00    -0.409 NA 
HETATM   10  C   UNL     1     -10.292   9.672  67.582  1.00  0.00    -0.237 A  
HETATM   11  N   UNL     1      -9.096  10.251  67.385  1.00  0.00    -0.138 NA 
HETATM   12  O   UNL     1      -9.389  11.602  67.251  1.00  0.00    -0.166 OA 
BRANCH  10  13
HETATM   13  C   UNL     1     -10.453   8.241  67.845  1.00  0.00    -0.259 A  
HETATM   14  C   UNL     1     -10.848   7.770  69.105  1.00  0.00    -0.066 A  
HETATM   15  C   UNL     1     -10.960   6.396  69.349  1.00  0.00    -0.421 A  
HETATM   16  C   UNL     1     -10.682   5.477  68.337  1.00  0.00    -0.156 A  
HETATM   17  C   UNL     1     -10.300   5.930  67.077  1.00  0.00    -0.298 A  
HETATM   18  C   UNL     1     -10.189   7.302  66.833  1.00  0.00    -0.340 A  
ENDBRANCH  10  13
ENDBRANCH   7   8
ENDBRANCH   6   7
ENDBRANCH   3   6
ENDBRANCH   2   3
TORSDOF 6
ENDMDL
MODEL      117
REMARK 921   NORMALIZED FREE ENERGY PREDICTED BY IDOCK:   -4.00 KCAL/MOL
REMARK 922        TOTAL FREE ENERGY PREDICTED BY IDOCK:   -5.92 KCAL/MOL
REMARK 923 INTER-LIGAND FREE ENERGY PREDICTED BY IDOCK:   -5.35 KCAL/MOL
REMARK 924 INTRA-LIGAND FREE ENERGY PREDICTED BY IDOCK:   -0.57 KCAL/MOL
REMARK 927      BINDING AFFINITY PREDICTED BY RF-SCORE:    0.00 PKD
ROOT
HETATM    1  C   UNL     1      -8.165  14.123  67.431  1.00  0.00    -0.207 C  
HETATM    2  C   UNL     1      -8.901  15.015  68.429  1.00  0.00    -0.178 C  
ENDROOT
BRANCH   2   3
HETATM    3  N   UNL     1     -10.376  14.999  68.330  1.00  0.00    -0.233 NA 
BRANCH   3   4
HETATM    4  C   UNL     1     -11.012  16.260  68.737  1.00  0.00    -0.343 C  
HETATM    5  C   UNL     1     -10.357  17.540  68.228  1.00  0.00    -0.379 C  
ENDBRANCH   3   4
BRANCH   3   6
HETATM    6  C   UNL     1     -10.767  14.533  66.978  1.00  0.00    -0.291 C  
BRANCH   6   7
HETATM    7  C   UNL     1     -11.916  13.512  66.923  1.00  0.00    -0.447 C  
BRANCH   7   8
HETATM    8  C   UNL     1     -11.404  12.113  66.923  1.00  0.00    -0.343 A  
HETATM    9  N   UNL     1     -11.666  11.109  67.734  1.00  0.00    -0.602 NA 
HETATM   10  C   UNL     1     -10.833  10.112  67.256  1.00  0.00    -0.230 A  
HETATM   11  N   UNL     1     -10.117  10.484  66.181  1.00  0.00    -0.237 NA 
HETATM   12  O   UNL     1     -10.482  11.807  65.971  1.00  0.00    -0.231 OA 
BRANCH  10  13
HETATM   13  C   UNL     1     -10.708   8.794  67.880  1.00  0.00    -0.171 A  
HETATM   14  C   UNL     1     -10.724   7.620  67.114  1.00  0.00    -0.361 A  
HETATM   15  C   UNL     1     -10.642   6.365  67.732  1.00  0.00    -0.331 A  
HETATM   16  C   UNL     1     -10.540   6.270  69.120  1.00  0.00    -0.325 A  
HETATM   17  C   UNL     1     -10.510   7.428  69.892  1.00  0.00    -0.238 A  
HETATM   18  C   UNL     1     -10.591   8.680  69.276  1.00  0.00    -0.204 A  
ENDBRANCH  10  13
ENDBRANCH   7   8
ENDBRANCH   6   7
ENDBRANCH   3   6
ENDBRANCH   2   3
TORSDOF 6
ENDMDL
MODEL      118
REMARK 921   NORMALIZED FREE ENERGY PREDICTED BY IDOCK:   -3.98 KCAL/MOL
REMARK 922        TOTAL FREE ENERGY PREDICTED BY IDOCK:   -5.90 KCAL/MOL
REMARK 923 INTER-LIGAND FREE ENERGY PREDICTED BY IDOCK:   -5.47 KCAL/MOL
REMARK 924 INTRA-LIGAND FREE ENERGY PREDICTED BY IDOCK:   -0.43 KCAL/MOL
REMARK 927      BINDING AFFINITY PREDICTED BY RF-SCORE:    0.00 PKD
ROOT
HETATM    1  C   UNL     1      -8.596   4.052  65.672  1.00  0.00    -0.110 C  
HETATM    2  C   UNL     1      -9.397   5.349  65.764  1.00  0.00    -0.118 C  
ENDROOT
BRANCH   2   3
HETATM    3  N   UNL     1     -10.351   5.428  66.891  1.00  0.00    -0.236 NA 
BRANCH   3   4
HETATM    4  C   UNL     1      -9.862   4.803  68.129  1.00  0.00    -0.120 C  
HETATM    5  C   UNL     1     -10.363   5.413  69.434  1.00  0.00    -0.339 C  
ENDBRANCH   3   4
BRANCH   3   6
HETATM    6  C   UNL     1     -10.791   6.834  67.057  1.00  0.00    -0.383 C  
BRANCH   6   7
HETATM    7  C   UNL     1      -9.739   7.911  66.744  1.00  0.00    -0.303 C  
BRANCH   7   8
HETATM    8  C   UNL     1     -10.337   9.276  66.740  1.00  0.00    -0.226 A  
HETATM    9  N   UNL     1     -10.240  10.247  65.858  1.00  0.00    -0.246 NA 
HETATM   10  C   UNL     1     -10.956  11.270  66.457  1.00  0.00    -0.245 A  
HETATM   11  N   UNL     1     -11.493  10.923  67.640  1.00  0.00    -0.518 NA 
HETATM   12  O   UNL     1     -11.072   9.615  67.834  1.00  0.00    -0.205 OA 
BRANCH  10  13
HETATM   13  C   UNL     1     -11.086  12.610  65.883  1.00  0.00    -0.323 A  
HETATM   14  C   UNL     1     -12.197  12.966  65.104  1.00  0.00    -0.519 A  
HETATM   15  C   UNL     1     -12.285  14.241  64.532  1.00  0.00    -0.476 A  
HETATM   16  C   UNL     1     -11.270  15.175  64.734  1.00  0.00    -0.396 A  
HETATM   17  C   UNL     1     -10.168  14.841  65.517  1.00  0.00    -0.400 A  
HETATM   18  C   UNL     1     -10.078  13.568  66.088  1.00  0.00    -0.307 A  
ENDBRANCH  10  13
ENDBRANCH   7   8
ENDBRANCH   6   7
ENDBRANCH   3   6
ENDBRANCH   2   3
TORSDOF 6
ENDMDL
MODEL      119
REMARK 921   NORMALIZED FREE ENERGY PREDICTED BY IDOCK:   -3.97 KCAL/MOL
REMARK 922        TOTAL FREE ENERGY PREDICTED BY IDOCK:   -5.89 KCAL/MOL
REMARK 923 INTER-LIGAND FREE ENERGY PREDICTED BY IDOCK:   -5.32 KCAL/MOL
REMARK 924 INTRA-LIGAND FREE ENERGY PREDICTED BY IDOCK:   -0.57 KCAL/MOL
REMARK 927      BINDING AFFINITY PREDICTED BY RF-SCORE:    0.00 PKD
ROOT
HETATM    1  C   UNL     1      -6.575  10.180  62.859  1.00  0.00    -0.133 C  
HETATM    2  C   UNL     1      -7.142   9.585  64.147  1.00  0.00    -0.112 C  
ENDROOT
BRANCH   2   3
HETATM    3  N   UNL     1      -8.611   9.664  64.291  1.00  0.00    -0.177 NA 
BRANCH   3   4
HETATM    4  C   UNL     1      -9.126   8.997  65.496  1.00  0.00    -0.214 C  
HETATM    5  C   UNL     1      -8.733   9.621  66.831  1.00  0.00    -0.139 C  
ENDBRANCH   3   4
BRANCH   3   6
HETATM    6  C   UNL     1      -9.037  11.077  64.153  1.00  0.00    -0.097 C  
BRANCH   6   7
HETATM    7  C   UNL     1     -10.538  11.308  63.908  1.00  0.00    -0.455 C  
BRANCH   7   8
HETATM    8  C   UNL     1     -11.105  12.289  64.875  1.00  0.00    -0.311 A  
HETATM    9  N   UNL     1     -10.723  12.603  66.094  1.00  0.00    -0.264 NA 
HETATM   10  C   UNL     1     -11.687  13.516  66.486  1.00  0.00    -0.371 A  
HETATM   11  N   UNL     1     -12.600  13.770  65.532  1.00  0.00    -0.510 NA 
HETATM   12  O   UNL     1     -12.225  12.950  64.476  1.00  0.00    -0.386 OA 
BRANCH  10  13
HETATM   13  C   UNL     1     -11.737  14.118  67.819  1.00  0.00    -0.408 A  
HETATM   14  C   UNL     1     -12.113  13.370  68.944  1.00  0.00    -0.289 A  
HETATM   15  C   UNL     1     -12.191  13.973  70.206  1.00  0.00    -0.430 A  
HETATM   16  C   UNL     1     -11.891  15.327  70.358  1.00  0.00    -0.361 A  
HETATM   17  C   UNL     1     -11.504  16.079  69.253  1.00  0.00    -0.350 A  
HETATM   18  C   UNL     1     -11.425  15.478  67.993  1.00  0.00    -0.313 A  
ENDBRANCH  10  13
ENDBRANCH   7   8
ENDBRANCH   6   7
ENDBRANCH   3   6
ENDBRANCH   2   3
TORSDOF 6
ENDMDL
MODEL      120
REMARK 921   NORMALIZED FREE ENERGY PREDICTED BY IDOCK:   -3.96 KCAL/MOL
REMARK 922        TOTAL FREE ENERGY PREDICTED BY IDOCK:   -5.88 KCAL/MOL
REMARK 923 INTER-LIGAND FREE ENERGY PREDICTED BY IDOCK:   -5.30 KCAL/MOL
REMARK 924 INTRA-LIGAND FREE ENERGY PREDICTED BY IDOCK:   -0.57 KCAL/MOL
REMARK 927      BINDING AFFINITY PREDICTED BY RF-SCORE:    0.00 PKD
ROOT
HETATM    1  C   UNL     1     -10.499   8.414  72.258  1.00  0.00    -0.407 C  
HETATM    2  C   UNL     1      -9.091   8.163  71.721  1.00  0.00    -0.174 C  
ENDROOT
BRANCH   2   3
HETATM    3  N   UNL     1      -9.004   7.228  70.579  1.00  0.00    -0.153 NA 
BRANCH   3   4
HETATM    4  C   UNL     1      -8.872   5.818  70.974  1.00  0.00    -0.138 C  
HETATM    5  C   UNL     1     -10.007   4.892  70.552  1.00  0.00    -0.311 C  
ENDBRANCH   3   4
BRANCH   3   6
HETATM    6  C   UNL     1     -10.127   7.493  69.648  1.00  0.00    -0.189 C  
BRANCH   6   7
HETATM    7  C   UNL     1      -9.735   7.898  68.217  1.00  0.00    -0.172 C  
BRANCH   7   8
HETATM    8  C   UNL     1     -10.295   9.230  67.854  1.00  0.00    -0.227 A  
HETATM    9  N   UNL     1     -10.635   9.722  66.681  1.00  0.00    -0.155 NA 
HETATM   10  C   UNL     1     -11.015  11.016  66.996  1.00  0.00    -0.272 A  
HETATM   11  N   UNL     1     -10.939  11.289  68.310  1.00  0.00    -0.205 NA 
HETATM   12  O   UNL     1     -10.451  10.117  68.874  1.00  0.00    -0.189 OA 
BRANCH  10  13
HETATM   13  C   UNL     1     -11.421  12.006  65.998  1.00  0.00    -0.399 A  
HETATM   14  C   UNL     1     -11.143  11.824  64.635  1.00  0.00    -0.363 A  
HETATM   15  C   UNL     1     -11.506  12.800  63.699  1.00  0.00    -0.544 A  
HETATM   16  C   UNL     1     -12.153  13.965  64.111  1.00  0.00    -0.464 A  
HETATM   17  C   UNL     1     -12.447  14.153  65.458  1.00  0.00    -0.495 A  
HETATM   18  C   UNL     1     -12.086  13.179  66.394  1.00  0.00    -0.447 A  
ENDBRANCH  10  13
ENDBRANCH   7   8
ENDBRANCH   6   7
ENDBRANCH   3   6
ENDBRANCH   2   3
TORSDOF 6
ENDMDL
MODEL      121
REMARK 921   NORMALIZED FREE ENERGY PREDICTED BY IDOCK:   -3.96 KCAL/MOL
REMARK 922        TOTAL FREE ENERGY PREDICTED BY IDOCK:   -5.87 KCAL/MOL
REMARK 923 INTER-LIGAND FREE ENERGY PREDICTED BY IDOCK:   -5.43 KCAL/MOL
REMARK 924 INTRA-LIGAND FREE ENERGY PREDICTED BY IDOCK:   -0.45 KCAL/MOL
REMARK 927      BINDING AFFINITY PREDICTED BY RF-SCORE:    0.00 PKD
ROOT
HETATM    1  C   UNL     1      -9.207   4.909  71.283  1.00  0.00    -0.190 C  
HETATM    2  C   UNL     1      -8.832   6.186  70.534  1.00  0.00    -0.146 C  
ENDROOT
BRANCH   2   3
HETATM    3  N   UNL     1      -9.815   7.287  70.623  1.00  0.00    -0.180 NA 
BRANCH   3   4
HETATM    4  C   UNL     1      -9.876   7.924  71.947  1.00  0.00    -0.178 C  
HETATM    5  C   UNL     1     -11.204   7.811  72.688  1.00  0.00    -0.438 C  
ENDBRANCH   3   4
BRANCH   3   6
HETATM    6  C   UNL     1      -9.586   8.234  69.506  1.00  0.00    -0.171 C  
BRANCH   6   7
HETATM    7  C   UNL     1      -9.466   9.718  69.895  1.00  0.00    -0.264 C  
BRANCH   7   8
HETATM    8  C   UNL     1     -10.270  10.586  68.990  1.00  0.00    -0.216 A  
HETATM    9  N   UNL     1      -9.886  11.437  68.062  1.00  0.00    -0.179 NA 
HETATM   10  C   UNL     1     -11.088  11.975  67.633  1.00  0.00    -0.264 A  
HETATM   11  N   UNL     1     -12.159  11.451  68.253  1.00  0.00    -0.608 NA 
HETATM   12  O   UNL     1     -11.619  10.546  69.157  1.00  0.00    -0.261 OA 
BRANCH  10  13
HETATM   13  C   UNL     1     -11.186  13.040  66.633  1.00  0.00    -0.341 A  
HETATM   14  C   UNL     1     -12.224  13.062  65.690  1.00  0.00    -0.521 A  
HETATM   15  C   UNL     1     -12.280  14.067  64.717  1.00  0.00    -0.454 A  
HETATM   16  C   UNL     1     -11.305  15.063  64.676  1.00  0.00    -0.357 A  
HETATM   17  C   UNL     1     -10.275  15.061  65.614  1.00  0.00    -0.386 A  
HETATM   18  C   UNL     1     -10.218  14.058  66.586  1.00  0.00    -0.275 A  
ENDBRANCH  10  13
ENDBRANCH   7   8
ENDBRANCH   6   7
ENDBRANCH   3   6
ENDBRANCH   2   3
TORSDOF 6
ENDMDL
MODEL      122
REMARK 921   NORMALIZED FREE ENERGY PREDICTED BY IDOCK:   -3.95 KCAL/MOL
REMARK 922        TOTAL FREE ENERGY PREDICTED BY IDOCK:   -5.86 KCAL/MOL
REMARK 923 INTER-LIGAND FREE ENERGY PREDICTED BY IDOCK:   -5.31 KCAL/MOL
REMARK 924 INTRA-LIGAND FREE ENERGY PREDICTED BY IDOCK:   -0.55 KCAL/MOL
REMARK 927      BINDING AFFINITY PREDICTED BY RF-SCORE:    0.00 PKD
ROOT
HETATM    1  C   UNL     1     -12.305  13.759  66.871  1.00  0.00    -0.328 C  
HETATM    2  C   UNL     1     -12.552  13.949  65.376  1.00  0.00    -0.507 C  
ENDROOT
BRANCH   2   3
HETATM    3  N   UNL     1     -11.442  14.569  64.621  1.00  0.00    -0.393 NA 
BRANCH   3   4
HETATM    4  C   UNL     1     -10.960  15.830  65.203  1.00  0.00    -0.382 C  
HETATM    5  C   UNL     1      -9.575  15.790  65.842  1.00  0.00    -0.382 C  
ENDBRANCH   3   4
BRANCH   3   6
HETATM    6  C   UNL     1     -10.380  13.558  64.403  1.00  0.00    -0.281 C  
BRANCH   6   7
HETATM    7  C   UNL     1     -10.810  12.274  63.673  1.00  0.00    -0.522 C  
BRANCH   7   8
HETATM    8  C   UNL     1     -10.347  11.055  64.393  1.00  0.00    -0.358 A  
HETATM    9  N   UNL     1     -10.737  10.543  65.541  1.00  0.00    -0.064 NA 
HETATM   10  C   UNL     1      -9.886   9.462  65.692  1.00  0.00    -0.223 A  
HETATM   11  N   UNL     1      -9.034   9.305  64.664  1.00  0.00    -0.189 NA 
HETATM   12  O   UNL     1      -9.328  10.363  63.815  1.00  0.00    -0.240 OA 
BRANCH  10  13
HETATM   13  C   UNL     1      -9.880   8.596  66.872  1.00  0.00    -0.305 A  
HETATM   14  C   UNL     1     -10.744   7.496  66.974  1.00  0.00    -0.367 A  
HETATM   15  C   UNL     1     -10.751   6.701  68.127  1.00  0.00    -0.320 A  
HETATM   16  C   UNL     1      -9.894   6.992  69.188  1.00  0.00    -0.158 A  
HETATM   17  C   UNL     1      -9.022   8.073  69.096  1.00  0.00    -0.145 A  
HETATM   18  C   UNL     1      -9.014   8.867  67.946  1.00  0.00    -0.142 A  
ENDBRANCH  10  13
ENDBRANCH   7   8
ENDBRANCH   6   7
ENDBRANCH   3   6
ENDBRANCH   2   3
TORSDOF 6
ENDMDL
MODEL      123
REMARK 921   NORMALIZED FREE ENERGY PREDICTED BY IDOCK:   -3.93 KCAL/MOL
REMARK 922        TOTAL FREE ENERGY PREDICTED BY IDOCK:   -5.84 KCAL/MOL
REMARK 923 INTER-LIGAND FREE ENERGY PREDICTED BY IDOCK:   -5.30 KCAL/MOL
REMARK 924 INTRA-LIGAND FREE ENERGY PREDICTED BY IDOCK:   -0.54 KCAL/MOL
REMARK 927      BINDING AFFINITY PREDICTED BY RF-SCORE:    0.00 PKD
ROOT
HETATM    1  C   UNL     1      -8.817   6.273  68.237  1.00  0.00    -0.114 C  
HETATM    2  C   UNL     1      -9.744   5.060  68.242  1.00  0.00    -0.146 C  
ENDROOT
BRANCH   2   3
HETATM    3  N   UNL     1      -9.908   4.390  69.550  1.00  0.00    -0.212 NA 
BRANCH   3   4
HETATM    4  C   UNL     1      -9.409   3.007  69.576  1.00  0.00    -0.143 C  
HETATM    5  C   UNL     1      -9.396   2.272  68.240  1.00  0.00    -0.267 C  
ENDBRANCH   3   4
BRANCH   3   6
HETATM    6  C   UNL     1      -9.345   5.256  70.613  1.00  0.00    -0.162 C  
BRANCH   6   7
HETATM    7  C   UNL     1     -10.253   5.506  71.830  1.00  0.00    -0.256 C  
BRANCH   7   8
HETATM    8  C   UNL     1     -11.103   6.715  71.638  1.00  0.00    -0.250 A  
HETATM    9  N   UNL     1     -10.779   7.933  71.260  1.00  0.00    -0.226 NA 
HETATM   10  C   UNL     1     -11.987   8.604  71.346  1.00  0.00    -0.304 A  
HETATM   11  N   UNL     1     -13.008   7.819  71.730  1.00  0.00    -0.328 NA 
HETATM   12  O   UNL     1     -12.423   6.577  71.937  1.00  0.00    -0.347 OA 
BRANCH  10  13
HETATM   13  C   UNL     1     -12.137  10.037  71.084  1.00  0.00    -0.475 A  
HETATM   14  C   UNL     1     -11.460  10.660  70.027  1.00  0.00    -0.404 A  
HETATM   15  C   UNL     1     -11.586  12.039  69.815  1.00  0.00    -0.348 A  
HETATM   16  C   UNL     1     -12.391  12.809  70.654  1.00  0.00    -0.381 A  
HETATM   17  C   UNL     1     -13.080  12.202  71.701  1.00  0.00    -0.413 A  
HETATM   18  C   UNL     1     -12.955  10.825  71.913  1.00  0.00    -0.524 A  
ENDBRANCH  10  13
ENDBRANCH   7   8
ENDBRANCH   6   7
ENDBRANCH   3   6
ENDBRANCH   2   3
TORSDOF 6
ENDMDL
MODEL      124
REMARK 921   NORMALIZED FREE ENERGY PREDICTED BY IDOCK:   -3.93 KCAL/MOL
REMARK 922        TOTAL FREE ENERGY PREDICTED BY IDOCK:   -5.84 KCAL/MOL
REMARK 923 INTER-LIGAND FREE ENERGY PREDICTED BY IDOCK:   -5.32 KCAL/MOL
REMARK 924 INTRA-LIGAND FREE ENERGY PREDICTED BY IDOCK:   -0.52 KCAL/MOL
REMARK 927      BINDING AFFINITY PREDICTED BY RF-SCORE:    0.00 PKD
ROOT
HETATM    1  C   UNL     1     -12.037  12.784  63.512  1.00  0.00    -0.642 C  
HETATM    2  C   UNL     1     -11.755  12.377  64.957  1.00  0.00    -0.371 C  
ENDROOT
BRANCH   2   3
HETATM    3  N   UNL     1     -11.444  13.488  65.882  1.00  0.00    -0.313 NA 
BRANCH   3   4
HETATM    4  C   UNL     1     -11.778  14.817  65.347  1.00  0.00    -0.289 C  
HETATM    5  C   UNL     1     -10.609  15.779  65.157  1.00  0.00    -0.436 C  
ENDBRANCH   3   4
BRANCH   3   6
HETATM    6  C   UNL     1     -12.044  13.201  67.206  1.00  0.00    -0.274 C  
BRANCH   6   7
HETATM    7  C   UNL     1     -11.056  13.045  68.375  1.00  0.00    -0.292 C  
BRANCH   7   8
HETATM    8  C   UNL     1     -10.923  11.621  68.792  1.00  0.00    -0.226 A  
HETATM    9  N   UNL     1     -10.645  10.548  68.084  1.00  0.00    -0.189 NA 
HETATM   10  C   UNL     1     -10.737   9.535  69.024  1.00  0.00    -0.202 A  
HETATM   11  N   UNL     1     -11.029   9.979  70.259  1.00  0.00    -0.295 NA 
HETATM   12  O   UNL     1     -11.166  11.352  70.103  1.00  0.00    -0.183 OA 
BRANCH  10  13
HETATM   13  C   UNL     1     -10.575   8.116  68.703  1.00  0.00    -0.144 A  
HETATM   14  C   UNL     1     -10.587   7.662  67.377  1.00  0.00    -0.356 A  
HETATM   15  C   UNL     1     -10.468   6.296  67.092  1.00  0.00    -0.327 A  
HETATM   16  C   UNL     1     -10.332   5.370  68.126  1.00  0.00    -0.210 A  
HETATM   17  C   UNL     1     -10.304   5.808  69.447  1.00  0.00    -0.332 A  
HETATM   18  C   UNL     1     -10.423   7.171  69.733  1.00  0.00    -0.238 A  
ENDBRANCH  10  13
ENDBRANCH   7   8
ENDBRANCH   6   7
ENDBRANCH   3   6
ENDBRANCH   2   3
TORSDOF 6
ENDMDL
MODEL      125
REMARK 921   NORMALIZED FREE ENERGY PREDICTED BY IDOCK:   -3.92 KCAL/MOL
REMARK 922        TOTAL FREE ENERGY PREDICTED BY IDOCK:   -5.82 KCAL/MOL
REMARK 923 INTER-LIGAND FREE ENERGY PREDICTED BY IDOCK:   -5.29 KCAL/MOL
REMARK 924 INTRA-LIGAND FREE ENERGY PREDICTED BY IDOCK:   -0.53 KCAL/MOL
REMARK 927      BINDING AFFINITY PREDICTED BY RF-SCORE:    0.00 PKD
ROOT
HETATM    1  C   UNL     1      -9.713  18.414  68.772  1.00  0.00    -0.369 C  
HETATM    2  C   UNL     1     -10.302  17.017  68.957  1.00  0.00    -0.330 C  
ENDROOT
BRANCH   2   3
HETATM    3  N   UNL     1     -10.979  16.450  67.771  1.00  0.00    -0.302 NA 
BRANCH   3   4
HETATM    4  C   UNL     1     -10.056  15.904  66.765  1.00  0.00    -0.271 C  
HETATM    5  C   UNL     1     -10.665  15.558  65.411  1.00  0.00    -0.422 C  
ENDBRANCH   3   4
BRANCH   3   6
HETATM    6  C   UNL     1     -12.020  15.495  68.218  1.00  0.00    -0.039 C  
BRANCH   6   7
HETATM    7  C   UNL     1     -11.886  14.976  69.660  1.00  0.00    -0.358 C  
BRANCH   7   8
HETATM    8  C   UNL     1     -11.746  13.494  69.697  1.00  0.00    -0.314 A  
HETATM    9  N   UNL     1     -11.115  12.676  68.880  1.00  0.00    -0.257 NA 
HETATM   10  C   UNL     1     -11.414  11.433  69.410  1.00  0.00    -0.310 A  
HETATM   11  N   UNL     1     -12.169  11.493  70.521  1.00  0.00    -0.377 NA 
HETATM   12  O   UNL     1     -12.400  12.850  70.701  1.00  0.00    -0.358 OA 
BRANCH  10  13
HETATM   13  C   UNL     1     -10.988  10.171  68.802  1.00  0.00    -0.264 A  
HETATM   14  C   UNL     1     -10.786  10.059  67.419  1.00  0.00    -0.313 A  
HETATM   15  C   UNL     1     -10.415   8.833  66.852  1.00  0.00    -0.319 A  
HETATM   16  C   UNL     1     -10.238   7.709  67.658  1.00  0.00    -0.277 A  
HETATM   17  C   UNL     1     -10.422   7.809  69.034  1.00  0.00    -0.215 A  
HETATM   18  C   UNL     1     -10.792   9.031  69.602  1.00  0.00    -0.196 A  
ENDBRANCH  10  13
ENDBRANCH   7   8
ENDBRANCH   6   7
ENDBRANCH   3   6
ENDBRANCH   2   3
TORSDOF 6
ENDMDL
MODEL      126
REMARK 921   NORMALIZED FREE ENERGY PREDICTED BY IDOCK:   -3.91 KCAL/MOL
REMARK 922        TOTAL FREE ENERGY PREDICTED BY IDOCK:   -5.80 KCAL/MOL
REMARK 923 INTER-LIGAND FREE ENERGY PREDICTED BY IDOCK:   -5.24 KCAL/MOL
REMARK 924 INTRA-LIGAND FREE ENERGY PREDICTED BY IDOCK:   -0.57 KCAL/MOL
REMARK 927      BINDING AFFINITY PREDICTED BY RF-SCORE:    0.00 PKD
ROOT
HETATM    1  C   UNL     1      -8.823   7.677  66.716  1.00  0.00    -0.150 C  
HETATM    2  C   UNL     1      -8.338   7.900  68.147  1.00  0.00    -0.124 C  
ENDROOT
BRANCH   2   3
HETATM    3  N   UNL     1      -9.332   7.625  69.206  1.00  0.00    -0.148 NA 
BRANCH   3   4
HETATM    4  C   UNL     1      -9.022   6.437  70.016  1.00  0.00    -0.146 C  
HETATM    5  C   UNL     1      -7.631   6.391  70.638  1.00  0.00    -0.103 C  
ENDBRANCH   3   4
BRANCH   3   6
HETATM    6  C   UNL     1      -9.551   8.857  69.999  1.00  0.00    -0.178 C  
BRANCH   6   7
HETATM    7  C   UNL     1     -11.004   9.358  70.080  1.00  0.00    -0.267 C  
BRANCH   7   8
HETATM    8  C   UNL     1     -11.261  10.448  69.098  1.00  0.00    -0.246 A  
HETATM    9  N   UNL     1     -11.394  10.403  67.789  1.00  0.00    -0.375 NA 
HETATM   10  C   UNL     1     -11.542  11.739  67.456  1.00  0.00    -0.291 A  
HETATM   11  N   UNL     1     -11.531  12.559  68.521  1.00  0.00    -0.280 NA 
HETATM   12  O   UNL     1     -11.331  11.710  69.602  1.00  0.00    -0.264 OA 
BRANCH  10  13
HETATM   13  C   UNL     1     -11.659  12.222  66.079  1.00  0.00    -0.451 A  
HETATM   14  C   UNL     1     -12.339  13.410  65.778  1.00  0.00    -0.513 A  
HETATM   15  C   UNL     1     -12.474  13.836  64.450  1.00  0.00    -0.317 A  
HETATM   16  C   UNL     1     -11.927  13.083  63.411  1.00  0.00    -0.592 A  
HETATM   17  C   UNL     1     -11.238  11.908  63.696  1.00  0.00    -0.522 A  
HETATM   18  C   UNL     1     -11.103  11.482  65.021  1.00  0.00    -0.268 A  
ENDBRANCH  10  13
ENDBRANCH   7   8
ENDBRANCH   6   7
ENDBRANCH   3   6
ENDBRANCH   2   3
TORSDOF 6
ENDMDL
MODEL      127
REMARK 921   NORMALIZED FREE ENERGY PREDICTED BY IDOCK:   -3.91 KCAL/MOL
REMARK 922        TOTAL FREE ENERGY PREDICTED BY IDOCK:   -5.80 KCAL/MOL
REMARK 923 INTER-LIGAND FREE ENERGY PREDICTED BY IDOCK:   -5.35 KCAL/MOL
REMARK 924 INTRA-LIGAND FREE ENERGY PREDICTED BY IDOCK:   -0.45 KCAL/MOL
REMARK 927      BINDING AFFINITY PREDICTED BY RF-SCORE:    0.00 PKD
ROOT
HETATM    1  C   UNL     1      -9.002   5.046  71.001  1.00  0.00    -0.162 C  
HETATM    2  C   UNL     1      -8.842   6.548  71.227  1.00  0.00    -0.137 C  
ENDROOT
BRANCH   2   3
HETATM    3  N   UNL     1      -9.892   7.183  72.052  1.00  0.00    -0.159 NA 
BRANCH   3   4
HETATM    4  C   UNL     1      -9.371   7.907  73.221  1.00  0.00    -0.286 C  
HETATM    5  C   UNL     1      -7.854   7.939  73.372  1.00  0.00    -0.209 C  
ENDBRANCH   3   4
BRANCH   3   6
HETATM    6  C   UNL     1     -10.770   7.997  71.178  1.00  0.00    -0.220 C  
BRANCH   6   7
HETATM    7  C   UNL     1     -10.447   9.500  71.111  1.00  0.00    -0.358 C  
BRANCH   7   8
HETATM    8  C   UNL     1     -10.931  10.107  69.839  1.00  0.00    -0.293 A  
HETATM    9  N   UNL     1     -10.406  10.090  68.632  1.00  0.00    -0.181 NA 
HETATM   10  C   UNL     1     -11.284  10.883  67.912  1.00  0.00    -0.321 A  
HETATM   11  N   UNL     1     -12.316  11.336  68.643  1.00  0.00    -0.449 NA 
HETATM   12  O   UNL     1     -12.076  10.837  69.916  1.00  0.00    -0.309 OA 
BRANCH  10  13
HETATM   13  C   UNL     1     -11.090  11.229  66.503  1.00  0.00    -0.280 A  
HETATM   14  C   UNL     1     -10.184  10.526  65.696  1.00  0.00    -0.315 A  
HETATM   15  C   UNL     1      -9.984  10.897  64.360  1.00  0.00    -0.381 A  
HETATM   16  C   UNL     1     -10.689  11.970  63.815  1.00  0.00    -0.478 A  
HETATM   17  C   UNL     1     -11.602  12.669  64.600  1.00  0.00    -0.392 A  
HETATM   18  C   UNL     1     -11.802  12.300  65.933  1.00  0.00    -0.420 A  
ENDBRANCH  10  13
ENDBRANCH   7   8
ENDBRANCH   6   7
ENDBRANCH   3   6
ENDBRANCH   2   3
TORSDOF 6
ENDMDL
MODEL      128
REMARK 921   NORMALIZED FREE ENERGY PREDICTED BY IDOCK:   -3.91 KCAL/MOL
REMARK 922        TOTAL FREE ENERGY PREDICTED BY IDOCK:   -5.80 KCAL/MOL
REMARK 923 INTER-LIGAND FREE ENERGY PREDICTED BY IDOCK:   -6.05 KCAL/MOL
REMARK 924 INTRA-LIGAND FREE ENERGY PREDICTED BY IDOCK:    0.25 KCAL/MOL
REMARK 927      BINDING AFFINITY PREDICTED BY RF-SCORE:    0.00 PKD
ROOT
HETATM    1  C   UNL     1     -12.646  12.802  64.673  1.00  0.00    -0.491 C  
HETATM    2  C   UNL     1     -12.098  14.028  65.401  1.00  0.00    -0.401 C  
ENDROOT
BRANCH   2   3
HETATM    3  N   UNL     1     -10.629  14.190  65.359  1.00  0.00    -0.325 NA 
BRANCH   3   4
HETATM    4  C   UNL     1     -10.120  15.230  66.265  1.00  0.00    -0.281 C  
HETATM    5  C   UNL     1      -8.984  16.094  65.725  1.00  0.00    -0.086 C  
ENDBRANCH   3   4
BRANCH   3   6
HETATM    6  C   UNL     1      -9.989  12.865  65.539  1.00  0.00    -0.213 C  
BRANCH   6   7
HETATM    7  C   UNL     1      -9.301  12.628  66.895  1.00  0.00    -0.228 C  
BRANCH   7   8
HETATM    8  C   UNL     1     -10.285  12.627  68.014  1.00  0.00    -0.230 A  
HETATM    9  N   UNL     1     -10.748  13.621  68.742  1.00  0.00    -0.251 NA 
HETATM   10  C   UNL     1     -11.565  12.971  69.652  1.00  0.00    -0.253 A  
HETATM   11  N   UNL     1     -11.621  11.641  69.464  1.00  0.00    -0.305 NA 
HETATM   12  O   UNL     1     -10.766  11.413  68.395  1.00  0.00    -0.183 OA 
BRANCH  10  13
HETATM   13  C   UNL     1     -12.270  13.654  70.738  1.00  0.00    -0.424 A  
HETATM   14  C   UNL     1     -13.235  12.993  71.511  1.00  0.00    -0.360 A  
HETATM   15  C   UNL     1     -13.926  13.673  72.521  1.00  0.00    -0.572 A  
HETATM   16  C   UNL     1     -13.659  15.019  72.773  1.00  0.00    -0.562 A  
HETATM   17  C   UNL     1     -12.694  15.685  72.023  1.00  0.00    -0.508 A  
HETATM   18  C   UNL     1     -12.004  15.006  71.014  1.00  0.00    -0.376 A  
ENDBRANCH  10  13
ENDBRANCH   7   8
ENDBRANCH   6   7
ENDBRANCH   3   6
ENDBRANCH   2   3
TORSDOF 6
ENDMDL
MODEL      129
REMARK 921   NORMALIZED FREE ENERGY PREDICTED BY IDOCK:   -3.90 KCAL/MOL
REMARK 922        TOTAL FREE ENERGY PREDICTED BY IDOCK:   -5.80 KCAL/MOL
REMARK 923 INTER-LIGAND FREE ENERGY PREDICTED BY IDOCK:   -5.38 KCAL/MOL
REMARK 924 INTRA-LIGAND FREE ENERGY PREDICTED BY IDOCK:   -0.42 KCAL/MOL
REMARK 927      BINDING AFFINITY PREDICTED BY RF-SCORE:    0.00 PKD
ROOT
HETATM    1  C   UNL     1      -9.761   9.659  70.218  1.00  0.00    -0.314 C  
HETATM    2  C   UNL     1      -9.194   8.576  69.302  1.00  0.00    -0.153 C  
ENDROOT
BRANCH   2   3
HETATM    3  N   UNL     1     -10.007   8.264  68.107  1.00  0.00    -0.184 NA 
BRANCH   3   4
HETATM    4  C   UNL     1     -10.816   7.043  68.240  1.00  0.00    -0.141 C  
HETATM    5  C   UNL     1     -10.712   6.039  67.097  1.00  0.00    -0.409 C  
ENDBRANCH   3   4
BRANCH   3   6
HETATM    6  C   UNL     1     -10.786   9.466  67.722  1.00  0.00    -0.229 C  
BRANCH   6   7
HETATM    7  C   UNL     1     -10.327  10.184  66.441  1.00  0.00    -0.258 C  
BRANCH   7   8
HETATM    8  C   UNL     1     -10.738  11.616  66.441  1.00  0.00    -0.272 A  
HETATM    9  N   UNL     1     -10.105  12.684  66.879  1.00  0.00    -0.227 NA 
HETATM   10  C   UNL     1     -11.031  13.691  66.663  1.00  0.00    -0.292 A  
HETATM   11  N   UNL     1     -12.167  13.258  66.089  1.00  0.00    -0.420 NA 
HETATM   12  O   UNL     1     -11.979  11.888  65.956  1.00  0.00    -0.511 OA 
BRANCH  10  13
HETATM   13  C   UNL     1     -10.817  15.085  67.056  1.00  0.00    -0.311 A  
HETATM   14  C   UNL     1     -11.019  15.510  68.377  1.00  0.00    -0.297 A  
HETATM   15  C   UNL     1     -10.845  16.855  68.726  1.00  0.00    -0.289 A  
HETATM   16  C   UNL     1     -10.465  17.789  67.762  1.00  0.00    -0.402 A  
HETATM   17  C   UNL     1     -10.248  17.379  66.449  1.00  0.00    -0.339 A  
HETATM   18  C   UNL     1     -10.421  16.036  66.100  1.00  0.00    -0.334 A  
ENDBRANCH  10  13
ENDBRANCH   7   8
ENDBRANCH   6   7
ENDBRANCH   3   6
ENDBRANCH   2   3
TORSDOF 6
ENDMDL
MODEL      130
REMARK 921   NORMALIZED FREE ENERGY PREDICTED BY IDOCK:   -3.90 KCAL/MOL
REMARK 922        TOTAL FREE ENERGY PREDICTED BY IDOCK:   -5.79 KCAL/MOL
REMARK 923 INTER-LIGAND FREE ENERGY PREDICTED BY IDOCK:   -5.36 KCAL/MOL
REMARK 924 INTRA-LIGAND FREE ENERGY PREDICTED BY IDOCK:   -0.43 KCAL/MOL
REMARK 927      BINDING AFFINITY PREDICTED BY RF-SCORE:    0.00 PKD
ROOT
HETATM    1  C   UNL     1     -11.766   8.364  72.547  1.00  0.00    -0.429 C  
HETATM    2  C   UNL     1     -10.423   8.587  71.853  1.00  0.00    -0.317 C  
ENDROOT
BRANCH   2   3
HETATM    3  N   UNL     1     -10.235   7.857  70.582  1.00  0.00    -0.195 NA 
BRANCH   3   4
HETATM    4  C   UNL     1     -10.628   6.441  70.647  1.00  0.00    -0.237 C  
HETATM    5  C   UNL     1     -10.537   5.657  69.341  1.00  0.00    -0.374 C  
ENDBRANCH   3   4
BRANCH   3   6
HETATM    6  C   UNL     1     -10.884   8.615  69.486  1.00  0.00    -0.129 C  
BRANCH   6   7
HETATM    7  C   UNL     1      -9.938   9.367  68.534  1.00  0.00    -0.190 C  
BRANCH   7   8
HETATM    8  C   UNL     1     -10.429  10.745  68.251  1.00  0.00    -0.181 A  
HETATM    9  N   UNL     1      -9.936  11.914  68.602  1.00  0.00    -0.190 NA 
HETATM   10  C   UNL     1     -10.877  12.798  68.101  1.00  0.00    -0.228 A  
HETATM   11  N   UNL     1     -11.883  12.193  67.447  1.00  0.00    -0.565 NA 
HETATM   12  O   UNL     1     -11.596  10.839  67.559  1.00  0.00    -0.510 OA 
BRANCH  10  13
HETATM   13  C   UNL     1     -10.810  14.247  68.297  1.00  0.00    -0.256 A  
HETATM   14  C   UNL     1     -10.493  15.112  67.241  1.00  0.00    -0.271 A  
HETATM   15  C   UNL     1     -10.397  16.493  67.456  1.00  0.00    -0.294 A  
HETATM   16  C   UNL     1     -10.619  17.025  68.726  1.00  0.00    -0.346 A  
HETATM   17  C   UNL     1     -10.948  16.179  69.782  1.00  0.00    -0.349 A  
HETATM   18  C   UNL     1     -11.045  14.801  69.568  1.00  0.00    -0.302 A  
ENDBRANCH  10  13
ENDBRANCH   7   8
ENDBRANCH   6   7
ENDBRANCH   3   6
ENDBRANCH   2   3
TORSDOF 6
ENDMDL
MODEL      131
REMARK 921   NORMALIZED FREE ENERGY PREDICTED BY IDOCK:   -3.87 KCAL/MOL
REMARK 922        TOTAL FREE ENERGY PREDICTED BY IDOCK:   -5.75 KCAL/MOL
REMARK 923 INTER-LIGAND FREE ENERGY PREDICTED BY IDOCK:   -5.18 KCAL/MOL
REMARK 924 INTRA-LIGAND FREE ENERGY PREDICTED BY IDOCK:   -0.57 KCAL/MOL
REMARK 927      BINDING AFFINITY PREDICTED BY RF-SCORE:    0.00 PKD
ROOT
HETATM    1  C   UNL     1      -8.939   7.869  67.100  1.00  0.00    -0.142 C  
HETATM    2  C   UNL     1      -8.945   8.682  65.807  1.00  0.00    -0.197 C  
ENDROOT
BRANCH   2   3
HETATM    3  N   UNL     1      -8.473  10.078  65.930  1.00  0.00    -0.129 NA 
BRANCH   3   4
HETATM    4  C   UNL     1      -7.129  10.301  65.378  1.00  0.00    -0.139 C  
HETATM    5  C   UNL     1      -6.884   9.775  63.968  1.00  0.00    -0.120 C  
ENDBRANCH   3   4
BRANCH   3   6
HETATM    6  C   UNL     1      -9.509  10.989  65.389  1.00  0.00    -0.222 C  
BRANCH   6   7
HETATM    7  C   UNL     1     -10.003  12.090  66.343  1.00  0.00    -0.240 C  
BRANCH   7   8
HETATM    8  C   UNL     1     -10.675  11.513  67.541  1.00  0.00    -0.223 A  
HETATM    9  N   UNL     1     -10.177  10.843  68.559  1.00  0.00    -0.177 NA 
HETATM   10  C   UNL     1     -11.308  10.526  69.292  1.00  0.00    -0.262 A  
HETATM   11  N   UNL     1     -12.443  11.010  68.758  1.00  0.00    -0.328 NA 
HETATM   12  O   UNL     1     -12.028  11.647  67.597  1.00  0.00    -0.618 OA 
BRANCH  10  13
HETATM   13  C   UNL     1     -11.281   9.710  70.507  1.00  0.00    -0.359 A  
HETATM   14  C   UNL     1     -10.093   9.129  70.970  1.00  0.00    -0.373 A  
HETATM   15  C   UNL     1     -10.094   8.320  72.113  1.00  0.00    -0.344 A  
HETATM   16  C   UNL     1     -11.280   8.086  72.808  1.00  0.00    -0.448 A  
HETATM   17  C   UNL     1     -12.466   8.667  72.368  1.00  0.00    -0.428 A  
HETATM   18  C   UNL     1     -12.466   9.475  71.227  1.00  0.00    -0.432 A  
ENDBRANCH  10  13
ENDBRANCH   7   8
ENDBRANCH   6   7
ENDBRANCH   3   6
ENDBRANCH   2   3
TORSDOF 6
ENDMDL
MODEL      132
REMARK 921   NORMALIZED FREE ENERGY PREDICTED BY IDOCK:   -3.87 KCAL/MOL
REMARK 922        TOTAL FREE ENERGY PREDICTED BY IDOCK:   -5.75 KCAL/MOL
REMARK 923 INTER-LIGAND FREE ENERGY PREDICTED BY IDOCK:   -5.13 KCAL/MOL
REMARK 924 INTRA-LIGAND FREE ENERGY PREDICTED BY IDOCK:   -0.62 KCAL/MOL
REMARK 927      BINDING AFFINITY PREDICTED BY RF-SCORE:    0.00 PKD
ROOT
HETATM    1  C   UNL     1      -7.293   9.440  70.822  1.00  0.00    -0.126 C  
HETATM    2  C   UNL     1      -8.301   8.491  71.469  1.00  0.00    -0.162 C  
ENDROOT
BRANCH   2   3
HETATM    3  N   UNL     1      -9.123   7.699  70.528  1.00  0.00    -0.151 NA 
BRANCH   3   4
HETATM    4  C   UNL     1     -10.570   7.906  70.685  1.00  0.00    -0.219 C  
HETATM    5  C   UNL     1     -11.015   9.324  71.027  1.00  0.00    -0.390 C  
ENDBRANCH   3   4
BRANCH   3   6
HETATM    6  C   UNL     1      -8.627   7.917  69.149  1.00  0.00    -0.138 C  
BRANCH   6   7
HETATM    7  C   UNL     1      -9.599   7.542  68.016  1.00  0.00    -0.156 C  
BRANCH   7   8
HETATM    8  C   UNL     1      -9.823   8.685  67.087  1.00  0.00    -0.207 A  
HETATM    9  N   UNL     1     -10.568   9.762  67.224  1.00  0.00    -0.264 NA 
HETATM   10  C   UNL     1     -10.411  10.393  66.002  1.00  0.00    -0.192 A  
HETATM   11  N   UNL     1      -9.580   9.742  65.168  1.00  0.00    -0.290 NA 
HETATM   12  O   UNL     1      -9.205   8.610  65.878  1.00  0.00    -0.203 OA 
BRANCH  10  13
HETATM   13  C   UNL     1     -11.109  11.625  65.632  1.00  0.00    -0.308 A  
HETATM   14  C   UNL     1     -11.247  12.011  64.291  1.00  0.00    -0.421 A  
HETATM   15  C   UNL     1     -11.885  13.213  63.959  1.00  0.00    -0.514 A  
HETATM   16  C   UNL     1     -12.396  14.039  64.960  1.00  0.00    -0.458 A  
HETATM   17  C   UNL     1     -12.278  13.662  66.295  1.00  0.00    -0.484 A  
HETATM   18  C   UNL     1     -11.641  12.463  66.628  1.00  0.00    -0.447 A  
ENDBRANCH  10  13
ENDBRANCH   7   8
ENDBRANCH   6   7
ENDBRANCH   3   6
ENDBRANCH   2   3
TORSDOF 6
ENDMDL
MODEL      133
REMARK 921   NORMALIZED FREE ENERGY PREDICTED BY IDOCK:   -3.85 KCAL/MOL
REMARK 922        TOTAL FREE ENERGY PREDICTED BY IDOCK:   -5.73 KCAL/MOL
REMARK 923 INTER-LIGAND FREE ENERGY PREDICTED BY IDOCK:   -5.20 KCAL/MOL
REMARK 924 INTRA-LIGAND FREE ENERGY PREDICTED BY IDOCK:   -0.54 KCAL/MOL
REMARK 927      BINDING AFFINITY PREDICTED BY RF-SCORE:    0.00 PKD
ROOT
HETATM    1  C   UNL     1     -11.166  15.564  69.892  1.00  0.00    -0.322 C  
HETATM    2  C   UNL     1     -11.758  15.215  68.528  1.00  0.00    -0.325 C  
ENDROOT
BRANCH   2   3
HETATM    3  N   UNL     1     -10.775  14.887  67.473  1.00  0.00    -0.271 NA 
BRANCH   3   4
HETATM    4  C   UNL     1      -9.581  15.745  67.486  1.00  0.00    -0.224 C  
HETATM    5  C   UNL     1      -8.242  15.036  67.310  1.00  0.00    -0.236 C  
ENDBRANCH   3   4
BRANCH   3   6
HETATM    6  C   UNL     1     -10.478  13.435  67.522  1.00  0.00    -0.236 C  
BRANCH   6   7
HETATM    7  C   UNL     1     -11.697  12.500  67.600  1.00  0.00    -0.423 C  
BRANCH   7   8
HETATM    8  C   UNL     1     -11.574  11.536  68.730  1.00  0.00    -0.316 A  
HETATM    9  N   UNL     1     -10.505  11.061  69.333  1.00  0.00    -0.187 NA 
HETATM   10  C   UNL     1     -11.046  10.166  70.241  1.00  0.00    -0.317 A  
HETATM   11  N   UNL     1     -12.389  10.122  70.211  1.00  0.00    -0.191 NA 
HETATM   12  O   UNL     1     -12.737  11.014  69.205  1.00  0.00    -0.280 OA 
BRANCH  10  13
HETATM   13  C   UNL     1     -10.239   9.318  71.120  1.00  0.00    -0.387 A  
HETATM   14  C   UNL     1     -10.813   8.629  72.198  1.00  0.00    -0.424 A  
HETATM   15  C   UNL     1     -10.018   7.853  73.051  1.00  0.00    -0.362 A  
HETATM   16  C   UNL     1      -8.644   7.753  72.835  1.00  0.00    -0.210 A  
HETATM   17  C   UNL     1      -8.062   8.421  71.761  1.00  0.00    -0.192 A  
HETATM   18  C   UNL     1      -8.854   9.196  70.909  1.00  0.00    -0.292 A  
ENDBRANCH  10  13
ENDBRANCH   7   8
ENDBRANCH   6   7
ENDBRANCH   3   6
ENDBRANCH   2   3
TORSDOF 6
ENDMDL
MODEL      134
REMARK 921   NORMALIZED FREE ENERGY PREDICTED BY IDOCK:   -3.84 KCAL/MOL
REMARK 922        TOTAL FREE ENERGY PREDICTED BY IDOCK:   -5.71 KCAL/MOL
REMARK 923 INTER-LIGAND FREE ENERGY PREDICTED BY IDOCK:   -5.36 KCAL/MOL
REMARK 924 INTRA-LIGAND FREE ENERGY PREDICTED BY IDOCK:   -0.36 KCAL/MOL
REMARK 927      BINDING AFFINITY PREDICTED BY RF-SCORE:    0.00 PKD
ROOT
HETATM    1  C   UNL     1     -13.471  12.792  71.734  1.00  0.00    -0.343 C  
HETATM    2  C   UNL     1     -14.020  14.196  71.979  1.00  0.00    -0.513 C  
ENDROOT
BRANCH   2   3
HETATM    3  N   UNL     1     -13.082  15.304  71.697  1.00  0.00    -0.389 NA 
BRANCH   3   4
HETATM    4  C   UNL     1     -12.584  15.982  72.904  1.00  0.00    -0.480 C  
HETATM    5  C   UNL     1     -12.499  15.132  74.167  1.00  0.00    -0.682 C  
ENDBRANCH   3   4
BRANCH   3   6
HETATM    6  C   UNL     1     -12.013  14.817  70.794  1.00  0.00    -0.310 C  
BRANCH   6   7
HETATM    7  C   UNL     1     -11.974  15.450  69.392  1.00  0.00    -0.351 C  
BRANCH   7   8
HETATM    8  C   UNL     1     -11.234  14.592  68.425  1.00  0.00    -0.274 A  
HETATM    9  N   UNL     1     -10.151  13.863  68.588  1.00  0.00    -0.225 NA 
HETATM   10  C   UNL     1      -9.927  13.369  67.313  1.00  0.00    -0.232 A  
HETATM   11  N   UNL     1     -10.854  13.757  66.420  1.00  0.00    -0.286 NA 
HETATM   12  O   UNL     1     -11.707  14.575  67.149  1.00  0.00    -0.377 OA 
BRANCH  10  13
HETATM   13  C   UNL     1      -8.775  12.539  66.958  1.00  0.00    -0.205 A  
HETATM   14  C   UNL     1      -7.477  12.880  67.366  1.00  0.00    -0.135 A  
HETATM   15  C   UNL     1      -6.382  12.094  66.984  1.00  0.00    -0.096 A  
HETATM   16  C   UNL     1      -6.571  10.959  66.197  1.00  0.00    -0.108 A  
HETATM   17  C   UNL     1      -7.855  10.600  65.796  1.00  0.00    -0.141 A  
HETATM   18  C   UNL     1      -8.949  11.384  66.176  1.00  0.00    -0.207 A  
ENDBRANCH  10  13
ENDBRANCH   7   8
ENDBRANCH   6   7
ENDBRANCH   3   6
ENDBRANCH   2   3
TORSDOF 6
ENDMDL
MODEL      135
REMARK 921   NORMALIZED FREE ENERGY PREDICTED BY IDOCK:   -3.78 KCAL/MOL
REMARK 922        TOTAL FREE ENERGY PREDICTED BY IDOCK:   -5.63 KCAL/MOL
REMARK 923 INTER-LIGAND FREE ENERGY PREDICTED BY IDOCK:   -5.14 KCAL/MOL
REMARK 924 INTRA-LIGAND FREE ENERGY PREDICTED BY IDOCK:   -0.49 KCAL/MOL
REMARK 927      BINDING AFFINITY PREDICTED BY RF-SCORE:    0.00 PKD
ROOT
HETATM    1  C   UNL     1      -8.291   4.374  71.083  1.00  0.00    -0.095 C  
HETATM    2  C   UNL     1      -9.434   4.700  70.124  1.00  0.00    -0.176 C  
ENDROOT
BRANCH   2   3
HETATM    3  N   UNL     1     -10.666   5.219  70.756  1.00  0.00    -0.183 NA 
BRANCH   3   4
HETATM    4  C   UNL     1     -10.497   5.589  72.169  1.00  0.00    -0.220 C  
HETATM    5  C   UNL     1     -11.467   4.944  73.154  1.00  0.00    -0.362 C  
ENDBRANCH   3   4
BRANCH   3   6
HETATM    6  C   UNL     1     -11.227   6.299  69.910  1.00  0.00    -0.429 C  
BRANCH   6   7
HETATM    7  C   UNL     1     -10.219   7.333  69.380  1.00  0.00    -0.193 C  
BRANCH   7   8
HETATM    8  C   UNL     1     -10.781   8.712  69.418  1.00  0.00    -0.158 A  
HETATM    9  N   UNL     1     -10.804   9.650  68.494  1.00  0.00    -0.195 NA 
HETATM   10  C   UNL     1     -11.393  10.712  69.158  1.00  0.00    -0.273 A  
HETATM   11  N   UNL     1     -11.743  10.422  70.423  1.00  0.00    -0.305 NA 
HETATM   12  O   UNL     1     -11.326   9.110  70.599  1.00  0.00    -0.260 OA 
BRANCH  10  13
HETATM   13  C   UNL     1     -11.583  12.035  68.560  1.00  0.00    -0.363 A  
HETATM   14  C   UNL     1     -11.684  13.186  69.354  1.00  0.00    -0.386 A  
HETATM   15  C   UNL     1     -11.903  14.438  68.766  1.00  0.00    -0.360 A  
HETATM   16  C   UNL     1     -12.020  14.555  67.381  1.00  0.00    -0.367 A  
HETATM   17  C   UNL     1     -11.910  13.422  66.580  1.00  0.00    -0.443 A  
HETATM   18  C   UNL     1     -11.691  12.172  67.165  1.00  0.00    -0.372 A  
ENDBRANCH  10  13
ENDBRANCH   7   8
ENDBRANCH   6   7
ENDBRANCH   3   6
ENDBRANCH   2   3
TORSDOF 6
ENDMDL
MODEL      136
REMARK 921   NORMALIZED FREE ENERGY PREDICTED BY IDOCK:   -3.78 KCAL/MOL
REMARK 922        TOTAL FREE ENERGY PREDICTED BY IDOCK:   -5.63 KCAL/MOL
REMARK 923 INTER-LIGAND FREE ENERGY PREDICTED BY IDOCK:   -5.84 KCAL/MOL
REMARK 924 INTRA-LIGAND FREE ENERGY PREDICTED BY IDOCK:    0.21 KCAL/MOL
REMARK 927      BINDING AFFINITY PREDICTED BY RF-SCORE:    0.00 PKD
ROOT
HETATM    1  C   UNL     1     -10.915  15.406  72.062  1.00  0.00     0.033 C  
HETATM    2  C   UNL     1     -12.008  14.981  71.084  1.00  0.00    -0.323 C  
ENDROOT
BRANCH   2   3
HETATM    3  N   UNL     1     -12.342  13.540  71.091  1.00  0.00    -0.340 NA 
BRANCH   3   4
HETATM    4  C   UNL     1     -13.629  13.232  71.731  1.00  0.00    -0.288 C  
HETATM    5  C   UNL     1     -14.336  14.396  72.417  1.00  0.00    -0.376 C  
ENDBRANCH   3   4
BRANCH   3   6
HETATM    6  C   UNL     1     -12.206  13.004  69.716  1.00  0.00    -0.177 C  
BRANCH   6   7
HETATM    7  C   UNL     1     -10.811  13.126  69.079  1.00  0.00    -0.202 C  
BRANCH   7   8
HETATM    8  C   UNL     1     -10.692  14.363  68.257  1.00  0.00    -0.242 A  
HETATM    9  N   UNL     1     -10.421  15.601  68.614  1.00  0.00    -0.225 NA 
HETATM   10  C   UNL     1     -10.525  16.288  67.417  1.00  0.00    -0.304 A  
HETATM   11  N   UNL     1     -10.816  15.496  66.370  1.00  0.00    -0.302 NA 
HETATM   12  O   UNL     1     -10.941  14.230  66.927  1.00  0.00    -0.294 OA 
BRANCH  10  13
HETATM   13  C   UNL     1     -10.374  17.740  67.301  1.00  0.00    -0.364 A  
HETATM   14  C   UNL     1     -10.522  18.393  66.070  1.00  0.00    -0.400 A  
HETATM   15  C   UNL     1     -10.336  19.778  65.972  1.00  0.00    -0.612 A  
HETATM   16  C   UNL     1     -10.005  20.525  67.102  1.00  0.00    -0.512 A  
HETATM   17  C   UNL     1      -9.868  19.892  68.334  1.00  0.00    -0.489 A  
HETATM   18  C   UNL     1     -10.053  18.510  68.433  1.00  0.00    -0.423 A  
ENDBRANCH  10  13
ENDBRANCH   7   8
ENDBRANCH   6   7
ENDBRANCH   3   6
ENDBRANCH   2   3
TORSDOF 6
ENDMDL
MODEL      137
REMARK 921   NORMALIZED FREE ENERGY PREDICTED BY IDOCK:   -3.77 KCAL/MOL
REMARK 922        TOTAL FREE ENERGY PREDICTED BY IDOCK:   -5.62 KCAL/MOL
REMARK 923 INTER-LIGAND FREE ENERGY PREDICTED BY IDOCK:   -5.11 KCAL/MOL
REMARK 924 INTRA-LIGAND FREE ENERGY PREDICTED BY IDOCK:   -0.51 KCAL/MOL
REMARK 927      BINDING AFFINITY PREDICTED BY RF-SCORE:    0.00 PKD
ROOT
HETATM    1  C   UNL     1      -6.861  17.398  67.142  1.00  0.00    -0.205 C  
HETATM    2  C   UNL     1      -8.388  17.417  67.175  1.00  0.00    -0.214 C  
ENDROOT
BRANCH   2   3
HETATM    3  N   UNL     1      -8.993  17.648  68.504  1.00  0.00    -0.289 NA 
BRANCH   3   4
HETATM    4  C   UNL     1      -9.277  19.062  68.790  1.00  0.00    -0.343 C  
HETATM    5  C   UNL     1     -10.189  19.779  67.800  1.00  0.00    -0.571 C  
ENDBRANCH   3   4
BRANCH   3   6
HETATM    6  C   UNL     1     -10.162  16.752  68.667  1.00  0.00    -0.298 C  
BRANCH   6   7
HETATM    7  C   UNL     1     -10.775  16.199  67.368  1.00  0.00    -0.291 C  
BRANCH   7   8
HETATM    8  C   UNL     1     -10.927  14.718  67.423  1.00  0.00    -0.313 A  
HETATM    9  N   UNL     1     -10.054  13.781  67.727  1.00  0.00    -0.240 NA 
HETATM   10  C   UNL     1     -10.779  12.619  67.527  1.00  0.00    -0.225 A  
HETATM   11  N   UNL     1     -12.049  12.840  67.147  1.00  0.00    -0.433 NA 
HETATM   12  O   UNL     1     -12.143  14.223  67.064  1.00  0.00    -0.425 OA 
BRANCH  10  13
HETATM   13  C   UNL     1     -10.212  11.277  67.674  1.00  0.00    -0.206 A  
HETATM   14  C   UNL     1     -10.648  10.210  66.876  1.00  0.00    -0.267 A  
HETATM   15  C   UNL     1     -10.121   8.925  67.056  1.00  0.00    -0.331 A  
HETATM   16  C   UNL     1      -9.151   8.692  68.031  1.00  0.00    -0.144 A  
HETATM   17  C   UNL     1      -8.699   9.745  68.822  1.00  0.00    -0.128 A  
HETATM   18  C   UNL     1      -9.225  11.028  68.643  1.00  0.00    -0.186 A  
ENDBRANCH  10  13
ENDBRANCH   7   8
ENDBRANCH   6   7
ENDBRANCH   3   6
ENDBRANCH   2   3
TORSDOF 6
ENDMDL
MODEL      138
REMARK 921   NORMALIZED FREE ENERGY PREDICTED BY IDOCK:   -3.77 KCAL/MOL
REMARK 922        TOTAL FREE ENERGY PREDICTED BY IDOCK:   -5.62 KCAL/MOL
REMARK 923 INTER-LIGAND FREE ENERGY PREDICTED BY IDOCK:   -5.21 KCAL/MOL
REMARK 924 INTRA-LIGAND FREE ENERGY PREDICTED BY IDOCK:   -0.41 KCAL/MOL
REMARK 927      BINDING AFFINITY PREDICTED BY RF-SCORE:    0.00 PKD
ROOT
HETATM    1  C   UNL     1     -14.014   8.970  72.312  1.00  0.00    -0.522 C  
HETATM    2  C   UNL     1     -12.802   9.887  72.159  1.00  0.00    -0.345 C  
ENDROOT
BRANCH   2   3
HETATM    3  N   UNL     1     -11.526   9.208  71.846  1.00  0.00    -0.371 NA 
BRANCH   3   4
HETATM    4  C   UNL     1     -11.452   7.826  72.342  1.00  0.00    -0.363 C  
HETATM    5  C   UNL     1     -10.199   7.460  73.130  1.00  0.00    -0.363 C  
ENDBRANCH   3   4
BRANCH   3   6
HETATM    6  C   UNL     1     -11.244   9.347  70.398  1.00  0.00    -0.262 C  
BRANCH   6   7
HETATM    7  C   UNL     1      -9.759   9.348  69.997  1.00  0.00    -0.255 C  
BRANCH   7   8
HETATM    8  C   UNL     1      -9.422  10.527  69.150  1.00  0.00    -0.191 A  
HETATM    9  N   UNL     1     -10.184  11.259  68.366  1.00  0.00    -0.188 NA 
HETATM   10  C   UNL     1      -9.278  12.144  67.808  1.00  0.00    -0.189 A  
HETATM   11  N   UNL     1      -8.023  11.978  68.258  1.00  0.00    -0.142 NA 
HETATM   12  O   UNL     1      -8.115  10.902  69.131  1.00  0.00    -0.149 OA 
BRANCH  10  13
HETATM   13  C   UNL     1      -9.638  13.140  66.796  1.00  0.00    -0.249 A  
HETATM   14  C   UNL     1     -10.441  12.805  65.697  1.00  0.00    -0.297 A  
HETATM   15  C   UNL     1     -10.744  13.762  64.720  1.00  0.00    -0.429 A  
HETATM   16  C   UNL     1     -10.251  15.062  64.831  1.00  0.00    -0.260 A  
HETATM   17  C   UNL     1      -9.463  15.412  65.924  1.00  0.00    -0.369 A  
HETATM   18  C   UNL     1      -9.161  14.458  66.900  1.00  0.00    -0.269 A  
ENDBRANCH  10  13
ENDBRANCH   7   8
ENDBRANCH   6   7
ENDBRANCH   3   6
ENDBRANCH   2   3
TORSDOF 6
ENDMDL
MODEL      139
REMARK 921   NORMALIZED FREE ENERGY PREDICTED BY IDOCK:   -3.77 KCAL/MOL
REMARK 922        TOTAL FREE ENERGY PREDICTED BY IDOCK:   -5.62 KCAL/MOL
REMARK 923 INTER-LIGAND FREE ENERGY PREDICTED BY IDOCK:   -5.25 KCAL/MOL
REMARK 924 INTRA-LIGAND FREE ENERGY PREDICTED BY IDOCK:   -0.37 KCAL/MOL
REMARK 927      BINDING AFFINITY PREDICTED BY RF-SCORE:    0.00 PKD
ROOT
HETATM    1  C   UNL     1     -10.541  10.871  66.805  1.00  0.00    -0.313 C  
HETATM    2  C   UNL     1      -9.516  11.694  66.026  1.00  0.00    -0.229 C  
ENDROOT
BRANCH   2   3
HETATM    3  N   UNL     1     -10.061  12.851  65.284  1.00  0.00    -0.269 NA 
BRANCH   3   4
HETATM    4  C   UNL     1     -11.055  12.487  64.263  1.00  0.00    -0.356 C  
HETATM    5  C   UNL     1     -10.621  11.435  63.247  1.00  0.00    -0.374 C  
ENDBRANCH   3   4
BRANCH   3   6
HETATM    6  C   UNL     1     -10.534  13.869  66.252  1.00  0.00    -0.287 C  
BRANCH   6   7
HETATM    7  C   UNL     1     -10.617  15.312  65.725  1.00  0.00    -0.359 C  
BRANCH   7   8
HETATM    8  C   UNL     1      -9.989  16.276  66.672  1.00  0.00    -0.264 A  
HETATM    9  N   UNL     1      -8.722  16.485  66.961  1.00  0.00    -0.188 NA 
HETATM   10  C   UNL     1      -8.795  17.446  67.955  1.00  0.00    -0.237 A  
HETATM   11  N   UNL     1     -10.053  17.828  68.236  1.00  0.00    -0.349 NA 
HETATM   12  O   UNL     1     -10.840  17.046  67.402  1.00  0.00    -0.281 OA 
BRANCH  10  13
HETATM   13  C   UNL     1      -7.625  17.970  68.661  1.00  0.00    -0.297 A  
HETATM   14  C   UNL     1      -7.451  19.346  68.865  1.00  0.00    -0.399 A  
HETATM   15  C   UNL     1      -6.306  19.831  69.510  1.00  0.00    -0.372 A  
HETATM   16  C   UNL     1      -5.325  18.948  69.961  1.00  0.00    -0.224 A  
HETATM   17  C   UNL     1      -5.490  17.578  69.778  1.00  0.00    -0.217 A  
HETATM   18  C   UNL     1      -6.633  17.093  69.134  1.00  0.00    -0.231 A  
ENDBRANCH  10  13
ENDBRANCH   7   8
ENDBRANCH   6   7
ENDBRANCH   3   6
ENDBRANCH   2   3
TORSDOF 6
ENDMDL
MODEL      140
REMARK 921   NORMALIZED FREE ENERGY PREDICTED BY IDOCK:   -3.76 KCAL/MOL
REMARK 922        TOTAL FREE ENERGY PREDICTED BY IDOCK:   -5.61 KCAL/MOL
REMARK 923 INTER-LIGAND FREE ENERGY PREDICTED BY IDOCK:   -5.02 KCAL/MOL
REMARK 924 INTRA-LIGAND FREE ENERGY PREDICTED BY IDOCK:   -0.59 KCAL/MOL
REMARK 927      BINDING AFFINITY PREDICTED BY RF-SCORE:    0.00 PKD
ROOT
HETATM    1  C   UNL     1     -12.339  12.749  64.816  1.00  0.00    -0.540 C  
HETATM    2  C   UNL     1     -11.908  12.438  66.248  1.00  0.00    -0.364 C  
ENDROOT
BRANCH   2   3
HETATM    3  N   UNL     1     -11.112  13.490  66.916  1.00  0.00    -0.292 NA 
BRANCH   3   4
HETATM    4  C   UNL     1     -11.856  14.237  67.942  1.00  0.00    -0.358 C  
HETATM    5  C   UNL     1     -11.588  13.838  69.389  1.00  0.00    -0.365 C  
ENDBRANCH   3   4
BRANCH   3   6
HETATM    6  C   UNL     1      -9.839  12.904  67.398  1.00  0.00    -0.207 C  
BRANCH   6   7
HETATM    7  C   UNL     1      -8.552  13.525  66.829  1.00  0.00    -0.043 C  
BRANCH   7   8
HETATM    8  C   UNL     1      -8.322  14.895  67.368  1.00  0.00    -0.194 A  
HETATM    9  N   UNL     1      -8.067  16.026  66.744  1.00  0.00    -0.243 NA 
HETATM   10  C   UNL     1      -7.887  16.913  67.791  1.00  0.00    -0.178 A  
HETATM   11  N   UNL     1      -8.055  16.351  69.001  1.00  0.00    -0.233 NA 
HETATM   12  O   UNL     1      -8.327  15.019  68.723  1.00  0.00    -0.155 OA 
BRANCH  10  13
HETATM   13  C   UNL     1      -7.509  18.315  67.608  1.00  0.00    -0.216 A  
HETATM   14  C   UNL     1      -7.097  19.107  68.689  1.00  0.00    -0.353 A  
HETATM   15  C   UNL     1      -6.776  20.457  68.500  1.00  0.00    -0.271 A  
HETATM   16  C   UNL     1      -6.859  21.030  67.231  1.00  0.00    -0.434 A  
HETATM   17  C   UNL     1      -7.254  20.252  66.146  1.00  0.00    -0.291 A  
HETATM   18  C   UNL     1      -7.574  18.904  66.333  1.00  0.00    -0.281 A  
ENDBRANCH  10  13
ENDBRANCH   7   8
ENDBRANCH   6   7
ENDBRANCH   3   6
ENDBRANCH   2   3
TORSDOF 6
ENDMDL
MODEL      141
REMARK 921   NORMALIZED FREE ENERGY PREDICTED BY IDOCK:   -3.75 KCAL/MOL
REMARK 922        TOTAL FREE ENERGY PREDICTED BY IDOCK:   -5.60 KCAL/MOL
REMARK 923 INTER-LIGAND FREE ENERGY PREDICTED BY IDOCK:   -5.15 KCAL/MOL
REMARK 924 INTRA-LIGAND FREE ENERGY PREDICTED BY IDOCK:   -0.45 KCAL/MOL
REMARK 927      BINDING AFFINITY PREDICTED BY RF-SCORE:    0.00 PKD
ROOT
HETATM    1  C   UNL     1     -11.872  13.187  67.515  1.00  0.00    -0.409 C  
HETATM    2  C   UNL     1     -11.544  14.034  68.744  1.00  0.00    -0.331 C  
ENDROOT
BRANCH   2   3
HETATM    3  N   UNL     1     -11.685  13.347  70.046  1.00  0.00    -0.263 NA 
BRANCH   3   4
HETATM    4  C   UNL     1     -12.488  14.093  71.027  1.00  0.00    -0.367 C  
HETATM    5  C   UNL     1     -11.782  15.243  71.737  1.00  0.00    -0.487 C  
ENDBRANCH   3   4
BRANCH   3   6
HETATM    6  C   UNL     1     -12.151  11.959  69.814  1.00  0.00    -0.252 C  
BRANCH   6   7
HETATM    7  C   UNL     1     -12.908  11.299  70.980  1.00  0.00    -0.395 C  
BRANCH   7   8
HETATM    8  C   UNL     1     -12.388   9.931  71.264  1.00  0.00    -0.381 A  
HETATM    9  N   UNL     1     -11.294   9.331  70.844  1.00  0.00    -0.285 NA 
HETATM   10  C   UNL     1     -11.417   8.066  71.395  1.00  0.00    -0.258 A  
HETATM   11  N   UNL     1     -12.523   7.915  72.143  1.00  0.00    -0.292 NA 
HETATM   12  O   UNL     1     -13.170   9.139  72.045  1.00  0.00    -0.374 OA 
BRANCH  10  13
HETATM   13  C   UNL     1     -10.460   6.984  71.155  1.00  0.00    -0.229 A  
HETATM   14  C   UNL     1     -10.088   6.614  69.856  1.00  0.00    -0.198 A  
HETATM   15  C   UNL     1      -9.200   5.551  69.645  1.00  0.00    -0.163 A  
HETATM   16  C   UNL     1      -8.672   4.850  70.729  1.00  0.00    -0.142 A  
HETATM   17  C   UNL     1      -9.023   5.214  72.026  1.00  0.00    -0.145 A  
HETATM   18  C   UNL     1      -9.909   6.275  72.237  1.00  0.00    -0.175 A  
ENDBRANCH  10  13
ENDBRANCH   7   8
ENDBRANCH   6   7
ENDBRANCH   3   6
ENDBRANCH   2   3
TORSDOF 6
ENDMDL
MODEL      142
REMARK 921   NORMALIZED FREE ENERGY PREDICTED BY IDOCK:   -3.73 KCAL/MOL
REMARK 922        TOTAL FREE ENERGY PREDICTED BY IDOCK:   -5.56 KCAL/MOL
REMARK 923 INTER-LIGAND FREE ENERGY PREDICTED BY IDOCK:   -5.65 KCAL/MOL
REMARK 924 INTRA-LIGAND FREE ENERGY PREDICTED BY IDOCK:    0.08 KCAL/MOL
REMARK 927      BINDING AFFINITY PREDICTED BY RF-SCORE:    0.00 PKD
ROOT
HETATM    1  C   UNL     1      -7.938  14.788  67.843  1.00  0.00    -0.147 C  
HETATM    2  C   UNL     1      -7.835  15.674  66.603  1.00  0.00    -0.099 C  
ENDROOT
BRANCH   2   3
HETATM    3  N   UNL     1      -8.531  16.976  66.691  1.00  0.00    -0.227 NA 
BRANCH   3   4
HETATM    4  C   UNL     1      -7.659  18.133  66.441  1.00  0.00    -0.256 C  
HETATM    5  C   UNL     1      -6.976  18.738  67.663  1.00  0.00    -0.217 C  
ENDBRANCH   3   4
BRANCH   3   6
HETATM    6  C   UNL     1      -9.744  16.937  65.841  1.00  0.00    -0.176 C  
BRANCH   6   7
HETATM    7  C   UNL     1     -10.649  15.705  66.013  1.00  0.00    -0.336 C  
BRANCH   7   8
HETATM    8  C   UNL     1     -11.126  15.570  67.418  1.00  0.00    -0.285 A  
HETATM    9  N   UNL     1     -11.601  14.524  68.061  1.00  0.00    -0.320 NA 
HETATM   10  C   UNL     1     -11.930  15.056  69.297  1.00  0.00    -0.289 A  
HETATM   11  N   UNL     1     -11.639  16.363  69.410  1.00  0.00    -0.157 NA 
HETATM   12  O   UNL     1     -11.123  16.706  68.168  1.00  0.00    -0.361 OA 
BRANCH  10  13
HETATM   13  C   UNL     1     -12.570  14.285  70.364  1.00  0.00    -0.405 A  
HETATM   14  C   UNL     1     -13.510  14.870  71.223  1.00  0.00    -0.500 A  
HETATM   15  C   UNL     1     -14.084  14.126  72.263  1.00  0.00    -0.630 A  
HETATM   16  C   UNL     1     -13.727  12.791  72.453  1.00  0.00    -0.457 A  
HETATM   17  C   UNL     1     -12.805  12.193  71.599  1.00  0.00    -0.390 A  
HETATM   18  C   UNL     1     -12.232  12.934  70.561  1.00  0.00    -0.395 A  
ENDBRANCH  10  13
ENDBRANCH   7   8
ENDBRANCH   6   7
ENDBRANCH   3   6
ENDBRANCH   2   3
TORSDOF 6
ENDMDL
MODEL      143
REMARK 921   NORMALIZED FREE ENERGY PREDICTED BY IDOCK:   -3.72 KCAL/MOL
REMARK 922        TOTAL FREE ENERGY PREDICTED BY IDOCK:   -5.56 KCAL/MOL
REMARK 923 INTER-LIGAND FREE ENERGY PREDICTED BY IDOCK:   -4.98 KCAL/MOL
REMARK 924 INTRA-LIGAND FREE ENERGY PREDICTED BY IDOCK:   -0.57 KCAL/MOL
REMARK 927      BINDING AFFINITY PREDICTED BY RF-SCORE:    0.00 PKD
ROOT
HETATM    1  C   UNL     1      -7.906  13.146  67.737  1.00  0.00    -0.152 C  
HETATM    2  C   UNL     1      -8.732  14.310  68.283  1.00  0.00    -0.179 C  
ENDROOT
BRANCH   2   3
HETATM    3  N   UNL     1     -10.099  14.433  67.733  1.00  0.00    -0.225 NA 
BRANCH   3   4
HETATM    4  C   UNL     1     -10.385  15.748  67.140  1.00  0.00    -0.291 C  
HETATM    5  C   UNL     1      -9.356  16.275  66.145  1.00  0.00    -0.374 C  
ENDBRANCH   3   4
BRANCH   3   6
HETATM    6  C   UNL     1     -10.362  13.291  66.826  1.00  0.00    -0.257 C  
BRANCH   6   7
HETATM    7  C   UNL     1     -11.631  12.473  67.123  1.00  0.00    -0.437 C  
BRANCH   7   8
HETATM    8  C   UNL     1     -11.310  11.209  67.845  1.00  0.00    -0.309 A  
HETATM    9  N   UNL     1     -11.752  10.750  68.997  1.00  0.00    -0.299 NA 
HETATM   10  C   UNL     1     -11.031   9.577  69.147  1.00  0.00    -0.125 A  
HETATM   11  N   UNL     1     -10.210   9.319  68.115  1.00  0.00    -0.195 NA 
HETATM   12  O   UNL     1     -10.382  10.402  67.264  1.00  0.00    -0.202 OA 
BRANCH  10  13
HETATM   13  C   UNL     1     -11.121   8.719  70.330  1.00  0.00    -0.261 A  
HETATM   14  C   UNL     1     -10.827   7.350  70.262  1.00  0.00    -0.260 A  
HETATM   15  C   UNL     1     -10.955   6.538  71.396  1.00  0.00    -0.303 A  
HETATM   16  C   UNL     1     -11.374   7.084  72.610  1.00  0.00    -0.290 A  
HETATM   17  C   UNL     1     -11.656   8.444  72.695  1.00  0.00    -0.367 A  
HETATM   18  C   UNL     1     -11.528   9.256  71.564  1.00  0.00    -0.454 A  
ENDBRANCH  10  13
ENDBRANCH   7   8
ENDBRANCH   6   7
ENDBRANCH   3   6
ENDBRANCH   2   3
TORSDOF 6
ENDMDL
MODEL      144
REMARK 921   NORMALIZED FREE ENERGY PREDICTED BY IDOCK:   -3.71 KCAL/MOL
REMARK 922        TOTAL FREE ENERGY PREDICTED BY IDOCK:   -5.53 KCAL/MOL
REMARK 923 INTER-LIGAND FREE ENERGY PREDICTED BY IDOCK:   -5.02 KCAL/MOL
REMARK 924 INTRA-LIGAND FREE ENERGY PREDICTED BY IDOCK:   -0.51 KCAL/MOL
REMARK 927      BINDING AFFINITY PREDICTED BY RF-SCORE:    0.00 PKD
ROOT
HETATM    1  C   UNL     1     -11.703  15.000  69.271  1.00  0.00    -0.349 C  
HETATM    2  C   UNL     1     -11.545  14.776  67.768  1.00  0.00    -0.357 C  
ENDROOT
BRANCH   2   3
HETATM    3  N   UNL     1     -10.653  15.729  67.074  1.00  0.00    -0.314 NA 
BRANCH   3   4
HETATM    4  C   UNL     1      -9.271  15.724  67.577  1.00  0.00    -0.204 C  
HETATM    5  C   UNL     1      -8.478  14.440  67.354  1.00  0.00    -0.216 C  
ENDBRANCH   3   4
BRANCH   3   6
HETATM    6  C   UNL     1     -10.764  15.520  65.611  1.00  0.00    -0.366 C  
BRANCH   6   7
HETATM    7  C   UNL     1     -11.918  14.616  65.144  1.00  0.00    -0.334 C  
BRANCH   7   8
HETATM    8  C   UNL     1     -11.422  13.285  64.694  1.00  0.00    -0.342 A  
HETATM    9  N   UNL     1     -10.377  12.588  65.086  1.00  0.00    -0.285 NA 
HETATM   10  C   UNL     1     -10.419  11.487  64.246  1.00  0.00    -0.338 A  
HETATM   11  N   UNL     1     -11.464  11.501  63.401  1.00  0.00    -0.297 NA 
HETATM   12  O   UNL     1     -12.116  12.693  63.685  1.00  0.00    -0.466 OA 
BRANCH  10  13
HETATM   13  C   UNL     1      -9.407  10.430  64.247  1.00  0.00    -0.324 A  
HETATM   14  C   UNL     1      -8.759  10.039  63.067  1.00  0.00    -0.216 A  
HETATM   15  C   UNL     1      -7.820   9.000  63.080  1.00  0.00    -0.133 A  
HETATM   16  C   UNL     1      -7.515   8.343  64.272  1.00  0.00    -0.109 A  
HETATM   17  C   UNL     1      -8.141   8.729  65.455  1.00  0.00    -0.125 A  
HETATM   18  C   UNL     1      -9.078   9.766  65.442  1.00  0.00    -0.251 A  
ENDBRANCH  10  13
ENDBRANCH   7   8
ENDBRANCH   6   7
ENDBRANCH   3   6
ENDBRANCH   2   3
TORSDOF 6
ENDMDL
MODEL      145
REMARK 921   NORMALIZED FREE ENERGY PREDICTED BY IDOCK:   -3.69 KCAL/MOL
REMARK 922        TOTAL FREE ENERGY PREDICTED BY IDOCK:   -5.51 KCAL/MOL
REMARK 923 INTER-LIGAND FREE ENERGY PREDICTED BY IDOCK:   -5.07 KCAL/MOL
REMARK 924 INTRA-LIGAND FREE ENERGY PREDICTED BY IDOCK:   -0.44 KCAL/MOL
REMARK 927      BINDING AFFINITY PREDICTED BY RF-SCORE:    0.00 PKD
ROOT
HETATM    1  C   UNL     1     -11.849  12.313  68.480  1.00  0.00    -0.359 C  
HETATM    2  C   UNL     1     -11.724  10.939  69.137  1.00  0.00    -0.326 C  
ENDROOT
BRANCH   2   3
HETATM    3  N   UNL     1     -11.705  10.941  70.615  1.00  0.00    -0.340 NA 
BRANCH   3   4
HETATM    4  C   UNL     1     -13.022  11.172  71.226  1.00  0.00    -0.357 C  
HETATM    5  C   UNL     1     -13.190  12.482  71.989  1.00  0.00    -0.524 C  
ENDBRANCH   3   4
BRANCH   3   6
HETATM    6  C   UNL     1     -11.023   9.715  71.093  1.00  0.00    -0.360 C  
BRANCH   6   7
HETATM    7  C   UNL     1     -11.858   8.786  71.992  1.00  0.00    -0.442 C  
BRANCH   7   8
HETATM    8  C   UNL     1     -11.430   7.366  71.857  1.00  0.00    -0.266 A  
HETATM    9  N   UNL     1     -11.237   6.442  72.775  1.00  0.00    -0.249 NA 
HETATM   10  C   UNL     1     -10.782   5.368  72.029  1.00  0.00    -0.220 A  
HETATM   11  N   UNL     1     -10.731   5.618  70.709  1.00  0.00    -0.264 NA 
HETATM   12  O   UNL     1     -11.144   6.939  70.597  1.00  0.00    -0.250 OA 
BRANCH  10  13
HETATM   13  C   UNL     1     -10.359   4.096  72.617  1.00  0.00    -0.233 A  
HETATM   14  C   UNL     1      -9.213   3.428  72.163  1.00  0.00    -0.166 A  
HETATM   15  C   UNL     1      -8.845   2.193  72.712  1.00  0.00    -0.077 A  
HETATM   16  C   UNL     1      -9.614   1.615  73.722  1.00  0.00    -0.090 A  
HETATM   17  C   UNL     1     -10.747   2.273  74.191  1.00  0.00    -0.230 A  
HETATM   18  C   UNL     1     -11.115   3.505  73.644  1.00  0.00    -0.314 A  
ENDBRANCH  10  13
ENDBRANCH   7   8
ENDBRANCH   6   7
ENDBRANCH   3   6
ENDBRANCH   2   3
TORSDOF 6
ENDMDL
MODEL      146
REMARK 921   NORMALIZED FREE ENERGY PREDICTED BY IDOCK:   -3.67 KCAL/MOL
REMARK 922        TOTAL FREE ENERGY PREDICTED BY IDOCK:   -5.49 KCAL/MOL
REMARK 923 INTER-LIGAND FREE ENERGY PREDICTED BY IDOCK:   -5.01 KCAL/MOL
REMARK 924 INTRA-LIGAND FREE ENERGY PREDICTED BY IDOCK:   -0.48 KCAL/MOL
REMARK 927      BINDING AFFINITY PREDICTED BY RF-SCORE:    0.00 PKD
ROOT
HETATM    1  C   UNL     1      -8.449   8.334  69.759  1.00  0.00    -0.128 C  
HETATM    2  C   UNL     1      -9.291   9.399  70.458  1.00  0.00    -0.262 C  
ENDROOT
BRANCH   2   3
HETATM    3  N   UNL     1     -10.749   9.309  70.227  1.00  0.00    -0.228 NA 
BRANCH   3   4
HETATM    4  C   UNL     1     -11.425   8.317  71.077  1.00  0.00    -0.275 C  
HETATM    5  C   UNL     1     -11.635   8.712  72.535  1.00  0.00    -0.310 C  
ENDBRANCH   3   4
BRANCH   3   6
HETATM    6  C   UNL     1     -11.337  10.668  70.300  1.00  0.00    -0.319 C  
BRANCH   6   7
HETATM    7  C   UNL     1     -12.270  11.062  69.142  1.00  0.00    -0.229 C  
BRANCH   7   8
HETATM    8  C   UNL     1     -11.625  12.050  68.232  1.00  0.00    -0.334 A  
HETATM    9  N   UNL     1     -10.553  12.795  68.405  1.00  0.00    -0.243 NA 
HETATM   10  C   UNL     1     -10.518  13.544  67.241  1.00  0.00    -0.248 A  
HETATM   11  N   UNL     1     -11.509  13.244  66.383  1.00  0.00    -0.316 NA 
HETATM   12  O   UNL     1     -12.247  12.271  67.043  1.00  0.00    -0.522 OA 
BRANCH  10  13
HETATM   13  C   UNL     1      -9.526  14.588  66.981  1.00  0.00    -0.247 A  
HETATM   14  C   UNL     1      -8.236  14.521  67.526  1.00  0.00    -0.201 A  
HETATM   15  C   UNL     1      -7.312  15.548  67.297  1.00  0.00    -0.249 A  
HETATM   16  C   UNL     1      -7.664  16.651  66.519  1.00  0.00    -0.337 A  
HETATM   17  C   UNL     1      -8.937  16.725  65.961  1.00  0.00    -0.220 A  
HETATM   18  C   UNL     1      -9.860  15.700  66.188  1.00  0.00    -0.340 A  
ENDBRANCH  10  13
ENDBRANCH   7   8
ENDBRANCH   6   7
ENDBRANCH   3   6
ENDBRANCH   2   3
TORSDOF 6
ENDMDL
MODEL      147
REMARK 921   NORMALIZED FREE ENERGY PREDICTED BY IDOCK:   -3.67 KCAL/MOL
REMARK 922        TOTAL FREE ENERGY PREDICTED BY IDOCK:   -5.48 KCAL/MOL
REMARK 923 INTER-LIGAND FREE ENERGY PREDICTED BY IDOCK:   -4.87 KCAL/MOL
REMARK 924 INTRA-LIGAND FREE ENERGY PREDICTED BY IDOCK:   -0.61 KCAL/MOL
REMARK 927      BINDING AFFINITY PREDICTED BY RF-SCORE:    0.00 PKD
ROOT
HETATM    1  C   UNL     1     -12.842   8.652  71.757  1.00  0.00    -0.397 C  
HETATM    2  C   UNL     1     -12.704   7.168  71.421  1.00  0.00    -0.391 C  
ENDROOT
BRANCH   2   3
HETATM    3  N   UNL     1     -11.318   6.655  71.370  1.00  0.00    -0.275 NA 
BRANCH   3   4
HETATM    4  C   UNL     1     -11.116   5.413  72.132  1.00  0.00    -0.168 C  
HETATM    5  C   UNL     1     -11.010   5.563  73.646  1.00  0.00    -0.229 C  
ENDBRANCH   3   4
BRANCH   3   6
HETATM    6  C   UNL     1     -10.882   6.574  69.955  1.00  0.00    -0.287 C  
BRANCH   6   7
HETATM    7  C   UNL     1      -9.659   7.426  69.577  1.00  0.00    -0.155 C  
BRANCH   7   8
HETATM    8  C   UNL     1     -10.062   8.681  68.881  1.00  0.00    -0.202 A  
HETATM    9  N   UNL     1     -10.315   9.879  69.363  1.00  0.00    -0.206 NA 
HETATM   10  C   UNL     1     -10.701  10.582  68.234  1.00  0.00    -0.229 A  
HETATM   11  N   UNL     1     -10.654   9.849  67.108  1.00  0.00    -0.244 NA 
HETATM   12  O   UNL     1     -10.247   8.592  67.537  1.00  0.00    -0.209 OA 
BRANCH  10  13
HETATM   13  C   UNL     1     -11.155  11.973  68.263  1.00  0.00    -0.290 A  
HETATM   14  C   UNL     1     -11.779  12.513  69.396  1.00  0.00    -0.383 A  
HETATM   15  C   UNL     1     -12.241  13.836  69.391  1.00  0.00    -0.325 A  
HETATM   16  C   UNL     1     -12.081  14.633  68.258  1.00  0.00    -0.214 A  
HETATM   17  C   UNL     1     -11.452  14.114  67.130  1.00  0.00    -0.373 A  
HETATM   18  C   UNL     1     -10.990  12.794  67.134  1.00  0.00    -0.295 A  
ENDBRANCH  10  13
ENDBRANCH   7   8
ENDBRANCH   6   7
ENDBRANCH   3   6
ENDBRANCH   2   3
TORSDOF 6
ENDMDL
MODEL      148
REMARK 921   NORMALIZED FREE ENERGY PREDICTED BY IDOCK:   -3.66 KCAL/MOL
REMARK 922        TOTAL FREE ENERGY PREDICTED BY IDOCK:   -5.48 KCAL/MOL
REMARK 923 INTER-LIGAND FREE ENERGY PREDICTED BY IDOCK:   -5.07 KCAL/MOL
REMARK 924 INTRA-LIGAND FREE ENERGY PREDICTED BY IDOCK:   -0.41 KCAL/MOL
REMARK 927      BINDING AFFINITY PREDICTED BY RF-SCORE:    0.00 PKD
ROOT
HETATM    1  C   UNL     1     -10.742   6.211  66.846  1.00  0.00    -0.413 C  
HETATM    2  C   UNL     1      -9.333   6.792  66.960  1.00  0.00    -0.143 C  
ENDROOT
BRANCH   2   3
HETATM    3  N   UNL     1      -9.231   8.254  66.767  1.00  0.00    -0.159 NA 
BRANCH   3   4
HETATM    4  C   UNL     1      -8.731   8.643  65.439  1.00  0.00    -0.174 C  
HETATM    5  C   UNL     1      -7.256   9.019  65.360  1.00  0.00    -0.084 C  
ENDBRANCH   3   4
BRANCH   3   6
HETATM    6  C   UNL     1     -10.520   8.884  67.136  1.00  0.00    -0.274 C  
BRANCH   6   7
HETATM    7  C   UNL     1     -10.501   9.770  68.394  1.00  0.00    -0.250 C  
BRANCH   7   8
HETATM    8  C   UNL     1     -10.836  11.186  68.070  1.00  0.00    -0.225 A  
HETATM    9  N   UNL     1     -10.230  12.304  68.409  1.00  0.00    -0.216 NA 
HETATM   10  C   UNL     1     -11.059  13.271  67.866  1.00  0.00    -0.262 A  
HETATM   11  N   UNL     1     -12.108  12.760  67.199  1.00  0.00    -0.433 NA 
HETATM   12  O   UNL     1     -11.969  11.387  67.346  1.00  0.00    -0.606 OA 
BRANCH  10  13
HETATM   13  C   UNL     1     -10.842  14.709  68.033  1.00  0.00    -0.260 A  
HETATM   14  C   UNL     1     -10.811  15.299  69.305  1.00  0.00    -0.257 A  
HETATM   15  C   UNL     1     -10.640  16.682  69.443  1.00  0.00    -0.333 A  
HETATM   16  C   UNL     1     -10.495  17.490  68.315  1.00  0.00    -0.383 A  
HETATM   17  C   UNL     1     -10.511  16.916  67.047  1.00  0.00    -0.281 A  
HETATM   18  C   UNL     1     -10.681  15.536  66.907  1.00  0.00    -0.317 A  
ENDBRANCH  10  13
ENDBRANCH   7   8
ENDBRANCH   6   7
ENDBRANCH   3   6
ENDBRANCH   2   3
TORSDOF 6
ENDMDL
MODEL      149
REMARK 921   NORMALIZED FREE ENERGY PREDICTED BY IDOCK:   -3.66 KCAL/MOL
REMARK 922        TOTAL FREE ENERGY PREDICTED BY IDOCK:   -5.46 KCAL/MOL
REMARK 923 INTER-LIGAND FREE ENERGY PREDICTED BY IDOCK:   -5.83 KCAL/MOL
REMARK 924 INTRA-LIGAND FREE ENERGY PREDICTED BY IDOCK:    0.37 KCAL/MOL
REMARK 927      BINDING AFFINITY PREDICTED BY RF-SCORE:    0.00 PKD
ROOT
HETATM    1  C   UNL     1      -7.510  13.733  67.361  1.00  0.00    -0.142 C  
HETATM    2  C   UNL     1      -8.875  13.124  67.047  1.00  0.00    -0.210 C  
ENDROOT
BRANCH   2   3
HETATM    3  N   UNL     1      -8.845  11.835  66.323  1.00  0.00    -0.178 NA 
BRANCH   3   4
HETATM    4  C   UNL     1      -8.502  10.685  67.173  1.00  0.00    -0.128 C  
HETATM    5  C   UNL     1      -7.143  10.041  66.916  1.00  0.00    -0.090 C  
ENDBRANCH   3   4
BRANCH   3   6
HETATM    6  C   UNL     1     -10.110  11.672  65.568  1.00  0.00    -0.246 C  
BRANCH   6   7
HETATM    7  C   UNL     1     -11.167  12.770  65.779  1.00  0.00    -0.341 C  
BRANCH   7   8
HETATM    8  C   UNL     1     -11.662  12.788  67.184  1.00  0.00    -0.380 A  
HETATM    9  N   UNL     1     -11.912  13.801  67.987  1.00  0.00    -0.371 NA 
HETATM   10  C   UNL     1     -12.271  13.168  69.165  1.00  0.00    -0.092 A  
HETATM   11  N   UNL     1     -12.270  11.827  69.073  1.00  0.00    -0.280 NA 
HETATM   12  O   UNL     1     -11.854  11.576  67.772  1.00  0.00    -0.584 OA 
BRANCH  10  13
HETATM   13  C   UNL     1     -12.584  13.882  70.404  1.00  0.00    -0.350 A  
HETATM   14  C   UNL     1     -12.351  15.259  70.531  1.00  0.00    -0.434 A  
HETATM   15  C   UNL     1     -12.621  15.918  71.737  1.00  0.00    -0.489 A  
HETATM   16  C   UNL     1     -13.129  15.212  72.827  1.00  0.00    -0.545 A  
HETATM   17  C   UNL     1     -13.377  13.847  72.712  1.00  0.00    -0.567 A  
HETATM   18  C   UNL     1     -13.108  13.188  71.508  1.00  0.00    -0.404 A  
ENDBRANCH  10  13
ENDBRANCH   7   8
ENDBRANCH   6   7
ENDBRANCH   3   6
ENDBRANCH   2   3
TORSDOF 6
ENDMDL
MODEL      150
REMARK 921   NORMALIZED FREE ENERGY PREDICTED BY IDOCK:   -3.65 KCAL/MOL
REMARK 922        TOTAL FREE ENERGY PREDICTED BY IDOCK:   -5.45 KCAL/MOL
REMARK 923 INTER-LIGAND FREE ENERGY PREDICTED BY IDOCK:   -5.01 KCAL/MOL
REMARK 924 INTRA-LIGAND FREE ENERGY PREDICTED BY IDOCK:   -0.45 KCAL/MOL
REMARK 927      BINDING AFFINITY PREDICTED BY RF-SCORE:    0.00 PKD
ROOT
HETATM    1  C   UNL     1      -5.440  10.422  63.433  1.00  0.00    -0.157 C  
HETATM    2  C   UNL     1      -5.942   9.044  63.007  1.00  0.00    -0.089 C  
ENDROOT
BRANCH   2   3
HETATM    3  N   UNL     1      -7.409   8.911  62.883  1.00  0.00    -0.096 NA 
BRANCH   3   4
HETATM    4  C   UNL     1      -7.911   7.561  63.179  1.00  0.00    -0.103 C  
HETATM    5  C   UNL     1      -6.938   6.621  63.881  1.00  0.00    -0.055 C  
ENDBRANCH   3   4
BRANCH   3   6
HETATM    6  C   UNL     1      -8.062   9.985  63.669  1.00  0.00    -0.157 C  
BRANCH   6   7
HETATM    7  C   UNL     1      -9.391  10.520  63.107  1.00  0.00    -0.344 C  
BRANCH   7   8
HETATM    8  C   UNL     1     -10.200  11.191  64.163  1.00  0.00    -0.347 A  
HETATM    9  N   UNL     1     -10.019  11.253  65.465  1.00  0.00    -0.234 NA 
HETATM   10  C   UNL     1     -11.137  11.951  65.890  1.00  0.00    -0.316 A  
HETATM   11  N   UNL     1     -11.947  12.324  64.885  1.00  0.00    -0.377 NA 
HETATM   12  O   UNL     1     -11.338  11.811  63.748  1.00  0.00    -0.395 OA 
BRANCH  10  13
HETATM   13  C   UNL     1     -11.434  12.223  67.298  1.00  0.00    -0.426 A  
HETATM   14  C   UNL     1     -11.582  11.183  68.226  1.00  0.00    -0.359 A  
HETATM   15  C   UNL     1     -11.903  11.461  69.561  1.00  0.00    -0.426 A  
HETATM   16  C   UNL     1     -12.076  12.779  69.983  1.00  0.00    -0.355 A  
HETATM   17  C   UNL     1     -11.919  13.822  69.075  1.00  0.00    -0.399 A  
HETATM   18  C   UNL     1     -11.598  13.546  67.743  1.00  0.00    -0.374 A  
ENDBRANCH  10  13
ENDBRANCH   7   8
ENDBRANCH   6   7
ENDBRANCH   3   6
ENDBRANCH   2   3
TORSDOF 6
ENDMDL
MODEL      151
REMARK 921   NORMALIZED FREE ENERGY PREDICTED BY IDOCK:   -3.64 KCAL/MOL
REMARK 922        TOTAL FREE ENERGY PREDICTED BY IDOCK:   -5.44 KCAL/MOL
REMARK 923 INTER-LIGAND FREE ENERGY PREDICTED BY IDOCK:   -4.91 KCAL/MOL
REMARK 924 INTRA-LIGAND FREE ENERGY PREDICTED BY IDOCK:   -0.53 KCAL/MOL
REMARK 927      BINDING AFFINITY PREDICTED BY RF-SCORE:    0.00 PKD
ROOT
HETATM    1  C   UNL     1     -12.168  12.268  70.502  1.00  0.00    -0.387 C  
HETATM    2  C   UNL     1     -12.594  10.810  70.344  1.00  0.00    -0.314 C  
ENDROOT
BRANCH   2   3
HETATM    3  N   UNL     1     -12.254   9.922  71.476  1.00  0.00    -0.394 NA 
BRANCH   3   4
HETATM    4  C   UNL     1     -13.414   9.523  72.287  1.00  0.00    -0.440 C  
HETATM    5  C   UNL     1     -14.402   8.569  71.624  1.00  0.00    -0.497 C  
ENDBRANCH   3   4
BRANCH   3   6
HETATM    6  C   UNL     1     -11.446   8.784  70.974  1.00  0.00    -0.285 C  
BRANCH   6   7
HETATM    7  C   UNL     1      -9.920   8.973  71.011  1.00  0.00    -0.349 C  
BRANCH   7   8
HETATM    8  C   UNL     1      -9.352   9.093  69.639  1.00  0.00    -0.172 A  
HETATM    9  N   UNL     1      -9.878   9.586  68.538  1.00  0.00    -0.155 NA 
HETATM   10  C   UNL     1      -8.890   9.345  67.598  1.00  0.00    -0.115 A  
HETATM   11  N   UNL     1      -7.796   8.758  68.113  1.00  0.00    -0.101 NA 
HETATM   12  O   UNL     1      -8.106   8.578  69.455  1.00  0.00    -0.108 OA 
BRANCH  10  13
HETATM   13  C   UNL     1      -9.032   9.659  66.176  1.00  0.00    -0.186 A  
HETATM   14  C   UNL     1     -10.017  10.547  65.719  1.00  0.00    -0.318 A  
HETATM   15  C   UNL     1     -10.162  10.806  64.351  1.00  0.00    -0.432 A  
HETATM   16  C   UNL     1      -9.325  10.184  63.424  1.00  0.00    -0.334 A  
HETATM   17  C   UNL     1      -8.335   9.310  63.863  1.00  0.00    -0.179 A  
HETATM   18  C   UNL     1      -8.188   9.051  65.229  1.00  0.00    -0.139 A  
ENDBRANCH  10  13
ENDBRANCH   7   8
ENDBRANCH   6   7
ENDBRANCH   3   6
ENDBRANCH   2   3
TORSDOF 6
ENDMDL
MODEL      152
REMARK 921   NORMALIZED FREE ENERGY PREDICTED BY IDOCK:   -3.63 KCAL/MOL
REMARK 922        TOTAL FREE ENERGY PREDICTED BY IDOCK:   -5.43 KCAL/MOL
REMARK 923 INTER-LIGAND FREE ENERGY PREDICTED BY IDOCK:   -4.95 KCAL/MOL
REMARK 924 INTRA-LIGAND FREE ENERGY PREDICTED BY IDOCK:   -0.48 KCAL/MOL
REMARK 927      BINDING AFFINITY PREDICTED BY RF-SCORE:    0.00 PKD
ROOT
HETATM    1  C   UNL     1      -9.863   8.216  66.603  1.00  0.00    -0.331 C  
HETATM    2  C   UNL     1      -9.616   9.566  67.275  1.00  0.00    -0.150 C  
ENDROOT
BRANCH   2   3
HETATM    3  N   UNL     1     -10.529   9.897  68.390  1.00  0.00    -0.198 NA 
BRANCH   3   4
HETATM    4  C   UNL     1      -9.869   9.949  69.703  1.00  0.00    -0.232 C  
HETATM    5  C   UNL     1     -10.256   8.857  70.695  1.00  0.00    -0.267 C  
ENDBRANCH   3   4
BRANCH   3   6
HETATM    6  C   UNL     1     -11.291  11.122  68.047  1.00  0.00    -0.312 C  
BRANCH   6   7
HETATM    7  C   UNL     1     -11.717  12.005  69.232  1.00  0.00    -0.389 C  
BRANCH   7   8
HETATM    8  C   UNL     1     -11.426  13.443  68.974  1.00  0.00    -0.301 A  
HETATM    9  N   UNL     1     -10.277  14.081  68.901  1.00  0.00    -0.197 NA 
HETATM   10  C   UNL     1     -10.674  15.394  68.712  1.00  0.00    -0.241 A  
HETATM   11  N   UNL     1     -12.008  15.543  68.643  1.00  0.00    -0.290 NA 
HETATM   12  O   UNL     1     -12.504  14.260  68.830  1.00  0.00    -0.176 OA 
BRANCH  10  13
HETATM   13  C   UNL     1      -9.740  16.518  68.637  1.00  0.00    -0.247 A  
HETATM   14  C   UNL     1     -10.193  17.832  68.447  1.00  0.00    -0.384 A  
HETATM   15  C   UNL     1      -9.282  18.890  68.339  1.00  0.00    -0.390 A  
HETATM   16  C   UNL     1      -7.911  18.650  68.423  1.00  0.00    -0.351 A  
HETATM   17  C   UNL     1      -7.447  17.353  68.625  1.00  0.00    -0.263 A  
HETATM   18  C   UNL     1      -8.355  16.296  68.733  1.00  0.00    -0.235 A  
ENDBRANCH  10  13
ENDBRANCH   7   8
ENDBRANCH   6   7
ENDBRANCH   3   6
ENDBRANCH   2   3
TORSDOF 6
ENDMDL
MODEL      153
REMARK 921   NORMALIZED FREE ENERGY PREDICTED BY IDOCK:   -3.62 KCAL/MOL
REMARK 922        TOTAL FREE ENERGY PREDICTED BY IDOCK:   -5.42 KCAL/MOL
REMARK 923 INTER-LIGAND FREE ENERGY PREDICTED BY IDOCK:   -4.69 KCAL/MOL
REMARK 924 INTRA-LIGAND FREE ENERGY PREDICTED BY IDOCK:   -0.73 KCAL/MOL
REMARK 927      BINDING AFFINITY PREDICTED BY RF-SCORE:    0.00 PKD
ROOT
HETATM    1  C   UNL     1      -9.509   2.704  71.326  1.00  0.00    -0.218 C  
HETATM    2  C   UNL     1      -9.906   4.177  71.243  1.00  0.00    -0.179 C  
ENDROOT
BRANCH   2   3
HETATM    3  N   UNL     1      -9.173   5.085  72.149  1.00  0.00    -0.135 NA 
BRANCH   3   4
HETATM    4  C   UNL     1      -8.190   5.940  71.466  1.00  0.00    -0.119 C  
HETATM    5  C   UNL     1      -8.333   6.051  69.952  1.00  0.00    -0.123 C  
ENDBRANCH   3   4
BRANCH   3   6
HETATM    6  C   UNL     1     -10.146   5.831  72.982  1.00  0.00    -0.179 C  
BRANCH   6   7
HETATM    7  C   UNL     1     -11.531   6.066  72.353  1.00  0.00    -0.357 C  
BRANCH   7   8
HETATM    8  C   UNL     1     -11.636   7.428  71.760  1.00  0.00    -0.272 A  
HETATM    9  N   UNL     1     -11.493   7.829  70.514  1.00  0.00    -0.247 NA 
HETATM   10  C   UNL     1     -11.640   9.202  70.622  1.00  0.00    -0.235 A  
HETATM   11  N   UNL     1     -11.894   9.615  71.876  1.00  0.00    -0.314 NA 
HETATM   12  O   UNL     1     -11.876   8.448  72.628  1.00  0.00    -0.393 OA 
BRANCH  10  13
HETATM   13  C   UNL     1     -11.495  10.122  69.493  1.00  0.00    -0.227 A  
HETATM   14  C   UNL     1     -10.805   9.748  68.331  1.00  0.00    -0.244 A  
HETATM   15  C   UNL     1     -10.644  10.655  67.276  1.00  0.00    -0.313 A  
HETATM   16  C   UNL     1     -11.172  11.942  67.368  1.00  0.00    -0.366 A  
HETATM   17  C   UNL     1     -11.871  12.324  68.510  1.00  0.00    -0.359 A  
HETATM   18  C   UNL     1     -12.033  11.419  69.564  1.00  0.00    -0.409 A  
ENDBRANCH  10  13
ENDBRANCH   7   8
ENDBRANCH   6   7
ENDBRANCH   3   6
ENDBRANCH   2   3
TORSDOF 6
ENDMDL
MODEL      154
REMARK 921   NORMALIZED FREE ENERGY PREDICTED BY IDOCK:   -3.58 KCAL/MOL
REMARK 922        TOTAL FREE ENERGY PREDICTED BY IDOCK:   -5.36 KCAL/MOL
REMARK 923 INTER-LIGAND FREE ENERGY PREDICTED BY IDOCK:   -4.77 KCAL/MOL
REMARK 924 INTRA-LIGAND FREE ENERGY PREDICTED BY IDOCK:   -0.60 KCAL/MOL
REMARK 927      BINDING AFFINITY PREDICTED BY RF-SCORE:    0.00 PKD
ROOT
HETATM    1  C   UNL     1     -12.667  12.868  65.193  1.00  0.00    -0.443 C  
HETATM    2  C   UNL     1     -12.475  14.022  66.175  1.00  0.00    -0.430 C  
ENDROOT
BRANCH   2   3
HETATM    3  N   UNL     1     -11.191  14.747  66.062  1.00  0.00    -0.341 NA 
BRANCH   3   4
HETATM    4  C   UNL     1     -10.987  15.761  67.108  1.00  0.00    -0.244 C  
HETATM    5  C   UNL     1     -10.210  17.007  66.695  1.00  0.00    -0.310 C  
ENDBRANCH   3   4
BRANCH   3   6
HETATM    6  C   UNL     1     -10.087  13.765  65.947  1.00  0.00    -0.313 C  
BRANCH   6   7
HETATM    7  C   UNL     1      -9.530  13.219  67.273  1.00  0.00    -0.233 C  
BRANCH   7   8
HETATM    8  C   UNL     1      -9.834  11.770  67.438  1.00  0.00    -0.178 A  
HETATM    9  N   UNL     1      -9.285  10.715  66.874  1.00  0.00    -0.154 NA 
HETATM   10  C   UNL     1     -10.048   9.674  67.378  1.00  0.00    -0.204 A  
HETATM   11  N   UNL     1     -11.000  10.078  68.236  1.00  0.00    -0.246 NA 
HETATM   12  O   UNL     1     -10.869  11.460  68.264  1.00  0.00    -0.186 OA 
BRANCH  10  13
HETATM   13  C   UNL     1      -9.866   8.275  66.987  1.00  0.00    -0.298 A  
HETATM   14  C   UNL     1      -8.838   7.889  66.116  1.00  0.00    -0.197 A  
HETATM   15  C   UNL     1      -8.703   6.551  65.724  1.00  0.00    -0.129 A  
HETATM   16  C   UNL     1      -9.589   5.585  66.200  1.00  0.00    -0.158 A  
HETATM   17  C   UNL     1     -10.607   5.952  67.076  1.00  0.00    -0.376 A  
HETATM   18  C   UNL     1     -10.743   7.287  67.468  1.00  0.00    -0.326 A  
ENDBRANCH  10  13
ENDBRANCH   7   8
ENDBRANCH   6   7
ENDBRANCH   3   6
ENDBRANCH   2   3
TORSDOF 6
ENDMDL
MODEL      155
REMARK 921   NORMALIZED FREE ENERGY PREDICTED BY IDOCK:   -3.58 KCAL/MOL
REMARK 922        TOTAL FREE ENERGY PREDICTED BY IDOCK:   -5.36 KCAL/MOL
REMARK 923 INTER-LIGAND FREE ENERGY PREDICTED BY IDOCK:   -4.95 KCAL/MOL
REMARK 924 INTRA-LIGAND FREE ENERGY PREDICTED BY IDOCK:   -0.41 KCAL/MOL
REMARK 927      BINDING AFFINITY PREDICTED BY RF-SCORE:    0.00 PKD
ROOT
HETATM    1  C   UNL     1     -10.372   9.097  71.160  1.00  0.00    -0.387 C  
HETATM    2  C   UNL     1      -9.574   7.819  70.910  1.00  0.00    -0.167 C  
ENDROOT
BRANCH   2   3
HETATM    3  N   UNL     1      -9.997   7.025  69.737  1.00  0.00    -0.172 NA 
BRANCH   3   4
HETATM    4  C   UNL     1     -10.843   5.870  70.074  1.00  0.00    -0.351 C  
HETATM    5  C   UNL     1     -10.527   5.168  71.391  1.00  0.00    -0.249 C  
ENDBRANCH   3   4
BRANCH   3   6
HETATM    6  C   UNL     1     -10.588   7.931  68.724  1.00  0.00    -0.127 C  
BRANCH   6   7
HETATM    7  C   UNL     1      -9.591   8.637  67.787  1.00  0.00    -0.178 C  
BRANCH   7   8
HETATM    8  C   UNL     1     -10.044  10.015  67.447  1.00  0.00    -0.208 A  
HETATM    9  N   UNL     1      -9.350  11.080  67.106  1.00  0.00    -0.163 NA 
HETATM   10  C   UNL     1     -10.329  12.053  66.991  1.00  0.00    -0.211 A  
HETATM   11  N   UNL     1     -11.570  11.590  67.223  1.00  0.00    -0.560 NA 
HETATM   12  O   UNL     1     -11.380  10.251  67.538  1.00  0.00    -0.335 OA 
BRANCH  10  13
HETATM   13  C   UNL     1     -10.045  13.456  66.688  1.00  0.00    -0.275 A  
HETATM   14  C   UNL     1      -8.880  14.081  67.154  1.00  0.00    -0.239 A  
HETATM   15  C   UNL     1      -8.643  15.435  66.886  1.00  0.00    -0.291 A  
HETATM   16  C   UNL     1      -9.563  16.178  66.146  1.00  0.00    -0.359 A  
HETATM   17  C   UNL     1     -10.718  15.567  65.665  1.00  0.00    -0.378 A  
HETATM   18  C   UNL     1     -10.955  14.215  65.932  1.00  0.00    -0.297 A  
ENDBRANCH  10  13
ENDBRANCH   7   8
ENDBRANCH   6   7
ENDBRANCH   3   6
ENDBRANCH   2   3
TORSDOF 6
ENDMDL
MODEL      156
REMARK 921   NORMALIZED FREE ENERGY PREDICTED BY IDOCK:   -3.55 KCAL/MOL
REMARK 922        TOTAL FREE ENERGY PREDICTED BY IDOCK:   -5.32 KCAL/MOL
REMARK 923 INTER-LIGAND FREE ENERGY PREDICTED BY IDOCK:   -4.78 KCAL/MOL
REMARK 924 INTRA-LIGAND FREE ENERGY PREDICTED BY IDOCK:   -0.54 KCAL/MOL
REMARK 927      BINDING AFFINITY PREDICTED BY RF-SCORE:    0.00 PKD
ROOT
HETATM    1  C   UNL     1     -11.150   6.755  68.361  1.00  0.00    -0.214 C  
HETATM    2  C   UNL     1     -10.325   6.409  67.123  1.00  0.00    -0.232 C  
ENDROOT
BRANCH   2   3
HETATM    3  N   UNL     1      -9.043   7.133  66.991  1.00  0.00    -0.130 NA 
BRANCH   3   4
HETATM    4  C   UNL     1      -7.971   6.336  66.377  1.00  0.00    -0.109 C  
HETATM    5  C   UNL     1      -7.166   5.450  67.322  1.00  0.00    -0.075 C  
ENDBRANCH   3   4
BRANCH   3   6
HETATM    6  C   UNL     1      -9.287   8.434  66.324  1.00  0.00    -0.219 C  
BRANCH   6   7
HETATM    7  C   UNL     1      -8.561   9.648  66.928  1.00  0.00    -0.132 C  
BRANCH   7   8
HETATM    8  C   UNL     1      -9.506  10.548  67.646  1.00  0.00    -0.149 A  
HETATM    9  N   UNL     1     -10.009  10.463  68.859  1.00  0.00    -0.189 NA 
HETATM   10  C   UNL     1     -10.866  11.550  68.906  1.00  0.00    -0.218 A  
HETATM   11  N   UNL     1     -10.860  12.283  67.779  1.00  0.00    -0.213 NA 
HETATM   12  O   UNL     1      -9.976  11.614  66.944  1.00  0.00    -0.198 OA 
BRANCH  10  13
HETATM   13  C   UNL     1     -11.726  11.853  70.051  1.00  0.00    -0.366 A  
HETATM   14  C   UNL     1     -12.247  10.835  70.862  1.00  0.00    -0.487 A  
HETATM   15  C   UNL     1     -13.099  11.142  71.931  1.00  0.00    -0.513 A  
HETATM   16  C   UNL     1     -13.436  12.467  72.203  1.00  0.00    -0.523 A  
HETATM   17  C   UNL     1     -12.916  13.490  71.415  1.00  0.00    -0.421 A  
HETATM   18  C   UNL     1     -12.065  13.185  70.348  1.00  0.00    -0.392 A  
ENDBRANCH  10  13
ENDBRANCH   7   8
ENDBRANCH   6   7
ENDBRANCH   3   6
ENDBRANCH   2   3
TORSDOF 6
ENDMDL
MODEL      157
REMARK 921   NORMALIZED FREE ENERGY PREDICTED BY IDOCK:   -3.53 KCAL/MOL
REMARK 922        TOTAL FREE ENERGY PREDICTED BY IDOCK:   -5.30 KCAL/MOL
REMARK 923 INTER-LIGAND FREE ENERGY PREDICTED BY IDOCK:   -4.78 KCAL/MOL
REMARK 924 INTRA-LIGAND FREE ENERGY PREDICTED BY IDOCK:   -0.52 KCAL/MOL
REMARK 927      BINDING AFFINITY PREDICTED BY RF-SCORE:    0.00 PKD
ROOT
HETATM    1  C   UNL     1     -10.237  17.583  68.865  1.00  0.00    -0.353 C  
HETATM    2  C   UNL     1     -10.362  17.369  67.358  1.00  0.00    -0.343 C  
ENDROOT
BRANCH   2   3
HETATM    3  N   UNL     1     -10.547  15.967  66.928  1.00  0.00    -0.314 NA 
BRANCH   3   4
HETATM    4  C   UNL     1      -9.442  15.447  66.108  1.00  0.00    -0.336 C  
HETATM    5  C   UNL     1      -8.107  15.257  66.820  1.00  0.00    -0.166 C  
ENDBRANCH   3   4
BRANCH   3   6
HETATM    6  C   UNL     1     -10.865  15.134  68.111  1.00  0.00    -0.266 C  
BRANCH   6   7
HETATM    7  C   UNL     1     -12.060  14.176  67.960  1.00  0.00    -0.303 C  
BRANCH   7   8
HETATM    8  C   UNL     1     -11.649  12.756  68.151  1.00  0.00    -0.336 A  
HETATM    9  N   UNL     1     -10.828  12.216  69.026  1.00  0.00    -0.197 NA 
HETATM   10  C   UNL     1     -10.813  10.886  68.643  1.00  0.00    -0.217 A  
HETATM   11  N   UNL     1     -11.616  10.623  67.597  1.00  0.00    -0.447 NA 
HETATM   12  O   UNL     1     -12.155  11.858  67.263  1.00  0.00    -0.582 OA 
BRANCH  10  13
HETATM   13  C   UNL     1      -9.977   9.869  69.283  1.00  0.00    -0.217 A  
HETATM   14  C   UNL     1      -8.815  10.217  69.986  1.00  0.00    -0.008 A  
HETATM   15  C   UNL     1      -8.007   9.227  70.560  1.00  0.00    -0.188 A  
HETATM   16  C   UNL     1      -8.353   7.881  70.441  1.00  0.00    -0.121 A  
HETATM   17  C   UNL     1      -9.511   7.521  69.758  1.00  0.00    -0.156 A  
HETATM   18  C   UNL     1     -10.318   8.509  69.185  1.00  0.00    -0.227 A  
ENDBRANCH  10  13
ENDBRANCH   7   8
ENDBRANCH   6   7
ENDBRANCH   3   6
ENDBRANCH   2   3
TORSDOF 6
ENDMDL
MODEL      158
REMARK 921   NORMALIZED FREE ENERGY PREDICTED BY IDOCK:   -3.50 KCAL/MOL
REMARK 922        TOTAL FREE ENERGY PREDICTED BY IDOCK:   -5.26 KCAL/MOL
REMARK 923 INTER-LIGAND FREE ENERGY PREDICTED BY IDOCK:   -4.74 KCAL/MOL
REMARK 924 INTRA-LIGAND FREE ENERGY PREDICTED BY IDOCK:   -0.52 KCAL/MOL
REMARK 927      BINDING AFFINITY PREDICTED BY RF-SCORE:    0.00 PKD
ROOT
HETATM    1  C   UNL     1      -9.530   2.141  70.903  1.00  0.00    -0.209 C  
HETATM    2  C   UNL     1      -9.879   3.436  71.634  1.00  0.00    -0.152 C  
ENDROOT
BRANCH   2   3
HETATM    3  N   UNL     1      -9.541   3.465  73.073  1.00  0.00    -0.110 NA 
BRANCH   3   4
HETATM    4  C   UNL     1      -8.100   3.591  73.342  1.00  0.00    -0.075 C  
HETATM    5  C   UNL     1      -7.523   5.000  73.269  1.00  0.00    -0.088 C  
ENDBRANCH   3   4
BRANCH   3   6
HETATM    6  C   UNL     1     -10.373   4.490  73.747  1.00  0.00    -0.205 C  
BRANCH   6   7
HETATM    7  C   UNL     1     -11.516   5.088  72.908  1.00  0.00    -0.306 C  
BRANCH   7   8
HETATM    8  C   UNL     1     -11.293   6.536  72.636  1.00  0.00    -0.222 A  
HETATM    9  N   UNL     1     -11.946   7.366  71.850  1.00  0.00    -0.293 NA 
HETATM   10  C   UNL     1     -11.217   8.536  71.978  1.00  0.00    -0.348 A  
HETATM   11  N   UNL     1     -10.182   8.430  72.829  1.00  0.00    -0.257 NA 
HETATM   12  O   UNL     1     -10.224   7.108  73.251  1.00  0.00    -0.233 OA 
BRANCH  10  13
HETATM   13  C   UNL     1     -11.514   9.760  71.230  1.00  0.00    -0.457 A  
HETATM   14  C   UNL     1     -10.780  10.114  70.090  1.00  0.00    -0.355 A  
HETATM   15  C   UNL     1     -11.053  11.307  69.410  1.00  0.00    -0.316 A  
HETATM   16  C   UNL     1     -12.064  12.157  69.858  1.00  0.00    -0.324 A  
HETATM   17  C   UNL     1     -12.810  11.812  70.982  1.00  0.00    -0.309 A  
HETATM   18  C   UNL     1     -12.538  10.621  71.661  1.00  0.00    -0.482 A  
ENDBRANCH  10  13
ENDBRANCH   7   8
ENDBRANCH   6   7
ENDBRANCH   3   6
ENDBRANCH   2   3
TORSDOF 6
ENDMDL
MODEL      159
REMARK 921   NORMALIZED FREE ENERGY PREDICTED BY IDOCK:   -3.49 KCAL/MOL
REMARK 922        TOTAL FREE ENERGY PREDICTED BY IDOCK:   -5.24 KCAL/MOL
REMARK 923 INTER-LIGAND FREE ENERGY PREDICTED BY IDOCK:   -4.77 KCAL/MOL
REMARK 924 INTRA-LIGAND FREE ENERGY PREDICTED BY IDOCK:   -0.47 KCAL/MOL
REMARK 927      BINDING AFFINITY PREDICTED BY RF-SCORE:    0.00 PKD
ROOT
HETATM    1  C   UNL     1      -7.207  14.943  67.997  1.00  0.00    -0.143 C  
HETATM    2  C   UNL     1      -8.320  15.547  67.143  1.00  0.00    -0.214 C  
ENDROOT
BRANCH   2   3
HETATM    3  N   UNL     1      -9.464  16.108  67.893  1.00  0.00    -0.213 NA 
BRANCH   3   4
HETATM    4  C   UNL     1      -9.397  17.566  68.075  1.00  0.00    -0.272 C  
HETATM    5  C   UNL     1     -10.530  18.374  67.452  1.00  0.00    -0.443 C  
ENDBRANCH   3   4
BRANCH   3   6
HETATM    6  C   UNL     1     -10.727  15.633  67.280  1.00  0.00    -0.305 C  
BRANCH   6   7
HETATM    7  C   UNL     1     -10.601  14.442  66.314  1.00  0.00    -0.292 C  
BRANCH   7   8
HETATM    8  C   UNL     1     -10.809  13.144  67.016  1.00  0.00    -0.264 A  
HETATM    9  N   UNL     1      -9.950  12.365  67.638  1.00  0.00    -0.197 NA 
HETATM   10  C   UNL     1     -10.738  11.288  68.010  1.00  0.00    -0.203 A  
HETATM   11  N   UNL     1     -12.027  11.422  67.655  1.00  0.00    -0.626 NA 
HETATM   12  O   UNL     1     -12.071  12.639  66.987  1.00  0.00    -0.480 OA 
BRANCH  10  13
HETATM   13  C   UNL     1     -10.216  10.099  68.686  1.00  0.00    -0.193 A  
HETATM   14  C   UNL     1      -9.261  10.202  69.708  1.00  0.00    -0.175 A  
HETATM   15  C   UNL     1      -8.745   9.051  70.318  1.00  0.00    -0.202 A  
HETATM   16  C   UNL     1      -9.179   7.788  69.917  1.00  0.00    -0.146 A  
HETATM   17  C   UNL     1     -10.136   7.671  68.913  1.00  0.00    -0.202 A  
HETATM   18  C   UNL     1     -10.652   8.819  68.303  1.00  0.00    -0.194 A  
ENDBRANCH  10  13
ENDBRANCH   7   8
ENDBRANCH   6   7
ENDBRANCH   3   6
ENDBRANCH   2   3
TORSDOF 6
ENDMDL
MODEL      160
REMARK 921   NORMALIZED FREE ENERGY PREDICTED BY IDOCK:   -3.45 KCAL/MOL
REMARK 922        TOTAL FREE ENERGY PREDICTED BY IDOCK:   -5.19 KCAL/MOL
REMARK 923 INTER-LIGAND FREE ENERGY PREDICTED BY IDOCK:   -4.68 KCAL/MOL
REMARK 924 INTRA-LIGAND FREE ENERGY PREDICTED BY IDOCK:   -0.51 KCAL/MOL
REMARK 927      BINDING AFFINITY PREDICTED BY RF-SCORE:    0.00 PKD
ROOT
HETATM    1  C   UNL     1     -11.755  11.563  68.139  1.00  0.00    -0.357 C  
HETATM    2  C   UNL     1     -11.121  10.359  68.832  1.00  0.00    -0.247 C  
ENDROOT
BRANCH   2   3
HETATM    3  N   UNL     1     -11.186  10.369  70.309  1.00  0.00    -0.304 NA 
BRANCH   3   4
HETATM    4  C   UNL     1     -12.535  10.134  70.846  1.00  0.00    -0.360 C  
HETATM    5  C   UNL     1     -13.104  11.232  71.739  1.00  0.00    -0.527 C  
ENDBRANCH   3   4
BRANCH   3   6
HETATM    6  C   UNL     1     -10.153   9.451  70.847  1.00  0.00    -0.296 C  
BRANCH   6   7
HETATM    7  C   UNL     1     -10.615   8.495  71.960  1.00  0.00    -0.408 C  
BRANCH   7   8
HETATM    8  C   UNL     1     -10.250   7.083  71.654  1.00  0.00    -0.194 A  
HETATM    9  N   UNL     1     -10.022   6.493  70.500  1.00  0.00    -0.183 NA 
HETATM   10  C   UNL     1      -9.805   5.177  70.874  1.00  0.00    -0.199 A  
HETATM   11  N   UNL     1      -9.868   4.983  72.202  1.00  0.00    -0.164 NA 
HETATM   12  O   UNL     1     -10.176   6.236  72.715  1.00  0.00    -0.178 OA 
BRANCH  10  13
HETATM   13  C   UNL     1      -9.570   4.093  69.919  1.00  0.00    -0.282 A  
HETATM   14  C   UNL     1      -9.527   2.754  70.331  1.00  0.00    -0.193 A  
HETATM   15  C   UNL     1      -9.264   1.733  69.409  1.00  0.00    -0.173 A  
HETATM   16  C   UNL     1      -9.045   2.038  68.066  1.00  0.00    -0.210 A  
HETATM   17  C   UNL     1      -9.097   3.362  67.639  1.00  0.00    -0.204 A  
HETATM   18  C   UNL     1      -9.360   4.382  68.559  1.00  0.00    -0.203 A  
ENDBRANCH  10  13
ENDBRANCH   7   8
ENDBRANCH   6   7
ENDBRANCH   3   6
ENDBRANCH   2   3
TORSDOF 6
ENDMDL
MODEL      161
REMARK 921   NORMALIZED FREE ENERGY PREDICTED BY IDOCK:   -3.45 KCAL/MOL
REMARK 922        TOTAL FREE ENERGY PREDICTED BY IDOCK:   -5.18 KCAL/MOL
REMARK 923 INTER-LIGAND FREE ENERGY PREDICTED BY IDOCK:   -4.65 KCAL/MOL
REMARK 924 INTRA-LIGAND FREE ENERGY PREDICTED BY IDOCK:   -0.53 KCAL/MOL
REMARK 927      BINDING AFFINITY PREDICTED BY RF-SCORE:    0.00 PKD
ROOT
HETATM    1  C   UNL     1      -9.829  10.282  64.667  1.00  0.00    -0.396 C  
HETATM    2  C   UNL     1      -9.568   9.146  65.655  1.00  0.00    -0.217 C  
ENDROOT
BRANCH   2   3
HETATM    3  N   UNL     1      -8.151   8.930  66.015  1.00  0.00    -0.109 NA 
BRANCH   3   4
HETATM    4  C   UNL     1      -7.216   9.816  65.305  1.00  0.00    -0.120 C  
HETATM    5  C   UNL     1      -6.426  10.793  66.170  1.00  0.00    -0.129 C  
ENDBRANCH   3   4
BRANCH   3   6
HETATM    6  C   UNL     1      -8.014   8.966  67.491  1.00  0.00    -0.101 C  
BRANCH   6   7
HETATM    7  C   UNL     1      -7.902   7.600  68.190  1.00  0.00    -0.121 C  
BRANCH   7   8
HETATM    8  C   UNL     1      -9.033   7.375  69.133  1.00  0.00    -0.135 A  
HETATM    9  N   UNL     1     -10.103   8.104  69.371  1.00  0.00    -0.190 NA 
HETATM   10  C   UNL     1     -10.724   7.403  70.391  1.00  0.00    -0.237 A  
HETATM   11  N   UNL     1     -10.074   6.278  70.737  1.00  0.00    -0.186 NA 
HETATM   12  O   UNL     1      -8.953   6.267  69.919  1.00  0.00    -0.139 OA 
BRANCH  10  13
HETATM   13  C   UNL     1     -11.945   7.857  71.059  1.00  0.00    -0.268 A  
HETATM   14  C   UNL     1     -13.047   7.007  71.221  1.00  0.00    -0.329 A  
HETATM   15  C   UNL     1     -14.221   7.471  71.829  1.00  0.00    -0.548 A  
HETATM   16  C   UNL     1     -14.304   8.786  72.284  1.00  0.00    -0.468 A  
HETATM   17  C   UNL     1     -13.213   9.638  72.142  1.00  0.00    -0.535 A  
HETATM   18  C   UNL     1     -12.041   9.176  71.535  1.00  0.00    -0.422 A  
ENDBRANCH  10  13
ENDBRANCH   7   8
ENDBRANCH   6   7
ENDBRANCH   3   6
ENDBRANCH   2   3
TORSDOF 6
ENDMDL
MODEL      162
REMARK 921   NORMALIZED FREE ENERGY PREDICTED BY IDOCK:   -3.44 KCAL/MOL
REMARK 922        TOTAL FREE ENERGY PREDICTED BY IDOCK:   -5.17 KCAL/MOL
REMARK 923 INTER-LIGAND FREE ENERGY PREDICTED BY IDOCK:   -4.74 KCAL/MOL
REMARK 924 INTRA-LIGAND FREE ENERGY PREDICTED BY IDOCK:   -0.44 KCAL/MOL
REMARK 927      BINDING AFFINITY PREDICTED BY RF-SCORE:    0.00 PKD
ROOT
HETATM    1  C   UNL     1     -10.634  11.450  63.649  1.00  0.00    -0.476 C  
HETATM    2  C   UNL     1      -9.993  12.245  64.785  1.00  0.00    -0.190 C  
ENDROOT
BRANCH   2   3
HETATM    3  N   UNL     1     -10.246  11.725  66.146  1.00  0.00    -0.214 NA 
BRANCH   3   4
HETATM    4  C   UNL     1      -9.494  10.501  66.464  1.00  0.00    -0.166 C  
HETATM    5  C   UNL     1     -10.323   9.239  66.676  1.00  0.00    -0.292 C  
ENDBRANCH   3   4
BRANCH   3   6
HETATM    6  C   UNL     1     -10.060  12.821  67.126  1.00  0.00    -0.234 C  
BRANCH   6   7
HETATM    7  C   UNL     1     -10.673  14.179  66.744  1.00  0.00    -0.286 C  
BRANCH   7   8
HETATM    8  C   UNL     1      -9.681  15.283  66.874  1.00  0.00    -0.233 A  
HETATM    9  N   UNL     1      -8.918  15.627  67.889  1.00  0.00    -0.179 NA 
HETATM   10  C   UNL     1      -8.281  16.762  67.415  1.00  0.00    -0.177 A  
HETATM   11  N   UNL     1      -8.621  17.075  66.152  1.00  0.00    -0.466 NA 
HETATM   12  O   UNL     1      -9.554  16.109  65.801  1.00  0.00    -0.374 OA 
BRANCH  10  13
HETATM   13  C   UNL     1      -7.360  17.568  68.217  1.00  0.00    -0.223 A  
HETATM   14  C   UNL     1      -6.067  17.116  68.518  1.00  0.00    -0.149 A  
HETATM   15  C   UNL     1      -5.213  17.885  69.319  1.00  0.00    -0.183 A  
HETATM   16  C   UNL     1      -5.639  19.113  69.824  1.00  0.00    -0.240 A  
HETATM   17  C   UNL     1      -6.915  19.581  69.523  1.00  0.00    -0.302 A  
HETATM   18  C   UNL     1      -7.768  18.815  68.724  1.00  0.00    -0.351 A  
ENDBRANCH  10  13
ENDBRANCH   7   8
ENDBRANCH   6   7
ENDBRANCH   3   6
ENDBRANCH   2   3
TORSDOF 6
ENDMDL
MODEL      163
REMARK 921   NORMALIZED FREE ENERGY PREDICTED BY IDOCK:   -3.43 KCAL/MOL
REMARK 922        TOTAL FREE ENERGY PREDICTED BY IDOCK:   -5.16 KCAL/MOL
REMARK 923 INTER-LIGAND FREE ENERGY PREDICTED BY IDOCK:   -4.72 KCAL/MOL
REMARK 924 INTRA-LIGAND FREE ENERGY PREDICTED BY IDOCK:   -0.44 KCAL/MOL
REMARK 927      BINDING AFFINITY PREDICTED BY RF-SCORE:    0.00 PKD
ROOT
HETATM    1  C   UNL     1     -10.558   6.348  67.925  1.00  0.00    -0.321 C  
HETATM    2  C   UNL     1     -10.365   6.201  69.433  1.00  0.00    -0.227 C  
ENDROOT
BRANCH   2   3
HETATM    3  N   UNL     1      -9.121   6.787  69.976  1.00  0.00    -0.148 NA 
BRANCH   3   4
HETATM    4  C   UNL     1      -7.913   6.008  69.665  1.00  0.00    -0.106 C  
HETATM    5  C   UNL     1      -7.174   5.408  70.856  1.00  0.00    -0.073 C  
ENDBRANCH   3   4
BRANCH   3   6
HETATM    6  C   UNL     1      -9.041   8.212  69.576  1.00  0.00    -0.151 C  
BRANCH   6   7
HETATM    7  C   UNL     1      -9.953   9.181  70.348  1.00  0.00    -0.263 C  
BRANCH   7   8
HETATM    8  C   UNL     1     -10.602  10.164  69.436  1.00  0.00    -0.237 A  
HETATM    9  N   UNL     1     -10.086  10.919  68.489  1.00  0.00    -0.176 NA 
HETATM   10  C   UNL     1     -11.179  11.654  68.062  1.00  0.00    -0.263 A  
HETATM   11  N   UNL     1     -12.318  11.337  68.702  1.00  0.00    -0.449 NA 
HETATM   12  O   UNL     1     -11.935  10.366  69.617  1.00  0.00    -0.222 OA 
BRANCH  10  13
HETATM   13  C   UNL     1     -11.100  12.703  67.045  1.00  0.00    -0.322 A  
HETATM   14  C   UNL     1     -11.172  12.401  65.678  1.00  0.00    -0.360 A  
HETATM   15  C   UNL     1     -11.057  13.414  64.717  1.00  0.00    -0.363 A  
HETATM   16  C   UNL     1     -10.873  14.739  65.111  1.00  0.00    -0.417 A  
HETATM   17  C   UNL     1     -10.814  15.056  66.465  1.00  0.00    -0.320 A  
HETATM   18  C   UNL     1     -10.929  14.046  67.425  1.00  0.00    -0.302 A  
ENDBRANCH  10  13
ENDBRANCH   7   8
ENDBRANCH   6   7
ENDBRANCH   3   6
ENDBRANCH   2   3
TORSDOF 6
ENDMDL
MODEL      164
REMARK 921   NORMALIZED FREE ENERGY PREDICTED BY IDOCK:   -3.42 KCAL/MOL
REMARK 922        TOTAL FREE ENERGY PREDICTED BY IDOCK:   -5.14 KCAL/MOL
REMARK 923 INTER-LIGAND FREE ENERGY PREDICTED BY IDOCK:   -4.51 KCAL/MOL
REMARK 924 INTRA-LIGAND FREE ENERGY PREDICTED BY IDOCK:   -0.63 KCAL/MOL
REMARK 927      BINDING AFFINITY PREDICTED BY RF-SCORE:    0.00 PKD
ROOT
HETATM    1  C   UNL     1     -11.494  10.982  69.458  1.00  0.00    -0.370 C  
HETATM    2  C   UNL     1     -10.762  11.731  68.346  1.00  0.00    -0.219 C  
ENDROOT
BRANCH   2   3
HETATM    3  N   UNL     1     -11.054  11.273  66.971  1.00  0.00    -0.298 NA 
BRANCH   3   4
HETATM    4  C   UNL     1     -11.623  12.317  66.106  1.00  0.00    -0.390 C  
HETATM    5  C   UNL     1     -10.624  13.137  65.296  1.00  0.00    -0.325 C  
ENDBRANCH   3   4
BRANCH   3   6
HETATM    6  C   UNL     1      -9.849  10.614  66.413  1.00  0.00    -0.211 C  
BRANCH   6   7
HETATM    7  C   UNL     1      -9.943   9.091  66.218  1.00  0.00    -0.352 C  
BRANCH   7   8
HETATM    8  C   UNL     1      -9.687   8.361  67.492  1.00  0.00    -0.162 A  
HETATM    9  N   UNL     1     -10.529   7.827  68.352  1.00  0.00    -0.192 NA 
HETATM   10  C   UNL     1      -9.686   7.365  69.349  1.00  0.00    -0.159 A  
HETATM   11  N   UNL     1      -8.385   7.582  69.091  1.00  0.00    -0.133 NA 
HETATM   12  O   UNL     1      -8.386   8.252  67.874  1.00  0.00    -0.126 OA 
BRANCH  10  13
HETATM   13  C   UNL     1     -10.161   6.739  70.584  1.00  0.00    -0.204 A  
HETATM   14  C   UNL     1     -10.673   7.505  71.640  1.00  0.00    -0.242 A  
HETATM   15  C   UNL     1     -11.088   6.891  72.829  1.00  0.00    -0.304 A  
HETATM   16  C   UNL     1     -10.999   5.506  72.973  1.00  0.00    -0.336 A  
HETATM   17  C   UNL     1     -10.505   4.732  71.928  1.00  0.00    -0.201 A  
HETATM   18  C   UNL     1     -10.091   5.343  70.741  1.00  0.00    -0.287 A  
ENDBRANCH  10  13
ENDBRANCH   7   8
ENDBRANCH   6   7
ENDBRANCH   3   6
ENDBRANCH   2   3
TORSDOF 6
ENDMDL
MODEL      165
REMARK 921   NORMALIZED FREE ENERGY PREDICTED BY IDOCK:   -3.39 KCAL/MOL
REMARK 922        TOTAL FREE ENERGY PREDICTED BY IDOCK:   -5.11 KCAL/MOL
REMARK 923 INTER-LIGAND FREE ENERGY PREDICTED BY IDOCK:   -4.62 KCAL/MOL
REMARK 924 INTRA-LIGAND FREE ENERGY PREDICTED BY IDOCK:   -0.48 KCAL/MOL
REMARK 927      BINDING AFFINITY PREDICTED BY RF-SCORE:    0.00 PKD
ROOT
HETATM    1  C   UNL     1      -6.906  12.011  67.174  1.00  0.00    -0.136 C  
HETATM    2  C   UNL     1      -8.292  12.593  67.444  1.00  0.00    -0.184 C  
ENDROOT
BRANCH   2   3
HETATM    3  N   UNL     1      -9.385  12.042  66.616  1.00  0.00    -0.214 NA 
BRANCH   3   4
HETATM    4  C   UNL     1      -9.949  13.005  65.659  1.00  0.00    -0.230 C  
HETATM    5  C   UNL     1     -10.188  14.416  66.186  1.00  0.00    -0.317 C  
ENDBRANCH   3   4
BRANCH   3   6
HETATM    6  C   UNL     1      -8.935  10.770  66.001  1.00  0.00    -0.181 C  
BRANCH   6   7
HETATM    7  C   UNL     1     -10.033   9.728  65.728  1.00  0.00    -0.349 C  
BRANCH   7   8
HETATM    8  C   UNL     1     -10.322   8.909  66.939  1.00  0.00    -0.262 A  
HETATM    9  N   UNL     1     -10.259   9.223  68.215  1.00  0.00    -0.193 NA 
HETATM   10  C   UNL     1     -10.573   8.025  68.835  1.00  0.00    -0.140 A  
HETATM   11  N   UNL     1     -10.845   7.032  67.970  1.00  0.00    -0.191 NA 
HETATM   12  O   UNL     1     -10.665   7.610  66.721  1.00  0.00    -0.318 OA 
BRANCH  10  13
HETATM   13  C   UNL     1     -10.570   7.840  70.287  1.00  0.00    -0.231 A  
HETATM   14  C   UNL     1     -11.597   7.140  70.935  1.00  0.00    -0.350 A  
HETATM   15  C   UNL     1     -11.597   7.006  72.330  1.00  0.00    -0.307 A  
HETATM   16  C   UNL     1     -10.571   7.566  73.090  1.00  0.00    -0.442 A  
HETATM   17  C   UNL     1      -9.537   8.252  72.459  1.00  0.00    -0.365 A  
HETATM   18  C   UNL     1      -9.536   8.386  71.068  1.00  0.00    -0.212 A  
ENDBRANCH  10  13
ENDBRANCH   7   8
ENDBRANCH   6   7
ENDBRANCH   3   6
ENDBRANCH   2   3
TORSDOF 6
ENDMDL
MODEL      166
REMARK 921   NORMALIZED FREE ENERGY PREDICTED BY IDOCK:   -3.38 KCAL/MOL
REMARK 922        TOTAL FREE ENERGY PREDICTED BY IDOCK:   -5.09 KCAL/MOL
REMARK 923 INTER-LIGAND FREE ENERGY PREDICTED BY IDOCK:   -4.74 KCAL/MOL
REMARK 924 INTRA-LIGAND FREE ENERGY PREDICTED BY IDOCK:   -0.35 KCAL/MOL
REMARK 927      BINDING AFFINITY PREDICTED BY RF-SCORE:    0.00 PKD
ROOT
HETATM    1  C   UNL     1     -10.042  10.879  63.583  1.00  0.00    -0.414 C  
HETATM    2  C   UNL     1      -9.035  10.338  64.596  1.00  0.00    -0.211 C  
ENDROOT
BRANCH   2   3
HETATM    3  N   UNL     1      -9.329  10.646  66.012  1.00  0.00    -0.179 NA 
BRANCH   3   4
HETATM    4  C   UNL     1      -8.161  10.537  66.898  1.00  0.00    -0.120 C  
HETATM    5  C   UNL     1      -7.947  11.689  67.874  1.00  0.00    -0.132 C  
ENDBRANCH   3   4
BRANCH   3   6
HETATM    6  C   UNL     1     -10.027  11.951  66.090  1.00  0.00    -0.228 C  
BRANCH   6   7
HETATM    7  C   UNL     1     -11.446  11.921  66.685  1.00  0.00    -0.382 C  
BRANCH   7   8
HETATM    8  C   UNL     1     -11.452  11.332  68.053  1.00  0.00    -0.298 A  
HETATM    9  N   UNL     1     -11.326  10.082  68.444  1.00  0.00    -0.128 NA 
HETATM   10  C   UNL     1     -11.487  10.178  69.816  1.00  0.00    -0.228 A  
HETATM   11  N   UNL     1     -11.672  11.438  70.244  1.00  0.00    -0.325 NA 
HETATM   12  O   UNL     1     -11.664  12.197  69.082  1.00  0.00    -0.288 OA 
BRANCH  10  13
HETATM   13  C   UNL     1     -11.497   9.020  70.712  1.00  0.00    -0.331 A  
HETATM   14  C   UNL     1     -11.813   9.153  72.071  1.00  0.00    -0.407 A  
HETATM   15  C   UNL     1     -11.780   8.041  72.922  1.00  0.00    -0.222 A  
HETATM   16  C   UNL     1     -11.435   6.784  72.423  1.00  0.00    -0.302 A  
HETATM   17  C   UNL     1     -11.131   6.635  71.073  1.00  0.00    -0.330 A  
HETATM   18  C   UNL     1     -11.164   7.745  70.223  1.00  0.00    -0.215 A  
ENDBRANCH  10  13
ENDBRANCH   7   8
ENDBRANCH   6   7
ENDBRANCH   3   6
ENDBRANCH   2   3
TORSDOF 6
ENDMDL
MODEL      167
REMARK 921   NORMALIZED FREE ENERGY PREDICTED BY IDOCK:   -3.37 KCAL/MOL
REMARK 922        TOTAL FREE ENERGY PREDICTED BY IDOCK:   -5.07 KCAL/MOL
REMARK 923 INTER-LIGAND FREE ENERGY PREDICTED BY IDOCK:   -4.83 KCAL/MOL
REMARK 924 INTRA-LIGAND FREE ENERGY PREDICTED BY IDOCK:   -0.24 KCAL/MOL
REMARK 927      BINDING AFFINITY PREDICTED BY RF-SCORE:    0.00 PKD
ROOT
HETATM    1  C   UNL     1     -10.596  10.670  68.931  1.00  0.00    -0.241 C  
HETATM    2  C   UNL     1      -9.501  11.123  67.967  1.00  0.00    -0.174 C  
ENDROOT
BRANCH   2   3
HETATM    3  N   UNL     1      -9.972  11.828  66.755  1.00  0.00    -0.199 NA 
BRANCH   3   4
HETATM    4  C   UNL     1      -9.728  11.091  65.507  1.00  0.00    -0.229 C  
HETATM    5  C   UNL     1      -9.782   9.570  65.602  1.00  0.00    -0.361 C  
ENDBRANCH   3   4
BRANCH   3   6
HETATM    6  C   UNL     1     -11.383  12.238  66.949  1.00  0.00    -0.333 C  
BRANCH   6   7
HETATM    7  C   UNL     1     -11.862  13.428  66.100  1.00  0.00    -0.427 C  
BRANCH   7   8
HETATM    8  C   UNL     1     -10.911  14.572  66.177  1.00  0.00    -0.322 A  
HETATM    9  N   UNL     1      -9.902  14.788  66.994  1.00  0.00    -0.235 NA 
HETATM   10  C   UNL     1      -9.465  16.044  66.605  1.00  0.00    -0.237 A  
HETATM   11  N   UNL     1     -10.160  16.555  65.574  1.00  0.00    -0.579 NA 
HETATM   12  O   UNL     1     -11.122  15.592  65.302  1.00  0.00    -0.344 OA 
BRANCH  10  13
HETATM   13  C   UNL     1      -8.381  16.765  67.273  1.00  0.00    -0.197 A  
HETATM   14  C   UNL     1      -7.091  16.814  66.725  1.00  0.00    -0.270 A  
HETATM   15  C   UNL     1      -6.057  17.477  67.397  1.00  0.00    -0.158 A  
HETATM   16  C   UNL     1      -6.299  18.102  68.620  1.00  0.00    -0.209 A  
HETATM   17  C   UNL     1      -7.578  18.073  69.170  1.00  0.00    -0.052 A  
HETATM   18  C   UNL     1      -8.611  17.412  68.500  1.00  0.00    -0.270 A  
ENDBRANCH  10  13
ENDBRANCH   7   8
ENDBRANCH   6   7
ENDBRANCH   3   6
ENDBRANCH   2   3
TORSDOF 6
ENDMDL
MODEL      168
REMARK 921   NORMALIZED FREE ENERGY PREDICTED BY IDOCK:   -3.36 KCAL/MOL
REMARK 922        TOTAL FREE ENERGY PREDICTED BY IDOCK:   -5.06 KCAL/MOL
REMARK 923 INTER-LIGAND FREE ENERGY PREDICTED BY IDOCK:   -4.48 KCAL/MOL
REMARK 924 INTRA-LIGAND FREE ENERGY PREDICTED BY IDOCK:   -0.59 KCAL/MOL
REMARK 927      BINDING AFFINITY PREDICTED BY RF-SCORE:    0.00 PKD
ROOT
HETATM    1  C   UNL     1      -9.415   6.083  70.752  1.00  0.00    -0.189 C  
HETATM    2  C   UNL     1      -8.308   6.341  69.732  1.00  0.00    -0.125 C  
ENDROOT
BRANCH   2   3
HETATM    3  N   UNL     1      -8.603   5.907  68.350  1.00  0.00    -0.114 NA 
BRANCH   3   4
HETATM    4  C   UNL     1      -8.187   4.527  68.059  1.00  0.00    -0.094 C  
HETATM    5  C   UNL     1      -9.307   3.531  67.778  1.00  0.00    -0.246 C  
ENDBRANCH   3   4
BRANCH   3   6
HETATM    6  C   UNL     1     -10.027   6.185  68.047  1.00  0.00    -0.141 C  
BRANCH   6   7
HETATM    7  C   UNL     1     -10.292   7.156  66.883  1.00  0.00    -0.349 C  
BRANCH   7   8
HETATM    8  C   UNL     1     -10.633   8.520  67.376  1.00  0.00    -0.234 A  
HETATM    9  N   UNL     1     -10.892   9.626  66.712  1.00  0.00    -0.063 NA 
HETATM   10  C   UNL     1     -11.060  10.553  67.727  1.00  0.00    -0.317 A  
HETATM   11  N   UNL     1     -10.939  10.025  68.957  1.00  0.00    -0.225 NA 
HETATM   12  O   UNL     1     -10.643   8.689  68.726  1.00  0.00    -0.211 OA 
BRANCH  10  13
HETATM   13  C   UNL     1     -11.305  11.977  67.490  1.00  0.00    -0.387 A  
HETATM   14  C   UNL     1     -11.203  12.531  66.206  1.00  0.00    -0.359 A  
HETATM   15  C   UNL     1     -11.404  13.902  66.005  1.00  0.00    -0.324 A  
HETATM   16  C   UNL     1     -11.713  14.734  67.081  1.00  0.00    -0.351 A  
HETATM   17  C   UNL     1     -11.832  14.195  68.359  1.00  0.00    -0.388 A  
HETATM   18  C   UNL     1     -11.631  12.827  68.561  1.00  0.00    -0.358 A  
ENDBRANCH  10  13
ENDBRANCH   7   8
ENDBRANCH   6   7
ENDBRANCH   3   6
ENDBRANCH   2   3
TORSDOF 6
ENDMDL
MODEL      169
REMARK 921   NORMALIZED FREE ENERGY PREDICTED BY IDOCK:   -3.35 KCAL/MOL
REMARK 922        TOTAL FREE ENERGY PREDICTED BY IDOCK:   -5.05 KCAL/MOL
REMARK 923 INTER-LIGAND FREE ENERGY PREDICTED BY IDOCK:   -4.60 KCAL/MOL
REMARK 924 INTRA-LIGAND FREE ENERGY PREDICTED BY IDOCK:   -0.46 KCAL/MOL
REMARK 927      BINDING AFFINITY PREDICTED BY RF-SCORE:    0.00 PKD
ROOT
HETATM    1  C   UNL     1      -6.128  10.271  64.060  1.00  0.00    -0.120 C  
HETATM    2  C   UNL     1      -6.479   8.918  64.677  1.00  0.00    -0.066 C  
ENDROOT
BRANCH   2   3
HETATM    3  N   UNL     1      -7.881   8.483  64.501  1.00  0.00    -0.130 NA 
BRANCH   3   4
HETATM    4  C   UNL     1      -8.385   7.645  65.599  1.00  0.00    -0.140 C  
HETATM    5  C   UNL     1      -7.448   6.547  66.092  1.00  0.00    -0.081 C  
ENDBRANCH   3   4
BRANCH   3   6
HETATM    6  C   UNL     1      -8.723   9.667  64.208  1.00  0.00    -0.206 C  
BRANCH   6   7
HETATM    7  C   UNL     1      -9.692  10.098  65.323  1.00  0.00    -0.365 C  
BRANCH   7   8
HETATM    8  C   UNL     1      -9.934  11.568  65.299  1.00  0.00    -0.260 A  
HETATM    9  N   UNL     1      -9.808  12.469  66.251  1.00  0.00    -0.249 NA 
HETATM   10  C   UNL     1     -10.246  13.626  65.628  1.00  0.00    -0.304 A  
HETATM   11  N   UNL     1     -10.593  13.441  64.343  1.00  0.00    -0.426 NA 
HETATM   12  O   UNL     1     -10.402  12.083  64.130  1.00  0.00    -0.297 OA 
BRANCH  10  13
HETATM   13  C   UNL     1     -10.360  14.916  66.309  1.00  0.00    -0.302 A  
HETATM   14  C   UNL     1     -10.930  15.020  67.586  1.00  0.00    -0.305 A  
HETATM   15  C   UNL     1     -11.065  16.269  68.206  1.00  0.00    -0.346 A  
HETATM   16  C   UNL     1     -10.630  17.426  67.560  1.00  0.00    -0.330 A  
HETATM   17  C   UNL     1     -10.051  17.337  66.297  1.00  0.00    -0.323 A  
HETATM   18  C   UNL     1      -9.915  16.091  65.677  1.00  0.00    -0.346 A  
ENDBRANCH  10  13
ENDBRANCH   7   8
ENDBRANCH   6   7
ENDBRANCH   3   6
ENDBRANCH   2   3
TORSDOF 6
ENDMDL
MODEL      170
REMARK 921   NORMALIZED FREE ENERGY PREDICTED BY IDOCK:   -3.31 KCAL/MOL
REMARK 922        TOTAL FREE ENERGY PREDICTED BY IDOCK:   -5.00 KCAL/MOL
REMARK 923 INTER-LIGAND FREE ENERGY PREDICTED BY IDOCK:   -4.58 KCAL/MOL
REMARK 924 INTRA-LIGAND FREE ENERGY PREDICTED BY IDOCK:   -0.42 KCAL/MOL
REMARK 927      BINDING AFFINITY PREDICTED BY RF-SCORE:    0.00 PKD
ROOT
HETATM    1  C   UNL     1      -7.387   7.396  72.061  1.00  0.00    -0.072 C  
HETATM    2  C   UNL     1      -8.355   6.220  72.182  1.00  0.00    -0.109 C  
ENDROOT
BRANCH   2   3
HETATM    3  N   UNL     1      -9.595   6.332  71.384  1.00  0.00    -0.156 NA 
BRANCH   3   4
HETATM    4  C   UNL     1     -10.779   5.765  72.045  1.00  0.00    -0.233 C  
HETATM    5  C   UNL     1     -10.520   4.643  73.045  1.00  0.00    -0.258 C  
ENDBRANCH   3   4
BRANCH   3   6
HETATM    6  C   UNL     1      -9.763   7.737  70.942  1.00  0.00    -0.168 C  
BRANCH   6   7
HETATM    7  C   UNL     1     -10.309   7.935  69.518  1.00  0.00    -0.217 C  
BRANCH   7   8
HETATM    8  C   UNL     1     -10.685   9.355  69.269  1.00  0.00    -0.211 A  
HETATM    9  N   UNL     1     -11.068  10.295  70.108  1.00  0.00    -0.299 NA 
HETATM   10  C   UNL     1     -11.337  11.359  69.263  1.00  0.00    -0.289 A  
HETATM   11  N   UNL     1     -11.098  11.086  67.969  1.00  0.00    -0.262 NA 
HETATM   12  O   UNL     1     -10.683   9.762  67.971  1.00  0.00    -0.237 OA 
BRANCH  10  13
HETATM   13  C   UNL     1     -11.868  12.643  69.724  1.00  0.00    -0.379 A  
HETATM   14  C   UNL     1     -12.433  12.783  70.999  1.00  0.00    -0.369 A  
HETATM   15  C   UNL     1     -12.971  14.010  71.408  1.00  0.00    -0.427 A  
HETATM   16  C   UNL     1     -12.947  15.110  70.551  1.00  0.00    -0.366 A  
HETATM   17  C   UNL     1     -12.377  14.989  69.286  1.00  0.00    -0.129 A  
HETATM   18  C   UNL     1     -11.840  13.765  68.877  1.00  0.00    -0.396 A  
ENDBRANCH  10  13
ENDBRANCH   7   8
ENDBRANCH   6   7
ENDBRANCH   3   6
ENDBRANCH   2   3
TORSDOF 6
ENDMDL
MODEL      171
REMARK 921   NORMALIZED FREE ENERGY PREDICTED BY IDOCK:   -3.31 KCAL/MOL
REMARK 922        TOTAL FREE ENERGY PREDICTED BY IDOCK:   -4.99 KCAL/MOL
REMARK 923 INTER-LIGAND FREE ENERGY PREDICTED BY IDOCK:   -4.52 KCAL/MOL
REMARK 924 INTRA-LIGAND FREE ENERGY PREDICTED BY IDOCK:   -0.47 KCAL/MOL
REMARK 927      BINDING AFFINITY PREDICTED BY RF-SCORE:    0.00 PKD
ROOT
HETATM    1  C   UNL     1     -11.860  14.664  71.684  1.00  0.00    -0.324 C  
HETATM    2  C   UNL     1     -12.703  13.805  70.743  1.00  0.00    -0.290 C  
ENDROOT
BRANCH   2   3
HETATM    3  N   UNL     1     -12.012  12.633  70.164  1.00  0.00    -0.341 NA 
BRANCH   3   4
HETATM    4  C   UNL     1     -12.562  11.342  70.605  1.00  0.00    -0.288 C  
HETATM    5  C   UNL     1     -13.336  11.354  71.919  1.00  0.00    -0.409 C  
ENDBRANCH   3   4
BRANCH   3   6
HETATM    6  C   UNL     1     -11.943  12.789  68.691  1.00  0.00    -0.233 C  
BRANCH   6   7
HETATM    7  C   UNL     1     -10.674  12.243  68.014  1.00  0.00    -0.245 C  
BRANCH   7   8
HETATM    8  C   UNL     1      -9.650  13.310  67.833  1.00  0.00    -0.217 A  
HETATM    9  N   UNL     1      -9.715  14.603  68.069  1.00  0.00    -0.212 NA 
HETATM   10  C   UNL     1      -8.479  15.050  67.633  1.00  0.00    -0.160 A  
HETATM   11  N   UNL     1      -7.685  14.065  67.180  1.00  0.00    -0.075 NA 
HETATM   12  O   UNL     1      -8.462  12.921  67.297  1.00  0.00    -0.183 OA 
BRANCH  10  13
HETATM   13  C   UNL     1      -8.085  16.460  67.626  1.00  0.00    -0.170 A  
HETATM   14  C   UNL     1      -7.877  17.153  66.426  1.00  0.00    -0.352 A  
HETATM   15  C   UNL     1      -7.464  18.492  66.439  1.00  0.00    -0.279 A  
HETATM   16  C   UNL     1      -7.258  19.152  67.650  1.00  0.00    -0.246 A  
HETATM   17  C   UNL     1      -7.474  18.481  68.850  1.00  0.00    -0.274 A  
HETATM   18  C   UNL     1      -7.887  17.145  68.838  1.00  0.00    -0.217 A  
ENDBRANCH  10  13
ENDBRANCH   7   8
ENDBRANCH   6   7
ENDBRANCH   3   6
ENDBRANCH   2   3
TORSDOF 6
ENDMDL
MODEL      172
REMARK 921   NORMALIZED FREE ENERGY PREDICTED BY IDOCK:   -3.30 KCAL/MOL
REMARK 922        TOTAL FREE ENERGY PREDICTED BY IDOCK:   -4.99 KCAL/MOL
REMARK 923 INTER-LIGAND FREE ENERGY PREDICTED BY IDOCK:   -4.51 KCAL/MOL
REMARK 924 INTRA-LIGAND FREE ENERGY PREDICTED BY IDOCK:   -0.48 KCAL/MOL
REMARK 927      BINDING AFFINITY PREDICTED BY RF-SCORE:    0.00 PKD
ROOT
HETATM    1  C   UNL     1      -8.783   4.567  65.123  1.00  0.00    -0.135 C  
HETATM    2  C   UNL     1      -8.964   5.735  66.090  1.00  0.00    -0.149 C  
ENDROOT
BRANCH   2   3
HETATM    3  N   UNL     1      -8.207   6.960  65.756  1.00  0.00    -0.126 NA 
BRANCH   3   4
HETATM    4  C   UNL     1      -7.652   6.963  64.393  1.00  0.00    -0.108 C  
HETATM    5  C   UNL     1      -7.865   8.238  63.584  1.00  0.00    -0.152 C  
ENDBRANCH   3   4
BRANCH   3   6
HETATM    6  C   UNL     1      -9.037   8.146  66.073  1.00  0.00    -0.167 C  
BRANCH   6   7
HETATM    7  C   UNL     1     -10.252   7.894  66.982  1.00  0.00    -0.382 C  
BRANCH   7   8
HETATM    8  C   UNL     1     -10.673   9.137  67.688  1.00  0.00    -0.189 A  
HETATM    9  N   UNL     1     -10.906  10.346  67.221  1.00  0.00    -0.279 NA 
HETATM   10  C   UNL     1     -11.187  11.063  68.372  1.00  0.00    -0.274 A  
HETATM   11  N   UNL     1     -11.157  10.315  69.488  1.00  0.00    -0.248 NA 
HETATM   12  O   UNL     1     -10.804   9.049  69.039  1.00  0.00    -0.179 OA 
BRANCH  10  13
HETATM   13  C   UNL     1     -11.452  12.503  68.383  1.00  0.00    -0.355 A  
HETATM   14  C   UNL     1     -11.253  13.290  67.240  1.00  0.00    -0.320 A  
HETATM   15  C   UNL     1     -11.475  14.672  67.280  1.00  0.00    -0.386 A  
HETATM   16  C   UNL     1     -11.902  15.282  68.460  1.00  0.00    -0.305 A  
HETATM   17  C   UNL     1     -12.116  14.511  69.599  1.00  0.00    -0.369 A  
HETATM   18  C   UNL     1     -11.894  13.132  69.560  1.00  0.00    -0.383 A  
ENDBRANCH  10  13
ENDBRANCH   7   8
ENDBRANCH   6   7
ENDBRANCH   3   6
ENDBRANCH   2   3
TORSDOF 6
ENDMDL
MODEL      173
REMARK 921   NORMALIZED FREE ENERGY PREDICTED BY IDOCK:   -3.29 KCAL/MOL
REMARK 922        TOTAL FREE ENERGY PREDICTED BY IDOCK:   -4.97 KCAL/MOL
REMARK 923 INTER-LIGAND FREE ENERGY PREDICTED BY IDOCK:   -4.45 KCAL/MOL
REMARK 924 INTRA-LIGAND FREE ENERGY PREDICTED BY IDOCK:   -0.52 KCAL/MOL
REMARK 927      BINDING AFFINITY PREDICTED BY RF-SCORE:    0.00 PKD
ROOT
HETATM    1  C   UNL     1      -6.479  10.870  67.586  1.00  0.00    -0.056 C  
HETATM    2  C   UNL     1      -6.962  11.557  68.861  1.00  0.00    -0.100 C  
ENDROOT
BRANCH   2   3
HETATM    3  N   UNL     1      -7.599  12.878  68.671  1.00  0.00    -0.115 NA 
BRANCH   3   4
HETATM    4  C   UNL     1      -6.645  13.998  68.641  1.00  0.00    -0.093 C  
HETATM    5  C   UNL     1      -6.603  14.878  69.885  1.00  0.00    -0.175 C  
ENDBRANCH   3   4
BRANCH   3   6
HETATM    6  C   UNL     1      -8.498  12.818  67.494  1.00  0.00    -0.181 C  
BRANCH   6   7
HETATM    7  C   UNL     1      -9.900  13.422  67.686  1.00  0.00    -0.226 C  
BRANCH   7   8
HETATM    8  C   UNL     1     -10.667  12.699  68.739  1.00  0.00    -0.207 A  
HETATM    9  N   UNL     1     -10.638  11.432  69.096  1.00  0.00    -0.194 NA 
HETATM   10  C   UNL     1     -11.621  11.373  70.070  1.00  0.00    -0.299 A  
HETATM   11  N   UNL     1     -12.201  12.560  70.316  1.00  0.00    -0.310 NA 
HETATM   12  O   UNL     1     -11.583  13.431  69.429  1.00  0.00    -0.279 OA 
BRANCH  10  13
HETATM   13  C   UNL     1     -12.022  10.135  70.740  1.00  0.00    -0.442 A  
HETATM   14  C   UNL     1     -11.107   9.095  70.959  1.00  0.00    -0.374 A  
HETATM   15  C   UNL     1     -11.518   7.902  71.568  1.00  0.00    -0.301 A  
HETATM   16  C   UNL     1     -12.844   7.737  71.968  1.00  0.00    -0.265 A  
HETATM   17  C   UNL     1     -13.760   8.766  71.769  1.00  0.00    -0.461 A  
HETATM   18  C   UNL     1     -13.351   9.957  71.162  1.00  0.00    -0.371 A  
ENDBRANCH  10  13
ENDBRANCH   7   8
ENDBRANCH   6   7
ENDBRANCH   3   6
ENDBRANCH   2   3
TORSDOF 6
ENDMDL
MODEL      174
REMARK 921   NORMALIZED FREE ENERGY PREDICTED BY IDOCK:   -3.29 KCAL/MOL
REMARK 922        TOTAL FREE ENERGY PREDICTED BY IDOCK:   -4.97 KCAL/MOL
REMARK 923 INTER-LIGAND FREE ENERGY PREDICTED BY IDOCK:   -4.76 KCAL/MOL
REMARK 924 INTRA-LIGAND FREE ENERGY PREDICTED BY IDOCK:   -0.21 KCAL/MOL
REMARK 927      BINDING AFFINITY PREDICTED BY RF-SCORE:    0.00 PKD
ROOT
HETATM    1  C   UNL     1      -8.684   4.160  70.727  1.00  0.00    -0.120 C  
HETATM    2  C   UNL     1      -8.602   5.541  71.374  1.00  0.00    -0.131 C  
ENDROOT
BRANCH   2   3
HETATM    3  N   UNL     1      -9.449   6.584  70.756  1.00  0.00    -0.171 NA 
BRANCH   3   4
HETATM    4  C   UNL     1     -10.596   6.985  71.585  1.00  0.00    -0.204 C  
HETATM    5  C   UNL     1     -10.264   7.616  72.933  1.00  0.00    -0.356 C  
ENDBRANCH   3   4
BRANCH   3   6
HETATM    6  C   UNL     1      -8.592   7.713  70.324  1.00  0.00    -0.143 C  
BRANCH   6   7
HETATM    7  C   UNL     1      -9.301   9.065  70.137  1.00  0.00    -0.213 C  
BRANCH   7   8
HETATM    8  C   UNL     1      -9.557   9.353  68.697  1.00  0.00    -0.147 A  
HETATM    9  N   UNL     1      -9.865  10.483  68.096  1.00  0.00    -0.150 NA 
HETATM   10  C   UNL     1     -10.043  10.084  66.782  1.00  0.00    -0.226 A  
HETATM   11  N   UNL     1      -9.821   8.772  66.588  1.00  0.00    -0.241 NA 
HETATM   12  O   UNL     1      -9.516   8.288  67.852  1.00  0.00    -0.143 OA 
BRANCH  10  13
HETATM   13  C   UNL     1     -10.469  10.988  65.712  1.00  0.00    -0.290 A  
HETATM   14  C   UNL     1     -11.416  11.995  65.943  1.00  0.00    -0.392 A  
HETATM   15  C   UNL     1     -11.840  12.827  64.898  1.00  0.00    -0.424 A  
HETATM   16  C   UNL     1     -11.319  12.664  63.615  1.00  0.00    -0.544 A  
HETATM   17  C   UNL     1     -10.368  11.677  63.374  1.00  0.00    -0.482 A  
HETATM   18  C   UNL     1      -9.944  10.847  64.415  1.00  0.00    -0.381 A  
ENDBRANCH  10  13
ENDBRANCH   7   8
ENDBRANCH   6   7
ENDBRANCH   3   6
ENDBRANCH   2   3
TORSDOF 6
ENDMDL
MODEL      175
REMARK 921   NORMALIZED FREE ENERGY PREDICTED BY IDOCK:   -3.29 KCAL/MOL
REMARK 922        TOTAL FREE ENERGY PREDICTED BY IDOCK:   -4.96 KCAL/MOL
REMARK 923 INTER-LIGAND FREE ENERGY PREDICTED BY IDOCK:   -4.54 KCAL/MOL
REMARK 924 INTRA-LIGAND FREE ENERGY PREDICTED BY IDOCK:   -0.42 KCAL/MOL
REMARK 927      BINDING AFFINITY PREDICTED BY RF-SCORE:    0.00 PKD
ROOT
HETATM    1  C   UNL     1     -12.630  12.805  64.758  1.00  0.00    -0.518 C  
HETATM    2  C   UNL     1     -12.076  12.981  66.171  1.00  0.00    -0.409 C  
ENDROOT
BRANCH   2   3
HETATM    3  N   UNL     1     -10.954  13.936  66.299  1.00  0.00    -0.297 NA 
BRANCH   3   4
HETATM    4  C   UNL     1     -11.197  15.010  67.273  1.00  0.00    -0.338 C  
HETATM    5  C   UNL     1     -10.187  16.153  67.281  1.00  0.00    -0.277 C  
ENDBRANCH   3   4
BRANCH   3   6
HETATM    6  C   UNL     1      -9.699  13.183  66.530  1.00  0.00    -0.268 C  
BRANCH   6   7
HETATM    7  C   UNL     1      -9.488  12.645  67.956  1.00  0.00    -0.209 C  
BRANCH   7   8
HETATM    8  C   UNL     1      -9.584  11.159  68.000  1.00  0.00    -0.176 A  
HETATM    9  N   UNL     1     -10.222  10.370  68.838  1.00  0.00    -0.193 NA 
HETATM   10  C   UNL     1      -9.865   9.108  68.393  1.00  0.00    -0.164 A  
HETATM   11  N   UNL     1      -9.068   9.130  67.310  1.00  0.00    -0.126 NA 
HETATM   12  O   UNL     1      -8.871  10.481  67.061  1.00  0.00    -0.136 OA 
BRANCH  10  13
HETATM   13  C   UNL     1     -10.278   7.870  69.055  1.00  0.00    -0.216 A  
HETATM   14  C   UNL     1     -11.225   7.877  70.090  1.00  0.00    -0.157 A  
HETATM   15  C   UNL     1     -11.580   6.687  70.737  1.00  0.00    -0.432 A  
HETATM   16  C   UNL     1     -10.997   5.478  70.357  1.00  0.00    -0.199 A  
HETATM   17  C   UNL     1     -10.066   5.454  69.323  1.00  0.00    -0.301 A  
HETATM   18  C   UNL     1      -9.711   6.641  68.675  1.00  0.00    -0.129 A  
ENDBRANCH  10  13
ENDBRANCH   7   8
ENDBRANCH   6   7
ENDBRANCH   3   6
ENDBRANCH   2   3
TORSDOF 6
ENDMDL
MODEL      176
REMARK 921   NORMALIZED FREE ENERGY PREDICTED BY IDOCK:   -3.27 KCAL/MOL
REMARK 922        TOTAL FREE ENERGY PREDICTED BY IDOCK:   -4.95 KCAL/MOL
REMARK 923 INTER-LIGAND FREE ENERGY PREDICTED BY IDOCK:   -4.48 KCAL/MOL
REMARK 924 INTRA-LIGAND FREE ENERGY PREDICTED BY IDOCK:   -0.47 KCAL/MOL
REMARK 927      BINDING AFFINITY PREDICTED BY RF-SCORE:    0.00 PKD
ROOT
HETATM    1  C   UNL     1     -14.041   8.753  72.204  1.00  0.00    -0.519 C  
HETATM    2  C   UNL     1     -12.758   9.561  72.024  1.00  0.00    -0.396 C  
ENDROOT
BRANCH   2   3
HETATM    3  N   UNL     1     -11.524   8.765  71.854  1.00  0.00    -0.335 NA 
BRANCH   3   4
HETATM    4  C   UNL     1     -11.408   7.640  72.794  1.00  0.00    -0.367 C  
HETATM    5  C   UNL     1     -10.087   7.528  73.548  1.00  0.00    -0.378 C  
ENDBRANCH   3   4
BRANCH   3   6
HETATM    6  C   UNL     1     -11.389   8.378  70.429  1.00  0.00    -0.172 C  
BRANCH   6   7
HETATM    7  C   UNL     1     -11.622   6.892  70.109  1.00  0.00    -0.340 C  
BRANCH   7   8
HETATM    8  C   UNL     1     -10.730   6.423  69.012  1.00  0.00    -0.286 A  
HETATM    9  N   UNL     1     -11.021   5.973  67.810  1.00  0.00    -0.295 NA 
HETATM   10  C   UNL     1      -9.776   5.637  67.305  1.00  0.00    -0.135 A  
HETATM   11  N   UNL     1      -8.767   5.900  68.154  1.00  0.00    -0.112 NA 
HETATM   12  O   UNL     1      -9.397   6.404  69.285  1.00  0.00    -0.137 OA 
BRANCH  10  13
HETATM   13  C   UNL     1      -9.574   5.018  65.994  1.00  0.00    -0.179 A  
HETATM   14  C   UNL     1      -8.330   5.062  65.350  1.00  0.00    -0.132 A  
HETATM   15  C   UNL     1      -8.166   4.497  64.079  1.00  0.00    -0.106 A  
HETATM   16  C   UNL     1      -9.240   3.879  63.440  1.00  0.00    -0.125 A  
HETATM   17  C   UNL     1     -10.479   3.816  64.073  1.00  0.00    -0.271 A  
HETATM   18  C   UNL     1     -10.643   4.379  65.342  1.00  0.00    -0.192 A  
ENDBRANCH  10  13
ENDBRANCH   7   8
ENDBRANCH   6   7
ENDBRANCH   3   6
ENDBRANCH   2   3
TORSDOF 6
ENDMDL
MODEL      177
REMARK 921   NORMALIZED FREE ENERGY PREDICTED BY IDOCK:   -3.26 KCAL/MOL
REMARK 922        TOTAL FREE ENERGY PREDICTED BY IDOCK:   -4.94 KCAL/MOL
REMARK 923 INTER-LIGAND FREE ENERGY PREDICTED BY IDOCK:   -4.44 KCAL/MOL
REMARK 924 INTRA-LIGAND FREE ENERGY PREDICTED BY IDOCK:   -0.50 KCAL/MOL
REMARK 927      BINDING AFFINITY PREDICTED BY RF-SCORE:    0.00 PKD
ROOT
HETATM    1  C   UNL     1      -9.858  10.562  63.691  1.00  0.00    -0.354 C  
HETATM    2  C   UNL     1      -9.721  11.406  64.957  1.00  0.00    -0.250 C  
ENDROOT
BRANCH   2   3
HETATM    3  N   UNL     1     -10.287  10.808  66.185  1.00  0.00    -0.248 NA 
BRANCH   3   4
HETATM    4  C   UNL     1      -9.390   9.848  66.846  1.00  0.00    -0.152 C  
HETATM    5  C   UNL     1      -7.955  10.313  67.069  1.00  0.00    -0.111 C  
ENDBRANCH   3   4
BRANCH   3   6
HETATM    6  C   UNL     1     -10.775  11.890  67.072  1.00  0.00    -0.240 C  
BRANCH   6   7
HETATM    7  C   UNL     1     -11.108  13.226  66.385  1.00  0.00    -0.313 C  
BRANCH   7   8
HETATM    8  C   UNL     1     -10.583  14.385  67.161  1.00  0.00    -0.277 A  
HETATM    9  N   UNL     1      -9.607  15.223  66.885  1.00  0.00    -0.225 NA 
HETATM   10  C   UNL     1      -9.564  16.017  68.019  1.00  0.00    -0.215 A  
HETATM   11  N   UNL     1     -10.496  15.694  68.932  1.00  0.00    -0.212 NA 
HETATM   12  O   UNL     1     -11.158  14.609  68.373  1.00  0.00    -0.241 OA 
BRANCH  10  13
HETATM   13  C   UNL     1      -8.578  17.079  68.226  1.00  0.00    -0.234 A  
HETATM   14  C   UNL     1      -8.971  18.398  68.489  1.00  0.00    -0.336 A  
HETATM   15  C   UNL     1      -8.013  19.408  68.647  1.00  0.00    -0.403 A  
HETATM   16  C   UNL     1      -6.654  19.110  68.549  1.00  0.00    -0.284 A  
HETATM   17  C   UNL     1      -6.248  17.802  68.301  1.00  0.00    -0.176 A  
HETATM   18  C   UNL     1      -7.204  16.793  68.144  1.00  0.00    -0.166 A  
ENDBRANCH  10  13
ENDBRANCH   7   8
ENDBRANCH   6   7
ENDBRANCH   3   6
ENDBRANCH   2   3
TORSDOF 6
ENDMDL
MODEL      178
REMARK 921   NORMALIZED FREE ENERGY PREDICTED BY IDOCK:   -3.26 KCAL/MOL
REMARK 922        TOTAL FREE ENERGY PREDICTED BY IDOCK:   -4.93 KCAL/MOL
REMARK 923 INTER-LIGAND FREE ENERGY PREDICTED BY IDOCK:   -4.44 KCAL/MOL
REMARK 924 INTRA-LIGAND FREE ENERGY PREDICTED BY IDOCK:   -0.49 KCAL/MOL
REMARK 927      BINDING AFFINITY PREDICTED BY RF-SCORE:    0.00 PKD
ROOT
HETATM    1  C   UNL     1     -10.435   4.006  64.526  1.00  0.00    -0.215 C  
HETATM    2  C   UNL     1      -9.617   4.522  65.708  1.00  0.00    -0.188 C  
ENDROOT
BRANCH   2   3
HETATM    3  N   UNL     1      -9.177   3.492  66.674  1.00  0.00    -0.167 NA 
BRANCH   3   4
HETATM    4  C   UNL     1      -7.977   2.754  66.249  1.00  0.00    -0.082 C  
HETATM    5  C   UNL     1      -6.887   3.576  65.570  1.00  0.00    -0.053 C  
ENDBRANCH   3   4
BRANCH   3   6
HETATM    6  C   UNL     1      -9.066   4.104  68.019  1.00  0.00    -0.136 C  
BRANCH   6   7
HETATM    7  C   UNL     1      -8.780   5.615  68.051  1.00  0.00    -0.099 C  
BRANCH   7   8
HETATM    8  C   UNL     1      -9.493   6.283  69.176  1.00  0.00    -0.133 A  
HETATM    9  N   UNL     1     -10.781   6.464  69.381  1.00  0.00    -0.257 NA 
HETATM   10  C   UNL     1     -10.797   7.204  70.551  1.00  0.00    -0.246 A  
HETATM   11  N   UNL     1      -9.572   7.437  71.052  1.00  0.00    -0.162 NA 
HETATM   12  O   UNL     1      -8.712   6.842  70.138  1.00  0.00    -0.139 OA 
BRANCH  10  13
HETATM   13  C   UNL     1     -12.022   7.721  71.164  1.00  0.00    -0.312 A  
HETATM   14  C   UNL     1     -13.133   6.895  71.381  1.00  0.00    -0.316 A  
HETATM   15  C   UNL     1     -14.310   7.416  71.934  1.00  0.00    -0.520 A  
HETATM   16  C   UNL     1     -14.388   8.764  72.280  1.00  0.00    -0.468 A  
HETATM   17  C   UNL     1     -13.287   9.594  72.083  1.00  0.00    -0.545 A  
HETATM   18  C   UNL     1     -12.112   9.075  71.531  1.00  0.00    -0.410 A  
ENDBRANCH  10  13
ENDBRANCH   7   8
ENDBRANCH   6   7
ENDBRANCH   3   6
ENDBRANCH   2   3
TORSDOF 6
ENDMDL
MODEL      179
REMARK 921   NORMALIZED FREE ENERGY PREDICTED BY IDOCK:   -3.26 KCAL/MOL
REMARK 922        TOTAL FREE ENERGY PREDICTED BY IDOCK:   -4.92 KCAL/MOL
REMARK 923 INTER-LIGAND FREE ENERGY PREDICTED BY IDOCK:   -4.53 KCAL/MOL
REMARK 924 INTRA-LIGAND FREE ENERGY PREDICTED BY IDOCK:   -0.39 KCAL/MOL
REMARK 927      BINDING AFFINITY PREDICTED BY RF-SCORE:    0.00 PKD
ROOT
HETATM    1  C   UNL     1     -13.306  10.088  71.033  1.00  0.00    -0.334 C  
HETATM    2  C   UNL     1     -12.107  10.861  70.485  1.00  0.00    -0.371 C  
ENDROOT
BRANCH   2   3
HETATM    3  N   UNL     1     -11.969  10.859  69.013  1.00  0.00    -0.407 NA 
BRANCH   3   4
HETATM    4  C   UNL     1     -11.750  12.194  68.435  1.00  0.00    -0.332 C  
HETATM    5  C   UNL     1     -10.337  12.492  67.946  1.00  0.00    -0.219 C  
ENDBRANCH   3   4
BRANCH   3   6
HETATM    6  C   UNL     1     -10.949   9.857  68.622  1.00  0.00    -0.179 C  
BRANCH   6   7
HETATM    7  C   UNL     1     -10.085   9.294  69.763  1.00  0.00    -0.218 C  
BRANCH   7   8
HETATM    8  C   UNL     1     -10.252   7.820  69.900  1.00  0.00    -0.213 A  
HETATM    9  N   UNL     1      -9.468   6.834  69.519  1.00  0.00    -0.149 NA 
HETATM   10  C   UNL     1     -10.206   5.714  69.862  1.00  0.00    -0.250 A  
HETATM   11  N   UNL     1     -11.376   6.007  70.455  1.00  0.00    -0.314 NA 
HETATM   12  O   UNL     1     -11.414   7.394  70.466  1.00  0.00    -0.282 OA 
BRANCH  10  13
HETATM   13  C   UNL     1      -9.778   4.344  69.573  1.00  0.00    -0.280 A  
HETATM   14  C   UNL     1      -9.628   3.889  68.256  1.00  0.00    -0.178 A  
HETATM   15  C   UNL     1      -9.254   2.563  67.999  1.00  0.00    -0.254 A  
HETATM   16  C   UNL     1      -9.023   1.681  69.054  1.00  0.00    -0.141 A  
HETATM   17  C   UNL     1      -9.155   2.122  70.367  1.00  0.00    -0.167 A  
HETATM   18  C   UNL     1      -9.528   3.445  70.625  1.00  0.00    -0.243 A  
ENDBRANCH  10  13
ENDBRANCH   7   8
ENDBRANCH   6   7
ENDBRANCH   3   6
ENDBRANCH   2   3
TORSDOF 6
ENDMDL
MODEL      180
REMARK 921   NORMALIZED FREE ENERGY PREDICTED BY IDOCK:   -3.23 KCAL/MOL
REMARK 922        TOTAL FREE ENERGY PREDICTED BY IDOCK:   -4.88 KCAL/MOL
REMARK 923 INTER-LIGAND FREE ENERGY PREDICTED BY IDOCK:   -4.45 KCAL/MOL
REMARK 924 INTRA-LIGAND FREE ENERGY PREDICTED BY IDOCK:   -0.44 KCAL/MOL
REMARK 927      BINDING AFFINITY PREDICTED BY RF-SCORE:    0.00 PKD
ROOT
HETATM    1  C   UNL     1      -9.814   7.971  67.359  1.00  0.00    -0.244 C  
HETATM    2  C   UNL     1     -10.427   7.714  68.735  1.00  0.00    -0.189 C  
ENDROOT
BRANCH   2   3
HETATM    3  N   UNL     1      -9.712   8.328  69.874  1.00  0.00    -0.178 NA 
BRANCH   3   4
HETATM    4  C   UNL     1      -8.382   7.751  70.121  1.00  0.00    -0.128 C  
HETATM    5  C   UNL     1      -8.320   6.233  70.248  1.00  0.00    -0.126 C  
ENDBRANCH   3   4
BRANCH   3   6
HETATM    6  C   UNL     1      -9.711   9.801  69.710  1.00  0.00    -0.229 C  
BRANCH   6   7
HETATM    7  C   UNL     1     -11.075  10.497  69.866  1.00  0.00    -0.371 C  
BRANCH   7   8
HETATM    8  C   UNL     1     -11.055  11.872  69.291  1.00  0.00    -0.203 A  
HETATM    9  N   UNL     1     -10.168  12.459  68.516  1.00  0.00    -0.225 NA 
HETATM   10  C   UNL     1     -10.680  13.740  68.391  1.00  0.00    -0.254 A  
HETATM   11  N   UNL     1     -11.845  13.914  69.038  1.00  0.00    -0.338 NA 
HETATM   12  O   UNL     1     -12.084  12.688  69.644  1.00  0.00    -0.283 OA 
BRANCH  10  13
HETATM   13  C   UNL     1     -10.003  14.814  67.662  1.00  0.00    -0.226 A  
HETATM   14  C   UNL     1     -10.727  15.798  66.974  1.00  0.00    -0.306 A  
HETATM   15  C   UNL     1     -10.062  16.796  66.251  1.00  0.00    -0.338 A  
HETATM   16  C   UNL     1      -8.668  16.824  66.209  1.00  0.00    -0.342 A  
HETATM   17  C   UNL     1      -7.936  15.862  66.898  1.00  0.00    -0.287 A  
HETATM   18  C   UNL     1      -8.598  14.865  67.621  1.00  0.00    -0.181 A  
ENDBRANCH  10  13
ENDBRANCH   7   8
ENDBRANCH   6   7
ENDBRANCH   3   6
ENDBRANCH   2   3
TORSDOF 6
ENDMDL
MODEL      181
REMARK 921   NORMALIZED FREE ENERGY PREDICTED BY IDOCK:   -3.22 KCAL/MOL
REMARK 922        TOTAL FREE ENERGY PREDICTED BY IDOCK:   -4.88 KCAL/MOL
REMARK 923 INTER-LIGAND FREE ENERGY PREDICTED BY IDOCK:   -5.13 KCAL/MOL
REMARK 924 INTRA-LIGAND FREE ENERGY PREDICTED BY IDOCK:    0.25 KCAL/MOL
REMARK 927      BINDING AFFINITY PREDICTED BY RF-SCORE:    0.00 PKD
ROOT
HETATM    1  C   UNL     1     -12.088  12.996  65.897  1.00  0.00    -0.503 C  
HETATM    2  C   UNL     1     -10.711  12.342  65.796  1.00  0.00    -0.267 C  
ENDROOT
BRANCH   2   3
HETATM    3  N   UNL     1      -9.759  12.695  66.871  1.00  0.00    -0.228 NA 
BRANCH   3   4
HETATM    4  C   UNL     1      -8.376  12.277  66.600  1.00  0.00    -0.014 C  
HETATM    5  C   UNL     1      -7.674  11.512  67.717  1.00  0.00    -0.124 C  
ENDBRANCH   3   4
BRANCH   3   6
HETATM    6  C   UNL     1      -9.903  14.134  67.194  1.00  0.00    -0.253 C  
BRANCH   6   7
HETATM    7  C   UNL     1     -10.064  15.082  65.992  1.00  0.00    -0.322 C  
BRANCH   7   8
HETATM    8  C   UNL     1      -9.379  16.384  66.229  1.00  0.00    -0.315 A  
HETATM    9  N   UNL     1      -8.327  16.673  66.965  1.00  0.00    -0.173 NA 
HETATM   10  C   UNL     1      -8.234  18.048  66.829  1.00  0.00    -0.251 A  
HETATM   11  N   UNL     1      -9.172  18.569  66.020  1.00  0.00    -0.493 NA 
HETATM   12  O   UNL     1      -9.936  17.475  65.636  1.00  0.00    -0.561 OA 
BRANCH  10  13
HETATM   13  C   UNL     1      -7.239  18.864  67.528  1.00  0.00    -0.229 A  
HETATM   14  C   UNL     1      -7.138  20.244  67.300  1.00  0.00    -0.321 A  
HETATM   15  C   UNL     1      -6.155  21.002  67.949  1.00  0.00    -0.408 A  
HETATM   16  C   UNL     1      -5.267  20.392  68.835  1.00  0.00    -0.271 A  
HETATM   17  C   UNL     1      -5.365  19.025  69.082  1.00  0.00    -0.202 A  
HETATM   18  C   UNL     1      -6.345  18.268  68.434  1.00  0.00    -0.198 A  
ENDBRANCH  10  13
ENDBRANCH   7   8
ENDBRANCH   6   7
ENDBRANCH   3   6
ENDBRANCH   2   3
TORSDOF 6
ENDMDL
MODEL      182
REMARK 921   NORMALIZED FREE ENERGY PREDICTED BY IDOCK:   -3.21 KCAL/MOL
REMARK 922        TOTAL FREE ENERGY PREDICTED BY IDOCK:   -4.86 KCAL/MOL
REMARK 923 INTER-LIGAND FREE ENERGY PREDICTED BY IDOCK:   -4.31 KCAL/MOL
REMARK 924 INTRA-LIGAND FREE ENERGY PREDICTED BY IDOCK:   -0.55 KCAL/MOL
REMARK 927      BINDING AFFINITY PREDICTED BY RF-SCORE:    0.00 PKD
ROOT
HETATM    1  C   UNL     1     -11.181  11.357  69.120  1.00  0.00    -0.335 C  
HETATM    2  C   UNL     1     -10.501  12.238  68.074  1.00  0.00    -0.218 C  
ENDROOT
BRANCH   2   3
HETATM    3  N   UNL     1     -11.057  12.146  66.707  1.00  0.00    -0.283 NA 
BRANCH   3   4
HETATM    4  C   UNL     1     -11.732  13.372  66.257  1.00  0.00    -0.366 C  
HETATM    5  C   UNL     1     -12.517  13.268  64.953  1.00  0.00    -0.465 C  
ENDBRANCH   3   4
BRANCH   3   6
HETATM    6  C   UNL     1     -10.001  11.664  65.785  1.00  0.00    -0.237 C  
BRANCH   6   7
HETATM    7  C   UNL     1     -10.236  10.280  65.156  1.00  0.00    -0.295 C  
BRANCH   7   8
HETATM    8  C   UNL     1      -9.681   9.191  66.008  1.00  0.00    -0.287 A  
HETATM    9  N   UNL     1     -10.277   8.163  66.573  1.00  0.00    -0.250 NA 
HETATM   10  C   UNL     1      -9.246   7.570  67.282  1.00  0.00    -0.131 A  
HETATM   11  N   UNL     1      -8.065   8.195  67.129  1.00  0.00    -0.115 NA 
HETATM   12  O   UNL     1      -8.355   9.271  66.302  1.00  0.00    -0.118 OA 
BRANCH  10  13
HETATM   13  C   UNL     1      -9.425   6.403  68.147  1.00  0.00    -0.114 A  
HETATM   14  C   UNL     1      -9.822   6.540  69.485  1.00  0.00    -0.167 A  
HETATM   15  C   UNL     1      -9.952   5.414  70.308  1.00  0.00    -0.298 A  
HETATM   16  C   UNL     1      -9.691   4.140  69.804  1.00  0.00    -0.278 A  
HETATM   17  C   UNL     1      -9.309   3.988  68.474  1.00  0.00    -0.221 A  
HETATM   18  C   UNL     1      -9.179   5.111  67.651  1.00  0.00    -0.127 A  
ENDBRANCH  10  13
ENDBRANCH   7   8
ENDBRANCH   6   7
ENDBRANCH   3   6
ENDBRANCH   2   3
TORSDOF 6
ENDMDL
MODEL      183
REMARK 921   NORMALIZED FREE ENERGY PREDICTED BY IDOCK:   -3.19 KCAL/MOL
REMARK 922        TOTAL FREE ENERGY PREDICTED BY IDOCK:   -4.83 KCAL/MOL
REMARK 923 INTER-LIGAND FREE ENERGY PREDICTED BY IDOCK:   -4.23 KCAL/MOL
REMARK 924 INTRA-LIGAND FREE ENERGY PREDICTED BY IDOCK:   -0.60 KCAL/MOL
REMARK 927      BINDING AFFINITY PREDICTED BY RF-SCORE:    0.00 PKD
ROOT
HETATM    1  C   UNL     1     -10.100   5.026  69.342  1.00  0.00    -0.288 C  
HETATM    2  C   UNL     1      -9.651   4.394  68.027  1.00  0.00    -0.148 C  
ENDROOT
BRANCH   2   3
HETATM    3  N   UNL     1      -8.700   5.196  67.227  1.00  0.00    -0.104 NA 
BRANCH   3   4
HETATM    4  C   UNL     1      -7.553   4.428  66.722  1.00  0.00    -0.086 C  
HETATM    5  C   UNL     1      -7.624   2.915  66.902  1.00  0.00    -0.074 C  
ENDBRANCH   3   4
BRANCH   3   6
HETATM    6  C   UNL     1      -9.447   5.929  66.177  1.00  0.00    -0.106 C  
BRANCH   6   7
HETATM    7  C   UNL     1      -9.170   7.439  66.084  1.00  0.00    -0.148 C  
BRANCH   7   8
HETATM    8  C   UNL     1      -9.477   8.132  67.367  1.00  0.00    -0.155 A  
HETATM    9  N   UNL     1     -10.593   8.683  67.793  1.00  0.00    -0.218 NA 
HETATM   10  C   UNL     1     -10.218   9.214  69.015  1.00  0.00    -0.207 A  
HETATM   11  N   UNL     1      -8.935   8.969  69.333  1.00  0.00    -0.142 NA 
HETATM   12  O   UNL     1      -8.443   8.269  68.240  1.00  0.00    -0.133 OA 
BRANCH  10  13
HETATM   13  C   UNL     1     -11.114  10.002  69.864  1.00  0.00    -0.336 A  
HETATM   14  C   UNL     1     -11.308  11.373  69.646  1.00  0.00    -0.347 A  
HETATM   15  C   UNL     1     -12.140  12.118  70.492  1.00  0.00    -0.383 A  
HETATM   16  C   UNL     1     -12.789  11.501  71.561  1.00  0.00    -0.485 A  
HETATM   17  C   UNL     1     -12.617  10.137  71.782  1.00  0.00    -0.500 A  
HETATM   18  C   UNL     1     -11.787   9.393  70.938  1.00  0.00    -0.365 A  
ENDBRANCH  10  13
ENDBRANCH   7   8
ENDBRANCH   6   7
ENDBRANCH   3   6
ENDBRANCH   2   3
TORSDOF 6
ENDMDL
MODEL      184
REMARK 921   NORMALIZED FREE ENERGY PREDICTED BY IDOCK:   -3.18 KCAL/MOL
REMARK 922        TOTAL FREE ENERGY PREDICTED BY IDOCK:   -4.82 KCAL/MOL
REMARK 923 INTER-LIGAND FREE ENERGY PREDICTED BY IDOCK:   -4.32 KCAL/MOL
REMARK 924 INTRA-LIGAND FREE ENERGY PREDICTED BY IDOCK:   -0.51 KCAL/MOL
REMARK 927      BINDING AFFINITY PREDICTED BY RF-SCORE:    0.00 PKD
ROOT
HETATM    1  C   UNL     1     -11.525  11.616  67.682  1.00  0.00    -0.373 C  
HETATM    2  C   UNL     1     -10.905  12.695  66.798  1.00  0.00    -0.250 C  
ENDROOT
BRANCH   2   3
HETATM    3  N   UNL     1     -11.553  12.891  65.484  1.00  0.00    -0.340 NA 
BRANCH   3   4
HETATM    4  C   UNL     1     -12.522  13.997  65.458  1.00  0.00    -0.509 C  
HETATM    5  C   UNL     1     -12.323  15.041  64.364  1.00  0.00    -0.283 C  
ENDBRANCH   3   4
BRANCH   3   6
HETATM    6  C   UNL     1     -10.509  12.977  64.435  1.00  0.00    -0.404 C  
BRANCH   6   7
HETATM    7  C   UNL     1     -10.591  11.926  63.314  1.00  0.00    -0.420 C  
BRANCH   7   8
HETATM    8  C   UNL     1      -9.795  10.711  63.646  1.00  0.00    -0.333 A  
HETATM    9  N   UNL     1      -9.393  10.247  64.810  1.00  0.00    -0.235 NA 
HETATM   10  C   UNL     1      -8.644   9.139  64.449  1.00  0.00    -0.181 A  
HETATM   11  N   UNL     1      -8.618   8.922  63.123  1.00  0.00    -0.164 NA 
HETATM   12  O   UNL     1      -9.364   9.966  62.592  1.00  0.00    -0.287 OA 
BRANCH  10  13
HETATM   13  C   UNL     1      -7.917   8.307  65.409  1.00  0.00    -0.127 A  
HETATM   14  C   UNL     1      -6.691   8.720  65.950  1.00  0.00    -0.064 A  
HETATM   15  C   UNL     1      -5.991   7.893  66.838  1.00  0.00    -0.052 A  
HETATM   16  C   UNL     1      -6.508   6.649  67.197  1.00  0.00    -0.042 A  
HETATM   17  C   UNL     1      -7.731   6.231  66.678  1.00  0.00    -0.100 A  
HETATM   18  C   UNL     1      -8.430   7.056  65.792  1.00  0.00    -0.154 A  
ENDBRANCH  10  13
ENDBRANCH   7   8
ENDBRANCH   6   7
ENDBRANCH   3   6
ENDBRANCH   2   3
TORSDOF 6
ENDMDL
MODEL      185
REMARK 921   NORMALIZED FREE ENERGY PREDICTED BY IDOCK:   -3.18 KCAL/MOL
REMARK 922        TOTAL FREE ENERGY PREDICTED BY IDOCK:   -4.82 KCAL/MOL
REMARK 923 INTER-LIGAND FREE ENERGY PREDICTED BY IDOCK:   -4.35 KCAL/MOL
REMARK 924 INTRA-LIGAND FREE ENERGY PREDICTED BY IDOCK:   -0.47 KCAL/MOL
REMARK 927      BINDING AFFINITY PREDICTED BY RF-SCORE:    0.00 PKD
ROOT
HETATM    1  C   UNL     1      -8.086   9.227  65.117  1.00  0.00    -0.124 C  
HETATM    2  C   UNL     1      -9.519   9.002  65.594  1.00  0.00    -0.203 C  
ENDROOT
BRANCH   2   3
HETATM    3  N   UNL     1      -9.682   8.807  67.050  1.00  0.00    -0.180 NA 
BRANCH   3   4
HETATM    4  C   UNL     1      -9.788   7.396  67.452  1.00  0.00    -0.169 C  
HETATM    5  C   UNL     1     -11.089   6.689  67.086  1.00  0.00    -0.427 C  
ENDBRANCH   3   4
BRANCH   3   6
HETATM    6  C   UNL     1      -8.623   9.560  67.763  1.00  0.00    -0.115 C  
BRANCH   6   7
HETATM    7  C   UNL     1      -9.082  10.379  68.982  1.00  0.00    -0.193 C  
BRANCH   7   8
HETATM    8  C   UNL     1      -9.597  11.717  68.579  1.00  0.00    -0.170 A  
HETATM    9  N   UNL     1      -8.964  12.762  68.089  1.00  0.00    -0.197 NA 
HETATM   10  C   UNL     1      -9.972  13.706  67.993  1.00  0.00    -0.247 A  
HETATM   11  N   UNL     1     -11.174  13.244  68.379  1.00  0.00    -0.263 NA 
HETATM   12  O   UNL     1     -10.924  11.939  68.780  1.00  0.00    -0.213 OA 
BRANCH  10  13
HETATM   13  C   UNL     1      -9.751  15.085  67.553  1.00  0.00    -0.215 A  
HETATM   14  C   UNL     1     -10.591  16.127  67.970  1.00  0.00    -0.304 A  
HETATM   15  C   UNL     1     -10.385  17.434  67.509  1.00  0.00    -0.351 A  
HETATM   16  C   UNL     1      -9.339  17.714  66.631  1.00  0.00    -0.289 A  
HETATM   17  C   UNL     1      -8.488  16.691  66.219  1.00  0.00    -0.355 A  
HETATM   18  C   UNL     1      -8.692  15.387  66.679  1.00  0.00    -0.332 A  
ENDBRANCH  10  13
ENDBRANCH   7   8
ENDBRANCH   6   7
ENDBRANCH   3   6
ENDBRANCH   2   3
TORSDOF 6
ENDMDL
MODEL      186
REMARK 921   NORMALIZED FREE ENERGY PREDICTED BY IDOCK:   -3.15 KCAL/MOL
REMARK 922        TOTAL FREE ENERGY PREDICTED BY IDOCK:   -4.78 KCAL/MOL
REMARK 923 INTER-LIGAND FREE ENERGY PREDICTED BY IDOCK:   -4.31 KCAL/MOL
REMARK 924 INTRA-LIGAND FREE ENERGY PREDICTED BY IDOCK:   -0.47 KCAL/MOL
REMARK 927      BINDING AFFINITY PREDICTED BY RF-SCORE:    0.00 PKD
ROOT
HETATM    1  C   UNL     1      -9.520  10.020  64.547  1.00  0.00    -0.359 C  
HETATM    2  C   UNL     1      -9.053   8.888  65.461  1.00  0.00    -0.190 C  
ENDROOT
BRANCH   2   3
HETATM    3  N   UNL     1      -7.588   8.714  65.560  1.00  0.00    -0.085 NA 
BRANCH   3   4
HETATM    4  C   UNL     1      -6.845   9.270  64.419  1.00  0.00    -0.086 C  
HETATM    5  C   UNL     1      -6.350   8.266  63.384  1.00  0.00    -0.080 C  
ENDBRANCH   3   4
BRANCH   3   6
HETATM    6  C   UNL     1      -7.129   9.207  66.880  1.00  0.00    -0.082 C  
BRANCH   6   7
HETATM    7  C   UNL     1      -7.087   8.165  68.012  1.00  0.00    -0.086 C  
BRANCH   7   8
HETATM    8  C   UNL     1      -8.269   8.288  68.910  1.00  0.00    -0.116 A  
HETATM    9  N   UNL     1      -9.176   9.238  69.001  1.00  0.00    -0.142 NA 
HETATM   10  C   UNL     1      -9.957   8.807  70.061  1.00  0.00    -0.187 A  
HETATM   11  N   UNL     1      -9.559   7.629  70.572  1.00  0.00    -0.168 NA 
HETATM   12  O   UNL     1      -8.438   7.294  69.824  1.00  0.00    -0.133 OA 
BRANCH  10  13
HETATM   13  C   UNL     1     -11.080   9.573  70.602  1.00  0.00    -0.364 A  
HETATM   14  C   UNL     1     -11.344  10.881  70.174  1.00  0.00    -0.367 A  
HETATM   15  C   UNL     1     -12.402  11.613  70.730  1.00  0.00    -0.454 A  
HETATM   16  C   UNL     1     -13.208  11.044  71.716  1.00  0.00    -0.505 A  
HETATM   17  C   UNL     1     -12.966   9.741  72.142  1.00  0.00    -0.483 A  
HETATM   18  C   UNL     1     -11.911   9.010  71.587  1.00  0.00    -0.426 A  
ENDBRANCH  10  13
ENDBRANCH   7   8
ENDBRANCH   6   7
ENDBRANCH   3   6
ENDBRANCH   2   3
TORSDOF 6
ENDMDL
MODEL      187
REMARK 921   NORMALIZED FREE ENERGY PREDICTED BY IDOCK:   -3.12 KCAL/MOL
REMARK 922        TOTAL FREE ENERGY PREDICTED BY IDOCK:   -4.74 KCAL/MOL
REMARK 923 INTER-LIGAND FREE ENERGY PREDICTED BY IDOCK:   -4.27 KCAL/MOL
REMARK 924 INTRA-LIGAND FREE ENERGY PREDICTED BY IDOCK:   -0.47 KCAL/MOL
REMARK 927      BINDING AFFINITY PREDICTED BY RF-SCORE:    0.00 PKD
ROOT
HETATM    1  C   UNL     1     -11.749  12.003  69.648  1.00  0.00    -0.405 C  
HETATM    2  C   UNL     1     -11.899  10.509  69.931  1.00  0.00    -0.282 C  
ENDROOT
BRANCH   2   3
HETATM    3  N   UNL     1     -11.903  10.130  71.360  1.00  0.00    -0.359 NA 
BRANCH   3   4
HETATM    4  C   UNL     1     -13.247   9.909  71.912  1.00  0.00    -0.458 C  
HETATM    5  C   UNL     1     -13.818   8.504  71.752  1.00  0.00    -0.462 C  
ENDBRANCH   3   4
BRANCH   3   6
HETATM    6  C   UNL     1     -10.971   8.995  71.563  1.00  0.00    -0.348 C  
BRANCH   6   7
HETATM    7  C   UNL     1      -9.655   9.052  70.769  1.00  0.00    -0.308 C  
BRANCH   7   8
HETATM    8  C   UNL     1      -9.440   7.808  69.977  1.00  0.00    -0.161 A  
HETATM    9  N   UNL     1      -9.250   7.642  68.685  1.00  0.00    -0.142 NA 
HETATM   10  C   UNL     1      -9.189   6.264  68.566  1.00  0.00    -0.123 A  
HETATM   11  N   UNL     1      -9.307   5.621  69.740  1.00  0.00    -0.140 NA 
HETATM   12  O   UNL     1      -9.487   6.637  70.668  1.00  0.00    -0.168 OA 
BRANCH  10  13
HETATM   13  C   UNL     1      -9.052   5.568  67.285  1.00  0.00    -0.110 A  
HETATM   14  C   UNL     1      -8.453   6.188  66.179  1.00  0.00    -0.137 A  
HETATM   15  C   UNL     1      -8.364   5.520  64.951  1.00  0.00    -0.142 A  
HETATM   16  C   UNL     1      -8.868   4.227  64.815  1.00  0.00    -0.140 A  
HETATM   17  C   UNL     1      -9.454   3.594  65.908  1.00  0.00    -0.163 A  
HETATM   18  C   UNL     1      -9.542   4.259  67.135  1.00  0.00    -0.224 A  
ENDBRANCH  10  13
ENDBRANCH   7   8
ENDBRANCH   6   7
ENDBRANCH   3   6
ENDBRANCH   2   3
TORSDOF 6
ENDMDL
MODEL      188
REMARK 921   NORMALIZED FREE ENERGY PREDICTED BY IDOCK:   -3.12 KCAL/MOL
REMARK 922        TOTAL FREE ENERGY PREDICTED BY IDOCK:   -4.74 KCAL/MOL
REMARK 923 INTER-LIGAND FREE ENERGY PREDICTED BY IDOCK:   -4.24 KCAL/MOL
REMARK 924 INTRA-LIGAND FREE ENERGY PREDICTED BY IDOCK:   -0.50 KCAL/MOL
REMARK 927      BINDING AFFINITY PREDICTED BY RF-SCORE:    0.00 PKD
ROOT
HETATM    1  C   UNL     1     -12.764  12.947  65.239  1.00  0.00    -0.389 C  
HETATM    2  C   UNL     1     -11.346  12.381  65.253  1.00  0.00    -0.332 C  
ENDROOT
BRANCH   2   3
HETATM    3  N   UNL     1     -10.523  12.756  66.423  1.00  0.00    -0.248 NA 
BRANCH   3   4
HETATM    4  C   UNL     1     -11.294  13.353  67.525  1.00  0.00    -0.298 C  
HETATM    5  C   UNL     1     -10.481  13.942  68.673  1.00  0.00    -0.249 C  
ENDBRANCH   3   4
BRANCH   3   6
HETATM    6  C   UNL     1      -9.693  11.597  66.825  1.00  0.00    -0.201 C  
BRANCH   6   7
HETATM    7  C   UNL     1     -10.448  10.279  67.069  1.00  0.00    -0.304 C  
BRANCH   7   8
HETATM    8  C   UNL     1      -9.867   9.520  68.212  1.00  0.00    -0.155 A  
HETATM    9  N   UNL     1     -10.422   9.111  69.334  1.00  0.00    -0.216 NA 
HETATM   10  C   UNL     1      -9.355   8.534  70.003  1.00  0.00    -0.163 A  
HETATM   11  N   UNL     1      -8.207   8.564  69.303  1.00  0.00    -0.113 NA 
HETATM   12  O   UNL     1      -8.541   9.227  68.130  1.00  0.00    -0.124 OA 
BRANCH  10  13
HETATM   13  C   UNL     1      -9.452   7.982  71.355  1.00  0.00    -0.194 A  
HETATM   14  C   UNL     1     -10.651   8.032  72.079  1.00  0.00    -0.310 A  
HETATM   15  C   UNL     1     -10.714   7.532  73.386  1.00  0.00    -0.387 A  
HETATM   16  C   UNL     1      -9.583   6.973  73.981  1.00  0.00    -0.308 A  
HETATM   17  C   UNL     1      -8.389   6.904  73.269  1.00  0.00    -0.131 A  
HETATM   18  C   UNL     1      -8.325   7.403  71.965  1.00  0.00    -0.117 A  
ENDBRANCH  10  13
ENDBRANCH   7   8
ENDBRANCH   6   7
ENDBRANCH   3   6
ENDBRANCH   2   3
TORSDOF 6
ENDMDL
MODEL      189
REMARK 921   NORMALIZED FREE ENERGY PREDICTED BY IDOCK:   -3.09 KCAL/MOL
REMARK 922        TOTAL FREE ENERGY PREDICTED BY IDOCK:   -4.71 KCAL/MOL
REMARK 923 INTER-LIGAND FREE ENERGY PREDICTED BY IDOCK:   -4.19 KCAL/MOL
REMARK 924 INTRA-LIGAND FREE ENERGY PREDICTED BY IDOCK:   -0.51 KCAL/MOL
REMARK 927      BINDING AFFINITY PREDICTED BY RF-SCORE:    0.00 PKD
ROOT
HETATM    1  C   UNL     1      -7.998   4.191  65.324  1.00  0.00    -0.097 C  
HETATM    2  C   UNL     1      -8.734   5.191  66.214  1.00  0.00    -0.119 C  
ENDROOT
BRANCH   2   3
HETATM    3  N   UNL     1      -7.882   5.957  67.149  1.00  0.00    -0.101 NA 
BRANCH   3   4
HETATM    4  C   UNL     1      -6.575   6.333  66.589  1.00  0.00    -0.051 C  
HETATM    5  C   UNL     1      -6.540   7.613  65.762  1.00  0.00    -0.045 C  
ENDBRANCH   3   4
BRANCH   3   6
HETATM    6  C   UNL     1      -8.659   7.098  67.689  1.00  0.00    -0.122 C  
BRANCH   6   7
HETATM    7  C   UNL     1     -10.038   7.338  67.050  1.00  0.00    -0.316 C  
BRANCH   7   8
HETATM    8  C   UNL     1     -10.430   8.774  67.120  1.00  0.00    -0.283 A  
HETATM    9  N   UNL     1     -10.569   9.668  66.164  1.00  0.00    -0.025 NA 
HETATM   10  C   UNL     1     -10.876  10.818  66.871  1.00  0.00    -0.229 A  
HETATM   11  N   UNL     1     -10.952  10.624  68.199  1.00  0.00    -0.248 NA 
HETATM   12  O   UNL     1     -10.643   9.280  68.364  1.00  0.00    -0.218 OA 
BRANCH  10  13
HETATM   13  C   UNL     1     -11.062  12.127  66.244  1.00  0.00    -0.353 A  
HETATM   14  C   UNL     1     -10.287  12.527  65.146  1.00  0.00    -0.312 A  
HETATM   15  C   UNL     1     -10.452  13.798  64.583  1.00  0.00    -0.433 A  
HETATM   16  C   UNL     1     -11.395  14.683  65.107  1.00  0.00    -0.375 A  
HETATM   17  C   UNL     1     -12.181  14.295  66.188  1.00  0.00    -0.430 A  
HETATM   18  C   UNL     1     -12.017  13.026  66.751  1.00  0.00    -0.434 A  
ENDBRANCH  10  13
ENDBRANCH   7   8
ENDBRANCH   6   7
ENDBRANCH   3   6
ENDBRANCH   2   3
TORSDOF 6
ENDMDL
MODEL      190
REMARK 921   NORMALIZED FREE ENERGY PREDICTED BY IDOCK:   -3.09 KCAL/MOL
REMARK 922        TOTAL FREE ENERGY PREDICTED BY IDOCK:   -4.70 KCAL/MOL
REMARK 923 INTER-LIGAND FREE ENERGY PREDICTED BY IDOCK:   -4.45 KCAL/MOL
REMARK 924 INTRA-LIGAND FREE ENERGY PREDICTED BY IDOCK:   -0.25 KCAL/MOL
REMARK 927      BINDING AFFINITY PREDICTED BY RF-SCORE:    0.00 PKD
ROOT
HETATM    1  C   UNL     1      -8.949   9.562  63.704  1.00  0.00    -0.207 C  
HETATM    2  C   UNL     1      -8.069   8.764  64.664  1.00  0.00    -0.157 C  
ENDROOT
BRANCH   2   3
HETATM    3  N   UNL     1      -8.522   8.742  66.072  1.00  0.00    -0.127 NA 
BRANCH   3   4
HETATM    4  C   UNL     1      -7.819   9.701  66.937  1.00  0.00    -0.102 C  
HETATM    5  C   UNL     1      -6.906  10.698  66.232  1.00  0.00    -0.133 C  
ENDBRANCH   3   4
BRANCH   3   6
HETATM    6  C   UNL     1      -9.999   8.864  66.109  1.00  0.00    -0.220 C  
BRANCH   6   7
HETATM    7  C   UNL     1     -10.573   9.769  67.213  1.00  0.00    -0.320 C  
BRANCH   7   8
HETATM    8  C   UNL     1     -10.590  11.198  66.794  1.00  0.00    -0.263 A  
HETATM    9  N   UNL     1     -10.242  12.284  67.451  1.00  0.00    -0.202 NA 
HETATM   10  C   UNL     1     -10.555  13.291  66.554  1.00  0.00    -0.286 A  
HETATM   11  N   UNL     1     -11.044  12.835  65.388  1.00  0.00    -0.279 NA 
HETATM   12  O   UNL     1     -11.082  11.456  65.552  1.00  0.00    -0.239 OA 
BRANCH  10  13
HETATM   13  C   UNL     1     -10.408  14.716  66.855  1.00  0.00    -0.264 A  
HETATM   14  C   UNL     1      -9.561  15.538  66.098  1.00  0.00    -0.362 A  
HETATM   15  C   UNL     1      -9.404  16.891  66.424  1.00  0.00    -0.303 A  
HETATM   16  C   UNL     1     -10.094  17.439  67.506  1.00  0.00    -0.322 A  
HETATM   17  C   UNL     1     -10.949  16.638  68.258  1.00  0.00    -0.341 A  
HETATM   18  C   UNL     1     -11.106  15.287  67.933  1.00  0.00    -0.321 A  
ENDBRANCH  10  13
ENDBRANCH   7   8
ENDBRANCH   6   7
ENDBRANCH   3   6
ENDBRANCH   2   3
TORSDOF 6
ENDMDL
MODEL      191
REMARK 921   NORMALIZED FREE ENERGY PREDICTED BY IDOCK:   -3.09 KCAL/MOL
REMARK 922        TOTAL FREE ENERGY PREDICTED BY IDOCK:   -4.70 KCAL/MOL
REMARK 923 INTER-LIGAND FREE ENERGY PREDICTED BY IDOCK:   -4.20 KCAL/MOL
REMARK 924 INTRA-LIGAND FREE ENERGY PREDICTED BY IDOCK:   -0.50 KCAL/MOL
REMARK 927      BINDING AFFINITY PREDICTED BY RF-SCORE:    0.00 PKD
ROOT
HETATM    1  C   UNL     1      -6.479  11.410  67.977  1.00  0.00    -0.057 C  
HETATM    2  C   UNL     1      -7.810  11.458  68.724  1.00  0.00    -0.128 C  
ENDROOT
BRANCH   2   3
HETATM    3  N   UNL     1      -8.833  12.355  68.144  1.00  0.00    -0.188 NA 
BRANCH   3   4
HETATM    4  C   UNL     1      -8.330  13.199  67.050  1.00  0.00    -0.085 C  
HETATM    5  C   UNL     1      -8.881  14.620  66.989  1.00  0.00    -0.262 C  
ENDBRANCH   3   4
BRANCH   3   6
HETATM    6  C   UNL     1     -10.032  11.559  67.792  1.00  0.00    -0.183 C  
BRANCH   6   7
HETATM    7  C   UNL     1     -11.191  11.603  68.803  1.00  0.00    -0.304 C  
BRANCH   7   8
HETATM    8  C   UNL     1     -11.137  10.451  69.746  1.00  0.00    -0.295 A  
HETATM    9  N   UNL     1     -10.757   9.206  69.551  1.00  0.00    -0.229 NA 
HETATM   10  C   UNL     1     -11.006   8.620  70.780  1.00  0.00    -0.245 A  
HETATM   11  N   UNL     1     -11.488   9.480  71.694  1.00  0.00    -0.389 NA 
HETATM   12  O   UNL     1     -11.589  10.683  71.008  1.00  0.00    -0.299 OA 
BRANCH  10  13
HETATM   13  C   UNL     1     -10.804   7.196  71.053  1.00  0.00    -0.262 A  
HETATM   14  C   UNL     1     -11.072   6.650  72.317  1.00  0.00    -0.292 A  
HETATM   15  C   UNL     1     -10.837   5.293  72.570  1.00  0.00    -0.301 A  
HETATM   16  C   UNL     1     -10.337   4.466  71.564  1.00  0.00    -0.096 A  
HETATM   17  C   UNL     1     -10.079   4.991  70.301  1.00  0.00    -0.339 A  
HETATM   18  C   UNL     1     -10.313   6.346  70.047  1.00  0.00    -0.245 A  
ENDBRANCH  10  13
ENDBRANCH   7   8
ENDBRANCH   6   7
ENDBRANCH   3   6
ENDBRANCH   2   3
TORSDOF 6
ENDMDL
MODEL      192
REMARK 921   NORMALIZED FREE ENERGY PREDICTED BY IDOCK:   -3.02 KCAL/MOL
REMARK 922        TOTAL FREE ENERGY PREDICTED BY IDOCK:   -4.61 KCAL/MOL
REMARK 923 INTER-LIGAND FREE ENERGY PREDICTED BY IDOCK:   -4.06 KCAL/MOL
REMARK 924 INTRA-LIGAND FREE ENERGY PREDICTED BY IDOCK:   -0.55 KCAL/MOL
REMARK 927      BINDING AFFINITY PREDICTED BY RF-SCORE:    0.00 PKD
ROOT
HETATM    1  C   UNL     1      -8.449   5.303  62.483  1.00  0.00    -0.113 C  
HETATM    2  C   UNL     1      -9.211   4.342  63.393  1.00  0.00    -0.135 C  
ENDROOT
BRANCH   2   3
HETATM    3  N   UNL     1      -8.412   3.716  64.469  1.00  0.00    -0.096 NA 
BRANCH   3   4
HETATM    4  C   UNL     1      -7.102   4.348  64.680  1.00  0.00    -0.061 C  
HETATM    5  C   UNL     1      -6.408   4.032  66.001  1.00  0.00    -0.033 C  
ENDBRANCH   3   4
BRANCH   3   6
HETATM    6  C   UNL     1      -9.241   3.616  65.694  1.00  0.00    -0.156 C  
BRANCH   6   7
HETATM    7  C   UNL     1     -10.303   4.714  65.880  1.00  0.00    -0.315 C  
BRANCH   7   8
HETATM    8  C   UNL     1     -10.307   5.238  67.275  1.00  0.00    -0.199 A  
HETATM    9  N   UNL     1     -11.095   6.120  67.852  1.00  0.00    -0.304 NA 
HETATM   10  C   UNL     1     -10.547   6.229  69.119  1.00  0.00    -0.268 A  
HETATM   11  N   UNL     1      -9.489   5.424  69.314  1.00  0.00    -0.126 NA 
HETATM   12  O   UNL     1      -9.321   4.782  68.094  1.00  0.00    -0.121 OA 
BRANCH  10  13
HETATM   13  C   UNL     1     -11.042   7.158  70.137  1.00  0.00    -0.301 A  
HETATM   14  C   UNL     1     -12.206   6.885  70.869  1.00  0.00    -0.404 A  
HETATM   15  C   UNL     1     -12.685   7.803  71.812  1.00  0.00    -0.354 A  
HETATM   16  C   UNL     1     -12.005   9.000  72.037  1.00  0.00    -0.433 A  
HETATM   17  C   UNL     1     -10.841   9.278  71.327  1.00  0.00    -0.417 A  
HETATM   18  C   UNL     1     -10.362   8.363  70.385  1.00  0.00    -0.219 A  
ENDBRANCH  10  13
ENDBRANCH   7   8
ENDBRANCH   6   7
ENDBRANCH   3   6
ENDBRANCH   2   3
TORSDOF 6
ENDMDL
MODEL      193
REMARK 921   NORMALIZED FREE ENERGY PREDICTED BY IDOCK:   -3.02 KCAL/MOL
REMARK 922        TOTAL FREE ENERGY PREDICTED BY IDOCK:   -4.61 KCAL/MOL
REMARK 923 INTER-LIGAND FREE ENERGY PREDICTED BY IDOCK:   -4.80 KCAL/MOL
REMARK 924 INTRA-LIGAND FREE ENERGY PREDICTED BY IDOCK:    0.19 KCAL/MOL
REMARK 927      BINDING AFFINITY PREDICTED BY RF-SCORE:    0.00 PKD
ROOT
HETATM    1  C   UNL     1      -7.748  13.700  67.489  1.00  0.00    -0.183 C  
HETATM    2  C   UNL     1      -8.241  12.339  67.976  1.00  0.00    -0.163 C  
ENDROOT
BRANCH   2   3
HETATM    3  N   UNL     1      -9.288  11.708  67.145  1.00  0.00    -0.172 NA 
BRANCH   3   4
HETATM    4  C   UNL     1      -9.334  10.242  67.260  1.00  0.00    -0.149 C  
HETATM    5  C   UNL     1      -7.993   9.520  67.191  1.00  0.00    -0.102 C  
ENDBRANCH   3   4
BRANCH   3   6
HETATM    6  C   UNL     1     -10.585  12.376  67.408  1.00  0.00    -0.216 C  
BRANCH   6   7
HETATM    7  C   UNL     1     -10.720  13.070  68.775  1.00  0.00    -0.250 C  
BRANCH   7   8
HETATM    8  C   UNL     1     -10.924  14.538  68.623  1.00  0.00    -0.251 A  
HETATM    9  N   UNL     1     -10.203  15.438  67.988  1.00  0.00    -0.233 NA 
HETATM   10  C   UNL     1     -10.871  16.616  68.278  1.00  0.00    -0.356 A  
HETATM   11  N   UNL     1     -11.970  16.436  69.031  1.00  0.00     0.003 NA 
HETATM   12  O   UNL     1     -11.996  15.069  69.271  1.00  0.00    -0.307 OA 
BRANCH  10  13
HETATM   13  C   UNL     1     -10.409  17.935  67.843  1.00  0.00    -0.396 A  
HETATM   14  C   UNL     1     -10.877  18.518  66.657  1.00  0.00    -0.131 A  
HETATM   15  C   UNL     1     -10.395  19.765  66.238  1.00  0.00    -0.626 A  
HETATM   16  C   UNL     1      -9.444  20.444  67.000  1.00  0.00    -0.544 A  
HETATM   17  C   UNL     1      -8.980  19.883  68.187  1.00  0.00    -0.330 A  
HETATM   18  C   UNL     1      -9.460  18.639  68.606  1.00  0.00    -0.396 A  
ENDBRANCH  10  13
ENDBRANCH   7   8
ENDBRANCH   6   7
ENDBRANCH   3   6
ENDBRANCH   2   3
TORSDOF 6
ENDMDL
MODEL      194
REMARK 921   NORMALIZED FREE ENERGY PREDICTED BY IDOCK:   -3.02 KCAL/MOL
REMARK 922        TOTAL FREE ENERGY PREDICTED BY IDOCK:   -4.60 KCAL/MOL
REMARK 923 INTER-LIGAND FREE ENERGY PREDICTED BY IDOCK:   -4.08 KCAL/MOL
REMARK 924 INTRA-LIGAND FREE ENERGY PREDICTED BY IDOCK:   -0.52 KCAL/MOL
REMARK 927      BINDING AFFINITY PREDICTED BY RF-SCORE:    0.00 PKD
ROOT
HETATM    1  C   UNL     1      -8.127   6.981  66.155  1.00  0.00    -0.119 C  
HETATM    2  C   UNL     1      -7.807   6.209  67.434  1.00  0.00    -0.098 C  
ENDROOT
BRANCH   2   3
HETATM    3  N   UNL     1      -8.979   5.734  68.199  1.00  0.00    -0.115 NA 
BRANCH   3   4
HETATM    4  C   UNL     1      -9.148   4.273  68.181  1.00  0.00    -0.131 C  
HETATM    5  C   UNL     1      -7.980   3.468  67.621  1.00  0.00    -0.081 C  
ENDBRANCH   3   4
BRANCH   3   6
HETATM    6  C   UNL     1      -8.942   6.321  69.559  1.00  0.00    -0.134 C  
BRANCH   6   7
HETATM    7  C   UNL     1     -10.306   6.674  70.179  1.00  0.00    -0.236 C  
BRANCH   7   8
HETATM    8  C   UNL     1     -10.647   8.109  69.968  1.00  0.00    -0.239 A  
HETATM    9  N   UNL     1     -10.682   8.823  68.863  1.00  0.00    -0.145 NA 
HETATM   10  C   UNL     1     -10.995  10.087  69.333  1.00  0.00    -0.244 A  
HETATM   11  N   UNL     1     -11.174  10.133  70.664  1.00  0.00    -0.325 NA 
HETATM   12  O   UNL     1     -10.929   8.832  71.085  1.00  0.00    -0.237 OA 
BRANCH  10  13
HETATM   13  C   UNL     1     -11.085  11.270  68.475  1.00  0.00    -0.288 A  
HETATM   14  C   UNL     1     -11.497  12.510  68.982  1.00  0.00    -0.355 A  
HETATM   15  C   UNL     1     -11.613  13.622  68.138  1.00  0.00    -0.367 A  
HETATM   16  C   UNL     1     -11.316  13.508  66.780  1.00  0.00    -0.351 A  
HETATM   17  C   UNL     1     -10.893  12.286  66.264  1.00  0.00    -0.313 A  
HETATM   18  C   UNL     1     -10.777  11.176  67.106  1.00  0.00    -0.305 A  
ENDBRANCH  10  13
ENDBRANCH   7   8
ENDBRANCH   6   7
ENDBRANCH   3   6
ENDBRANCH   2   3
TORSDOF 6
ENDMDL
MODEL      195
REMARK 921   NORMALIZED FREE ENERGY PREDICTED BY IDOCK:   -2.99 KCAL/MOL
REMARK 922        TOTAL FREE ENERGY PREDICTED BY IDOCK:   -4.56 KCAL/MOL
REMARK 923 INTER-LIGAND FREE ENERGY PREDICTED BY IDOCK:   -4.10 KCAL/MOL
REMARK 924 INTRA-LIGAND FREE ENERGY PREDICTED BY IDOCK:   -0.46 KCAL/MOL
REMARK 927      BINDING AFFINITY PREDICTED BY RF-SCORE:    0.00 PKD
ROOT
HETATM    1  C   UNL     1     -11.855  11.971  69.656  1.00  0.00    -0.401 C  
HETATM    2  C   UNL     1     -11.901  10.493  70.040  1.00  0.00    -0.308 C  
ENDROOT
BRANCH   2   3
HETATM    3  N   UNL     1     -11.937  10.215  71.492  1.00  0.00    -0.359 NA 
BRANCH   3   4
HETATM    4  C   UNL     1     -13.282   9.921  72.008  1.00  0.00    -0.456 C  
HETATM    5  C   UNL     1     -13.769   8.486  71.838  1.00  0.00    -0.455 C  
ENDBRANCH   3   4
BRANCH   3   6
HETATM    6  C   UNL     1     -10.927   9.178  71.812  1.00  0.00    -0.359 C  
BRANCH   6   7
HETATM    7  C   UNL     1      -9.709   9.110  70.874  1.00  0.00    -0.352 C  
BRANCH   7   8
HETATM    8  C   UNL     1      -9.196   7.717  70.745  1.00  0.00    -0.157 A  
HETATM    9  N   UNL     1      -9.179   6.908  69.707  1.00  0.00    -0.147 NA 
HETATM   10  C   UNL     1      -8.645   5.747  70.241  1.00  0.00    -0.133 A  
HETATM   11  N   UNL     1      -8.323   5.857  71.542  1.00  0.00    -0.126 NA 
HETATM   12  O   UNL     1      -8.700   7.150  71.877  1.00  0.00    -0.120 OA 
BRANCH  10  13
HETATM   13  C   UNL     1      -8.483   4.507  69.481  1.00  0.00    -0.093 A  
HETATM   14  C   UNL     1      -9.486   4.045  68.617  1.00  0.00    -0.220 A  
HETATM   15  C   UNL     1      -9.329   2.836  67.926  1.00  0.00    -0.251 A  
HETATM   16  C   UNL     1      -8.169   2.079  68.088  1.00  0.00    -0.072 A  
HETATM   17  C   UNL     1      -7.159   2.532  68.932  1.00  0.00    -0.044 A  
HETATM   18  C   UNL     1      -7.314   3.738  69.622  1.00  0.00    -0.049 A  
ENDBRANCH  10  13
ENDBRANCH   7   8
ENDBRANCH   6   7
ENDBRANCH   3   6
ENDBRANCH   2   3
TORSDOF 6
ENDMDL
MODEL      196
REMARK 921   NORMALIZED FREE ENERGY PREDICTED BY IDOCK:   -2.98 KCAL/MOL
REMARK 922        TOTAL FREE ENERGY PREDICTED BY IDOCK:   -4.55 KCAL/MOL
REMARK 923 INTER-LIGAND FREE ENERGY PREDICTED BY IDOCK:   -4.07 KCAL/MOL
REMARK 924 INTRA-LIGAND FREE ENERGY PREDICTED BY IDOCK:   -0.48 KCAL/MOL
REMARK 927      BINDING AFFINITY PREDICTED BY RF-SCORE:    0.00 PKD
ROOT
HETATM    1  C   UNL     1      -9.299  10.361  64.068  1.00  0.00    -0.321 C  
HETATM    2  C   UNL     1      -8.043   9.892  64.800  1.00  0.00    -0.151 C  
ENDROOT
BRANCH   2   3
HETATM    3  N   UNL     1      -8.222   9.584  66.235  1.00  0.00    -0.114 NA 
BRANCH   3   4
HETATM    4  C   UNL     1      -7.272  10.281  67.115  1.00  0.00    -0.090 C  
HETATM    5  C   UNL     1      -6.384  11.328  66.451  1.00  0.00    -0.091 C  
ENDBRANCH   3   4
BRANCH   3   6
HETATM    6  C   UNL     1      -9.644   9.786  66.602  1.00  0.00    -0.187 C  
BRANCH   6   7
HETATM    7  C   UNL     1     -10.375   8.556  67.169  1.00  0.00    -0.377 C  
BRANCH   7   8
HETATM    8  C   UNL     1     -10.374   8.560  68.659  1.00  0.00    -0.198 A  
HETATM    9  N   UNL     1     -10.056   7.611  69.514  1.00  0.00    -0.187 NA 
HETATM   10  C   UNL     1     -10.330   8.203  70.735  1.00  0.00    -0.196 A  
HETATM   11  N   UNL     1     -10.767   9.470  70.628  1.00  0.00    -0.284 NA 
HETATM   12  O   UNL     1     -10.810   9.700  69.260  1.00  0.00    -0.224 OA 
BRANCH  10  13
HETATM   13  C   UNL     1     -10.197   7.510  72.018  1.00  0.00    -0.234 A  
HETATM   14  C   UNL     1     -10.809   6.269  72.243  1.00  0.00    -0.276 A  
HETATM   15  C   UNL     1     -10.702   5.638  73.489  1.00  0.00    -0.311 A  
HETATM   16  C   UNL     1      -9.982   6.239  74.522  1.00  0.00    -0.356 A  
HETATM   17  C   UNL     1      -9.359   7.465  74.309  1.00  0.00    -0.142 A  
HETATM   18  C   UNL     1      -9.464   8.095  73.065  1.00  0.00    -0.333 A  
ENDBRANCH  10  13
ENDBRANCH   7   8
ENDBRANCH   6   7
ENDBRANCH   3   6
ENDBRANCH   2   3
TORSDOF 6
ENDMDL
MODEL      197
REMARK 921   NORMALIZED FREE ENERGY PREDICTED BY IDOCK:   -2.98 KCAL/MOL
REMARK 922        TOTAL FREE ENERGY PREDICTED BY IDOCK:   -4.55 KCAL/MOL
REMARK 923 INTER-LIGAND FREE ENERGY PREDICTED BY IDOCK:   -3.93 KCAL/MOL
REMARK 924 INTRA-LIGAND FREE ENERGY PREDICTED BY IDOCK:   -0.62 KCAL/MOL
REMARK 927      BINDING AFFINITY PREDICTED BY RF-SCORE:    0.00 PKD
ROOT
HETATM    1  C   UNL     1      -8.872   4.795  62.741  1.00  0.00    -0.120 C  
HETATM    2  C   UNL     1      -9.546   4.134  63.942  1.00  0.00    -0.141 C  
ENDROOT
BRANCH   2   3
HETATM    3  N   UNL     1      -8.632   3.670  65.008  1.00  0.00    -0.108 NA 
BRANCH   3   4
HETATM    4  C   UNL     1      -7.239   4.105  64.828  1.00  0.00    -0.070 C  
HETATM    5  C   UNL     1      -6.422   4.292  66.102  1.00  0.00    -0.041 C  
ENDBRANCH   3   4
BRANCH   3   6
HETATM    6  C   UNL     1      -9.209   4.021  66.328  1.00  0.00    -0.158 C  
BRANCH   6   7
HETATM    7  C   UNL     1     -10.469   4.903  66.300  1.00  0.00    -0.349 C  
BRANCH   7   8
HETATM    8  C   UNL     1     -10.200   6.258  66.858  1.00  0.00    -0.209 A  
HETATM    9  N   UNL     1     -11.020   7.139  67.391  1.00  0.00    -0.260 NA 
HETATM   10  C   UNL     1     -10.183   8.212  67.645  1.00  0.00    -0.234 A  
HETATM   11  N   UNL     1      -8.902   7.982  67.308  1.00  0.00    -0.129 NA 
HETATM   12  O   UNL     1      -8.916   6.700  66.775  1.00  0.00    -0.124 OA 
BRANCH  10  13
HETATM   13  C   UNL     1     -10.648   9.490  68.188  1.00  0.00    -0.265 A  
HETATM   14  C   UNL     1     -10.910   9.648  69.556  1.00  0.00    -0.253 A  
HETATM   15  C   UNL     1     -11.391  10.867  70.052  1.00  0.00    -0.386 A  
HETATM   16  C   UNL     1     -11.610  11.940  69.189  1.00  0.00    -0.373 A  
HETATM   17  C   UNL     1     -11.341  11.802  67.831  1.00  0.00    -0.362 A  
HETATM   18  C   UNL     1     -10.861  10.586  67.334  1.00  0.00    -0.349 A  
ENDBRANCH  10  13
ENDBRANCH   7   8
ENDBRANCH   6   7
ENDBRANCH   3   6
ENDBRANCH   2   3
TORSDOF 6
ENDMDL
MODEL      198
REMARK 921   NORMALIZED FREE ENERGY PREDICTED BY IDOCK:   -2.96 KCAL/MOL
REMARK 922        TOTAL FREE ENERGY PREDICTED BY IDOCK:   -4.53 KCAL/MOL
REMARK 923 INTER-LIGAND FREE ENERGY PREDICTED BY IDOCK:   -4.01 KCAL/MOL
REMARK 924 INTRA-LIGAND FREE ENERGY PREDICTED BY IDOCK:   -0.51 KCAL/MOL
REMARK 927      BINDING AFFINITY PREDICTED BY RF-SCORE:    0.00 PKD
ROOT
HETATM    1  C   UNL     1     -11.210  15.906  64.694  1.00  0.00    -0.361 C  
HETATM    2  C   UNL     1     -11.026  14.395  64.816  1.00  0.00    -0.397 C  
ENDROOT
BRANCH   2   3
HETATM    3  N   UNL     1     -12.112  13.676  65.515  1.00  0.00    -0.384 NA 
BRANCH   3   4
HETATM    4  C   UNL     1     -12.665  12.547  64.751  1.00  0.00    -0.330 C  
HETATM    5  C   UNL     1     -12.270  12.473  63.280  1.00  0.00    -0.512 C  
ENDBRANCH   3   4
BRANCH   3   6
HETATM    6  C   UNL     1     -11.659  13.317  66.879  1.00  0.00    -0.364 C  
BRANCH   6   7
HETATM    7  C   UNL     1     -10.145  13.103  67.052  1.00  0.00    -0.241 C  
BRANCH   7   8
HETATM    8  C   UNL     1      -9.854  11.874  67.843  1.00  0.00    -0.190 A  
HETATM    9  N   UNL     1      -9.351  10.717  67.466  1.00  0.00    -0.147 NA 
HETATM   10  C   UNL     1      -9.396   9.976  68.635  1.00  0.00    -0.156 A  
HETATM   11  N   UNL     1      -9.878  10.664  69.685  1.00  0.00    -0.100 NA 
HETATM   12  O   UNL     1     -10.193  11.910  69.159  1.00  0.00    -0.055 OA 
BRANCH  10  13
HETATM   13  C   UNL     1      -8.998   8.570  68.717  1.00  0.00    -0.139 A  
HETATM   14  C   UNL     1      -8.224   7.971  67.713  1.00  0.00    -0.129 A  
HETATM   15  C   UNL     1      -7.885   6.614  67.790  1.00  0.00    -0.112 A  
HETATM   16  C   UNL     1      -8.312   5.842  68.870  1.00  0.00    -0.102 A  
HETATM   17  C   UNL     1      -9.070   6.427  69.882  1.00  0.00    -0.142 A  
HETATM   18  C   UNL     1      -9.408   7.781  69.806  1.00  0.00    -0.153 A  
ENDBRANCH  10  13
ENDBRANCH   7   8
ENDBRANCH   6   7
ENDBRANCH   3   6
ENDBRANCH   2   3
TORSDOF 6
ENDMDL
MODEL      199
REMARK 921   NORMALIZED FREE ENERGY PREDICTED BY IDOCK:   -2.95 KCAL/MOL
REMARK 922        TOTAL FREE ENERGY PREDICTED BY IDOCK:   -4.51 KCAL/MOL
REMARK 923 INTER-LIGAND FREE ENERGY PREDICTED BY IDOCK:   -4.06 KCAL/MOL
REMARK 924 INTRA-LIGAND FREE ENERGY PREDICTED BY IDOCK:   -0.45 KCAL/MOL
REMARK 927      BINDING AFFINITY PREDICTED BY RF-SCORE:    0.00 PKD
ROOT
HETATM    1  C   UNL     1     -12.024  12.773  66.059  1.00  0.00    -0.491 C  
HETATM    2  C   UNL     1     -11.105  11.993  66.997  1.00  0.00    -0.298 C  
ENDROOT
BRANCH   2   3
HETATM    3  N   UNL     1     -11.146  12.406  68.416  1.00  0.00    -0.233 NA 
BRANCH   3   4
HETATM    4  C   UNL     1     -11.300  13.856  68.608  1.00  0.00    -0.278 C  
HETATM    5  C   UNL     1     -11.878  14.300  69.948  1.00  0.00    -0.382 C  
ENDBRANCH   3   4
BRANCH   3   6
HETATM    6  C   UNL     1     -12.158  11.591  69.130  1.00  0.00    -0.263 C  
BRANCH   6   7
HETATM    7  C   UNL     1     -11.654  10.821  70.363  1.00  0.00    -0.431 C  
BRANCH   7   8
HETATM    8  C   UNL     1     -11.021   9.528  69.978  1.00  0.00    -0.251 A  
HETATM    9  N   UNL     1      -9.946   9.286  69.259  1.00  0.00    -0.174 NA 
HETATM   10  C   UNL     1      -9.926   7.903  69.205  1.00  0.00    -0.190 A  
HETATM   11  N   UNL     1     -10.931   7.327  69.889  1.00  0.00    -0.257 NA 
HETATM   12  O   UNL     1     -11.661   8.399  70.386  1.00  0.00    -0.201 OA 
BRANCH  10  13
HETATM   13  C   UNL     1      -8.936   7.137  68.446  1.00  0.00    -0.125 A  
HETATM   14  C   UNL     1      -7.951   6.376  69.092  1.00  0.00    -0.111 A  
HETATM   15  C   UNL     1      -6.989   5.680  68.349  1.00  0.00    -0.065 A  
HETATM   16  C   UNL     1      -7.002   5.733  66.955  1.00  0.00    -0.065 A  
HETATM   17  C   UNL     1      -7.982   6.474  66.300  1.00  0.00    -0.111 A  
HETATM   18  C   UNL     1      -8.943   7.169  67.040  1.00  0.00    -0.137 A  
ENDBRANCH  10  13
ENDBRANCH   7   8
ENDBRANCH   6   7
ENDBRANCH   3   6
ENDBRANCH   2   3
TORSDOF 6
ENDMDL
MODEL      200
REMARK 921   NORMALIZED FREE ENERGY PREDICTED BY IDOCK:   -2.92 KCAL/MOL
REMARK 922        TOTAL FREE ENERGY PREDICTED BY IDOCK:   -4.47 KCAL/MOL
REMARK 923 INTER-LIGAND FREE ENERGY PREDICTED BY IDOCK:   -4.03 KCAL/MOL
REMARK 924 INTRA-LIGAND FREE ENERGY PREDICTED BY IDOCK:   -0.44 KCAL/MOL
REMARK 927      BINDING AFFINITY PREDICTED BY RF-SCORE:    0.00 PKD
ROOT
HETATM    1  C   UNL     1      -5.161   9.493  63.282  1.00  0.00    -0.070 C  
HETATM    2  C   UNL     1      -5.166   7.975  63.109  1.00  0.00    -0.050 C  
ENDROOT
BRANCH   2   3
HETATM    3  N   UNL     1      -6.395   7.407  62.516  1.00  0.00    -0.061 NA 
BRANCH   3   4
HETATM    4  C   UNL     1      -6.828   6.147  63.138  1.00  0.00    -0.044 C  
HETATM    5  C   UNL     1      -5.769   5.390  63.932  1.00  0.00    -0.017 C  
ENDBRANCH   3   4
BRANCH   3   6
HETATM    6  C   UNL     1      -7.444   8.453  62.476  1.00  0.00    -0.101 C  
BRANCH   6   7
HETATM    7  C   UNL     1      -8.530   8.361  63.562  1.00  0.00     0.013 C  
BRANCH   7   8
HETATM    8  C   UNL     1      -9.204   9.673  63.774  1.00  0.00    -0.120 A  
HETATM    9  N   UNL     1      -9.535  10.291  64.888  1.00  0.00    -0.253 NA 
HETATM   10  C   UNL     1     -10.188  11.420  64.421  1.00  0.00    -0.308 A  
HETATM   11  N   UNL     1     -10.225  11.499  63.080  1.00  0.00    -0.364 NA 
HETATM   12  O   UNL     1      -9.589  10.341  62.653  1.00  0.00    -0.310 OA 
BRANCH  10  13
HETATM   13  C   UNL     1     -10.815  12.412  65.297  1.00  0.00    -0.324 A  
HETATM   14  C   UNL     1     -10.905  13.760  64.924  1.00  0.00    -0.398 A  
HETATM   15  C   UNL     1     -11.474  14.701  65.792  1.00  0.00    -0.338 A  
HETATM   16  C   UNL     1     -11.962  14.306  67.037  1.00  0.00    -0.463 A  
HETATM   17  C   UNL     1     -11.890  12.968  67.415  1.00  0.00    -0.411 A  
HETATM   18  C   UNL     1     -11.323  12.028  66.551  1.00  0.00    -0.413 A  
ENDBRANCH  10  13
ENDBRANCH   7   8
ENDBRANCH   6   7
ENDBRANCH   3   6
ENDBRANCH   2   3
TORSDOF 6
ENDMDL
MODEL      201
REMARK 921   NORMALIZED FREE ENERGY PREDICTED BY IDOCK:   -2.92 KCAL/MOL
REMARK 922        TOTAL FREE ENERGY PREDICTED BY IDOCK:   -4.46 KCAL/MOL
REMARK 923 INTER-LIGAND FREE ENERGY PREDICTED BY IDOCK:   -3.86 KCAL/MOL
REMARK 924 INTRA-LIGAND FREE ENERGY PREDICTED BY IDOCK:   -0.60 KCAL/MOL
REMARK 927      BINDING AFFINITY PREDICTED BY RF-SCORE:    0.00 PKD
ROOT
HETATM    1  C   UNL     1     -12.142  14.692  64.368  1.00  0.00    -0.481 C  
HETATM    2  C   UNL     1     -11.075  15.315  65.267  1.00  0.00    -0.376 C  
ENDROOT
BRANCH   2   3
HETATM    3  N   UNL     1     -11.312  15.181  66.720  1.00  0.00    -0.296 NA 
BRANCH   3   4
HETATM    4  C   UNL     1     -12.036  13.957  67.094  1.00  0.00    -0.420 C  
HETATM    5  C   UNL     1     -11.874  13.494  68.538  1.00  0.00    -0.398 C  
ENDBRANCH   3   4
BRANCH   3   6
HETATM    6  C   UNL     1     -10.030  15.369  67.440  1.00  0.00    -0.229 C  
BRANCH   6   7
HETATM    7  C   UNL     1      -8.759  14.981  66.666  1.00  0.00    -0.289 C  
BRANCH   7   8
HETATM    8  C   UNL     1      -8.162  13.721  67.192  1.00  0.00    -0.108 A  
HETATM    9  N   UNL     1      -8.732  12.685  67.771  1.00  0.00    -0.168 NA 
HETATM   10  C   UNL     1      -7.647  11.885  68.089  1.00  0.00    -0.121 A  
HETATM   11  N   UNL     1      -6.470  12.399  67.692  1.00  0.00    -0.113 NA 
HETATM   12  O   UNL     1      -6.808  13.616  67.115  1.00  0.00    -0.138 OA 
BRANCH  10  13
HETATM   13  C   UNL     1      -7.760  10.623  68.821  1.00  0.00    -0.117 A  
HETATM   14  C   UNL     1      -8.900  10.318  69.578  1.00  0.00    -0.166 A  
HETATM   15  C   UNL     1      -8.975   9.121  70.302  1.00  0.00    -0.245 A  
HETATM   16  C   UNL     1      -7.914   8.216  70.276  1.00  0.00    -0.103 A  
HETATM   17  C   UNL     1      -6.781   8.499  69.519  1.00  0.00    -0.041 A  
HETATM   18  C   UNL     1      -6.706   9.693  68.795  1.00  0.00    -0.051 A  
ENDBRANCH  10  13
ENDBRANCH   7   8
ENDBRANCH   6   7
ENDBRANCH   3   6
ENDBRANCH   2   3
TORSDOF 6
ENDMDL
MODEL      202
REMARK 921   NORMALIZED FREE ENERGY PREDICTED BY IDOCK:   -2.91 KCAL/MOL
REMARK 922        TOTAL FREE ENERGY PREDICTED BY IDOCK:   -4.45 KCAL/MOL
REMARK 923 INTER-LIGAND FREE ENERGY PREDICTED BY IDOCK:   -3.98 KCAL/MOL
REMARK 924 INTRA-LIGAND FREE ENERGY PREDICTED BY IDOCK:   -0.48 KCAL/MOL
REMARK 927      BINDING AFFINITY PREDICTED BY RF-SCORE:    0.00 PKD
ROOT
HETATM    1  C   UNL     1     -11.306  12.171  68.047  1.00  0.00    -0.353 C  
HETATM    2  C   UNL     1     -12.010  11.116  68.898  1.00  0.00    -0.298 C  
ENDROOT
BRANCH   2   3
HETATM    3  N   UNL     1     -11.594  11.060  70.315  1.00  0.00    -0.324 NA 
BRANCH   3   4
HETATM    4  C   UNL     1     -12.673  11.371  71.265  1.00  0.00    -0.393 C  
HETATM    5  C   UNL     1     -13.256  10.189  72.031  1.00  0.00    -0.534 C  
ENDBRANCH   3   4
BRANCH   3   6
HETATM    6  C   UNL     1     -10.918   9.766  70.572  1.00  0.00    -0.321 C  
BRANCH   6   7
HETATM    7  C   UNL     1      -9.460   9.659  70.090  1.00  0.00    -0.298 C  
BRANCH   7   8
HETATM    8  C   UNL     1      -9.271   8.499  69.174  1.00  0.00    -0.150 A  
HETATM    9  N   UNL     1      -9.139   7.217  69.439  1.00  0.00    -0.146 NA 
HETATM   10  C   UNL     1      -8.927   6.672  68.184  1.00  0.00    -0.121 A  
HETATM   11  N   UNL     1      -8.960   7.581  67.195  1.00  0.00    -0.124 NA 
HETATM   12  O   UNL     1      -9.172   8.787  67.848  1.00  0.00    -0.138 OA 
BRANCH  10  13
HETATM   13  C   UNL     1      -8.652   5.252  67.955  1.00  0.00    -0.103 A  
HETATM   14  C   UNL     1      -7.466   4.828  67.340  1.00  0.00    -0.082 A  
HETATM   15  C   UNL     1      -7.238   3.468  67.095  1.00  0.00    -0.063 A  
HETATM   16  C   UNL     1      -8.189   2.518  67.464  1.00  0.00    -0.077 A  
HETATM   17  C   UNL     1      -9.366   2.922  68.087  1.00  0.00    -0.258 A  
HETATM   18  C   UNL     1      -9.595   4.279  68.333  1.00  0.00    -0.197 A  
ENDBRANCH  10  13
ENDBRANCH   7   8
ENDBRANCH   6   7
ENDBRANCH   3   6
ENDBRANCH   2   3
TORSDOF 6
ENDMDL
MODEL      203
REMARK 921   NORMALIZED FREE ENERGY PREDICTED BY IDOCK:   -2.89 KCAL/MOL
REMARK 922        TOTAL FREE ENERGY PREDICTED BY IDOCK:   -4.43 KCAL/MOL
REMARK 923 INTER-LIGAND FREE ENERGY PREDICTED BY IDOCK:   -4.08 KCAL/MOL
REMARK 924 INTRA-LIGAND FREE ENERGY PREDICTED BY IDOCK:   -0.35 KCAL/MOL
REMARK 927      BINDING AFFINITY PREDICTED BY RF-SCORE:    0.00 PKD
ROOT
HETATM    1  C   UNL     1      -7.094  19.780  68.622  1.00  0.00    -0.366 C  
HETATM    2  C   UNL     1      -8.317  18.881  68.448  1.00  0.00    -0.347 C  
ENDROOT
BRANCH   2   3
HETATM    3  N   UNL     1      -8.640  18.510  67.054  1.00  0.00    -0.266 NA 
BRANCH   3   4
HETATM    4  C   UNL     1      -7.461  18.194  66.235  1.00  0.00    -0.266 C  
HETATM    5  C   UNL     1      -7.040  19.256  65.224  1.00  0.00    -0.002 C  
ENDBRANCH   3   4
BRANCH   3   6
HETATM    6  C   UNL     1      -9.674  17.447  67.061  1.00  0.00    -0.276 C  
BRANCH   6   7
HETATM    7  C   UNL     1      -9.576  16.420  68.203  1.00  0.00    -0.227 C  
BRANCH   7   8
HETATM    8  C   UNL     1      -9.740  15.028  67.700  1.00  0.00    -0.215 A  
HETATM    9  N   UNL     1      -8.899  14.015  67.703  1.00  0.00    -0.179 NA 
HETATM   10  C   UNL     1      -9.611  13.031  67.038  1.00  0.00    -0.236 A  
HETATM   11  N   UNL     1     -10.845  13.420  66.673  1.00  0.00    -0.281 NA 
HETATM   12  O   UNL     1     -10.925  14.740  67.096  1.00  0.00    -0.303 OA 
BRANCH  10  13
HETATM   13  C   UNL     1      -9.065  11.710  66.724  1.00  0.00    -0.186 A  
HETATM   14  C   UNL     1      -7.684  11.469  66.741  1.00  0.00    -0.136 A  
HETATM   15  C   UNL     1      -7.177  10.208  66.401  1.00  0.00    -0.108 A  
HETATM   16  C   UNL     1      -8.043   9.175  66.044  1.00  0.00    -0.110 A  
HETATM   17  C   UNL     1      -9.418   9.396  66.034  1.00  0.00    -0.304 A  
HETATM   18  C   UNL     1      -9.924  10.654  66.374  1.00  0.00    -0.273 A  
ENDBRANCH  10  13
ENDBRANCH   7   8
ENDBRANCH   6   7
ENDBRANCH   3   6
ENDBRANCH   2   3
TORSDOF 6
ENDMDL
MODEL      204
REMARK 921   NORMALIZED FREE ENERGY PREDICTED BY IDOCK:   -2.89 KCAL/MOL
REMARK 922        TOTAL FREE ENERGY PREDICTED BY IDOCK:   -4.43 KCAL/MOL
REMARK 923 INTER-LIGAND FREE ENERGY PREDICTED BY IDOCK:   -3.99 KCAL/MOL
REMARK 924 INTRA-LIGAND FREE ENERGY PREDICTED BY IDOCK:   -0.44 KCAL/MOL
REMARK 927      BINDING AFFINITY PREDICTED BY RF-SCORE:    0.00 PKD
ROOT
HETATM    1  C   UNL     1      -9.943  10.746  63.696  1.00  0.00    -0.405 C  
HETATM    2  C   UNL     1      -8.768  10.560  64.654  1.00  0.00    -0.183 C  
ENDROOT
BRANCH   2   3
HETATM    3  N   UNL     1      -9.062  10.826  66.079  1.00  0.00    -0.178 NA 
BRANCH   3   4
HETATM    4  C   UNL     1      -8.057  11.669  66.745  1.00  0.00    -0.150 C  
HETATM    5  C   UNL     1      -8.554  13.003  67.291  1.00  0.00    -0.206 C  
ENDBRANCH   3   4
BRANCH   3   6
HETATM    6  C   UNL     1     -10.450  11.328  66.203  1.00  0.00    -0.254 C  
BRANCH   6   7
HETATM    7  C   UNL     1     -11.227  10.863  67.447  1.00  0.00    -0.345 C  
BRANCH   7   8
HETATM    8  C   UNL     1     -10.649   9.613  68.016  1.00  0.00    -0.243 A  
HETATM    9  N   UNL     1     -10.702   8.373  67.578  1.00  0.00    -0.205 NA 
HETATM   10  C   UNL     1     -10.041   7.674  68.574  1.00  0.00    -0.190 A  
HETATM   11  N   UNL     1      -9.580   8.461  69.562  1.00  0.00    -0.169 NA 
HETATM   12  O   UNL     1      -9.993   9.737  69.201  1.00  0.00    -0.172 OA 
BRANCH  10  13
HETATM   13  C   UNL     1      -9.893   6.218  68.579  1.00  0.00    -0.152 A  
HETATM   14  C   UNL     1      -9.832   5.495  69.778  1.00  0.00    -0.258 A  
HETATM   15  C   UNL     1      -9.652   4.106  69.763  1.00  0.00    -0.281 A  
HETATM   16  C   UNL     1      -9.535   3.425  68.552  1.00  0.00    -0.209 A  
HETATM   17  C   UNL     1      -9.606   4.128  67.353  1.00  0.00    -0.222 A  
HETATM   18  C   UNL     1      -9.786   5.514  67.367  1.00  0.00    -0.167 A  
ENDBRANCH  10  13
ENDBRANCH   7   8
ENDBRANCH   6   7
ENDBRANCH   3   6
ENDBRANCH   2   3
TORSDOF 6
ENDMDL
MODEL      205
REMARK 921   NORMALIZED FREE ENERGY PREDICTED BY IDOCK:   -2.86 KCAL/MOL
REMARK 922        TOTAL FREE ENERGY PREDICTED BY IDOCK:   -4.39 KCAL/MOL
REMARK 923 INTER-LIGAND FREE ENERGY PREDICTED BY IDOCK:   -3.93 KCAL/MOL
REMARK 924 INTRA-LIGAND FREE ENERGY PREDICTED BY IDOCK:   -0.46 KCAL/MOL
REMARK 927      BINDING AFFINITY PREDICTED BY RF-SCORE:    0.00 PKD
ROOT
HETATM    1  C   UNL     1      -8.461   3.187  63.662  1.00  0.00    -0.090 C  
HETATM    2  C   UNL     1      -8.683   4.470  64.461  1.00  0.00    -0.148 C  
ENDROOT
BRANCH   2   3
HETATM    3  N   UNL     1      -8.696   4.309  65.931  1.00  0.00    -0.113 NA 
BRANCH   3   4
HETATM    4  C   UNL     1      -7.627   3.439  66.443  1.00  0.00    -0.077 C  
HETATM    5  C   UNL     1      -6.982   3.868  67.757  1.00  0.00    -0.055 C  
ENDBRANCH   3   4
BRANCH   3   6
HETATM    6  C   UNL     1      -8.742   5.648  66.565  1.00  0.00    -0.121 C  
BRANCH   6   7
HETATM    7  C   UNL     1      -8.193   6.813  65.722  1.00  0.00    -0.135 C  
BRANCH   7   8
HETATM    8  C   UNL     1      -9.041   8.031  65.856  1.00  0.00    -0.106 A  
HETATM    9  N   UNL     1      -9.042   9.149  65.161  1.00  0.00    -0.204 NA 
HETATM   10  C   UNL     1     -10.001   9.906  65.814  1.00  0.00    -0.277 A  
HETATM   11  N   UNL     1     -10.579   9.263  66.843  1.00  0.00    -0.211 NA 
HETATM   12  O   UNL     1      -9.936   8.033  66.880  1.00  0.00    -0.217 OA 
BRANCH  10  13
HETATM   13  C   UNL     1     -10.327  11.285  65.449  1.00  0.00    -0.328 A  
HETATM   14  C   UNL     1     -11.150  11.575  64.352  1.00  0.00    -0.359 A  
HETATM   15  C   UNL     1     -11.421  12.902  63.995  1.00  0.00    -0.478 A  
HETATM   16  C   UNL     1     -10.877  13.953  64.733  1.00  0.00    -0.430 A  
HETATM   17  C   UNL     1     -10.069  13.681  65.833  1.00  0.00    -0.320 A  
HETATM   18  C   UNL     1      -9.798  12.357  66.190  1.00  0.00    -0.263 A  
ENDBRANCH  10  13
ENDBRANCH   7   8
ENDBRANCH   6   7
ENDBRANCH   3   6
ENDBRANCH   2   3
TORSDOF 6
ENDMDL
MODEL      206
REMARK 921   NORMALIZED FREE ENERGY PREDICTED BY IDOCK:   -2.86 KCAL/MOL
REMARK 922        TOTAL FREE ENERGY PREDICTED BY IDOCK:   -4.39 KCAL/MOL
REMARK 923 INTER-LIGAND FREE ENERGY PREDICTED BY IDOCK:   -3.89 KCAL/MOL
REMARK 924 INTRA-LIGAND FREE ENERGY PREDICTED BY IDOCK:   -0.49 KCAL/MOL
REMARK 927      BINDING AFFINITY PREDICTED BY RF-SCORE:    0.00 PKD
ROOT
HETATM    1  C   UNL     1     -11.166   3.290  73.495  1.00  0.00    -0.280 C  
HETATM    2  C   UNL     1     -10.665   4.614  74.069  1.00  0.00    -0.289 C  
ENDROOT
BRANCH   2   3
HETATM    3  N   UNL     1      -9.870   5.448  73.143  1.00  0.00    -0.160 NA 
BRANCH   3   4
HETATM    4  C   UNL     1      -8.857   4.696  72.387  1.00  0.00    -0.118 C  
HETATM    5  C   UNL     1      -7.548   4.412  73.116  1.00  0.00    -0.082 C  
ENDBRANCH   3   4
BRANCH   3   6
HETATM    6  C   UNL     1     -10.789   6.244  72.295  1.00  0.00    -0.240 C  
BRANCH   6   7
HETATM    7  C   UNL     1     -10.828   5.866  70.804  1.00  0.00    -0.352 C  
BRANCH   7   8
HETATM    8  C   UNL     1     -10.282   6.958  69.950  1.00  0.00    -0.199 A  
HETATM    9  N   UNL     1     -10.877   8.006  69.421  1.00  0.00    -0.155 NA 
HETATM   10  C   UNL     1      -9.859   8.590  68.686  1.00  0.00    -0.170 A  
HETATM   11  N   UNL     1      -8.686   7.940  68.789  1.00  0.00    -0.128 NA 
HETATM   12  O   UNL     1      -8.968   6.857  69.609  1.00  0.00    -0.143 OA 
BRANCH  10  13
HETATM   13  C   UNL     1     -10.045   9.774  67.845  1.00  0.00    -0.212 A  
HETATM   14  C   UNL     1      -9.069  10.173  66.921  1.00  0.00    -0.160 A  
HETATM   15  C   UNL     1      -9.248  11.330  66.152  1.00  0.00    -0.222 A  
HETATM   16  C   UNL     1     -10.403  12.098  66.295  1.00  0.00    -0.250 A  
HETATM   17  C   UNL     1     -11.387  11.706  67.199  1.00  0.00    -0.373 A  
HETATM   18  C   UNL     1     -11.210  10.552  67.967  1.00  0.00    -0.361 A  
ENDBRANCH  10  13
ENDBRANCH   7   8
ENDBRANCH   6   7
ENDBRANCH   3   6
ENDBRANCH   2   3
TORSDOF 6
ENDMDL
MODEL      207
REMARK 921   NORMALIZED FREE ENERGY PREDICTED BY IDOCK:   -2.73 KCAL/MOL
REMARK 922        TOTAL FREE ENERGY PREDICTED BY IDOCK:   -4.21 KCAL/MOL
REMARK 923 INTER-LIGAND FREE ENERGY PREDICTED BY IDOCK:   -3.81 KCAL/MOL
REMARK 924 INTRA-LIGAND FREE ENERGY PREDICTED BY IDOCK:   -0.40 KCAL/MOL
REMARK 927      BINDING AFFINITY PREDICTED BY RF-SCORE:    0.00 PKD
ROOT
HETATM    1  C   UNL     1     -10.506  16.229  68.421  1.00  0.00    -0.282 C  
HETATM    2  C   UNL     1     -10.007  15.257  67.354  1.00  0.00    -0.223 C  
ENDROOT
BRANCH   2   3
HETATM    3  N   UNL     1     -10.984  14.237  66.916  1.00  0.00    -0.299 NA 
BRANCH   3   4
HETATM    4  C   UNL     1     -11.589  14.519  65.605  1.00  0.00    -0.344 C  
HETATM    5  C   UNL     1     -10.986  15.681  64.822  1.00  0.00    -0.418 C  
ENDBRANCH   3   4
BRANCH   3   6
HETATM    6  C   UNL     1     -10.365  12.895  67.020  1.00  0.00    -0.242 C  
BRANCH   6   7
HETATM    7  C   UNL     1      -9.553  12.624  68.299  1.00  0.00    -0.208 C  
BRANCH   7   8
HETATM    8  C   UNL     1      -9.213  11.180  68.434  1.00  0.00    -0.175 A  
HETATM    9  N   UNL     1      -9.909  10.107  68.121  1.00  0.00    -0.143 NA 
HETATM   10  C   UNL     1      -9.086   9.080  68.551  1.00  0.00    -0.133 A  
HETATM   11  N   UNL     1      -7.925   9.509  69.074  1.00  0.00    -0.089 NA 
HETATM   12  O   UNL     1      -8.015  10.893  69.011  1.00  0.00    -0.136 OA 
BRANCH  10  13
HETATM   13  C   UNL     1      -9.455   7.665  68.481  1.00  0.00    -0.147 A  
HETATM   14  C   UNL     1     -10.321   7.090  69.421  1.00  0.00    -0.218 A  
HETATM   15  C   UNL     1     -10.633   5.726  69.361  1.00  0.00    -0.383 A  
HETATM   16  C   UNL     1     -10.087   4.923  68.360  1.00  0.00    -0.148 A  
HETATM   17  C   UNL     1      -9.235   5.482  67.412  1.00  0.00    -0.110 A  
HETATM   18  C   UNL     1      -8.923   6.844  67.471  1.00  0.00    -0.116 A  
ENDBRANCH  10  13
ENDBRANCH   7   8
ENDBRANCH   6   7
ENDBRANCH   3   6
ENDBRANCH   2   3
TORSDOF 6
ENDMDL
MODEL      208
REMARK 921   NORMALIZED FREE ENERGY PREDICTED BY IDOCK:   -2.73 KCAL/MOL
REMARK 922        TOTAL FREE ENERGY PREDICTED BY IDOCK:   -4.21 KCAL/MOL
REMARK 923 INTER-LIGAND FREE ENERGY PREDICTED BY IDOCK:   -3.73 KCAL/MOL
REMARK 924 INTRA-LIGAND FREE ENERGY PREDICTED BY IDOCK:   -0.48 KCAL/MOL
REMARK 927      BINDING AFFINITY PREDICTED BY RF-SCORE:    0.00 PKD
ROOT
HETATM    1  C   UNL     1      -5.796  10.500  63.196  1.00  0.00    -0.128 C  
HETATM    2  C   UNL     1      -6.165   9.027  63.036  1.00  0.00    -0.090 C  
ENDROOT
BRANCH   2   3
HETATM    3  N   UNL     1      -7.612   8.742  62.925  1.00  0.00    -0.106 NA 
BRANCH   3   4
HETATM    4  C   UNL     1      -7.970   7.352  63.246  1.00  0.00    -0.086 C  
HETATM    5  C   UNL     1      -6.832   6.459  63.731  1.00  0.00    -0.041 C  
ENDBRANCH   3   4
BRANCH   3   6
HETATM    6  C   UNL     1      -8.367   9.755  63.700  1.00  0.00    -0.169 C  
BRANCH   6   7
HETATM    7  C   UNL     1      -8.771   9.348  65.128  1.00  0.00    -0.210 C  
BRANCH   7   8
HETATM    8  C   UNL     1      -9.531  10.433  65.810  1.00  0.00    -0.198 A  
HETATM    9  N   UNL     1      -9.281  11.722  65.901  1.00  0.00    -0.206 NA 
HETATM   10  C   UNL     1     -10.308  12.170  66.715  1.00  0.00    -0.213 A  
HETATM   11  N   UNL     1     -11.163  11.199  67.079  1.00  0.00    -0.363 NA 
HETATM   12  O   UNL     1     -10.643  10.051  66.495  1.00  0.00    -0.180 OA 
BRANCH  10  13
HETATM   13  C   UNL     1     -10.432  13.555  67.172  1.00  0.00    -0.256 A  
HETATM   14  C   UNL     1      -9.377  14.467  67.031  1.00  0.00    -0.249 A  
HETATM   15  C   UNL     1      -9.500  15.778  67.508  1.00  0.00    -0.218 A  
HETATM   16  C   UNL     1     -10.679  16.193  68.128  1.00  0.00    -0.315 A  
HETATM   17  C   UNL     1     -11.740  15.302  68.264  1.00  0.00    -0.320 A  
HETATM   18  C   UNL     1     -11.618  13.993  67.787  1.00  0.00    -0.378 A  
ENDBRANCH  10  13
ENDBRANCH   7   8
ENDBRANCH   6   7
ENDBRANCH   3   6
ENDBRANCH   2   3
TORSDOF 6
ENDMDL
MODEL      209
REMARK 921   NORMALIZED FREE ENERGY PREDICTED BY IDOCK:   -2.67 KCAL/MOL
REMARK 922        TOTAL FREE ENERGY PREDICTED BY IDOCK:   -4.13 KCAL/MOL
REMARK 923 INTER-LIGAND FREE ENERGY PREDICTED BY IDOCK:   -3.75 KCAL/MOL
REMARK 924 INTRA-LIGAND FREE ENERGY PREDICTED BY IDOCK:   -0.38 KCAL/MOL
REMARK 927      BINDING AFFINITY PREDICTED BY RF-SCORE:    0.00 PKD
ROOT
HETATM    1  C   UNL     1      -6.175  10.246  63.085  1.00  0.00    -0.140 C  
HETATM    2  C   UNL     1      -6.622   8.796  62.907  1.00  0.00    -0.091 C  
ENDROOT
BRANCH   2   3
HETATM    3  N   UNL     1      -8.067   8.549  63.099  1.00  0.00    -0.166 NA 
BRANCH   3   4
HETATM    4  C   UNL     1      -8.450   7.135  62.969  1.00  0.00     0.274 C  
HETATM    5  C   UNL     1      -7.316   6.120  63.060  1.00  0.00    -0.061 C  
ENDBRANCH   3   4
BRANCH   3   6
HETATM    6  C   UNL     1      -8.504   9.179  64.368  1.00  0.00    -0.184 C  
BRANCH   6   7
HETATM    7  C   UNL     1      -8.597   8.245  65.587  1.00  0.00    -0.189 C  
BRANCH   7   8
HETATM    8  C   UNL     1      -9.054   8.977  66.802  1.00  0.00    -0.145 A  
HETATM    9  N   UNL     1     -10.021   8.700  67.651  1.00  0.00    -0.181 NA 
HETATM   10  C   UNL     1      -9.988   9.787  68.508  1.00  0.00    -0.160 A  
HETATM   11  N   UNL     1      -9.022  10.672  68.210  1.00  0.00    -0.137 NA 
HETATM   12  O   UNL     1      -8.416  10.146  67.077  1.00  0.00    -0.128 OA 
BRANCH  10  13
HETATM   13  C   UNL     1     -10.936   9.979  69.606  1.00  0.00    -0.301 A  
HETATM   14  C   UNL     1     -11.606  11.197  69.787  1.00  0.00    -0.409 A  
HETATM   15  C   UNL     1     -12.481  11.375  70.867  1.00  0.00    -0.478 A  
HETATM   16  C   UNL     1     -12.699  10.338  71.774  1.00  0.00    -0.535 A  
HETATM   17  C   UNL     1     -12.051   9.118  71.599  1.00  0.00    -0.432 A  
HETATM   18  C   UNL     1     -11.178   8.940  70.522  1.00  0.00    -0.287 A  
ENDBRANCH  10  13
ENDBRANCH   7   8
ENDBRANCH   6   7
ENDBRANCH   3   6
ENDBRANCH   2   3
TORSDOF 6
ENDMDL
MODEL      210
REMARK 921   NORMALIZED FREE ENERGY PREDICTED BY IDOCK:   -2.66 KCAL/MOL
REMARK 922        TOTAL FREE ENERGY PREDICTED BY IDOCK:   -4.12 KCAL/MOL
REMARK 923 INTER-LIGAND FREE ENERGY PREDICTED BY IDOCK:   -3.64 KCAL/MOL
REMARK 924 INTRA-LIGAND FREE ENERGY PREDICTED BY IDOCK:   -0.47 KCAL/MOL
REMARK 927      BINDING AFFINITY PREDICTED BY RF-SCORE:    0.00 PKD
ROOT
HETATM    1  C   UNL     1      -8.587   3.097  64.051  1.00  0.00    -0.089 C  
HETATM    2  C   UNL     1      -9.205   3.201  65.444  1.00  0.00    -0.148 C  
ENDROOT
BRANCH   2   3
HETATM    3  N   UNL     1      -8.247   3.164  66.569  1.00  0.00    -0.088 NA 
BRANCH   3   4
HETATM    4  C   UNL     1      -6.843   3.318  66.159  1.00  0.00    -0.053 C  
HETATM    5  C   UNL     1      -5.901   2.183  66.543  1.00  0.00    -0.022 C  
ENDBRANCH   3   4
BRANCH   3   6
HETATM    6  C   UNL     1      -8.682   4.125  67.610  1.00  0.00    -0.107 C  
BRANCH   6   7
HETATM    7  C   UNL     1     -10.004   4.863  67.335  1.00  0.00    -0.209 C  
BRANCH   7   8
HETATM    8  C   UNL     1      -9.805   6.338  67.281  1.00  0.00    -0.137 A  
HETATM    9  N   UNL     1     -10.554   7.281  66.748  1.00  0.00    -0.278 NA 
HETATM   10  C   UNL     1      -9.799   8.422  66.964  1.00  0.00    -0.230 A  
HETATM   11  N   UNL     1      -8.654   8.186  67.627  1.00  0.00    -0.130 NA 
HETATM   12  O   UNL     1      -8.651   6.812  67.823  1.00  0.00    -0.121 OA 
BRANCH  10  13
HETATM   13  C   UNL     1     -10.185   9.749  66.484  1.00  0.00    -0.289 A  
HETATM   14  C   UNL     1     -11.016  10.586  67.242  1.00  0.00    -0.325 A  
HETATM   15  C   UNL     1     -11.405  11.838  66.749  1.00  0.00    -0.385 A  
HETATM   16  C   UNL     1     -10.967  12.269  65.497  1.00  0.00    -0.337 A  
HETATM   17  C   UNL     1     -10.131  11.454  64.739  1.00  0.00    -0.326 A  
HETATM   18  C   UNL     1      -9.741  10.205  65.230  1.00  0.00    -0.365 A  
ENDBRANCH  10  13
ENDBRANCH   7   8
ENDBRANCH   6   7
ENDBRANCH   3   6
ENDBRANCH   2   3
TORSDOF 6
ENDMDL
MODEL      211
REMARK 921   NORMALIZED FREE ENERGY PREDICTED BY IDOCK:   -2.65 KCAL/MOL
REMARK 922        TOTAL FREE ENERGY PREDICTED BY IDOCK:   -4.11 KCAL/MOL
REMARK 923 INTER-LIGAND FREE ENERGY PREDICTED BY IDOCK:   -3.65 KCAL/MOL
REMARK 924 INTRA-LIGAND FREE ENERGY PREDICTED BY IDOCK:   -0.46 KCAL/MOL
REMARK 927      BINDING AFFINITY PREDICTED BY RF-SCORE:    0.00 PKD
ROOT
HETATM    1  C   UNL     1     -13.875   8.626  71.331  1.00  0.00    -0.313 C  
HETATM    2  C   UNL     1     -12.863   9.607  71.919  1.00  0.00    -0.425 C  
ENDROOT
BRANCH   2   3
HETATM    3  N   UNL     1     -11.464   9.418  71.480  1.00  0.00    -0.376 NA 
BRANCH   3   4
HETATM    4  C   UNL     1     -10.963   8.048  71.668  1.00  0.00    -0.239 C  
HETATM    5  C   UNL     1     -10.092   7.813  72.898  1.00  0.00    -0.363 C  
ENDBRANCH   3   4
BRANCH   3   6
HETATM    6  C   UNL     1     -11.314   9.932  70.099  1.00  0.00    -0.275 C  
BRANCH   6   7
HETATM    7  C   UNL     1     -10.714   8.952  69.076  1.00  0.00    -0.148 C  
BRANCH   7   8
HETATM    8  C   UNL     1     -10.050   9.673  67.953  1.00  0.00    -0.181 A  
HETATM    9  N   UNL     1      -9.353   9.210  66.937  1.00  0.00    -0.149 NA 
HETATM   10  C   UNL     1      -8.950  10.370  66.297  1.00  0.00    -0.155 A  
HETATM   11  N   UNL     1      -9.410  11.490  66.882  1.00  0.00    -0.177 NA 
HETATM   12  O   UNL     1     -10.122  11.031  67.982  1.00  0.00    -0.172 OA 
BRANCH  10  13
HETATM   13  C   UNL     1      -8.077  10.384  65.122  1.00  0.00    -0.145 A  
HETATM   14  C   UNL     1      -8.582  10.153  63.835  1.00  0.00    -0.197 A  
HETATM   15  C   UNL     1      -7.725  10.133  62.727  1.00  0.00    -0.147 A  
HETATM   16  C   UNL     1      -6.357  10.347  62.892  1.00  0.00    -0.131 A  
HETATM   17  C   UNL     1      -5.843  10.591  64.163  1.00  0.00    -0.071 A  
HETATM   18  C   UNL     1      -6.697  10.612  65.269  1.00  0.00     0.017 A  
ENDBRANCH  10  13
ENDBRANCH   7   8
ENDBRANCH   6   7
ENDBRANCH   3   6
ENDBRANCH   2   3
TORSDOF 6
ENDMDL
MODEL      212
REMARK 921   NORMALIZED FREE ENERGY PREDICTED BY IDOCK:   -2.64 KCAL/MOL
REMARK 922        TOTAL FREE ENERGY PREDICTED BY IDOCK:   -4.10 KCAL/MOL
REMARK 923 INTER-LIGAND FREE ENERGY PREDICTED BY IDOCK:   -3.73 KCAL/MOL
REMARK 924 INTRA-LIGAND FREE ENERGY PREDICTED BY IDOCK:   -0.37 KCAL/MOL
REMARK 927      BINDING AFFINITY PREDICTED BY RF-SCORE:    0.00 PKD
ROOT
HETATM    1  C   UNL     1     -11.772  11.727  67.993  1.00  0.00    -0.363 C  
HETATM    2  C   UNL     1     -11.271  10.423  68.610  1.00  0.00    -0.248 C  
ENDROOT
BRANCH   2   3
HETATM    3  N   UNL     1     -11.495  10.281  70.065  1.00  0.00    -0.278 NA 
BRANCH   3   4
HETATM    4  C   UNL     1     -12.900  10.441  70.468  1.00  0.00    -0.254 C  
HETATM    5  C   UNL     1     -13.171  10.465  71.969  1.00  0.00    -0.497 C  
ENDBRANCH   3   4
BRANCH   3   6
HETATM    6  C   UNL     1     -10.872   9.020  70.532  1.00  0.00    -0.251 C  
BRANCH   6   7
HETATM    7  C   UNL     1      -9.816   9.160  71.641  1.00  0.00    -0.295 C  
BRANCH   7   8
HETATM    8  C   UNL     1      -9.375   7.830  72.147  1.00  0.00    -0.153 A  
HETATM    9  N   UNL     1      -9.953   6.651  72.060  1.00  0.00    -0.166 NA 
HETATM   10  C   UNL     1      -9.091   5.840  72.780  1.00  0.00    -0.133 A  
HETATM   11  N   UNL     1      -8.018   6.494  73.257  1.00  0.00    -0.099 NA 
HETATM   12  O   UNL     1      -8.212   7.808  72.853  1.00  0.00    -0.111 OA 
BRANCH  10  13
HETATM   13  C   UNL     1      -9.339   4.420  73.034  1.00  0.00    -0.139 A  
HETATM   14  C   UNL     1     -10.605   3.853  72.831  1.00  0.00    -0.233 A  
HETATM   15  C   UNL     1     -10.832   2.500  73.115  1.00  0.00    -0.250 A  
HETATM   16  C   UNL     1      -9.799   1.700  73.602  1.00  0.00    -0.111 A  
HETATM   17  C   UNL     1      -8.533   2.246  73.796  1.00  0.00    -0.063 A  
HETATM   18  C   UNL     1      -8.305   3.596  73.512  1.00  0.00    -0.083 A  
ENDBRANCH  10  13
ENDBRANCH   7   8
ENDBRANCH   6   7
ENDBRANCH   3   6
ENDBRANCH   2   3
TORSDOF 6
ENDMDL
MODEL      213
REMARK 921   NORMALIZED FREE ENERGY PREDICTED BY IDOCK:   -2.62 KCAL/MOL
REMARK 922        TOTAL FREE ENERGY PREDICTED BY IDOCK:   -4.06 KCAL/MOL
REMARK 923 INTER-LIGAND FREE ENERGY PREDICTED BY IDOCK:   -3.78 KCAL/MOL
REMARK 924 INTRA-LIGAND FREE ENERGY PREDICTED BY IDOCK:   -0.28 KCAL/MOL
REMARK 927      BINDING AFFINITY PREDICTED BY RF-SCORE:    0.00 PKD
ROOT
HETATM    1  C   UNL     1      -8.593   4.501  65.089  1.00  0.00    -0.131 C  
HETATM    2  C   UNL     1      -8.944   5.394  66.277  1.00  0.00    -0.137 C  
ENDROOT
BRANCH   2   3
HETATM    3  N   UNL     1      -8.054   6.557  66.483  1.00  0.00    -0.109 NA 
BRANCH   3   4
HETATM    4  C   UNL     1      -6.945   6.634  65.520  1.00  0.00    -0.060 C  
HETATM    5  C   UNL     1      -6.291   8.002  65.355  1.00  0.00    -0.048 C  
ENDBRANCH   3   4
BRANCH   3   6
HETATM    6  C   UNL     1      -8.875   7.789  66.560  1.00  0.00    -0.153 C  
BRANCH   6   7
HETATM    7  C   UNL     1     -10.350   7.592  66.949  1.00  0.00    -0.388 C  
BRANCH   7   8
HETATM    8  C   UNL     1     -10.495   7.260  68.394  1.00  0.00    -0.195 A  
HETATM    9  N   UNL     1      -9.868   7.741  69.447  1.00  0.00    -0.173 NA 
HETATM   10  C   UNL     1     -10.393   6.984  70.480  1.00  0.00    -0.201 A  
HETATM   11  N   UNL     1     -11.322   6.100  70.077  1.00  0.00    -0.404 NA 
HETATM   12  O   UNL     1     -11.378   6.272  68.700  1.00  0.00    -0.337 OA 
BRANCH  10  13
HETATM   13  C   UNL     1      -9.953   7.101  71.872  1.00  0.00    -0.180 A  
HETATM   14  C   UNL     1      -8.943   7.998  72.245  1.00  0.00    -0.230 A  
HETATM   15  C   UNL     1      -8.510   8.069  73.575  1.00  0.00    -0.306 A  
HETATM   16  C   UNL     1      -9.082   7.248  74.546  1.00  0.00    -0.135 A  
HETATM   17  C   UNL     1     -10.096   6.361  74.193  1.00  0.00    -0.353 A  
HETATM   18  C   UNL     1     -10.529   6.290  72.866  1.00  0.00    -0.240 A  
ENDBRANCH  10  13
ENDBRANCH   7   8
ENDBRANCH   6   7
ENDBRANCH   3   6
ENDBRANCH   2   3
TORSDOF 6
ENDMDL
MODEL      214
REMARK 921   NORMALIZED FREE ENERGY PREDICTED BY IDOCK:   -2.59 KCAL/MOL
REMARK 922        TOTAL FREE ENERGY PREDICTED BY IDOCK:   -4.02 KCAL/MOL
REMARK 923 INTER-LIGAND FREE ENERGY PREDICTED BY IDOCK:   -3.57 KCAL/MOL
REMARK 924 INTRA-LIGAND FREE ENERGY PREDICTED BY IDOCK:   -0.46 KCAL/MOL
REMARK 927      BINDING AFFINITY PREDICTED BY RF-SCORE:    0.00 PKD
ROOT
HETATM    1  C   UNL     1      -8.248   2.909  63.978  1.00  0.00    -0.083 C  
HETATM    2  C   UNL     1      -8.192   4.075  64.963  1.00  0.00    -0.101 C  
ENDROOT
BRANCH   2   3
HETATM    3  N   UNL     1      -7.764   3.729  66.335  1.00  0.00    -0.088 NA 
BRANCH   3   4
HETATM    4  C   UNL     1      -6.538   2.918  66.388  1.00  0.00    -0.036 C  
HETATM    5  C   UNL     1      -5.586   3.213  67.542  1.00  0.00    -0.021 C  
ENDBRANCH   3   4
BRANCH   3   6
HETATM    6  C   UNL     1      -7.707   4.964  67.152  1.00  0.00    -0.092 C  
BRANCH   6   7
HETATM    7  C   UNL     1      -7.602   6.285  66.371  1.00  0.00    -0.094 C  
BRANCH   7   8
HETATM    8  C   UNL     1      -8.777   7.166  66.625  1.00  0.00    -0.128 A  
HETATM    9  N   UNL     1      -8.850   8.474  66.752  1.00  0.00    -0.135 NA 
HETATM   10  C   UNL     1     -10.189   8.672  67.044  1.00  0.00    -0.290 A  
HETATM   11  N   UNL     1     -10.906   7.534  67.062  1.00  0.00    -0.308 NA 
HETATM   12  O   UNL     1      -9.972   6.540  66.801  1.00  0.00    -0.162 OA 
BRANCH  10  13
HETATM   13  C   UNL     1     -10.766   9.983  67.343  1.00  0.00    -0.336 A  
HETATM   14  C   UNL     1     -10.766  11.015  66.394  1.00  0.00    -0.286 A  
HETATM   15  C   UNL     1     -11.289  12.275  66.712  1.00  0.00    -0.395 A  
HETATM   16  C   UNL     1     -11.820  12.517  67.978  1.00  0.00    -0.382 A  
HETATM   17  C   UNL     1     -11.840  11.498  68.927  1.00  0.00    -0.406 A  
HETATM   18  C   UNL     1     -11.318  10.240  68.611  1.00  0.00    -0.226 A  
ENDBRANCH  10  13
ENDBRANCH   7   8
ENDBRANCH   6   7
ENDBRANCH   3   6
ENDBRANCH   2   3
TORSDOF 6
ENDMDL
MODEL      215
REMARK 921   NORMALIZED FREE ENERGY PREDICTED BY IDOCK:   -2.37 KCAL/MOL
REMARK 922        TOTAL FREE ENERGY PREDICTED BY IDOCK:   -3.73 KCAL/MOL
REMARK 923 INTER-LIGAND FREE ENERGY PREDICTED BY IDOCK:   -3.33 KCAL/MOL
REMARK 924 INTRA-LIGAND FREE ENERGY PREDICTED BY IDOCK:   -0.40 KCAL/MOL
REMARK 927      BINDING AFFINITY PREDICTED BY RF-SCORE:    0.00 PKD
ROOT
HETATM    1  C   UNL     1     -10.820   3.997  73.370  1.00  0.00    -0.326 C  
HETATM    2  C   UNL     1      -9.642   4.954  73.537  1.00  0.00    -0.132 C  
ENDROOT
BRANCH   2   3
HETATM    3  N   UNL     1      -8.865   5.227  72.309  1.00  0.00    -0.129 NA 
BRANCH   3   4
HETATM    4  C   UNL     1      -8.202   4.040  71.749  1.00  0.00    -0.090 C  
HETATM    5  C   UNL     1      -6.773   4.239  71.253  1.00  0.00    -0.031 C  
ENDBRANCH   3   4
BRANCH   3   6
HETATM    6  C   UNL     1      -9.724   5.951  71.342  1.00  0.00    -0.166 C  
BRANCH   6   7
HETATM    7  C   UNL     1     -10.188   5.145  70.116  1.00  0.00    -0.348 C  
BRANCH   7   8
HETATM    8  C   UNL     1     -10.165   5.973  68.878  1.00  0.00    -0.196 A  
HETATM    9  N   UNL     1      -9.281   6.853  68.457  1.00  0.00    -0.130 NA 
HETATM   10  C   UNL     1      -9.859   7.324  67.290  1.00  0.00    -0.171 A  
HETATM   11  N   UNL     1     -11.029   6.732  66.997  1.00  0.00    -0.401 NA 
HETATM   12  O   UNL     1     -11.238   5.852  68.051  1.00  0.00    -0.165 OA 
BRANCH  10  13
HETATM   13  C   UNL     1      -9.277   8.390  66.472  1.00  0.00    -0.238 A  
HETATM   14  C   UNL     1      -8.535   8.101  65.318  1.00  0.00    -0.157 A  
HETATM   15  C   UNL     1      -7.954   9.132  64.569  1.00  0.00    -0.127 A  
HETATM   16  C   UNL     1      -8.111  10.461  64.962  1.00  0.00    -0.136 A  
HETATM   17  C   UNL     1      -8.856  10.764  66.098  1.00  0.00    -0.187 A  
HETATM   18  C   UNL     1      -9.436   9.735  66.846  1.00  0.00    -0.202 A  
ENDBRANCH  10  13
ENDBRANCH   7   8
ENDBRANCH   6   7
ENDBRANCH   3   6
ENDBRANCH   2   3
TORSDOF 6
ENDMDL
MODEL      216
REMARK 921   NORMALIZED FREE ENERGY PREDICTED BY IDOCK:   -2.35 KCAL/MOL
REMARK 922        TOTAL FREE ENERGY PREDICTED BY IDOCK:   -3.70 KCAL/MOL
REMARK 923 INTER-LIGAND FREE ENERGY PREDICTED BY IDOCK:   -3.18 KCAL/MOL
REMARK 924 INTRA-LIGAND FREE ENERGY PREDICTED BY IDOCK:   -0.53 KCAL/MOL
REMARK 927      BINDING AFFINITY PREDICTED BY RF-SCORE:    0.00 PKD
ROOT
HETATM    1  C   UNL     1     -12.190  12.592  65.988  1.00  0.00    -0.329 C  
HETATM    2  C   UNL     1     -10.980  11.762  66.414  1.00  0.00    -0.294 C  
ENDROOT
BRANCH   2   3
HETATM    3  N   UNL     1     -10.512  11.984  67.798  1.00  0.00    -0.199 NA 
BRANCH   3   4
HETATM    4  C   UNL     1     -10.246  13.395  68.116  1.00  0.00    -0.246 C  
HETATM    5  C   UNL     1      -8.812  13.737  68.509  1.00  0.00    -0.116 C  
ENDBRANCH   3   4
BRANCH   3   6
HETATM    6  C   UNL     1     -11.444  11.318  68.739  1.00  0.00    -0.293 C  
BRANCH   6   7
HETATM    7  C   UNL     1     -10.792  10.515  69.878  1.00  0.00    -0.334 C  
BRANCH   7   8
HETATM    8  C   UNL     1      -9.880   9.461  69.351  1.00  0.00    -0.178 A  
HETATM    9  N   UNL     1     -10.142   8.250  68.907  1.00  0.00    -0.194 NA 
HETATM   10  C   UNL     1      -8.880   7.751  68.633  1.00  0.00    -0.131 A  
HETATM   11  N   UNL     1      -7.894   8.633  68.872  1.00  0.00    -0.103 NA 
HETATM   12  O   UNL     1      -8.552   9.755  69.359  1.00  0.00    -0.138 OA 
BRANCH  10  13
HETATM   13  C   UNL     1      -8.634   6.385  68.169  1.00  0.00    -0.117 A  
HETATM   14  C   UNL     1      -8.478   6.095  66.806  1.00  0.00    -0.111 A  
HETATM   15  C   UNL     1      -8.280   4.776  66.378  1.00  0.00    -0.107 A  
HETATM   16  C   UNL     1      -8.233   3.735  67.304  1.00  0.00    -0.091 A  
HETATM   17  C   UNL     1      -8.373   4.009  68.662  1.00  0.00    -0.093 A  
HETATM   18  C   UNL     1      -8.570   5.325  69.091  1.00  0.00    -0.102 A  
ENDBRANCH  10  13
ENDBRANCH   7   8
ENDBRANCH   6   7
ENDBRANCH   3   6
ENDBRANCH   2   3
TORSDOF 6
ENDMDL
MODEL      217
REMARK 921   NORMALIZED FREE ENERGY PREDICTED BY IDOCK:   -2.31 KCAL/MOL
REMARK 922        TOTAL FREE ENERGY PREDICTED BY IDOCK:   -3.65 KCAL/MOL
REMARK 923 INTER-LIGAND FREE ENERGY PREDICTED BY IDOCK:   -3.58 KCAL/MOL
REMARK 924 INTRA-LIGAND FREE ENERGY PREDICTED BY IDOCK:   -0.07 KCAL/MOL
REMARK 927      BINDING AFFINITY PREDICTED BY RF-SCORE:    0.00 PKD
ROOT
HETATM    1  C   UNL     1     -10.951  12.164  67.693  1.00  0.00    -0.289 C  
HETATM    2  C   UNL     1     -11.055  10.809  68.391  1.00  0.00    -0.266 C  
ENDROOT
BRANCH   2   3
HETATM    3  N   UNL     1     -11.293  10.861  69.849  1.00  0.00    -0.289 NA 
BRANCH   3   4
HETATM    4  C   UNL     1     -12.705  11.054  70.214  1.00  0.00    -0.183 C  
HETATM    5  C   UNL     1     -12.967  11.826  71.503  1.00  0.00    -0.446 C  
ENDBRANCH   3   4
BRANCH   3   6
HETATM    6  C   UNL     1     -10.659   9.683  70.487  1.00  0.00    -0.306 C  
BRANCH   6   7
HETATM    7  C   UNL     1     -11.471   9.001  71.602  1.00  0.00    -0.431 C  
BRANCH   7   8
HETATM    8  C   UNL     1     -10.785   7.780  72.109  1.00  0.00    -0.248 A  
HETATM    9  N   UNL     1      -9.534   7.390  71.982  1.00  0.00    -0.136 NA 
HETATM   10  C   UNL     1      -9.541   6.153  72.605  1.00  0.00    -0.155 A  
HETATM   11  N   UNL     1     -10.738   5.820  73.116  1.00  0.00    -0.246 NA 
HETATM   12  O   UNL     1     -11.562   6.885  72.777  1.00  0.00    -0.199 OA 
BRANCH  10  13
HETATM   13  C   UNL     1      -8.373   5.273  72.668  1.00  0.00    -0.114 A  
HETATM   14  C   UNL     1      -8.088   4.364  71.640  1.00  0.00    -0.096 A  
HETATM   15  C   UNL     1      -6.987   3.503  71.736  1.00  0.00    -0.031 A  
HETATM   16  C   UNL     1      -6.157   3.544  72.856  1.00  0.00    -0.009 A  
HETATM   17  C   UNL     1      -6.420   4.451  73.879  1.00  0.00    -0.052 A  
HETATM   18  C   UNL     1      -7.519   5.311  73.785  1.00  0.00    -0.091 A  
ENDBRANCH  10  13
ENDBRANCH   7   8
ENDBRANCH   6   7
ENDBRANCH   3   6
ENDBRANCH   2   3
TORSDOF 6
ENDMDL
MODEL      218
REMARK 921   NORMALIZED FREE ENERGY PREDICTED BY IDOCK:   -1.99 KCAL/MOL
REMARK 922        TOTAL FREE ENERGY PREDICTED BY IDOCK:   -3.22 KCAL/MOL
REMARK 923 INTER-LIGAND FREE ENERGY PREDICTED BY IDOCK:   -4.00 KCAL/MOL
REMARK 924 INTRA-LIGAND FREE ENERGY PREDICTED BY IDOCK:    0.79 KCAL/MOL
REMARK 927      BINDING AFFINITY PREDICTED BY RF-SCORE:    0.00 PKD
ROOT
HETATM    1  C   UNL     1      -6.818  12.459  67.201  1.00  0.00    -0.077 C  
HETATM    2  C   UNL     1      -7.758  11.744  68.169  1.00  0.00    -0.124 C  
ENDROOT
BRANCH   2   3
HETATM    3  N   UNL     1      -9.024  12.448  68.462  1.00  0.00    -0.115 NA 
BRANCH   3   4
HETATM    4  C   UNL     1      -8.840  13.777  69.065  1.00  0.00     0.280 C  
HETATM    5  C   UNL     1      -7.426  14.116  69.525  1.00  0.00     0.159 C  
ENDBRANCH   3   4
BRANCH   3   6
HETATM    6  C   UNL     1      -9.872  12.449  67.246  1.00  0.00    -0.207 C  
BRANCH   6   7
HETATM    7  C   UNL     1     -11.086  13.395  67.271  1.00  0.00    -0.300 C  
BRANCH   7   8
HETATM    8  C   UNL     1     -10.733  14.750  66.762  1.00  0.00    -0.309 A  
HETATM    9  N   UNL     1     -10.458  15.860  67.412  1.00  0.00    -0.300 NA 
HETATM   10  C   UNL     1     -10.286  16.774  66.386  1.00  0.00    -0.323 A  
HETATM   11  N   UNL     1     -10.419  16.234  65.162  1.00  0.00    -0.632 NA 
HETATM   12  O   UNL     1     -10.728  14.903  65.410  1.00  0.00    -0.325 OA 
BRANCH  10  13
HETATM   13  C   UNL     1     -10.024  18.197  66.606  1.00  0.00    -0.363 A  
HETATM   14  C   UNL     1      -9.243  18.638  67.683  1.00  0.00    -0.300 A  
HETATM   15  C   UNL     1      -9.035  20.006  67.900  1.00  0.00    -0.356 A  
HETATM   16  C   UNL     1      -9.601  20.948  67.041  1.00  0.00    -0.289 A  
HETATM   17  C   UNL     1     -10.369  20.525  65.959  1.00  0.00    -0.007 A  
HETATM   18  C   UNL     1     -10.577  19.160  65.742  1.00  0.00    -0.417 A  
ENDBRANCH  10  13
ENDBRANCH   7   8
ENDBRANCH   6   7
ENDBRANCH   3   6
ENDBRANCH   2   3
TORSDOF 6
ENDMDL
MODEL      219
REMARK 921   NORMALIZED FREE ENERGY PREDICTED BY IDOCK:    4.76 KCAL/MOL
REMARK 922        TOTAL FREE ENERGY PREDICTED BY IDOCK:    5.90 KCAL/MOL
REMARK 923 INTER-LIGAND FREE ENERGY PREDICTED BY IDOCK:   -0.65 KCAL/MOL
REMARK 924 INTRA-LIGAND FREE ENERGY PREDICTED BY IDOCK:    6.55 KCAL/MOL
REMARK 927      BINDING AFFINITY PREDICTED BY RF-SCORE:    0.00 PKD
ROOT
HETATM    1  C   UNL     1     -13.254  16.716  72.626  1.00  0.00     1.125 C  
HETATM    2  C   UNL     1     -13.868  15.509  71.919  1.00  0.00    -0.488 C  
ENDROOT
BRANCH   2   3
HETATM    3  N   UNL     1     -13.628  14.202  72.569  1.00  0.00    -0.514 NA 
BRANCH   3   4
HETATM    4  C   UNL     1     -13.597  13.070  71.631  1.00  0.00    -0.090 C  
HETATM    5  C   UNL     1     -13.560  11.679  72.257  1.00  0.00    -0.007 C  
ENDBRANCH   3   4
BRANCH   3   6
HETATM    6  C   UNL     1     -12.430  14.303  73.435  1.00  0.00     0.079 C  
BRANCH   6   7
HETATM    7  C   UNL     1     -11.128  14.734  72.737  1.00  0.00     1.012 C  
BRANCH   7   8
HETATM    8  C   UNL     1     -11.187  14.487  71.269  1.00  0.00     0.340 A  
HETATM    9  N   UNL     1     -10.642  15.149  70.271  1.00  0.00    -0.216 NA 
HETATM   10  C   UNL     1     -11.123  14.471  69.163  1.00  0.00    -0.263 A  
HETATM   11  N   UNL     1     -11.904  13.423  69.477  1.00  0.00    -0.316 NA 
HETATM   12  O   UNL     1     -11.959  13.442  70.864  1.00  0.00    -0.259 OA 
BRANCH  10  13
HETATM   13  C   UNL     1     -10.847  14.876  67.784  1.00  0.00    -0.286 A  
HETATM   14  C   UNL     1      -9.533  15.021  67.316  1.00  0.00    -0.212 A  
HETATM   15  C   UNL     1      -9.288  15.445  66.004  1.00  0.00    -0.364 A  
HETATM   16  C   UNL     1     -10.350  15.727  65.145  1.00  0.00    -0.331 A  
HETATM   17  C   UNL     1     -11.660  15.575  65.592  1.00  0.00     0.152 A  
HETATM   18  C   UNL     1     -11.906  15.151  66.901  1.00  0.00    -0.006 A  
ENDBRANCH  10  13
ENDBRANCH   7   8
ENDBRANCH   6   7
ENDBRANCH   3   6
ENDBRANCH   2   3
TORSDOF 6
ENDMDL
MODEL      220
REMARK 921   NORMALIZED FREE ENERGY PREDICTED BY IDOCK:   11.02 KCAL/MOL
REMARK 922        TOTAL FREE ENERGY PREDICTED BY IDOCK:   14.36 KCAL/MOL
REMARK 923 INTER-LIGAND FREE ENERGY PREDICTED BY IDOCK:    6.65 KCAL/MOL
REMARK 924 INTRA-LIGAND FREE ENERGY PREDICTED BY IDOCK:    7.71 KCAL/MOL
REMARK 927      BINDING AFFINITY PREDICTED BY RF-SCORE:    0.00 PKD
ROOT
HETATM    1  C   UNL     1     -13.123  16.831  72.606  1.00  0.00     1.488 C  
HETATM    2  C   UNL     1     -13.479  15.835  71.503  1.00  0.00    -0.250 C  
ENDROOT
BRANCH   2   3
HETATM    3  N   UNL     1     -13.501  14.415  71.912  1.00  0.00    -0.362 NA 
BRANCH   3   4
HETATM    4  C   UNL     1     -12.922  13.501  70.916  1.00  0.00    -0.154 C  
HETATM    5  C   UNL     1     -13.145  12.012  71.158  1.00  0.00    -0.123 C  
ENDBRANCH   3   4
BRANCH   3   6
HETATM    6  C   UNL     1     -12.909  14.289  73.264  1.00  0.00    -0.180 C  
BRANCH   6   7
HETATM    7  C   UNL     1     -11.431  14.700  73.394  1.00  0.00     0.526 C  
BRANCH   7   8
HETATM    8  C   UNL     1     -10.726  14.621  72.084  1.00  0.00     1.993 A  
HETATM    9  N   UNL     1      -9.682  15.287  71.637  1.00  0.00     2.334 NA 
HETATM   10  C   UNL     1      -9.559  14.816  70.340  1.00  0.00     1.026 A  
HETATM   11  N   UNL     1     -10.471  13.880  70.023  1.00  0.00     0.621 NA 
HETATM   12  O   UNL     1     -11.249  13.763  71.167  1.00  0.00     0.803 OA 
BRANCH  10  13
HETATM   13  C   UNL     1      -8.563  15.313  69.390  1.00  0.00    -0.226 A  
HETATM   14  C   UNL     1      -7.193  15.278  69.685  1.00  0.00    -0.187 A  
HETATM   15  C   UNL     1      -6.256  15.793  68.779  1.00  0.00    -0.105 A  
HETATM   16  C   UNL     1      -6.677  16.345  67.570  1.00  0.00    -0.181 A  
HETATM   17  C   UNL     1      -8.034  16.375  67.258  1.00  0.00    -0.196 A  
HETATM   18  C   UNL     1      -8.969  15.861  68.161  1.00  0.00    -0.181 A  
ENDBRANCH  10  13
ENDBRANCH   7   8
ENDBRANCH   6   7
ENDBRANCH   3   6
ENDBRANCH   2   3
TORSDOF 6
ENDMDL
