MODEL        1
REMARK 921   NORMALIZED FREE ENERGY PREDICTED BY IDOCK:   -5.69 KCAL/MOL
REMARK 922        TOTAL FREE ENERGY PREDICTED BY IDOCK:   -9.46 KCAL/MOL
REMARK 923 INTER-LIGAND FREE ENERGY PREDICTED BY IDOCK:   -8.69 KCAL/MOL
REMARK 924 INTRA-LIGAND FREE ENERGY PREDICTED BY IDOCK:   -0.77 KCAL/MOL
REMARK 927      BINDING AFFINITY PREDICTED BY RF-SCORE:    0.00 PKD
ROOT
HETATM    1  C   UNL     1     -14.253  13.602  72.219  1.00  0.00    -0.521 C  
HETATM    2  C   UNL     1     -14.247  15.115  71.993  1.00  0.00    -0.577 C  
HETATM    3  C   UNL     1     -13.407  15.788  73.085  1.00  0.00    -0.685 C  
ENDROOT
BRANCH   2   4
HETATM    4  N   UNL     1     -13.728  15.388  70.648  1.00  0.00    -0.841 NA 
HETATM    5  H   UNL     1     -14.262  16.130  70.194  1.00  0.00     0.000 HD 
BRANCH   4   6
HETATM    6  C   UNL     1     -12.291  15.695  70.643  1.00  0.00    -0.413 C  
BRANCH   6   7
HETATM    7  C   UNL     1     -11.512  14.806  69.652  1.00  0.00    -0.292 C  
HETATM    8  O   UNL     1     -12.250  14.645  68.436  1.00  0.00    -0.585 OA 
HETATM    9  H   UNL     1     -11.769  14.097  67.825  1.00  0.00     0.000 HD 
BRANCH   7  10
HETATM   10  C   UNL     1     -10.132  15.432  69.362  1.00  0.00    -0.269 C  
BRANCH  10  11
HETATM   11  O   UNL     1      -9.970  15.833  67.994  1.00  0.00    -0.220 OA 
BRANCH  11  12
HETATM   12  C   UNL     1     -10.106  17.170  67.699  1.00  0.00    -0.305 A  
HETATM   13  C   UNL     1     -10.126  18.171  68.682  1.00  0.00    -0.406 A  
HETATM   14  C   UNL     1     -10.300  19.512  68.345  1.00  0.00    -0.486 A  
HETATM   15  C   UNL     1     -10.484  19.873  67.021  1.00  0.00    -0.570 A  
HETATM   16  C   UNL     1     -10.453  18.897  66.028  1.00  0.00    -0.507 A  
HETATM   17  C   UNL     1     -10.220  17.546  66.342  1.00  0.00    -0.354 A  
BRANCH  17  18
HETATM   18  O   UNL     1     -10.097  16.569  65.371  1.00  0.00    -0.570 OA 
BRANCH  18  19
HETATM   19  C   UNL     1     -11.313  16.278  64.669  1.00  0.00    -0.232 C  
BRANCH  19  20
HETATM   20  C   UNL     1     -11.659  14.824  64.774  1.00  0.00    -0.418 C  
HETATM   21  C   UNL     1     -10.741  13.846  64.773  1.00  0.00    -0.437 C  
ENDBRANCH  19  20
ENDBRANCH  18  19
ENDBRANCH  17  18
ENDBRANCH  11  12
ENDBRANCH  10  11
ENDBRANCH   7  10
ENDBRANCH   6   7
ENDBRANCH   4   6
ENDBRANCH   2   4
TORSDOF 9
ENDMDL
MODEL        2
REMARK 921   NORMALIZED FREE ENERGY PREDICTED BY IDOCK:   -5.65 KCAL/MOL
REMARK 922        TOTAL FREE ENERGY PREDICTED BY IDOCK:   -9.40 KCAL/MOL
REMARK 923 INTER-LIGAND FREE ENERGY PREDICTED BY IDOCK:   -8.71 KCAL/MOL
REMARK 924 INTRA-LIGAND FREE ENERGY PREDICTED BY IDOCK:   -0.69 KCAL/MOL
REMARK 927      BINDING AFFINITY PREDICTED BY RF-SCORE:    0.00 PKD
ROOT
HETATM    1  C   UNL     1      -8.889  16.567  66.276  1.00  0.00    -0.364 C  
HETATM    2  C   UNL     1     -10.325  17.066  66.103  1.00  0.00    -0.319 C  
HETATM    3  C   UNL     1     -10.349  18.595  66.221  1.00  0.00    -0.483 C  
ENDROOT
BRANCH   2   4
HETATM    4  N   UNL     1     -10.831  16.603  64.806  1.00  0.00    -0.760 NA 
HETATM    5  H   UNL     1     -10.328  17.047  64.038  1.00  0.00     0.000 HD 
BRANCH   4   6
HETATM    6  C   UNL     1     -10.809  15.140  64.675  1.00  0.00    -0.263 C  
BRANCH   6   7
HETATM    7  C   UNL     1     -12.224  14.551  64.502  1.00  0.00    -0.465 C  
HETATM    8  O   UNL     1     -12.312  13.809  63.281  1.00  0.00    -1.069 OA 
HETATM    9  H   UNL     1     -13.184  13.446  63.174  1.00  0.00     0.000 HD 
BRANCH   7  10
HETATM   10  C   UNL     1     -12.565  13.646  65.704  1.00  0.00    -0.484 C  
BRANCH  10  11
HETATM   11  O   UNL     1     -11.962  14.085  66.929  1.00  0.00    -0.407 OA 
BRANCH  11  12
HETATM   12  C   UNL     1     -11.885  13.180  67.963  1.00  0.00    -0.358 A  
HETATM   13  C   UNL     1     -11.597  11.821  67.770  1.00  0.00    -0.374 A  
HETATM   14  C   UNL     1     -11.562  10.930  68.840  1.00  0.00    -0.378 A  
HETATM   15  C   UNL     1     -11.839  11.377  70.120  1.00  0.00    -0.440 A  
HETATM   16  C   UNL     1     -12.113  12.726  70.337  1.00  0.00    -0.382 A  
HETATM   17  C   UNL     1     -12.096  13.651  69.279  1.00  0.00    -0.314 A  
BRANCH  17  18
HETATM   18  O   UNL     1     -12.276  15.008  69.476  1.00  0.00    -0.290 OA 
BRANCH  18  19
HETATM   19  C   UNL     1     -12.915  15.344  70.715  1.00  0.00    -0.453 C  
BRANCH  19  20
HETATM   20  C   UNL     1     -11.937  15.948  71.677  1.00  0.00    -0.553 C  
HETATM   21  C   UNL     1     -11.846  15.579  72.964  1.00  0.00    -0.555 C  
ENDBRANCH  19  20
ENDBRANCH  18  19
ENDBRANCH  17  18
ENDBRANCH  11  12
ENDBRANCH  10  11
ENDBRANCH   7  10
ENDBRANCH   6   7
ENDBRANCH   4   6
ENDBRANCH   2   4
TORSDOF 9
ENDMDL
MODEL        3
REMARK 921   NORMALIZED FREE ENERGY PREDICTED BY IDOCK:   -5.64 KCAL/MOL
REMARK 922        TOTAL FREE ENERGY PREDICTED BY IDOCK:   -9.38 KCAL/MOL
REMARK 923 INTER-LIGAND FREE ENERGY PREDICTED BY IDOCK:   -8.46 KCAL/MOL
REMARK 924 INTRA-LIGAND FREE ENERGY PREDICTED BY IDOCK:   -0.91 KCAL/MOL
REMARK 927      BINDING AFFINITY PREDICTED BY RF-SCORE:    0.00 PKD
ROOT
HETATM    1  C   UNL     1     -10.664  11.172  64.839  1.00  0.00    -0.318 C  
HETATM    2  C   UNL     1     -11.039  11.893  63.543  1.00  0.00    -0.428 C  
HETATM    3  C   UNL     1     -12.565  11.990  63.438  1.00  0.00    -0.592 C  
ENDROOT
BRANCH   2   4
HETATM    4  N   UNL     1     -10.399  13.214  63.536  1.00  0.00    -0.493 NA 
HETATM    5  H   UNL     1     -10.925  13.872  62.962  1.00  0.00     0.000 HD 
BRANCH   4   6
HETATM    6  C   UNL     1     -10.184  13.750  64.887  1.00  0.00    -0.348 C  
BRANCH   6   7
HETATM    7  C   UNL     1     -11.213  14.841  65.249  1.00  0.00    -0.366 C  
HETATM    8  O   UNL     1     -11.887  15.304  64.073  1.00  0.00    -0.841 OA 
HETATM    9  H   UNL     1     -12.521  15.976  64.296  1.00  0.00     0.000 HD 
BRANCH   7  10
HETATM   10  C   UNL     1     -12.231  14.285  66.265  1.00  0.00    -0.410 C  
BRANCH  10  11
HETATM   11  O   UNL     1     -11.891  14.585  67.626  1.00  0.00    -0.371 OA 
BRANCH  11  12
HETATM   12  C   UNL     1     -11.912  13.551  68.534  1.00  0.00    -0.344 A  
HETATM   13  C   UNL     1     -11.631  12.221  68.184  1.00  0.00    -0.396 A  
HETATM   14  C   UNL     1     -11.697  11.197  69.126  1.00  0.00    -0.408 A  
HETATM   15  C   UNL     1     -12.068  11.479  70.429  1.00  0.00    -0.471 A  
HETATM   16  C   UNL     1     -12.337  12.794  70.801  1.00  0.00    -0.375 A  
HETATM   17  C   UNL     1     -12.220  13.850  69.880  1.00  0.00    -0.333 A  
BRANCH  17  18
HETATM   18  O   UNL     1     -12.394  15.174  70.241  1.00  0.00    -0.321 OA 
BRANCH  18  19
HETATM   19  C   UNL     1     -11.418  15.664  71.171  1.00  0.00    -0.411 C  
BRANCH  19  20
HETATM   20  C   UNL     1     -12.078  16.242  72.386  1.00  0.00    -0.598 C  
HETATM   21  C   UNL     1     -13.211  15.755  72.913  1.00  0.00    -0.640 C  
ENDBRANCH  19  20
ENDBRANCH  18  19
ENDBRANCH  17  18
ENDBRANCH  11  12
ENDBRANCH  10  11
ENDBRANCH   7  10
ENDBRANCH   6   7
ENDBRANCH   4   6
ENDBRANCH   2   4
TORSDOF 9
ENDMDL
MODEL        4
REMARK 921   NORMALIZED FREE ENERGY PREDICTED BY IDOCK:   -5.55 KCAL/MOL
REMARK 922        TOTAL FREE ENERGY PREDICTED BY IDOCK:   -9.25 KCAL/MOL
REMARK 923 INTER-LIGAND FREE ENERGY PREDICTED BY IDOCK:   -8.55 KCAL/MOL
REMARK 924 INTRA-LIGAND FREE ENERGY PREDICTED BY IDOCK:   -0.70 KCAL/MOL
REMARK 927      BINDING AFFINITY PREDICTED BY RF-SCORE:    0.00 PKD
ROOT
HETATM    1  C   UNL     1     -11.466   6.392  70.280  1.00  0.00    -0.468 C  
HETATM    2  C   UNL     1     -11.338   6.185  71.791  1.00  0.00    -0.291 C  
HETATM    3  C   UNL     1     -10.082   6.904  72.297  1.00  0.00    -0.194 C  
ENDROOT
BRANCH   2   4
HETATM    4  N   UNL     1     -12.558   6.679  72.439  1.00  0.00    -0.527 NA 
HETATM    5  H   UNL     1     -12.333   7.252  73.252  1.00  0.00     0.000 HD 
BRANCH   4   6
HETATM    6  C   UNL     1     -13.442   7.402  71.514  1.00  0.00    -0.372 C  
BRANCH   6   7
HETATM    7  C   UNL     1     -13.726   8.842  71.989  1.00  0.00    -0.459 C  
HETATM    8  O   UNL     1     -14.140   8.845  73.360  1.00  0.00    -1.256 OA 
HETATM    9  H   UNL     1     -14.315   9.733  73.652  1.00  0.00     0.000 HD 
BRANCH   7  10
HETATM   10  C   UNL     1     -12.464   9.711  71.809  1.00  0.00    -0.402 C  
BRANCH  10  11
HETATM   11  O   UNL     1     -12.755  11.108  71.670  1.00  0.00    -0.395 OA 
BRANCH  11  12
HETATM   12  C   UNL     1     -12.323  11.741  70.527  1.00  0.00    -0.299 A  
HETATM   13  C   UNL     1     -11.921  11.048  69.375  1.00  0.00    -0.408 A  
HETATM   14  C   UNL     1     -11.456  11.725  68.250  1.00  0.00    -0.370 A  
HETATM   15  C   UNL     1     -11.360  13.106  68.265  1.00  0.00    -0.333 A  
HETATM   16  C   UNL     1     -11.766  13.814  69.393  1.00  0.00    -0.379 A  
HETATM   17  C   UNL     1     -12.293  13.154  70.517  1.00  0.00    -0.304 A  
BRANCH  17  18
HETATM   18  O   UNL     1     -12.787  13.835  71.615  1.00  0.00    -0.341 OA 
BRANCH  18  19
HETATM   19  C   UNL     1     -12.781  15.262  71.475  1.00  0.00    -0.384 C  
BRANCH  19  20
HETATM   20  C   UNL     1     -12.217  15.919  72.698  1.00  0.00    -0.603 C  
HETATM   21  C   UNL     1     -12.301  15.386  73.926  1.00  0.00    -0.764 C  
ENDBRANCH  19  20
ENDBRANCH  18  19
ENDBRANCH  17  18
ENDBRANCH  11  12
ENDBRANCH  10  11
ENDBRANCH   7  10
ENDBRANCH   6   7
ENDBRANCH   4   6
ENDBRANCH   2   4
TORSDOF 9
ENDMDL
MODEL        5
REMARK 921   NORMALIZED FREE ENERGY PREDICTED BY IDOCK:   -5.50 KCAL/MOL
REMARK 922        TOTAL FREE ENERGY PREDICTED BY IDOCK:   -9.16 KCAL/MOL
REMARK 923 INTER-LIGAND FREE ENERGY PREDICTED BY IDOCK:   -7.88 KCAL/MOL
REMARK 924 INTRA-LIGAND FREE ENERGY PREDICTED BY IDOCK:   -1.28 KCAL/MOL
REMARK 927      BINDING AFFINITY PREDICTED BY RF-SCORE:    0.00 PKD
ROOT
HETATM    1  C   UNL     1     -14.023  13.634  72.225  1.00  0.00    -0.661 C  
HETATM    2  C   UNL     1     -14.076  15.131  71.914  1.00  0.00    -0.552 C  
HETATM    3  C   UNL     1     -13.635  15.923  73.152  1.00  0.00    -0.580 C  
ENDROOT
BRANCH   2   4
HETATM    4  N   UNL     1     -13.223  15.402  70.752  1.00  0.00    -0.667 NA 
HETATM    5  H   UNL     1     -13.195  16.400  70.543  1.00  0.00     0.000 HD 
BRANCH   4   6
HETATM    6  C   UNL     1     -11.867  14.857  70.901  1.00  0.00    -0.321 C  
BRANCH   6   7
HETATM    7  C   UNL     1     -10.861  15.535  69.947  1.00  0.00    -0.302 C  
HETATM    8  O   UNL     1      -9.589  14.881  70.013  1.00  0.00    -0.447 OA 
HETATM    9  H   UNL     1      -8.970  15.298  69.425  1.00  0.00     0.000 HD 
BRANCH   7  10
HETATM   10  C   UNL     1     -11.405  15.503  68.504  1.00  0.00    -0.351 C  
BRANCH  10  11
HETATM   11  O   UNL     1     -12.258  14.379  68.247  1.00  0.00    -0.266 OA 
BRANCH  11  12
HETATM   12  C   UNL     1     -11.961  13.586  67.161  1.00  0.00    -0.381 A  
HETATM   13  C   UNL     1     -12.420  13.864  65.865  1.00  0.00    -0.519 A  
HETATM   14  C   UNL     1     -12.126  13.017  64.798  1.00  0.00    -0.465 A  
HETATM   15  C   UNL     1     -11.391  11.865  65.013  1.00  0.00    -0.333 A  
HETATM   16  C   UNL     1     -10.914  11.578  66.289  1.00  0.00    -0.328 A  
HETATM   17  C   UNL     1     -11.149  12.449  67.367  1.00  0.00    -0.272 A  
BRANCH  17  18
HETATM   18  O   UNL     1     -10.614  12.236  68.625  1.00  0.00    -0.228 OA 
BRANCH  18  19
HETATM   19  C   UNL     1     -11.013  11.000  69.233  1.00  0.00    -0.252 C  
BRANCH  19  20
HETATM   20  C   UNL     1     -12.073  11.228  70.268  1.00  0.00    -0.459 C  
HETATM   21  C   UNL     1     -12.487  10.279  71.121  1.00  0.00    -0.495 C  
ENDBRANCH  19  20
ENDBRANCH  18  19
ENDBRANCH  17  18
ENDBRANCH  11  12
ENDBRANCH  10  11
ENDBRANCH   7  10
ENDBRANCH   6   7
ENDBRANCH   4   6
ENDBRANCH   2   4
TORSDOF 9
ENDMDL
MODEL        6
REMARK 921   NORMALIZED FREE ENERGY PREDICTED BY IDOCK:   -5.42 KCAL/MOL
REMARK 922        TOTAL FREE ENERGY PREDICTED BY IDOCK:   -9.04 KCAL/MOL
REMARK 923 INTER-LIGAND FREE ENERGY PREDICTED BY IDOCK:   -7.55 KCAL/MOL
REMARK 924 INTRA-LIGAND FREE ENERGY PREDICTED BY IDOCK:   -1.49 KCAL/MOL
REMARK 927      BINDING AFFINITY PREDICTED BY RF-SCORE:    0.00 PKD
ROOT
HETATM    1  C   UNL     1     -12.531  12.046  63.420  1.00  0.00    -0.625 C  
HETATM    2  C   UNL     1     -11.279  11.815  64.269  1.00  0.00    -0.344 C  
HETATM    3  C   UNL     1     -10.143  11.311  63.371  1.00  0.00    -0.445 C  
ENDROOT
BRANCH   2   4
HETATM    4  N   UNL     1     -10.933  13.068  64.949  1.00  0.00    -0.295 NA 
HETATM    5  H   UNL     1      -9.948  13.296  64.816  1.00  0.00     0.000 HD 
BRANCH   4   6
HETATM    6  C   UNL     1     -11.792  14.190  64.547  1.00  0.00    -0.436 C  
BRANCH   6   7
HETATM    7  C   UNL     1     -11.062  15.546  64.649  1.00  0.00    -0.359 C  
HETATM    8  O   UNL     1     -11.710  16.527  63.832  1.00  0.00    -1.527 OA 
HETATM    9  H   UNL     1     -11.260  17.362  63.895  1.00  0.00     0.000 HD 
BRANCH   7  10
HETATM   10  C   UNL     1     -11.026  16.012  66.119  1.00  0.00    -0.083 C  
BRANCH  10  11
HETATM   11  O   UNL     1     -10.538  15.006  67.018  1.00  0.00    -0.281 OA 
BRANCH  11  12
HETATM   12  C   UNL     1     -11.062  14.977  68.290  1.00  0.00    -0.286 A  
HETATM   13  C   UNL     1     -10.974  16.060  69.178  1.00  0.00    -0.297 A  
HETATM   14  C   UNL     1     -11.487  15.978  70.471  1.00  0.00    -0.409 A  
HETATM   15  C   UNL     1     -12.074  14.803  70.908  1.00  0.00    -0.387 A  
HETATM   16  C   UNL     1     -12.184  13.721  70.038  1.00  0.00    -0.407 A  
HETATM   17  C   UNL     1     -11.726  13.803  68.712  1.00  0.00    -0.356 A  
BRANCH  17  18
HETATM   18  O   UNL     1     -11.901  12.777  67.800  1.00  0.00    -0.348 OA 
BRANCH  18  19
HETATM   19  C   UNL     1     -11.458  11.495  68.264  1.00  0.00    -0.299 C  
BRANCH  19  20
HETATM   20  C   UNL     1      -9.963  11.396  68.223  1.00  0.00    -0.203 C  
HETATM   21  C   UNL     1      -9.294  10.741  67.262  1.00  0.00    -0.165 C  
ENDBRANCH  19  20
ENDBRANCH  18  19
ENDBRANCH  17  18
ENDBRANCH  11  12
ENDBRANCH  10  11
ENDBRANCH   7  10
ENDBRANCH   6   7
ENDBRANCH   4   6
ENDBRANCH   2   4
TORSDOF 9
ENDMDL
MODEL        7
REMARK 921   NORMALIZED FREE ENERGY PREDICTED BY IDOCK:   -5.42 KCAL/MOL
REMARK 922        TOTAL FREE ENERGY PREDICTED BY IDOCK:   -9.04 KCAL/MOL
REMARK 923 INTER-LIGAND FREE ENERGY PREDICTED BY IDOCK:   -8.28 KCAL/MOL
REMARK 924 INTRA-LIGAND FREE ENERGY PREDICTED BY IDOCK:   -0.76 KCAL/MOL
REMARK 927      BINDING AFFINITY PREDICTED BY RF-SCORE:    0.00 PKD
ROOT
HETATM    1  C   UNL     1     -12.413  11.984  63.442  1.00  0.00    -0.625 C  
HETATM    2  C   UNL     1     -11.129  12.419  64.151  1.00  0.00    -0.372 C  
HETATM    3  C   UNL     1      -9.916  11.905  63.367  1.00  0.00    -0.435 C  
ENDROOT
BRANCH   2   4
HETATM    4  N   UNL     1     -11.131  13.882  64.272  1.00  0.00    -0.590 NA 
HETATM    5  H   UNL     1     -12.030  14.271  63.988  1.00  0.00     0.000 HD 
BRANCH   4   6
HETATM    6  C   UNL     1     -10.760  14.342  65.617  1.00  0.00    -0.320 C  
BRANCH   6   7
HETATM    7  C   UNL     1     -10.916  13.230  66.675  1.00  0.00    -0.283 C  
HETATM    8  O   UNL     1      -9.680  13.020  67.367  1.00  0.00    -0.205 OA 
HETATM    9  H   UNL     1      -9.776  12.335  68.019  1.00  0.00     0.000 HD 
BRANCH   7  10
HETATM   10  C   UNL     1     -12.030  13.610  67.673  1.00  0.00    -0.351 C  
BRANCH  10  11
HETATM   11  O   UNL     1     -11.551  13.786  69.013  1.00  0.00    -0.267 OA 
BRANCH  11  12
HETATM   12  C   UNL     1     -12.006  12.912  69.974  1.00  0.00    -0.309 A  
HETATM   13  C   UNL     1     -11.797  11.526  69.907  1.00  0.00    -0.430 A  
HETATM   14  C   UNL     1     -12.304  10.671  70.884  1.00  0.00    -0.502 A  
HETATM   15  C   UNL     1     -13.050  11.183  71.931  1.00  0.00    -0.513 A  
HETATM   16  C   UNL     1     -13.257  12.558  72.024  1.00  0.00    -0.524 A  
HETATM   17  C   UNL     1     -12.705  13.442  71.082  1.00  0.00    -0.328 A  
BRANCH  17  18
HETATM   18  O   UNL     1     -12.818  14.816  71.197  1.00  0.00    -0.302 OA 
BRANCH  18  19
HETATM   19  C   UNL     1     -13.664  15.249  72.271  1.00  0.00    -0.510 C  
BRANCH  19  20
HETATM   20  C   UNL     1     -12.873  15.973  73.319  1.00  0.00    -0.649 C  
HETATM   21  C   UNL     1     -12.308  15.361  74.370  1.00  0.00    -0.766 C  
ENDBRANCH  19  20
ENDBRANCH  18  19
ENDBRANCH  17  18
ENDBRANCH  11  12
ENDBRANCH  10  11
ENDBRANCH   7  10
ENDBRANCH   6   7
ENDBRANCH   4   6
ENDBRANCH   2   4
TORSDOF 9
ENDMDL
MODEL        8
REMARK 921   NORMALIZED FREE ENERGY PREDICTED BY IDOCK:   -5.41 KCAL/MOL
REMARK 922        TOTAL FREE ENERGY PREDICTED BY IDOCK:   -9.04 KCAL/MOL
REMARK 923 INTER-LIGAND FREE ENERGY PREDICTED BY IDOCK:   -7.87 KCAL/MOL
REMARK 924 INTRA-LIGAND FREE ENERGY PREDICTED BY IDOCK:   -1.16 KCAL/MOL
REMARK 927      BINDING AFFINITY PREDICTED BY RF-SCORE:    0.00 PKD
ROOT
HETATM    1  C   UNL     1     -13.921  13.636  72.145  1.00  0.00    -0.609 C  
HETATM    2  C   UNL     1     -14.088  15.104  71.751  1.00  0.00    -0.548 C  
HETATM    3  C   UNL     1     -13.504  15.996  72.853  1.00  0.00    -0.532 C  
ENDROOT
BRANCH   2   4
HETATM    4  N   UNL     1     -13.432  15.323  70.457  1.00  0.00    -0.708 NA 
HETATM    5  H   UNL     1     -13.971  15.968  69.878  1.00  0.00     0.000 HD 
BRANCH   4   6
HETATM    6  C   UNL     1     -12.041  15.774  70.592  1.00  0.00    -0.388 C  
BRANCH   6   7
HETATM    7  C   UNL     1     -11.079  14.965  69.697  1.00  0.00    -0.276 C  
HETATM    8  O   UNL     1     -11.134  13.574  70.032  1.00  0.00    -0.471 OA 
HETATM    9  H   UNL     1     -10.542  13.075  69.480  1.00  0.00     0.000 HD 
BRANCH   7  10
HETATM   10  C   UNL     1     -11.444  15.174  68.213  1.00  0.00    -0.336 C  
BRANCH  10  11
HETATM   11  O   UNL     1     -12.260  14.122  67.680  1.00  0.00    -0.351 OA 
BRANCH  11  12
HETATM   12  C   UNL     1     -11.928  13.621  66.441  1.00  0.00    -0.426 A  
HETATM   13  C   UNL     1     -12.300  14.245  65.241  1.00  0.00    -0.427 A  
HETATM   14  C   UNL     1     -11.974  13.688  64.006  1.00  0.00    -0.478 A  
HETATM   15  C   UNL     1     -11.294  12.484  63.949  1.00  0.00    -0.504 A  
HETATM   16  C   UNL     1     -10.903  11.855  65.129  1.00  0.00    -0.350 A  
HETATM   17  C   UNL     1     -11.170  12.430  66.383  1.00  0.00    -0.319 A  
BRANCH  17  18
HETATM   18  O   UNL     1     -10.718  11.875  67.567  1.00  0.00    -0.212 OA 
BRANCH  18  19
HETATM   19  C   UNL     1     -11.250  10.573  67.848  1.00  0.00    -0.289 C  
BRANCH  19  20
HETATM   20  C   UNL     1     -10.184   9.524  67.744  1.00  0.00    -0.265 C  
HETATM   21  C   UNL     1     -10.342   8.378  67.066  1.00  0.00    -0.385 C  
ENDBRANCH  19  20
ENDBRANCH  18  19
ENDBRANCH  17  18
ENDBRANCH  11  12
ENDBRANCH  10  11
ENDBRANCH   7  10
ENDBRANCH   6   7
ENDBRANCH   4   6
ENDBRANCH   2   4
TORSDOF 9
ENDMDL
MODEL        9
REMARK 921   NORMALIZED FREE ENERGY PREDICTED BY IDOCK:   -5.38 KCAL/MOL
REMARK 922        TOTAL FREE ENERGY PREDICTED BY IDOCK:   -8.98 KCAL/MOL
REMARK 923 INTER-LIGAND FREE ENERGY PREDICTED BY IDOCK:   -7.55 KCAL/MOL
REMARK 924 INTRA-LIGAND FREE ENERGY PREDICTED BY IDOCK:   -1.43 KCAL/MOL
REMARK 927      BINDING AFFINITY PREDICTED BY RF-SCORE:    0.00 PKD
ROOT
HETATM    1  C   UNL     1     -12.300  14.281  65.013  1.00  0.00    -0.434 C  
HETATM    2  C   UNL     1     -12.438  12.757  65.028  1.00  0.00    -0.506 C  
HETATM    3  C   UNL     1     -11.687  12.167  63.829  1.00  0.00    -0.576 C  
ENDROOT
BRANCH   2   4
HETATM    4  N   UNL     1     -11.926  12.250  66.306  1.00  0.00    -0.626 NA 
HETATM    5  H   UNL     1     -11.838  11.234  66.287  1.00  0.00     0.000 HD 
BRANCH   4   6
HETATM    6  C   UNL     1     -10.660  12.881  66.703  1.00  0.00    -0.261 C  
BRANCH   6   7
HETATM    7  C   UNL     1     -10.201  12.428  68.105  1.00  0.00    -0.225 C  
HETATM    8  O   UNL     1      -9.278  13.372  68.659  1.00  0.00    -0.353 OA 
HETATM    9  H   UNL     1      -8.996  13.093  69.523  1.00  0.00     0.000 HD 
BRANCH   7  10
HETATM   10  C   UNL     1     -11.426  12.270  69.030  1.00  0.00    -0.297 C  
BRANCH  10  11
HETATM   11  O   UNL     1     -12.154  13.492  69.216  1.00  0.00    -0.322 OA 
BRANCH  11  12
HETATM   12  C   UNL     1     -12.331  13.941  70.505  1.00  0.00    -0.369 A  
HETATM   13  C   UNL     1     -13.305  13.420  71.369  1.00  0.00    -0.267 A  
HETATM   14  C   UNL     1     -13.476  13.927  72.656  1.00  0.00    -0.652 A  
HETATM   15  C   UNL     1     -12.692  14.981  73.092  1.00  0.00    -0.595 A  
HETATM   16  C   UNL     1     -11.709  15.504  72.256  1.00  0.00    -0.578 A  
HETATM   17  C   UNL     1     -11.482  14.968  70.976  1.00  0.00    -0.300 A  
BRANCH  17  18
HETATM   18  O   UNL     1     -10.456  15.407  70.158  1.00  0.00    -0.297 OA 
BRANCH  18  19
HETATM   19  C   UNL     1     -10.663  16.714  69.604  1.00  0.00    -0.286 C  
BRANCH  19  20
HETATM   20  C   UNL     1     -10.878  16.641  68.123  1.00  0.00    -0.348 C  
HETATM   21  C   UNL     1      -9.881  16.489  67.239  1.00  0.00    -0.254 C  
ENDBRANCH  19  20
ENDBRANCH  18  19
ENDBRANCH  17  18
ENDBRANCH  11  12
ENDBRANCH  10  11
ENDBRANCH   7  10
ENDBRANCH   6   7
ENDBRANCH   4   6
ENDBRANCH   2   4
TORSDOF 9
ENDMDL
MODEL       10
REMARK 921   NORMALIZED FREE ENERGY PREDICTED BY IDOCK:   -5.34 KCAL/MOL
REMARK 922        TOTAL FREE ENERGY PREDICTED BY IDOCK:   -8.92 KCAL/MOL
REMARK 923 INTER-LIGAND FREE ENERGY PREDICTED BY IDOCK:   -8.02 KCAL/MOL
REMARK 924 INTRA-LIGAND FREE ENERGY PREDICTED BY IDOCK:   -0.90 KCAL/MOL
REMARK 927      BINDING AFFINITY PREDICTED BY RF-SCORE:    0.00 PKD
ROOT
HETATM    1  C   UNL     1      -9.610  10.736  62.914  1.00  0.00    -0.366 C  
HETATM    2  C   UNL     1     -10.497  11.536  63.870  1.00  0.00    -0.385 C  
HETATM    3  C   UNL     1     -10.339  10.983  65.292  1.00  0.00    -0.338 C  
ENDROOT
BRANCH   2   4
HETATM    4  N   UNL     1     -10.126  12.953  63.783  1.00  0.00    -0.729 NA 
HETATM    5  H   UNL     1     -10.384  13.343  62.877  1.00  0.00     0.000 HD 
BRANCH   4   6
HETATM    6  C   UNL     1     -10.684  13.756  64.880  1.00  0.00    -0.399 C  
BRANCH   6   7
HETATM    7  C   UNL     1     -11.903  14.588  64.428  1.00  0.00    -0.403 C  
HETATM    8  O   UNL     1     -13.061  14.234  65.190  1.00  0.00    -0.704 OA 
HETATM    9  H   UNL     1     -13.812  14.746  64.912  1.00  0.00     0.000 HD 
BRANCH   7  10
HETATM   10  C   UNL     1     -11.597  16.092  64.585  1.00  0.00    -0.169 C  
BRANCH  10  11
HETATM   11  O   UNL     1     -10.385  16.349  65.307  1.00  0.00    -0.581 OA 
BRANCH  11  12
HETATM   12  C   UNL     1     -10.393  17.375  66.225  1.00  0.00    -0.330 A  
HETATM   13  C   UNL     1     -10.529  18.723  65.862  1.00  0.00    -0.424 A  
HETATM   14  C   UNL     1     -10.497  19.736  66.819  1.00  0.00    -0.610 A  
HETATM   15  C   UNL     1     -10.303  19.420  68.152  1.00  0.00    -0.525 A  
HETATM   16  C   UNL     1     -10.180  18.087  68.536  1.00  0.00    -0.392 A  
HETATM   17  C   UNL     1     -10.268  17.047  67.593  1.00  0.00    -0.317 A  
BRANCH  17  18
HETATM   18  O   UNL     1     -10.238  15.712  67.955  1.00  0.00    -0.223 OA 
BRANCH  18  19
HETATM   19  C   UNL     1     -11.514  15.174  68.328  1.00  0.00    -0.336 C  
BRANCH  19  20
HETATM   20  C   UNL     1     -11.548  14.834  69.787  1.00  0.00    -0.338 C  
HETATM   21  C   UNL     1     -12.170  15.588  70.705  1.00  0.00    -0.450 C  
ENDBRANCH  19  20
ENDBRANCH  18  19
ENDBRANCH  17  18
ENDBRANCH  11  12
ENDBRANCH  10  11
ENDBRANCH   7  10
ENDBRANCH   6   7
ENDBRANCH   4   6
ENDBRANCH   2   4
TORSDOF 9
ENDMDL
MODEL       11
REMARK 921   NORMALIZED FREE ENERGY PREDICTED BY IDOCK:   -5.33 KCAL/MOL
REMARK 922        TOTAL FREE ENERGY PREDICTED BY IDOCK:   -8.91 KCAL/MOL
REMARK 923 INTER-LIGAND FREE ENERGY PREDICTED BY IDOCK:   -7.51 KCAL/MOL
REMARK 924 INTRA-LIGAND FREE ENERGY PREDICTED BY IDOCK:   -1.41 KCAL/MOL
REMARK 927      BINDING AFFINITY PREDICTED BY RF-SCORE:    0.00 PKD
ROOT
HETATM    1  C   UNL     1     -10.957   5.849  71.634  1.00  0.00    -0.327 C  
HETATM    2  C   UNL     1     -10.788   6.843  70.484  1.00  0.00    -0.253 C  
HETATM    3  C   UNL     1     -10.821   6.087  69.150  1.00  0.00    -0.422 C  
ENDROOT
BRANCH   2   4
HETATM    4  N   UNL     1     -11.850   7.852  70.574  1.00  0.00    -0.477 NA 
HETATM    5  H   UNL     1     -12.653   7.589  70.003  1.00  0.00     0.000 HD 
BRANCH   4   6
HETATM    6  C   UNL     1     -12.255   8.131  71.958  1.00  0.00    -0.339 C  
BRANCH   6   7
HETATM    7  C   UNL     1     -13.535   8.990  72.026  1.00  0.00    -0.442 C  
HETATM    8  O   UNL     1     -14.214   8.780  73.269  1.00  0.00    -1.164 OA 
HETATM    9  H   UNL     1     -15.003   9.309  73.311  1.00  0.00     0.000 HD 
BRANCH   7  10
HETATM   10  C   UNL     1     -13.174  10.480  71.858  1.00  0.00    -0.420 C  
BRANCH  10  11
HETATM   11  O   UNL     1     -11.958  10.687  71.127  1.00  0.00    -0.342 OA 
BRANCH  11  12
HETATM   12  C   UNL     1     -11.943  11.687  70.181  1.00  0.00    -0.359 A  
HETATM   13  C   UNL     1     -12.161  13.037  70.494  1.00  0.00    -0.392 A  
HETATM   14  C   UNL     1     -12.173  14.016  69.502  1.00  0.00    -0.355 A  
HETATM   15  C   UNL     1     -11.991  13.659  68.177  1.00  0.00    -0.390 A  
HETATM   16  C   UNL     1     -11.758  12.326  67.846  1.00  0.00    -0.410 A  
HETATM   17  C   UNL     1     -11.685  11.332  68.838  1.00  0.00    -0.341 A  
BRANCH  17  18
HETATM   18  O   UNL     1     -11.368  10.017  68.550  1.00  0.00    -0.176 OA 
BRANCH  18  19
HETATM   19  C   UNL     1     -10.054   9.833  68.005  1.00  0.00    -0.171 C  
BRANCH  19  20
HETATM   20  C   UNL     1     -10.119   9.197  66.649  1.00  0.00    -0.343 C  
HETATM   21  C   UNL     1      -9.899   9.868  65.509  1.00  0.00    -0.381 C  
ENDBRANCH  19  20
ENDBRANCH  18  19
ENDBRANCH  17  18
ENDBRANCH  11  12
ENDBRANCH  10  11
ENDBRANCH   7  10
ENDBRANCH   6   7
ENDBRANCH   4   6
ENDBRANCH   2   4
TORSDOF 9
ENDMDL
MODEL       12
REMARK 921   NORMALIZED FREE ENERGY PREDICTED BY IDOCK:   -5.27 KCAL/MOL
REMARK 922        TOTAL FREE ENERGY PREDICTED BY IDOCK:   -8.82 KCAL/MOL
REMARK 923 INTER-LIGAND FREE ENERGY PREDICTED BY IDOCK:   -7.99 KCAL/MOL
REMARK 924 INTRA-LIGAND FREE ENERGY PREDICTED BY IDOCK:   -0.83 KCAL/MOL
REMARK 927      BINDING AFFINITY PREDICTED BY RF-SCORE:    0.00 PKD
ROOT
HETATM    1  C   UNL     1     -11.095   5.999  69.113  1.00  0.00    -0.405 C  
HETATM    2  C   UNL     1     -11.493   6.399  70.535  1.00  0.00    -0.379 C  
HETATM    3  C   UNL     1     -10.230   6.705  71.349  1.00  0.00    -0.220 C  
ENDROOT
BRANCH   2   4
HETATM    4  N   UNL     1     -12.399   7.551  70.464  1.00  0.00    -0.527 NA 
HETATM    5  H   UNL     1     -12.767   7.669  69.520  1.00  0.00     0.000 HD 
BRANCH   4   6
HETATM    6  C   UNL     1     -13.487   7.483  71.449  1.00  0.00    -0.317 C  
BRANCH   6   7
HETATM    7  C   UNL     1     -13.878   8.878  71.979  1.00  0.00    -0.456 C  
HETATM    8  O   UNL     1     -14.341   8.788  73.331  1.00  0.00    -1.155 OA 
HETATM    9  H   UNL     1     -14.582   9.647  73.657  1.00  0.00     0.000 HD 
BRANCH   7  10
HETATM   10  C   UNL     1     -12.667   9.829  71.890  1.00  0.00    -0.410 C  
BRANCH  10  11
HETATM   11  O   UNL     1     -12.736  10.727  70.774  1.00  0.00    -0.346 OA 
BRANCH  11  12
HETATM   12  C   UNL     1     -12.813  12.075  71.042  1.00  0.00    -0.187 A  
HETATM   13  C   UNL     1     -13.528  12.598  72.130  1.00  0.00    -0.561 A  
HETATM   14  C   UNL     1     -13.611  13.972  72.346  1.00  0.00    -0.658 A  
HETATM   15  C   UNL     1     -13.003  14.849  71.464  1.00  0.00    -0.419 A  
HETATM   16  C   UNL     1     -12.276  14.350  70.385  1.00  0.00    -0.404 A  
HETATM   17  C   UNL     1     -12.132  12.966  70.183  1.00  0.00    -0.302 A  
BRANCH  17  18
HETATM   18  O   UNL     1     -11.344  12.442  69.174  1.00  0.00    -0.249 OA 
BRANCH  18  19
HETATM   19  C   UNL     1     -11.900  12.583  67.859  1.00  0.00    -0.323 C  
BRANCH  19  20
HETATM   20  C   UNL     1     -11.103  13.553  67.041  1.00  0.00    -0.310 C  
HETATM   21  C   UNL     1     -11.627  14.278  66.041  1.00  0.00    -0.362 C  
ENDBRANCH  19  20
ENDBRANCH  18  19
ENDBRANCH  17  18
ENDBRANCH  11  12
ENDBRANCH  10  11
ENDBRANCH   7  10
ENDBRANCH   6   7
ENDBRANCH   4   6
ENDBRANCH   2   4
TORSDOF 9
ENDMDL
MODEL       13
REMARK 921   NORMALIZED FREE ENERGY PREDICTED BY IDOCK:   -5.27 KCAL/MOL
REMARK 922        TOTAL FREE ENERGY PREDICTED BY IDOCK:   -8.81 KCAL/MOL
REMARK 923 INTER-LIGAND FREE ENERGY PREDICTED BY IDOCK:   -8.24 KCAL/MOL
REMARK 924 INTRA-LIGAND FREE ENERGY PREDICTED BY IDOCK:   -0.58 KCAL/MOL
REMARK 927      BINDING AFFINITY PREDICTED BY RF-SCORE:    0.00 PKD
ROOT
HETATM    1  C   UNL     1     -10.103  11.052  63.491  1.00  0.00    -0.428 C  
HETATM    2  C   UNL     1     -10.778  12.423  63.558  1.00  0.00    -0.430 C  
HETATM    3  C   UNL     1     -12.270  12.241  63.860  1.00  0.00    -0.608 C  
ENDROOT
BRANCH   2   4
HETATM    4  N   UNL     1     -10.102  13.232  64.578  1.00  0.00    -0.626 NA 
HETATM    5  H   UNL     1     -10.253  14.228  64.415  1.00  0.00     0.000 HD 
BRANCH   4   6
HETATM    6  C   UNL     1     -10.484  12.860  65.947  1.00  0.00    -0.279 C  
BRANCH   6   7
HETATM    7  C   UNL     1     -10.800  14.094  66.817  1.00  0.00    -0.296 C  
HETATM    8  O   UNL     1     -11.226  15.189  65.999  1.00  0.00    -0.338 OA 
HETATM    9  H   UNL     1     -11.421  15.949  66.536  1.00  0.00     0.000 HD 
BRANCH   7  10
HETATM   10  C   UNL     1     -11.891  13.740  67.849  1.00  0.00    -0.378 C  
BRANCH  10  11
HETATM   11  O   UNL     1     -11.384  13.614  69.185  1.00  0.00    -0.261 OA 
BRANCH  11  12
HETATM   12  C   UNL     1     -12.241  13.902  70.224  1.00  0.00    -0.358 A  
HETATM   13  C   UNL     1     -12.724  15.194  70.480  1.00  0.00    -0.416 A  
HETATM   14  C   UNL     1     -13.562  15.450  71.563  1.00  0.00    -0.604 A  
HETATM   15  C   UNL     1     -13.911  14.424  72.424  1.00  0.00    -0.585 A  
HETATM   16  C   UNL     1     -13.454  13.132  72.180  1.00  0.00    -0.653 A  
HETATM   17  C   UNL     1     -12.656  12.841  71.060  1.00  0.00    -0.271 A  
BRANCH  17  18
HETATM   18  O   UNL     1     -12.260  11.554  70.743  1.00  0.00    -0.374 OA 
BRANCH  18  19
HETATM   19  C   UNL     1     -12.863  10.536  71.553  1.00  0.00    -0.463 C  
BRANCH  19  20
HETATM   20  C   UNL     1     -12.174   9.219  71.362  1.00  0.00    -0.426 C  
HETATM   21  C   UNL     1     -10.912   8.984  71.753  1.00  0.00    -0.443 C  
ENDBRANCH  19  20
ENDBRANCH  18  19
ENDBRANCH  17  18
ENDBRANCH  11  12
ENDBRANCH  10  11
ENDBRANCH   7  10
ENDBRANCH   6   7
ENDBRANCH   4   6
ENDBRANCH   2   4
TORSDOF 9
ENDMDL
MODEL       14
REMARK 921   NORMALIZED FREE ENERGY PREDICTED BY IDOCK:   -5.26 KCAL/MOL
REMARK 922        TOTAL FREE ENERGY PREDICTED BY IDOCK:   -8.81 KCAL/MOL
REMARK 923 INTER-LIGAND FREE ENERGY PREDICTED BY IDOCK:   -7.73 KCAL/MOL
REMARK 924 INTRA-LIGAND FREE ENERGY PREDICTED BY IDOCK:   -1.07 KCAL/MOL
REMARK 927      BINDING AFFINITY PREDICTED BY RF-SCORE:    0.00 PKD
ROOT
HETATM    1  C   UNL     1     -12.292  14.161  64.091  1.00  0.00    -0.372 C  
HETATM    2  C   UNL     1     -12.496  13.292  65.333  1.00  0.00    -0.489 C  
HETATM    3  C   UNL     1     -11.316  12.323  65.474  1.00  0.00    -0.394 C  
ENDROOT
BRANCH   2   4
HETATM    4  N   UNL     1     -12.635  14.168  66.503  1.00  0.00    -0.519 NA 
HETATM    5  H   UNL     1     -13.004  13.654  67.302  1.00  0.00     0.000 HD 
BRANCH   4   6
HETATM    6  C   UNL     1     -11.384  14.856  66.851  1.00  0.00    -0.337 C  
BRANCH   6   7
HETATM    7  C   UNL     1     -11.168  14.928  68.377  1.00  0.00    -0.292 C  
HETATM    8  O   UNL     1     -12.348  15.411  69.029  1.00  0.00    -0.598 OA 
HETATM    9  H   UNL     1     -12.214  15.455  69.969  1.00  0.00     0.000 HD 
BRANCH   7  10
HETATM   10  C   UNL     1     -10.791  13.533  68.918  1.00  0.00    -0.224 C  
BRANCH  10  11
HETATM   11  O   UNL     1     -11.841  12.568  68.770  1.00  0.00    -0.306 OA 
BRANCH  11  12
HETATM   12  C   UNL     1     -12.027  11.663  69.790  1.00  0.00    -0.332 A  
HETATM   13  C   UNL     1     -11.501  10.362  69.763  1.00  0.00    -0.348 A  
HETATM   14  C   UNL     1     -11.741   9.464  70.801  1.00  0.00    -0.349 A  
HETATM   15  C   UNL     1     -12.532   9.842  71.872  1.00  0.00    -0.451 A  
HETATM   16  C   UNL     1     -13.052  11.132  71.925  1.00  0.00    -0.513 A  
HETATM   17  C   UNL     1     -12.774  12.072  70.917  1.00  0.00    -0.199 A  
BRANCH  17  18
HETATM   18  O   UNL     1     -13.202  13.386  70.987  1.00  0.00    -0.174 OA 
BRANCH  18  19
HETATM   19  C   UNL     1     -13.807  13.742  72.237  1.00  0.00    -0.580 C  
BRANCH  19  20
HETATM   20  C   UNL     1     -13.267  15.046  72.742  1.00  0.00    -0.565 C  
HETATM   21  C   UNL     1     -12.651  15.180  73.926  1.00  0.00    -0.690 C  
ENDBRANCH  19  20
ENDBRANCH  18  19
ENDBRANCH  17  18
ENDBRANCH  11  12
ENDBRANCH  10  11
ENDBRANCH   7  10
ENDBRANCH   6   7
ENDBRANCH   4   6
ENDBRANCH   2   4
TORSDOF 9
ENDMDL
MODEL       15
REMARK 921   NORMALIZED FREE ENERGY PREDICTED BY IDOCK:   -5.24 KCAL/MOL
REMARK 922        TOTAL FREE ENERGY PREDICTED BY IDOCK:   -8.77 KCAL/MOL
REMARK 923 INTER-LIGAND FREE ENERGY PREDICTED BY IDOCK:   -7.55 KCAL/MOL
REMARK 924 INTRA-LIGAND FREE ENERGY PREDICTED BY IDOCK:   -1.22 KCAL/MOL
REMARK 927      BINDING AFFINITY PREDICTED BY RF-SCORE:    0.00 PKD
ROOT
HETATM    1  C   UNL     1      -8.746  11.139  67.099  1.00  0.00    -0.141 C  
HETATM    2  C   UNL     1      -8.930  11.055  65.583  1.00  0.00    -0.199 C  
HETATM    3  C   UNL     1      -9.832   9.862  65.245  1.00  0.00    -0.373 C  
ENDROOT
BRANCH   2   4
HETATM    4  N   UNL     1      -9.490  12.325  65.105  1.00  0.00    -0.447 NA 
HETATM    5  H   UNL     1      -8.764  12.914  64.698  1.00  0.00     0.000 HD 
BRANCH   4   6
HETATM    6  C   UNL     1     -10.605  12.139  64.167  1.00  0.00    -0.365 C  
BRANCH   6   7
HETATM    7  C   UNL     1     -11.616  13.303  64.229  1.00  0.00    -0.400 C  
HETATM    8  O   UNL     1     -12.245  13.490  62.957  1.00  0.00    -0.931 OA 
HETATM    9  H   UNL     1     -12.867  14.207  62.995  1.00  0.00     0.000 HD 
BRANCH   7  10
HETATM   10  C   UNL     1     -12.676  13.017  65.313  1.00  0.00    -0.368 C  
BRANCH  10  11
HETATM   11  O   UNL     1     -12.131  12.401  66.487  1.00  0.00    -0.599 OA 
BRANCH  11  12
HETATM   12  C   UNL     1     -11.983  13.183  67.610  1.00  0.00    -0.315 A  
HETATM   13  C   UNL     1     -11.875  14.580  67.559  1.00  0.00    -0.404 A  
HETATM   14  C   UNL     1     -11.691  15.334  68.717  1.00  0.00    -0.374 A  
HETATM   15  C   UNL     1     -11.587  14.701  69.943  1.00  0.00    -0.333 A  
HETATM   16  C   UNL     1     -11.706  13.315  70.018  1.00  0.00    -0.295 A  
HETATM   17  C   UNL     1     -11.950  12.543  68.870  1.00  0.00    -0.236 A  
BRANCH  17  18
HETATM   18  O   UNL     1     -12.162  11.176  68.924  1.00  0.00    -0.522 OA 
BRANCH  18  19
HETATM   19  C   UNL     1     -11.351  10.493  69.890  1.00  0.00    -0.309 C  
BRANCH  19  20
HETATM   20  C   UNL     1     -12.199   9.714  70.848  1.00  0.00    -0.368 C  
HETATM   21  C   UNL     1     -13.025  10.288  71.736  1.00  0.00    -0.574 C  
ENDBRANCH  19  20
ENDBRANCH  18  19
ENDBRANCH  17  18
ENDBRANCH  11  12
ENDBRANCH  10  11
ENDBRANCH   7  10
ENDBRANCH   6   7
ENDBRANCH   4   6
ENDBRANCH   2   4
TORSDOF 9
ENDMDL
MODEL       16
REMARK 921   NORMALIZED FREE ENERGY PREDICTED BY IDOCK:   -5.23 KCAL/MOL
REMARK 922        TOTAL FREE ENERGY PREDICTED BY IDOCK:   -8.76 KCAL/MOL
REMARK 923 INTER-LIGAND FREE ENERGY PREDICTED BY IDOCK:   -7.90 KCAL/MOL
REMARK 924 INTRA-LIGAND FREE ENERGY PREDICTED BY IDOCK:   -0.86 KCAL/MOL
REMARK 927      BINDING AFFINITY PREDICTED BY RF-SCORE:    0.00 PKD
ROOT
HETATM    1  C   UNL     1     -13.936  13.494  72.282  1.00  0.00    -0.638 C  
HETATM    2  C   UNL     1     -14.180  14.991  72.083  1.00  0.00    -0.540 C  
HETATM    3  C   UNL     1     -13.570  15.766  73.258  1.00  0.00    -0.495 C  
ENDROOT
BRANCH   2   4
HETATM    4  N   UNL     1     -13.604  15.395  70.795  1.00  0.00    -0.814 NA 
HETATM    5  H   UNL     1     -14.172  16.117  70.352  1.00  0.00     0.000 HD 
BRANCH   4   6
HETATM    6  C   UNL     1     -12.202  15.822  70.906  1.00  0.00    -0.413 C  
BRANCH   6   7
HETATM    7  C   UNL     1     -11.537  15.993  69.525  1.00  0.00    -0.304 C  
HETATM    8  O   UNL     1     -10.687  17.145  69.517  1.00  0.00    -0.376 OA 
HETATM    9  H   UNL     1     -10.277  17.250  68.666  1.00  0.00     0.000 HD 
BRANCH   7  10
HETATM   10  C   UNL     1     -10.726  14.727  69.175  1.00  0.00    -0.254 C  
BRANCH  10  11
HETATM   11  O   UNL     1      -9.964  14.862  67.968  1.00  0.00    -0.216 OA 
BRANCH  11  12
HETATM   12  C   UNL     1     -10.646  14.830  66.773  1.00  0.00    -0.302 A  
HETATM   13  C   UNL     1     -11.338  13.697  66.318  1.00  0.00    -0.325 A  
HETATM   14  C   UNL     1     -11.988  13.695  65.085  1.00  0.00    -0.391 A  
HETATM   15  C   UNL     1     -11.937  14.816  64.275  1.00  0.00    -0.387 A  
HETATM   16  C   UNL     1     -11.268  15.956  64.715  1.00  0.00    -0.364 A  
HETATM   17  C   UNL     1     -10.656  15.999  65.979  1.00  0.00    -0.316 A  
BRANCH  17  18
HETATM   18  O   UNL     1     -10.062  17.144  66.479  1.00  0.00    -0.286 OA 
BRANCH  18  19
HETATM   19  C   UNL     1     -10.624  18.365  65.979  1.00  0.00    -0.309 C  
BRANCH  19  20
HETATM   20  C   UNL     1     -10.776  19.375  67.076  1.00  0.00    -0.582 C  
HETATM   21  C   UNL     1      -9.838  20.286  67.374  1.00  0.00    -0.586 C  
ENDBRANCH  19  20
ENDBRANCH  18  19
ENDBRANCH  17  18
ENDBRANCH  11  12
ENDBRANCH  10  11
ENDBRANCH   7  10
ENDBRANCH   6   7
ENDBRANCH   4   6
ENDBRANCH   2   4
TORSDOF 9
ENDMDL
MODEL       17
REMARK 921   NORMALIZED FREE ENERGY PREDICTED BY IDOCK:   -5.22 KCAL/MOL
REMARK 922        TOTAL FREE ENERGY PREDICTED BY IDOCK:   -8.74 KCAL/MOL
REMARK 923 INTER-LIGAND FREE ENERGY PREDICTED BY IDOCK:   -7.96 KCAL/MOL
REMARK 924 INTRA-LIGAND FREE ENERGY PREDICTED BY IDOCK:   -0.78 KCAL/MOL
REMARK 927      BINDING AFFINITY PREDICTED BY RF-SCORE:    0.00 PKD
ROOT
HETATM    1  C   UNL     1     -10.524  19.829  66.142  1.00  0.00    -0.613 C  
HETATM    2  C   UNL     1      -9.046  19.452  66.249  1.00  0.00    -0.346 C  
HETATM    3  C   UNL     1      -8.519  19.850  67.633  1.00  0.00    -0.374 C  
ENDROOT
BRANCH   2   4
HETATM    4  N   UNL     1      -8.907  18.013  65.997  1.00  0.00    -0.510 NA 
HETATM    5  H   UNL     1      -8.156  17.614  66.559  1.00  0.00     0.000 HD 
BRANCH   4   6
HETATM    6  C   UNL     1     -10.162  17.276  66.196  1.00  0.00    -0.331 C  
BRANCH   6   7
HETATM    7  C   UNL     1     -10.153  16.459  67.505  1.00  0.00    -0.261 C  
HETATM    8  O   UNL     1     -10.799  17.188  68.555  1.00  0.00    -0.349 OA 
HETATM    9  H   UNL     1     -10.793  16.684  69.361  1.00  0.00     0.000 HD 
BRANCH   7  10
HETATM   10  C   UNL     1     -10.858  15.105  67.281  1.00  0.00    -0.316 C  
BRANCH  10  11
HETATM   11  O   UNL     1     -12.001  14.917  68.128  1.00  0.00    -0.304 OA 
BRANCH  11  12
HETATM   12  C   UNL     1     -12.035  13.788  68.914  1.00  0.00    -0.359 A  
HETATM   13  C   UNL     1     -11.705  12.512  68.433  1.00  0.00    -0.375 A  
HETATM   14  C   UNL     1     -11.786  11.387  69.252  1.00  0.00    -0.417 A  
HETATM   15  C   UNL     1     -12.222  11.515  70.559  1.00  0.00    -0.469 A  
HETATM   16  C   UNL     1     -12.541  12.775  71.061  1.00  0.00    -0.362 A  
HETATM   17  C   UNL     1     -12.410  13.929  70.269  1.00  0.00    -0.345 A  
BRANCH  17  18
HETATM   18  O   UNL     1     -12.633  15.200  70.765  1.00  0.00    -0.337 OA 
BRANCH  18  19
HETATM   19  C   UNL     1     -13.708  15.283  71.711  1.00  0.00    -0.504 C  
BRANCH  19  20
HETATM   20  C   UNL     1     -13.229  15.829  73.022  1.00  0.00    -0.671 C  
HETATM   21  C   UNL     1     -12.465  15.131  73.876  1.00  0.00    -0.715 C  
ENDBRANCH  19  20
ENDBRANCH  18  19
ENDBRANCH  17  18
ENDBRANCH  11  12
ENDBRANCH  10  11
ENDBRANCH   7  10
ENDBRANCH   6   7
ENDBRANCH   4   6
ENDBRANCH   2   4
TORSDOF 9
ENDMDL
MODEL       18
REMARK 921   NORMALIZED FREE ENERGY PREDICTED BY IDOCK:   -5.21 KCAL/MOL
REMARK 922        TOTAL FREE ENERGY PREDICTED BY IDOCK:   -8.72 KCAL/MOL
REMARK 923 INTER-LIGAND FREE ENERGY PREDICTED BY IDOCK:   -7.73 KCAL/MOL
REMARK 924 INTRA-LIGAND FREE ENERGY PREDICTED BY IDOCK:   -0.99 KCAL/MOL
REMARK 927      BINDING AFFINITY PREDICTED BY RF-SCORE:    0.00 PKD
ROOT
HETATM    1  C   UNL     1     -10.419  10.282  66.970  1.00  0.00    -0.304 C  
HETATM    2  C   UNL     1     -11.106  11.394  67.765  1.00  0.00    -0.265 C  
HETATM    3  C   UNL     1     -11.691  12.426  66.794  1.00  0.00    -0.430 C  
ENDROOT
BRANCH   2   4
HETATM    4  N   UNL     1     -12.136  10.793  68.621  1.00  0.00    -0.816 NA 
HETATM    5  H   UNL     1     -12.578   9.999  68.158  1.00  0.00     0.000 HD 
BRANCH   4   6
HETATM    6  C   UNL     1     -11.626  10.414  69.946  1.00  0.00    -0.284 C  
BRANCH   6   7
HETATM    7  C   UNL     1     -12.765  10.173  70.959  1.00  0.00    -0.386 C  
HETATM    8  O   UNL     1     -12.404   9.140  71.882  1.00  0.00    -0.342 OA 
HETATM    9  H   UNL     1     -13.105   8.992  72.506  1.00  0.00     0.000 HD 
BRANCH   7  10
HETATM   10  C   UNL     1     -13.078  11.481  71.714  1.00  0.00    -0.398 C  
BRANCH  10  11
HETATM   11  O   UNL     1     -12.879  12.655  70.915  1.00  0.00    -0.219 OA 
BRANCH  11  12
HETATM   12  C   UNL     1     -12.652  13.844  71.571  1.00  0.00    -0.334 A  
HETATM   13  C   UNL     1     -13.158  14.120  72.850  1.00  0.00    -0.544 A  
HETATM   14  C   UNL     1     -12.935  15.350  73.465  1.00  0.00    -0.659 A  
HETATM   15  C   UNL     1     -12.223  16.335  72.803  1.00  0.00    -0.592 A  
HETATM   16  C   UNL     1     -11.700  16.077  71.538  1.00  0.00    -0.554 A  
HETATM   17  C   UNL     1     -11.864  14.823  70.925  1.00  0.00    -0.322 A  
BRANCH  17  18
HETATM   18  O   UNL     1     -11.281  14.508  69.710  1.00  0.00    -0.255 OA 
BRANCH  18  19
HETATM   19  C   UNL     1     -11.707  15.337  68.620  1.00  0.00    -0.346 C  
BRANCH  19  20
HETATM   20  C   UNL     1     -10.558  16.114  68.054  1.00  0.00    -0.304 C  
HETATM   21  C   UNL     1     -10.323  17.401  68.347  1.00  0.00    -0.379 C  
ENDBRANCH  19  20
ENDBRANCH  18  19
ENDBRANCH  17  18
ENDBRANCH  11  12
ENDBRANCH  10  11
ENDBRANCH   7  10
ENDBRANCH   6   7
ENDBRANCH   4   6
ENDBRANCH   2   4
TORSDOF 9
ENDMDL
MODEL       19
REMARK 921   NORMALIZED FREE ENERGY PREDICTED BY IDOCK:   -5.19 KCAL/MOL
REMARK 922        TOTAL FREE ENERGY PREDICTED BY IDOCK:   -8.69 KCAL/MOL
REMARK 923 INTER-LIGAND FREE ENERGY PREDICTED BY IDOCK:   -7.88 KCAL/MOL
REMARK 924 INTRA-LIGAND FREE ENERGY PREDICTED BY IDOCK:   -0.82 KCAL/MOL
REMARK 927      BINDING AFFINITY PREDICTED BY RF-SCORE:    0.00 PKD
ROOT
HETATM    1  C   UNL     1     -10.116  19.856  68.316  1.00  0.00    -0.571 C  
HETATM    2  C   UNL     1     -10.647  18.723  67.435  1.00  0.00    -0.443 C  
HETATM    3  C   UNL     1     -10.535  19.130  65.961  1.00  0.00    -0.546 C  
ENDROOT
BRANCH   2   4
HETATM    4  N   UNL     1      -9.889  17.502  67.732  1.00  0.00    -0.276 NA 
HETATM    5  H   UNL     1      -9.500  17.533  68.674  1.00  0.00     0.000 HD 
BRANCH   4   6
HETATM    6  C   UNL     1     -10.677  16.279  67.528  1.00  0.00    -0.300 C  
BRANCH   6   7
HETATM    7  C   UNL     1     -11.004  15.571  68.860  1.00  0.00    -0.266 C  
HETATM    8  O   UNL     1     -12.381  15.757  69.201  1.00  0.00    -0.573 OA 
HETATM    9  H   UNL     1     -12.582  15.320  70.022  1.00  0.00     0.000 HD 
BRANCH   7  10
HETATM   10  C   UNL     1     -10.679  14.067  68.746  1.00  0.00    -0.259 C  
BRANCH  10  11
HETATM   11  O   UNL     1     -11.848  13.241  68.667  1.00  0.00    -0.318 OA 
BRANCH  11  12
HETATM   12  C   UNL     1     -11.947  12.186  69.545  1.00  0.00    -0.275 A  
HETATM   13  C   UNL     1     -11.415  10.916  69.276  1.00  0.00    -0.372 A  
HETATM   14  C   UNL     1     -11.566   9.864  70.177  1.00  0.00    -0.281 A  
HETATM   15  C   UNL     1     -12.274  10.055  71.350  1.00  0.00    -0.510 A  
HETATM   16  C   UNL     1     -12.798  11.312  71.643  1.00  0.00    -0.510 A  
HETATM   17  C   UNL     1     -12.607  12.401  70.775  1.00  0.00    -0.211 A  
BRANCH  17  18
HETATM   18  O   UNL     1     -13.038  13.680  71.081  1.00  0.00    -0.303 OA 
BRANCH  18  19
HETATM   19  C   UNL     1     -13.471  13.846  72.438  1.00  0.00    -0.560 C  
BRANCH  19  20
HETATM   20  C   UNL     1     -13.415  15.287  72.846  1.00  0.00    -0.611 C  
HETATM   21  C   UNL     1     -12.502  15.776  73.699  1.00  0.00    -0.692 C  
ENDBRANCH  19  20
ENDBRANCH  18  19
ENDBRANCH  17  18
ENDBRANCH  11  12
ENDBRANCH  10  11
ENDBRANCH   7  10
ENDBRANCH   6   7
ENDBRANCH   4   6
ENDBRANCH   2   4
TORSDOF 9
ENDMDL
MODEL       20
REMARK 921   NORMALIZED FREE ENERGY PREDICTED BY IDOCK:   -5.19 KCAL/MOL
REMARK 922        TOTAL FREE ENERGY PREDICTED BY IDOCK:   -8.69 KCAL/MOL
REMARK 923 INTER-LIGAND FREE ENERGY PREDICTED BY IDOCK:   -7.97 KCAL/MOL
REMARK 924 INTRA-LIGAND FREE ENERGY PREDICTED BY IDOCK:   -0.71 KCAL/MOL
REMARK 927      BINDING AFFINITY PREDICTED BY RF-SCORE:    0.00 PKD
ROOT
HETATM    1  C   UNL     1     -14.233   7.578  71.366  1.00  0.00    -0.523 C  
HETATM    2  C   UNL     1     -13.385   8.771  71.811  1.00  0.00    -0.378 C  
HETATM    3  C   UNL     1     -11.986   8.282  72.204  1.00  0.00    -0.429 C  
ENDROOT
BRANCH   2   4
HETATM    4  N   UNL     1     -13.342   9.751  70.719  1.00  0.00    -0.606 NA 
HETATM    5  H   UNL     1     -14.277  10.098  70.502  1.00  0.00     0.000 HD 
BRANCH   4   6
HETATM    6  C   UNL     1     -12.418  10.862  70.986  1.00  0.00    -0.411 C  
BRANCH   6   7
HETATM    7  C   UNL     1     -11.683  11.325  69.711  1.00  0.00    -0.349 C  
HETATM    8  O   UNL     1     -12.308  10.776  68.545  1.00  0.00    -0.825 OA 
HETATM    9  H   UNL     1     -11.856  11.062  67.760  1.00  0.00     0.000 HD 
BRANCH   7  10
HETATM   10  C   UNL     1     -11.678  12.866  69.641  1.00  0.00    -0.299 C  
BRANCH  10  11
HETATM   11  O   UNL     1     -12.260  13.378  68.434  1.00  0.00    -0.293 OA 
BRANCH  11  12
HETATM   12  C   UNL     1     -11.528  14.290  67.708  1.00  0.00    -0.329 A  
HETATM   13  C   UNL     1     -11.192  15.562  68.196  1.00  0.00    -0.343 A  
HETATM   14  C   UNL     1     -10.479  16.469  67.415  1.00  0.00    -0.310 A  
HETATM   15  C   UNL     1     -10.111  16.131  66.124  1.00  0.00    -0.356 A  
HETATM   16  C   UNL     1     -10.422  14.868  65.626  1.00  0.00    -0.366 A  
HETATM   17  C   UNL     1     -11.089  13.917  66.418  1.00  0.00    -0.309 A  
BRANCH  17  18
HETATM   18  O   UNL     1     -11.332  12.627  65.982  1.00  0.00    -0.296 OA 
BRANCH  18  19
HETATM   19  C   UNL     1     -12.334  12.529  64.960  1.00  0.00    -0.453 C  
BRANCH  19  20
HETATM   20  C   UNL     1     -11.712  12.250  63.625  1.00  0.00    -0.591 C  
HETATM   21  C   UNL     1     -10.427  11.900  63.469  1.00  0.00    -0.505 C  
ENDBRANCH  19  20
ENDBRANCH  18  19
ENDBRANCH  17  18
ENDBRANCH  11  12
ENDBRANCH  10  11
ENDBRANCH   7  10
ENDBRANCH   6   7
ENDBRANCH   4   6
ENDBRANCH   2   4
TORSDOF 9
ENDMDL
MODEL       21
REMARK 921   NORMALIZED FREE ENERGY PREDICTED BY IDOCK:   -5.18 KCAL/MOL
REMARK 922        TOTAL FREE ENERGY PREDICTED BY IDOCK:   -8.68 KCAL/MOL
REMARK 923 INTER-LIGAND FREE ENERGY PREDICTED BY IDOCK:   -7.99 KCAL/MOL
REMARK 924 INTRA-LIGAND FREE ENERGY PREDICTED BY IDOCK:   -0.68 KCAL/MOL
REMARK 927      BINDING AFFINITY PREDICTED BY RF-SCORE:    0.00 PKD
ROOT
HETATM    1  C   UNL     1      -9.202  16.773  66.284  1.00  0.00    -0.313 C  
HETATM    2  C   UNL     1     -10.548  17.435  65.982  1.00  0.00    -0.210 C  
HETATM    3  C   UNL     1     -10.371  18.958  65.960  1.00  0.00    -0.485 C  
ENDROOT
BRANCH   2   4
HETATM    4  N   UNL     1     -11.052  16.918  64.704  1.00  0.00    -0.990 NA 
HETATM    5  H   UNL     1     -10.605  17.391  63.918  1.00  0.00     0.000 HD 
BRANCH   4   6
HETATM    6  C   UNL     1     -10.918  15.460  64.587  1.00  0.00    -0.314 C  
BRANCH   6   7
HETATM    7  C   UNL     1     -12.283  14.767  64.395  1.00  0.00    -0.428 C  
HETATM    8  O   UNL     1     -12.290  13.998  63.187  1.00  0.00    -1.133 OA 
HETATM    9  H   UNL     1     -13.130  13.571  63.069  1.00  0.00     0.000 HD 
BRANCH   7  10
HETATM   10  C   UNL     1     -12.585  13.861  65.607  1.00  0.00    -0.517 C  
BRANCH  10  11
HETATM   11  O   UNL     1     -12.377  12.468  65.335  1.00  0.00    -0.579 OA 
BRANCH  11  12
HETATM   12  C   UNL     1     -11.201  11.900  65.769  1.00  0.00    -0.312 A  
HETATM   13  C   UNL     1     -10.046  11.833  64.975  1.00  0.00    -0.302 A  
HETATM   14  C   UNL     1      -8.885  11.219  65.439  1.00  0.00    -0.055 A  
HETATM   15  C   UNL     1      -8.865  10.638  66.695  1.00  0.00    -0.149 A  
HETATM   16  C   UNL     1      -9.996  10.705  67.505  1.00  0.00    -0.201 A  
HETATM   17  C   UNL     1     -11.158  11.372  67.079  1.00  0.00    -0.303 A  
BRANCH  17  18
HETATM   18  O   UNL     1     -12.264  11.532  67.894  1.00  0.00    -0.586 OA 
BRANCH  18  19
HETATM   19  C   UNL     1     -12.035  11.196  69.270  1.00  0.00    -0.351 C  
BRANCH  19  20
HETATM   20  C   UNL     1     -12.095  12.416  70.138  1.00  0.00    -0.366 C  
HETATM   21  C   UNL     1     -11.796  13.648  69.699  1.00  0.00    -0.396 C  
ENDBRANCH  19  20
ENDBRANCH  18  19
ENDBRANCH  17  18
ENDBRANCH  11  12
ENDBRANCH  10  11
ENDBRANCH   7  10
ENDBRANCH   6   7
ENDBRANCH   4   6
ENDBRANCH   2   4
TORSDOF 9
ENDMDL
MODEL       22
REMARK 921   NORMALIZED FREE ENERGY PREDICTED BY IDOCK:   -5.17 KCAL/MOL
REMARK 922        TOTAL FREE ENERGY PREDICTED BY IDOCK:   -8.66 KCAL/MOL
REMARK 923 INTER-LIGAND FREE ENERGY PREDICTED BY IDOCK:   -7.48 KCAL/MOL
REMARK 924 INTRA-LIGAND FREE ENERGY PREDICTED BY IDOCK:   -1.18 KCAL/MOL
REMARK 927      BINDING AFFINITY PREDICTED BY RF-SCORE:    0.00 PKD
ROOT
HETATM    1  C   UNL     1      -7.502  18.635  66.478  1.00  0.00    -0.267 C  
HETATM    2  C   UNL     1      -8.345  17.456  66.968  1.00  0.00    -0.217 C  
HETATM    3  C   UNL     1      -9.285  17.932  68.081  1.00  0.00    -0.278 C  
ENDROOT
BRANCH   2   4
HETATM    4  N   UNL     1      -9.077  16.894  65.827  1.00  0.00    -0.510 NA 
HETATM    5  H   UNL     1      -8.747  15.954  65.609  1.00  0.00     0.000 HD 
BRANCH   4   6
HETATM    6  C   UNL     1     -10.533  16.909  66.021  1.00  0.00    -0.290 C  
BRANCH   6   7
HETATM    7  C   UNL     1     -11.247  15.862  65.141  1.00  0.00    -0.224 C  
HETATM    8  O   UNL     1     -11.503  16.395  63.837  1.00  0.00    -1.569 OA 
HETATM    9  H   UNL     1     -11.943  15.750  63.295  1.00  0.00     0.000 HD 
BRANCH   7  10
HETATM   10  C   UNL     1     -10.383  14.589  65.039  1.00  0.00    -0.413 C  
BRANCH  10  11
HETATM   11  O   UNL     1      -9.771  14.221  66.282  1.00  0.00    -0.284 OA 
BRANCH  11  12
HETATM   12  C   UNL     1     -10.329  13.178  66.986  1.00  0.00    -0.249 A  
HETATM   13  C   UNL     1     -10.407  11.871  66.483  1.00  0.00    -0.249 A  
HETATM   14  C   UNL     1     -11.012  10.850  67.213  1.00  0.00    -0.355 A  
HETATM   15  C   UNL     1     -11.573  11.123  68.449  1.00  0.00    -0.376 A  
HETATM   16  C   UNL     1     -11.494  12.411  68.973  1.00  0.00    -0.352 A  
HETATM   17  C   UNL     1     -10.837  13.441  68.279  1.00  0.00    -0.256 A  
BRANCH  17  18
HETATM   18  O   UNL     1     -10.665  14.706  68.813  1.00  0.00    -0.234 OA 
BRANCH  18  19
HETATM   19  C   UNL     1     -11.890  15.396  69.096  1.00  0.00    -0.335 C  
BRANCH  19  20
HETATM   20  C   UNL     1     -12.043  15.637  70.567  1.00  0.00    -0.430 C  
HETATM   21  C   UNL     1     -13.210  15.511  71.217  1.00  0.00    -0.588 C  
ENDBRANCH  19  20
ENDBRANCH  18  19
ENDBRANCH  17  18
ENDBRANCH  11  12
ENDBRANCH  10  11
ENDBRANCH   7  10
ENDBRANCH   6   7
ENDBRANCH   4   6
ENDBRANCH   2   4
TORSDOF 9
ENDMDL
MODEL       23
REMARK 921   NORMALIZED FREE ENERGY PREDICTED BY IDOCK:   -5.16 KCAL/MOL
REMARK 922        TOTAL FREE ENERGY PREDICTED BY IDOCK:   -8.65 KCAL/MOL
REMARK 923 INTER-LIGAND FREE ENERGY PREDICTED BY IDOCK:   -7.49 KCAL/MOL
REMARK 924 INTRA-LIGAND FREE ENERGY PREDICTED BY IDOCK:   -1.16 KCAL/MOL
REMARK 927      BINDING AFFINITY PREDICTED BY RF-SCORE:    0.00 PKD
ROOT
HETATM    1  C   UNL     1      -8.549  11.754  66.581  1.00  0.00    -0.170 C  
HETATM    2  C   UNL     1      -9.074  11.283  65.224  1.00  0.00    -0.126 C  
HETATM    3  C   UNL     1     -10.001  10.079  65.428  1.00  0.00    -0.364 C  
ENDROOT
BRANCH   2   4
HETATM    4  N   UNL     1      -9.759  12.404  64.569  1.00  0.00    -0.499 NA 
HETATM    5  H   UNL     1      -9.100  13.145  64.331  1.00  0.00     0.000 HD 
BRANCH   4   6
HETATM    6  C   UNL     1     -10.533  11.989  63.391  1.00  0.00    -0.433 C  
BRANCH   6   7
HETATM    7  C   UNL     1     -11.976  12.534  63.425  1.00  0.00    -0.514 C  
HETATM    8  O   UNL     1     -12.882  11.590  62.843  1.00  0.00    -0.901 OA 
HETATM    9  H   UNL     1     -13.771  11.926  62.864  1.00  0.00     0.000 HD 
BRANCH   7  10
HETATM   10  C   UNL     1     -12.386  12.842  64.880  1.00  0.00    -0.490 C  
BRANCH  10  11
HETATM   11  O   UNL     1     -11.997  14.153  65.310  1.00  0.00    -0.351 OA 
BRANCH  11  12
HETATM   12  C   UNL     1     -11.589  14.303  66.616  1.00  0.00    -0.383 A  
HETATM   13  C   UNL     1     -11.866  13.360  67.616  1.00  0.00    -0.394 A  
HETATM   14  C   UNL     1     -11.465  13.565  68.935  1.00  0.00    -0.348 A  
HETATM   15  C   UNL     1     -10.801  14.730  69.281  1.00  0.00    -0.275 A  
HETATM   16  C   UNL     1     -10.504  15.673  68.301  1.00  0.00    -0.252 A  
HETATM   17  C   UNL     1     -10.848  15.458  66.955  1.00  0.00    -0.320 A  
BRANCH  17  18
HETATM   18  O   UNL     1     -10.488  16.334  65.947  1.00  0.00    -0.334 OA 
BRANCH  18  19
HETATM   19  C   UNL     1      -9.634  17.404  66.373  1.00  0.00    -0.276 C  
BRANCH  19  20
HETATM   20  C   UNL     1     -10.275  18.735  66.122  1.00  0.00    -0.462 C  
HETATM   21  C   UNL     1     -10.759  19.517  67.099  1.00  0.00    -0.599 C  
ENDBRANCH  19  20
ENDBRANCH  18  19
ENDBRANCH  17  18
ENDBRANCH  11  12
ENDBRANCH  10  11
ENDBRANCH   7  10
ENDBRANCH   6   7
ENDBRANCH   4   6
ENDBRANCH   2   4
TORSDOF 9
ENDMDL
MODEL       24
REMARK 921   NORMALIZED FREE ENERGY PREDICTED BY IDOCK:   -5.16 KCAL/MOL
REMARK 922        TOTAL FREE ENERGY PREDICTED BY IDOCK:   -8.65 KCAL/MOL
REMARK 923 INTER-LIGAND FREE ENERGY PREDICTED BY IDOCK:   -7.45 KCAL/MOL
REMARK 924 INTRA-LIGAND FREE ENERGY PREDICTED BY IDOCK:   -1.20 KCAL/MOL
REMARK 927      BINDING AFFINITY PREDICTED BY RF-SCORE:    0.00 PKD
ROOT
HETATM    1  C   UNL     1     -12.876  10.866  71.284  1.00  0.00    -0.536 C  
HETATM    2  C   UNL     1     -11.704  10.833  70.301  1.00  0.00    -0.352 C  
HETATM    3  C   UNL     1     -10.783   9.657  70.648  1.00  0.00    -0.388 C  
ENDROOT
BRANCH   2   4
HETATM    4  N   UNL     1     -12.235  10.736  68.937  1.00  0.00    -0.795 NA 
HETATM    5  H   UNL     1     -12.747  11.581  68.683  1.00  0.00     0.000 HD 
BRANCH   4   6
HETATM    6  C   UNL     1     -11.198  10.430  67.942  1.00  0.00    -0.263 C  
BRANCH   6   7
HETATM    7  C   UNL     1     -10.531  11.706  67.388  1.00  0.00    -0.210 C  
HETATM    8  O   UNL     1      -9.553  11.371  66.397  1.00  0.00    -0.195 OA 
HETATM    9  H   UNL     1      -9.142  12.157  66.057  1.00  0.00     0.000 HD 
BRANCH   7  10
HETATM   10  C   UNL     1     -11.603  12.639  66.788  1.00  0.00    -0.374 C  
BRANCH  10  11
HETATM   11  O   UNL     1     -12.285  13.423  67.776  1.00  0.00    -0.291 OA 
BRANCH  11  12
HETATM   12  C   UNL     1     -11.696  14.601  68.176  1.00  0.00    -0.330 A  
HETATM   13  C   UNL     1     -10.945  15.411  67.311  1.00  0.00    -0.317 A  
HETATM   14  C   UNL     1     -10.336  16.580  67.764  1.00  0.00    -0.291 A  
HETATM   15  C   UNL     1     -10.445  16.946  69.094  1.00  0.00    -0.335 A  
HETATM   16  C   UNL     1     -11.198  16.163  69.966  1.00  0.00    -0.359 A  
HETATM   17  C   UNL     1     -11.869  15.012  69.516  1.00  0.00    -0.330 A  
BRANCH  17  18
HETATM   18  O   UNL     1     -12.695  14.266  70.337  1.00  0.00    -0.347 OA 
BRANCH  18  19
HETATM   19  C   UNL     1     -13.468  15.044  71.261  1.00  0.00    -0.447 C  
BRANCH  19  20
HETATM   20  C   UNL     1     -13.332  14.514  72.656  1.00  0.00    -0.588 C  
HETATM   21  C   UNL     1     -12.649  15.146  73.621  1.00  0.00    -0.702 C  
ENDBRANCH  19  20
ENDBRANCH  18  19
ENDBRANCH  17  18
ENDBRANCH  11  12
ENDBRANCH  10  11
ENDBRANCH   7  10
ENDBRANCH   6   7
ENDBRANCH   4   6
ENDBRANCH   2   4
TORSDOF 9
ENDMDL
MODEL       25
REMARK 921   NORMALIZED FREE ENERGY PREDICTED BY IDOCK:   -5.15 KCAL/MOL
REMARK 922        TOTAL FREE ENERGY PREDICTED BY IDOCK:   -8.63 KCAL/MOL
REMARK 923 INTER-LIGAND FREE ENERGY PREDICTED BY IDOCK:   -7.83 KCAL/MOL
REMARK 924 INTRA-LIGAND FREE ENERGY PREDICTED BY IDOCK:   -0.79 KCAL/MOL
REMARK 927      BINDING AFFINITY PREDICTED BY RF-SCORE:    0.00 PKD
ROOT
HETATM    1  C   UNL     1     -11.579  12.142  63.819  1.00  0.00    -0.557 C  
HETATM    2  C   UNL     1     -11.508  13.159  64.959  1.00  0.00    -0.308 C  
HETATM    3  C   UNL     1     -12.177  14.466  64.516  1.00  0.00    -0.483 C  
ENDROOT
BRANCH   2   4
HETATM    4  N   UNL     1     -12.152  12.583  66.146  1.00  0.00    -0.615 NA 
HETATM    5  H   UNL     1     -12.893  11.935  65.880  1.00  0.00     0.000 HD 
BRANCH   4   6
HETATM    6  C   UNL     1     -11.195  11.944  67.059  1.00  0.00    -0.323 C  
BRANCH   6   7
HETATM    7  C   UNL     1     -11.902  11.178  68.197  1.00  0.00    -0.164 C  
HETATM    8  O   UNL     1     -11.434   9.826  68.258  1.00  0.00    -0.519 OA 
HETATM    9  H   UNL     1     -11.869   9.355  68.958  1.00  0.00     0.000 HD 
BRANCH   7  10
HETATM   10  C   UNL     1     -11.653  11.892  69.541  1.00  0.00    -0.327 C  
BRANCH  10  11
HETATM   11  O   UNL     1     -11.884  13.306  69.481  1.00  0.00    -0.299 OA 
BRANCH  11  12
HETATM   12  C   UNL     1     -12.246  13.945  70.645  1.00  0.00    -0.373 A  
HETATM   13  C   UNL     1     -13.254  13.469  71.496  1.00  0.00    -0.402 A  
HETATM   14  C   UNL     1     -13.615  14.164  72.648  1.00  0.00    -0.618 A  
HETATM   15  C   UNL     1     -12.993  15.361  72.956  1.00  0.00    -0.598 A  
HETATM   16  C   UNL     1     -11.979  15.845  72.132  1.00  0.00    -0.612 A  
HETATM   17  C   UNL     1     -11.560  15.129  70.997  1.00  0.00    -0.347 A  
BRANCH  17  18
HETATM   18  O   UNL     1     -10.498  15.539  70.211  1.00  0.00    -0.310 OA 
BRANCH  18  19
HETATM   19  C   UNL     1     -10.770  16.698  69.412  1.00  0.00    -0.331 C  
BRANCH  19  20
HETATM   20  C   UNL     1     -10.771  16.357  67.953  1.00  0.00    -0.332 C  
HETATM   21  C   UNL     1     -10.401  17.218  66.994  1.00  0.00    -0.318 C  
ENDBRANCH  19  20
ENDBRANCH  18  19
ENDBRANCH  17  18
ENDBRANCH  11  12
ENDBRANCH  10  11
ENDBRANCH   7  10
ENDBRANCH   6   7
ENDBRANCH   4   6
ENDBRANCH   2   4
TORSDOF 9
ENDMDL
MODEL       26
REMARK 921   NORMALIZED FREE ENERGY PREDICTED BY IDOCK:   -5.14 KCAL/MOL
REMARK 922        TOTAL FREE ENERGY PREDICTED BY IDOCK:   -8.62 KCAL/MOL
REMARK 923 INTER-LIGAND FREE ENERGY PREDICTED BY IDOCK:   -7.54 KCAL/MOL
REMARK 924 INTRA-LIGAND FREE ENERGY PREDICTED BY IDOCK:   -1.07 KCAL/MOL
REMARK 927      BINDING AFFINITY PREDICTED BY RF-SCORE:    0.00 PKD
ROOT
HETATM    1  C   UNL     1      -9.108   9.619  69.978  1.00  0.00    -0.269 C  
HETATM    2  C   UNL     1     -10.254   9.782  68.977  1.00  0.00    -0.203 C  
HETATM    3  C   UNL     1      -9.903   9.045  67.679  1.00  0.00    -0.220 C  
ENDROOT
BRANCH   2   4
HETATM    4  N   UNL     1     -11.488   9.273  69.587  1.00  0.00    -0.434 NA 
HETATM    5  H   UNL     1     -11.755   8.378  69.177  1.00  0.00     0.000 HD 
BRANCH   4   6
HETATM    6  C   UNL     1     -11.403   9.177  71.050  1.00  0.00    -0.309 C  
BRANCH   6   7
HETATM    7  C   UNL     1     -12.795   9.201  71.715  1.00  0.00    -0.377 C  
HETATM    8  O   UNL     1     -12.768   8.496  72.961  1.00  0.00    -0.679 OA 
HETATM    9  H   UNL     1     -13.626   8.511  73.370  1.00  0.00     0.000 HD 
BRANCH   7  10
HETATM   10  C   UNL     1     -13.245  10.660  71.934  1.00  0.00    -0.423 C  
BRANCH  10  11
HETATM   11  O   UNL     1     -12.589  11.590  71.062  1.00  0.00    -0.383 OA 
BRANCH  11  12
HETATM   12  C   UNL     1     -12.818  12.931  71.268  1.00  0.00    -0.270 A  
HETATM   13  C   UNL     1     -13.579  13.420  72.340  1.00  0.00    -0.708 A  
HETATM   14  C   UNL     1     -13.818  14.785  72.494  1.00  0.00    -0.561 A  
HETATM   15  C   UNL     1     -13.320  15.682  71.566  1.00  0.00    -0.535 A  
HETATM   16  C   UNL     1     -12.549  15.219  70.502  1.00  0.00    -0.450 A  
HETATM   17  C   UNL     1     -12.249  13.853  70.361  1.00  0.00    -0.368 A  
BRANCH  17  18
HETATM   18  O   UNL     1     -11.414  13.374  69.367  1.00  0.00    -0.272 OA 
BRANCH  18  19
HETATM   19  C   UNL     1     -11.716  13.870  68.055  1.00  0.00    -0.352 C  
BRANCH  19  20
HETATM   20  C   UNL     1     -11.752  12.754  67.055  1.00  0.00    -0.440 C  
HETATM   21  C   UNL     1     -10.772  12.530  66.166  1.00  0.00    -0.290 C  
ENDBRANCH  19  20
ENDBRANCH  18  19
ENDBRANCH  17  18
ENDBRANCH  11  12
ENDBRANCH  10  11
ENDBRANCH   7  10
ENDBRANCH   6   7
ENDBRANCH   4   6
ENDBRANCH   2   4
TORSDOF 9
ENDMDL
MODEL       27
REMARK 921   NORMALIZED FREE ENERGY PREDICTED BY IDOCK:   -5.12 KCAL/MOL
REMARK 922        TOTAL FREE ENERGY PREDICTED BY IDOCK:   -8.59 KCAL/MOL
REMARK 923 INTER-LIGAND FREE ENERGY PREDICTED BY IDOCK:   -7.98 KCAL/MOL
REMARK 924 INTRA-LIGAND FREE ENERGY PREDICTED BY IDOCK:   -0.61 KCAL/MOL
REMARK 927      BINDING AFFINITY PREDICTED BY RF-SCORE:    0.00 PKD
ROOT
HETATM    1  C   UNL     1     -14.304   7.967  71.700  1.00  0.00    -0.595 C  
HETATM    2  C   UNL     1     -13.332   9.129  71.916  1.00  0.00    -0.427 C  
HETATM    3  C   UNL     1     -11.933   8.573  72.207  1.00  0.00    -0.454 C  
ENDROOT
BRANCH   2   4
HETATM    4  N   UNL     1     -13.351   9.986  70.725  1.00  0.00    -0.578 NA 
HETATM    5  H   UNL     1     -14.295  10.317  70.529  1.00  0.00     0.000 HD 
BRANCH   4   6
HETATM    6  C   UNL     1     -12.407  11.108  70.816  1.00  0.00    -0.406 C  
BRANCH   6   7
HETATM    7  C   UNL     1     -11.676  11.362  69.481  1.00  0.00    -0.348 C  
HETATM    8  O   UNL     1     -12.195  10.507  68.456  1.00  0.00    -0.806 OA 
HETATM    9  H   UNL     1     -11.744  10.663  67.634  1.00  0.00     0.000 HD 
BRANCH   7  10
HETATM   10  C   UNL     1     -11.831  12.842  69.073  1.00  0.00    -0.297 C  
BRANCH  10  11
HETATM   11  O   UNL     1     -10.842  13.272  68.128  1.00  0.00    -0.237 OA 
BRANCH  11  12
HETATM   12  C   UNL     1     -11.282  13.743  66.912  1.00  0.00    -0.313 A  
HETATM   13  C   UNL     1     -12.132  13.009  66.071  1.00  0.00    -0.493 A  
HETATM   14  C   UNL     1     -12.527  13.506  64.830  1.00  0.00    -0.429 A  
HETATM   15  C   UNL     1     -12.059  14.735  64.398  1.00  0.00    -0.457 A  
HETATM   16  C   UNL     1     -11.226  15.486  65.224  1.00  0.00    -0.278 A  
HETATM   17  C   UNL     1     -10.863  15.029  66.502  1.00  0.00    -0.320 A  
BRANCH  17  18
HETATM   18  O   UNL     1     -10.111  15.791  67.378  1.00  0.00    -0.239 OA 
BRANCH  18  19
HETATM   19  C   UNL     1     -10.887  16.632  68.242  1.00  0.00    -0.356 C  
BRANCH  19  20
HETATM   20  C   UNL     1     -10.322  18.020  68.290  1.00  0.00    -0.389 C  
HETATM   21  C   UNL     1     -10.629  18.972  67.396  1.00  0.00    -0.559 C  
ENDBRANCH  19  20
ENDBRANCH  18  19
ENDBRANCH  17  18
ENDBRANCH  11  12
ENDBRANCH  10  11
ENDBRANCH   7  10
ENDBRANCH   6   7
ENDBRANCH   4   6
ENDBRANCH   2   4
TORSDOF 9
ENDMDL
MODEL       28
REMARK 921   NORMALIZED FREE ENERGY PREDICTED BY IDOCK:   -5.10 KCAL/MOL
REMARK 922        TOTAL FREE ENERGY PREDICTED BY IDOCK:   -8.56 KCAL/MOL
REMARK 923 INTER-LIGAND FREE ENERGY PREDICTED BY IDOCK:   -6.83 KCAL/MOL
REMARK 924 INTRA-LIGAND FREE ENERGY PREDICTED BY IDOCK:   -1.73 KCAL/MOL
REMARK 927      BINDING AFFINITY PREDICTED BY RF-SCORE:    0.00 PKD
ROOT
HETATM    1  C   UNL     1      -9.422  10.513  62.622  1.00  0.00    -0.326 C  
HETATM    2  C   UNL     1      -9.699  10.332  64.116  1.00  0.00    -0.291 C  
HETATM    3  C   UNL     1      -8.392  10.499  64.899  1.00  0.00    -0.135 C  
ENDROOT
BRANCH   2   4
HETATM    4  N   UNL     1     -10.719  11.304  64.527  1.00  0.00    -0.336 NA 
HETATM    5  H   UNL     1     -10.436  11.792  65.377  1.00  0.00     0.000 HD 
BRANCH   4   6
HETATM    6  C   UNL     1     -11.061  12.256  63.462  1.00  0.00    -0.464 C  
BRANCH   6   7
HETATM    7  C   UNL     1     -12.264  13.144  63.842  1.00  0.00    -0.433 C  
HETATM    8  O   UNL     1     -13.189  12.414  64.655  1.00  0.00    -0.822 OA 
HETATM    9  H   UNL     1     -13.930  12.961  64.889  1.00  0.00     0.000 HD 
BRANCH   7  10
HETATM   10  C   UNL     1     -11.771  14.400  64.590  1.00  0.00    -0.430 C  
BRANCH  10  11
HETATM   11  O   UNL     1     -10.832  14.104  65.632  1.00  0.00    -0.291 OA 
BRANCH  11  12
HETATM   12  C   UNL     1     -11.175  14.452  66.919  1.00  0.00    -0.334 A  
HETATM   13  C   UNL     1     -11.038  15.755  67.421  1.00  0.00    -0.235 A  
HETATM   14  C   UNL     1     -11.364  16.059  68.741  1.00  0.00    -0.380 A  
HETATM   15  C   UNL     1     -11.808  15.060  69.590  1.00  0.00    -0.358 A  
HETATM   16  C   UNL     1     -11.964  13.763  69.109  1.00  0.00    -0.403 A  
HETATM   17  C   UNL     1     -11.696  13.448  67.765  1.00  0.00    -0.359 A  
BRANCH  17  18
HETATM   18  O   UNL     1     -11.926  12.190  67.237  1.00  0.00    -0.573 OA 
BRANCH  18  19
HETATM   19  C   UNL     1     -11.753  11.117  68.173  1.00  0.00    -0.232 C  
BRANCH  19  20
HETATM   20  C   UNL     1     -10.419  10.458  67.994  1.00  0.00    -0.232 C  
HETATM   21  C   UNL     1      -9.431  10.536  68.899  1.00  0.00    -0.199 C  
ENDBRANCH  19  20
ENDBRANCH  18  19
ENDBRANCH  17  18
ENDBRANCH  11  12
ENDBRANCH  10  11
ENDBRANCH   7  10
ENDBRANCH   6   7
ENDBRANCH   4   6
ENDBRANCH   2   4
TORSDOF 9
ENDMDL
MODEL       29
REMARK 921   NORMALIZED FREE ENERGY PREDICTED BY IDOCK:   -5.10 KCAL/MOL
REMARK 922        TOTAL FREE ENERGY PREDICTED BY IDOCK:   -8.55 KCAL/MOL
REMARK 923 INTER-LIGAND FREE ENERGY PREDICTED BY IDOCK:   -7.66 KCAL/MOL
REMARK 924 INTRA-LIGAND FREE ENERGY PREDICTED BY IDOCK:   -0.90 KCAL/MOL
REMARK 927      BINDING AFFINITY PREDICTED BY RF-SCORE:    0.00 PKD
ROOT
HETATM    1  C   UNL     1     -10.699  15.920  65.299  1.00  0.00    -0.442 C  
HETATM    2  C   UNL     1      -9.419  15.479  66.012  1.00  0.00    -0.352 C  
HETATM    3  C   UNL     1      -9.418  16.032  67.442  1.00  0.00    -0.220 C  
ENDROOT
BRANCH   2   4
HETATM    4  N   UNL     1      -9.347  14.014  65.986  1.00  0.00    -0.514 NA 
HETATM    5  H   UNL     1      -9.231  13.637  66.926  1.00  0.00     0.000 HD 
BRANCH   4   6
HETATM    6  C   UNL     1     -10.496  13.398  65.309  1.00  0.00    -0.324 C  
BRANCH   6   7
HETATM    7  C   UNL     1     -11.248  12.410  66.225  1.00  0.00    -0.317 C  
HETATM    8  O   UNL     1     -10.352  11.412  66.728  1.00  0.00    -0.218 OA 
HETATM    9  H   UNL     1     -10.815  10.803  67.292  1.00  0.00     0.000 HD 
BRANCH   7  10
HETATM   10  C   UNL     1     -11.905  13.175  67.392  1.00  0.00    -0.361 C  
BRANCH  10  11
HETATM   11  O   UNL     1     -11.173  13.067  68.621  1.00  0.00    -0.245 OA 
BRANCH  11  12
HETATM   12  C   UNL     1     -11.820  12.515  69.704  1.00  0.00    -0.314 A  
HETATM   13  C   UNL     1     -11.928  11.130  69.905  1.00  0.00    -0.439 A  
HETATM   14  C   UNL     1     -12.622  10.611  70.996  1.00  0.00    -0.516 A  
HETATM   15  C   UNL     1     -13.241  11.465  71.891  1.00  0.00    -0.485 A  
HETATM   16  C   UNL     1     -13.134  12.843  71.718  1.00  0.00    -0.458 A  
HETATM   17  C   UNL     1     -12.390  13.388  70.657  1.00  0.00    -0.348 A  
BRANCH  17  18
HETATM   18  O   UNL     1     -12.192  14.749  70.510  1.00  0.00    -0.281 OA 
BRANCH  18  19
HETATM   19  C   UNL     1     -13.003  15.558  71.373  1.00  0.00    -0.483 C  
BRANCH  19  20
HETATM   20  C   UNL     1     -12.194  16.111  72.508  1.00  0.00    -0.609 C  
HETATM   21  C   UNL     1     -12.476  15.876  73.798  1.00  0.00    -0.728 C  
ENDBRANCH  19  20
ENDBRANCH  18  19
ENDBRANCH  17  18
ENDBRANCH  11  12
ENDBRANCH  10  11
ENDBRANCH   7  10
ENDBRANCH   6   7
ENDBRANCH   4   6
ENDBRANCH   2   4
TORSDOF 9
ENDMDL
MODEL       30
REMARK 921   NORMALIZED FREE ENERGY PREDICTED BY IDOCK:   -5.08 KCAL/MOL
REMARK 922        TOTAL FREE ENERGY PREDICTED BY IDOCK:   -8.53 KCAL/MOL
REMARK 923 INTER-LIGAND FREE ENERGY PREDICTED BY IDOCK:   -7.44 KCAL/MOL
REMARK 924 INTRA-LIGAND FREE ENERGY PREDICTED BY IDOCK:   -1.09 KCAL/MOL
REMARK 927      BINDING AFFINITY PREDICTED BY RF-SCORE:    0.00 PKD
ROOT
HETATM    1  C   UNL     1     -11.973  11.432  69.263  1.00  0.00    -0.400 C  
HETATM    2  C   UNL     1     -11.175  11.522  67.960  1.00  0.00    -0.269 C  
HETATM    3  C   UNL     1     -10.826  10.108  67.480  1.00  0.00    -0.349 C  
ENDROOT
BRANCH   2   4
HETATM    4  N   UNL     1     -11.968  12.262  66.973  1.00  0.00    -0.590 NA 
HETATM    5  H   UNL     1     -12.133  13.221  67.280  1.00  0.00     0.000 HD 
BRANCH   4   6
HETATM    6  C   UNL     1     -11.375  12.235  65.629  1.00  0.00    -0.350 C  
BRANCH   6   7
HETATM    7  C   UNL     1     -11.848  13.420  64.761  1.00  0.00    -0.380 C  
HETATM    8  O   UNL     1     -13.157  13.841  65.160  1.00  0.00    -0.762 OA 
HETATM    9  H   UNL     1     -13.449  14.571  64.626  1.00  0.00     0.000 HD 
BRANCH   7  10
HETATM   10  C   UNL     1     -10.849  14.589  64.882  1.00  0.00    -0.421 C  
BRANCH  10  11
HETATM   11  O   UNL     1     -10.412  14.820  66.229  1.00  0.00    -0.281 OA 
BRANCH  11  12
HETATM   12  C   UNL     1     -10.403  16.120  66.683  1.00  0.00    -0.296 A  
HETATM   13  C   UNL     1     -10.201  17.223  65.840  1.00  0.00    -0.273 A  
HETATM   14  C   UNL     1     -10.163  18.521  66.346  1.00  0.00    -0.449 A  
HETATM   15  C   UNL     1     -10.303  18.737  67.705  1.00  0.00    -0.467 A  
HETATM   16  C   UNL     1     -10.519  17.657  68.558  1.00  0.00    -0.337 A  
HETATM   17  C   UNL     1     -10.618  16.346  68.061  1.00  0.00    -0.314 A  
BRANCH  17  18
HETATM   18  O   UNL     1     -10.920  15.265  68.871  1.00  0.00    -0.239 OA 
BRANCH  18  19
HETATM   19  C   UNL     1     -10.810  15.533  70.275  1.00  0.00    -0.339 C  
BRANCH  19  20
HETATM   20  C   UNL     1     -11.883  14.823  71.043  1.00  0.00    -0.383 C  
HETATM   21  C   UNL     1     -13.160  15.233  71.076  1.00  0.00    -0.544 C  
ENDBRANCH  19  20
ENDBRANCH  18  19
ENDBRANCH  17  18
ENDBRANCH  11  12
ENDBRANCH  10  11
ENDBRANCH   7  10
ENDBRANCH   6   7
ENDBRANCH   4   6
ENDBRANCH   2   4
TORSDOF 9
ENDMDL
MODEL       31
REMARK 921   NORMALIZED FREE ENERGY PREDICTED BY IDOCK:   -5.07 KCAL/MOL
REMARK 922        TOTAL FREE ENERGY PREDICTED BY IDOCK:   -8.52 KCAL/MOL
REMARK 923 INTER-LIGAND FREE ENERGY PREDICTED BY IDOCK:   -7.86 KCAL/MOL
REMARK 924 INTRA-LIGAND FREE ENERGY PREDICTED BY IDOCK:   -0.66 KCAL/MOL
REMARK 927      BINDING AFFINITY PREDICTED BY RF-SCORE:    0.00 PKD
ROOT
HETATM    1  C   UNL     1     -10.551  19.113  66.141  1.00  0.00    -0.524 C  
HETATM    2  C   UNL     1      -9.991  18.057  67.096  1.00  0.00    -0.325 C  
HETATM    3  C   UNL     1      -9.906  18.645  68.510  1.00  0.00    -0.427 C  
ENDROOT
BRANCH   2   4
HETATM    4  N   UNL     1     -10.850  16.869  67.042  1.00  0.00    -0.137 NA 
HETATM    5  H   UNL     1     -11.834  17.133  66.976  1.00  0.00     0.000 HD 
BRANCH   4   6
HETATM    6  C   UNL     1     -10.480  15.947  65.960  1.00  0.00    -0.345 C  
BRANCH   6   7
HETATM    7  C   UNL     1     -11.649  15.697  64.985  1.00  0.00    -0.079 C  
HETATM    8  O   UNL     1     -11.426  16.382  63.748  1.00  0.00    -1.590 OA 
HETATM    9  H   UNL     1     -12.146  16.227  63.147  1.00  0.00     0.000 HD 
BRANCH   7  10
HETATM   10  C   UNL     1     -11.808  14.182  64.737  1.00  0.00    -0.417 C  
BRANCH  10  11
HETATM   11  O   UNL     1     -11.870  13.416  65.947  1.00  0.00    -0.341 OA 
BRANCH  11  12
HETATM   12  C   UNL     1     -11.182  12.224  65.986  1.00  0.00    -0.332 A  
HETATM   13  C   UNL     1     -10.308  11.813  64.968  1.00  0.00    -0.325 A  
HETATM   14  C   UNL     1      -9.657  10.583  65.028  1.00  0.00    -0.331 A  
HETATM   15  C   UNL     1      -9.887   9.731  66.094  1.00  0.00    -0.329 A  
HETATM   16  C   UNL     1     -10.739  10.126  67.123  1.00  0.00    -0.286 A  
HETATM   17  C   UNL     1     -11.360  11.387  67.110  1.00  0.00    -0.255 A  
BRANCH  17  18
HETATM   18  O   UNL     1     -12.141  11.841  68.158  1.00  0.00    -0.556 OA 
BRANCH  18  19
HETATM   19  C   UNL     1     -11.510  11.753  69.443  1.00  0.00    -0.307 C  
BRANCH  19  20
HETATM   20  C   UNL     1     -12.308  10.892  70.375  1.00  0.00    -0.436 C  
HETATM   21  C   UNL     1     -12.789  11.327  71.549  1.00  0.00    -0.519 C  
ENDBRANCH  19  20
ENDBRANCH  18  19
ENDBRANCH  17  18
ENDBRANCH  11  12
ENDBRANCH  10  11
ENDBRANCH   7  10
ENDBRANCH   6   7
ENDBRANCH   4   6
ENDBRANCH   2   4
TORSDOF 9
ENDMDL
MODEL       32
REMARK 921   NORMALIZED FREE ENERGY PREDICTED BY IDOCK:   -5.07 KCAL/MOL
REMARK 922        TOTAL FREE ENERGY PREDICTED BY IDOCK:   -8.52 KCAL/MOL
REMARK 923 INTER-LIGAND FREE ENERGY PREDICTED BY IDOCK:   -7.81 KCAL/MOL
REMARK 924 INTRA-LIGAND FREE ENERGY PREDICTED BY IDOCK:   -0.70 KCAL/MOL
REMARK 927      BINDING AFFINITY PREDICTED BY RF-SCORE:    0.00 PKD
ROOT
HETATM    1  C   UNL     1     -14.077  14.255  71.999  1.00  0.00    -0.618 C  
HETATM    2  C   UNL     1     -13.145  15.065  71.096  1.00  0.00    -0.415 C  
HETATM    3  C   UNL     1     -12.230  15.939  71.963  1.00  0.00    -0.570 C  
ENDROOT
BRANCH   2   4
HETATM    4  N   UNL     1     -12.384  14.137  70.251  1.00  0.00    -0.340 NA 
HETATM    5  H   UNL     1     -11.408  14.423  70.182  1.00  0.00     0.000 HD 
BRANCH   4   6
HETATM    6  C   UNL     1     -12.494  12.741  70.696  1.00  0.00    -0.246 C  
BRANCH   6   7
HETATM    7  C   UNL     1     -11.746  11.772  69.756  1.00  0.00    -0.335 C  
HETATM    8  O   UNL     1     -12.589  10.673  69.396  1.00  0.00    -0.683 OA 
HETATM    9  H   UNL     1     -12.129  10.076  68.817  1.00  0.00     0.000 HD 
BRANCH   7  10
HETATM   10  C   UNL     1     -11.279  12.525  68.493  1.00  0.00    -0.283 C  
BRANCH  10  11
HETATM   11  O   UNL     1     -12.024  12.174  67.319  1.00  0.00    -0.573 OA 
BRANCH  11  12
HETATM   12  C   UNL     1     -11.332  11.628  66.262  1.00  0.00    -0.227 A  
HETATM   13  C   UNL     1     -10.386  10.604  66.415  1.00  0.00    -0.291 A  
HETATM   14  C   UNL     1      -9.681  10.102  65.323  1.00  0.00    -0.365 A  
HETATM   15  C   UNL     1      -9.891  10.633  64.062  1.00  0.00    -0.399 A  
HETATM   16  C   UNL     1     -10.836  11.641  63.886  1.00  0.00    -0.471 A  
HETATM   17  C   UNL     1     -11.600  12.120  64.965  1.00  0.00    -0.310 A  
BRANCH  17  18
HETATM   18  O   UNL     1     -12.606  13.056  64.805  1.00  0.00    -0.575 OA 
BRANCH  18  19
HETATM   19  C   UNL     1     -12.180  14.280  64.192  1.00  0.00    -0.378 C  
BRANCH  19  20
HETATM   20  C   UNL     1     -11.131  14.959  65.020  1.00  0.00    -0.422 C  
HETATM   21  C   UNL     1     -10.977  16.290  65.069  1.00  0.00    -0.311 C  
ENDBRANCH  19  20
ENDBRANCH  18  19
ENDBRANCH  17  18
ENDBRANCH  11  12
ENDBRANCH  10  11
ENDBRANCH   7  10
ENDBRANCH   6   7
ENDBRANCH   4   6
ENDBRANCH   2   4
TORSDOF 9
ENDMDL
MODEL       33
REMARK 921   NORMALIZED FREE ENERGY PREDICTED BY IDOCK:   -5.07 KCAL/MOL
REMARK 922        TOTAL FREE ENERGY PREDICTED BY IDOCK:   -8.52 KCAL/MOL
REMARK 923 INTER-LIGAND FREE ENERGY PREDICTED BY IDOCK:   -7.87 KCAL/MOL
REMARK 924 INTRA-LIGAND FREE ENERGY PREDICTED BY IDOCK:   -0.64 KCAL/MOL
REMARK 927      BINDING AFFINITY PREDICTED BY RF-SCORE:    0.00 PKD
ROOT
HETATM    1  C   UNL     1     -12.562  11.932  63.407  1.00  0.00    -0.555 C  
HETATM    2  C   UNL     1     -11.319  11.800  64.289  1.00  0.00    -0.325 C  
HETATM    3  C   UNL     1     -10.076  11.670  63.400  1.00  0.00    -0.468 C  
ENDROOT
BRANCH   2   4
HETATM    4  N   UNL     1     -11.245  12.967  65.176  1.00  0.00    -0.289 NA 
HETATM    5  H   UNL     1     -10.279  13.169  65.433  1.00  0.00     0.000 HD 
BRANCH   4   6
HETATM    6  C   UNL     1     -11.898  14.155  64.610  1.00  0.00    -0.431 C  
BRANCH   6   7
HETATM    7  C   UNL     1     -10.966  15.384  64.607  1.00  0.00    -0.314 C  
HETATM    8  O   UNL     1     -11.498  16.415  63.768  1.00  0.00    -1.590 OA 
HETATM    9  H   UNL     1     -10.923  17.172  63.766  1.00  0.00     0.000 HD 
BRANCH   7  10
HETATM   10  C   UNL     1     -10.784  15.907  66.047  1.00  0.00    -0.284 C  
BRANCH  10  11
HETATM   11  O   UNL     1      -9.541  16.593  66.246  1.00  0.00    -0.269 OA 
BRANCH  11  12
HETATM   12  C   UNL     1      -9.593  17.911  66.640  1.00  0.00    -0.309 A  
HETATM   13  C   UNL     1     -10.407  18.864  66.009  1.00  0.00    -0.485 A  
HETATM   14  C   UNL     1     -10.405  20.197  66.416  1.00  0.00    -0.510 A  
HETATM   15  C   UNL     1      -9.572  20.605  67.443  1.00  0.00    -0.544 A  
HETATM   16  C   UNL     1      -8.767  19.672  68.091  1.00  0.00    -0.359 A  
HETATM   17  C   UNL     1      -8.797  18.312  67.735  1.00  0.00    -0.263 A  
BRANCH  17  18
HETATM   18  O   UNL     1      -8.076  17.349  68.419  1.00  0.00    -0.245 OA 
BRANCH  18  19
HETATM   19  C   UNL     1      -6.653  17.486  68.303  1.00  0.00    -0.188 C  
BRANCH  19  20
HETATM   20  C   UNL     1      -6.039  17.841  69.624  1.00  0.00    -0.240 C  
HETATM   21  C   UNL     1      -5.221  18.890  69.798  1.00  0.00    -0.203 C  
ENDBRANCH  19  20
ENDBRANCH  18  19
ENDBRANCH  17  18
ENDBRANCH  11  12
ENDBRANCH  10  11
ENDBRANCH   7  10
ENDBRANCH   6   7
ENDBRANCH   4   6
ENDBRANCH   2   4
TORSDOF 9
ENDMDL
MODEL       34
REMARK 921   NORMALIZED FREE ENERGY PREDICTED BY IDOCK:   -5.07 KCAL/MOL
REMARK 922        TOTAL FREE ENERGY PREDICTED BY IDOCK:   -8.50 KCAL/MOL
REMARK 923 INTER-LIGAND FREE ENERGY PREDICTED BY IDOCK:   -7.47 KCAL/MOL
REMARK 924 INTRA-LIGAND FREE ENERGY PREDICTED BY IDOCK:   -1.04 KCAL/MOL
REMARK 927      BINDING AFFINITY PREDICTED BY RF-SCORE:    0.00 PKD
ROOT
HETATM    1  C   UNL     1     -14.026  15.299  72.260  1.00  0.00    -0.646 C  
HETATM    2  C   UNL     1     -12.645  15.832  72.644  1.00  0.00    -0.445 C  
HETATM    3  C   UNL     1     -12.423  15.631  74.148  1.00  0.00    -0.804 C  
ENDROOT
BRANCH   2   4
HETATM    4  N   UNL     1     -11.632  15.141  71.838  1.00  0.00    -0.415 NA 
HETATM    5  H   UNL     1     -11.958  14.215  71.558  1.00  0.00     0.000 HD 
BRANCH   4   6
HETATM    6  C   UNL     1     -11.201  15.922  70.671  1.00  0.00    -0.378 C  
BRANCH   6   7
HETATM    7  C   UNL     1     -11.890  15.453  69.372  1.00  0.00    -0.351 C  
HETATM    8  O   UNL     1     -11.140  15.875  68.228  1.00  0.00    -0.314 OA 
HETATM    9  H   UNL     1     -11.564  15.586  67.428  1.00  0.00     0.000 HD 
BRANCH   7  10
HETATM   10  C   UNL     1     -12.034  13.917  69.382  1.00  0.00    -0.354 C  
BRANCH  10  11
HETATM   11  O   UNL     1     -12.277  13.365  68.081  1.00  0.00    -0.284 OA 
BRANCH  11  12
HETATM   12  C   UNL     1     -11.492  12.309  67.677  1.00  0.00    -0.336 A  
HETATM   13  C   UNL     1     -11.648  11.007  68.175  1.00  0.00    -0.345 A  
HETATM   14  C   UNL     1     -10.809   9.972  67.766  1.00  0.00    -0.337 A  
HETATM   15  C   UNL     1      -9.784  10.226  66.872  1.00  0.00    -0.229 A  
HETATM   16  C   UNL     1      -9.620  11.509  66.355  1.00  0.00    -0.230 A  
HETATM   17  C   UNL     1     -10.492  12.554  66.710  1.00  0.00    -0.225 A  
BRANCH  17  18
HETATM   18  O   UNL     1     -10.409  13.814  66.146  1.00  0.00    -0.287 OA 
BRANCH  18  19
HETATM   19  C   UNL     1     -10.573  13.834  64.722  1.00  0.00    -0.428 C  
BRANCH  19  20
HETATM   20  C   UNL     1     -11.995  13.552  64.341  1.00  0.00    -0.466 C  
HETATM   21  C   UNL     1     -12.348  12.603  63.462  1.00  0.00    -0.591 C  
ENDBRANCH  19  20
ENDBRANCH  18  19
ENDBRANCH  17  18
ENDBRANCH  11  12
ENDBRANCH  10  11
ENDBRANCH   7  10
ENDBRANCH   6   7
ENDBRANCH   4   6
ENDBRANCH   2   4
TORSDOF 9
ENDMDL
MODEL       35
REMARK 921   NORMALIZED FREE ENERGY PREDICTED BY IDOCK:   -5.06 KCAL/MOL
REMARK 922        TOTAL FREE ENERGY PREDICTED BY IDOCK:   -8.50 KCAL/MOL
REMARK 923 INTER-LIGAND FREE ENERGY PREDICTED BY IDOCK:   -7.56 KCAL/MOL
REMARK 924 INTRA-LIGAND FREE ENERGY PREDICTED BY IDOCK:   -0.94 KCAL/MOL
REMARK 927      BINDING AFFINITY PREDICTED BY RF-SCORE:    0.00 PKD
ROOT
HETATM    1  C   UNL     1     -11.116   6.123  70.792  1.00  0.00    -0.375 C  
HETATM    2  C   UNL     1     -11.614   6.116  72.239  1.00  0.00    -0.313 C  
HETATM    3  C   UNL     1     -10.742   7.054  73.081  1.00  0.00    -0.359 C  
ENDROOT
BRANCH   2   4
HETATM    4  N   UNL     1     -13.027   6.513  72.252  1.00  0.00    -0.531 NA 
HETATM    5  H   UNL     1     -13.312   6.818  73.183  1.00  0.00     0.000 HD 
BRANCH   4   6
HETATM    6  C   UNL     1     -13.341   7.536  71.245  1.00  0.00    -0.248 C  
BRANCH   6   7
HETATM    7  C   UNL     1     -13.882   8.832  71.883  1.00  0.00    -0.442 C  
HETATM    8  O   UNL     1     -14.274   8.597  73.239  1.00  0.00    -1.055 OA 
HETATM    9  H   UNL     1     -14.607   9.396  73.632  1.00  0.00     0.000 HD 
BRANCH   7  10
HETATM   10  C   UNL     1     -12.804   9.934  71.820  1.00  0.00    -0.442 C  
BRANCH  10  11
HETATM   11  O   UNL     1     -12.567  10.417  70.491  1.00  0.00    -0.316 OA 
BRANCH  11  12
HETATM   12  C   UNL     1     -11.294  10.289  69.982  1.00  0.00    -0.301 A  
HETATM   13  C   UNL     1     -10.263   9.624  70.661  1.00  0.00    -0.346 A  
HETATM   14  C   UNL     1      -8.978   9.547  70.127  1.00  0.00    -0.269 A  
HETATM   15  C   UNL     1      -8.696  10.155  68.916  1.00  0.00    -0.149 A  
HETATM   16  C   UNL     1      -9.709  10.809  68.218  1.00  0.00    -0.172 A  
HETATM   17  C   UNL     1     -11.025  10.847  68.712  1.00  0.00    -0.237 A  
BRANCH  17  18
HETATM   18  O   UNL     1     -12.069  11.411  68.001  1.00  0.00    -0.629 OA 
BRANCH  18  19
HETATM   19  C   UNL     1     -11.851  12.775  67.617  1.00  0.00    -0.339 C  
BRANCH  19  20
HETATM   20  C   UNL     1     -12.011  12.949  66.136  1.00  0.00    -0.491 C  
HETATM   21  C   UNL     1     -12.589  14.022  65.578  1.00  0.00    -0.543 C  
ENDBRANCH  19  20
ENDBRANCH  18  19
ENDBRANCH  17  18
ENDBRANCH  11  12
ENDBRANCH  10  11
ENDBRANCH   7  10
ENDBRANCH   6   7
ENDBRANCH   4   6
ENDBRANCH   2   4
TORSDOF 9
ENDMDL
MODEL       36
REMARK 921   NORMALIZED FREE ENERGY PREDICTED BY IDOCK:   -5.05 KCAL/MOL
REMARK 922        TOTAL FREE ENERGY PREDICTED BY IDOCK:   -8.48 KCAL/MOL
REMARK 923 INTER-LIGAND FREE ENERGY PREDICTED BY IDOCK:   -7.63 KCAL/MOL
REMARK 924 INTRA-LIGAND FREE ENERGY PREDICTED BY IDOCK:   -0.85 KCAL/MOL
REMARK 927      BINDING AFFINITY PREDICTED BY RF-SCORE:    0.00 PKD
ROOT
HETATM    1  C   UNL     1     -10.725  11.677  63.388  1.00  0.00    -0.460 C  
HETATM    2  C   UNL     1     -12.092  12.232  63.792  1.00  0.00    -0.532 C  
HETATM    3  C   UNL     1     -12.251  12.134  65.314  1.00  0.00    -0.177 C  
ENDROOT
BRANCH   2   4
HETATM    4  N   UNL     1     -12.200  13.615  63.313  1.00  0.00    -1.063 NA 
HETATM    5  H   UNL     1     -13.013  13.729  62.707  1.00  0.00     0.000 HD 
BRANCH   4   6
HETATM    6  C   UNL     1     -12.214  14.597  64.405  1.00  0.00    -0.452 C  
BRANCH   6   7
HETATM    7  C   UNL     1     -10.909  15.418  64.464  1.00  0.00    -0.116 C  
HETATM    8  O   UNL     1     -11.170  16.797  64.183  1.00  0.00    -1.415 OA 
HETATM    9  H   UNL     1     -10.366  17.303  64.220  1.00  0.00     0.000 HD 
BRANCH   7  10
HETATM   10  C   UNL     1     -10.260  15.269  65.856  1.00  0.00    -0.332 C  
BRANCH  10  11
HETATM   11  O   UNL     1     -10.897  16.065  66.864  1.00  0.00    -0.296 OA 
BRANCH  11  12
HETATM   12  C   UNL     1     -11.087  15.497  68.103  1.00  0.00    -0.325 A  
HETATM   13  C   UNL     1     -11.790  14.298  68.294  1.00  0.00    -0.370 A  
HETATM   14  C   UNL     1     -11.990  13.773  69.570  1.00  0.00    -0.399 A  
HETATM   15  C   UNL     1     -11.512  14.451  70.678  1.00  0.00    -0.170 A  
HETATM   16  C   UNL     1     -10.800  15.636  70.509  1.00  0.00    -0.347 A  
HETATM   17  C   UNL     1     -10.537  16.151  69.228  1.00  0.00    -0.280 A  
BRANCH  17  18
HETATM   18  O   UNL     1      -9.757  17.276  69.025  1.00  0.00    -0.263 OA 
BRANCH  18  19
HETATM   19  C   UNL     1      -8.345  17.031  69.078  1.00  0.00    -0.125 C  
BRANCH  19  20
HETATM   20  C   UNL     1      -7.636  17.735  67.961  1.00  0.00    -0.236 C  
HETATM   21  C   UNL     1      -7.547  17.242  66.717  1.00  0.00    -0.270 C  
ENDBRANCH  19  20
ENDBRANCH  18  19
ENDBRANCH  17  18
ENDBRANCH  11  12
ENDBRANCH  10  11
ENDBRANCH   7  10
ENDBRANCH   6   7
ENDBRANCH   4   6
ENDBRANCH   2   4
TORSDOF 9
ENDMDL
MODEL       37
REMARK 921   NORMALIZED FREE ENERGY PREDICTED BY IDOCK:   -5.05 KCAL/MOL
REMARK 922        TOTAL FREE ENERGY PREDICTED BY IDOCK:   -8.47 KCAL/MOL
REMARK 923 INTER-LIGAND FREE ENERGY PREDICTED BY IDOCK:   -7.74 KCAL/MOL
REMARK 924 INTRA-LIGAND FREE ENERGY PREDICTED BY IDOCK:   -0.74 KCAL/MOL
REMARK 927      BINDING AFFINITY PREDICTED BY RF-SCORE:    0.00 PKD
ROOT
HETATM    1  C   UNL     1      -9.669  11.101  62.996  1.00  0.00    -0.384 C  
HETATM    2  C   UNL     1     -10.263  10.775  64.367  1.00  0.00    -0.364 C  
HETATM    3  C   UNL     1      -9.129  10.480  65.356  1.00  0.00    -0.215 C  
ENDROOT
BRANCH   2   4
HETATM    4  N   UNL     1     -11.095  11.904  64.801  1.00  0.00    -0.310 NA 
HETATM    5  H   UNL     1     -11.131  11.962  65.818  1.00  0.00     0.000 HD 
BRANCH   4   6
HETATM    6  C   UNL     1     -10.669  13.183  64.216  1.00  0.00    -0.409 C  
BRANCH   6   7
HETATM    7  C   UNL     1     -11.594  14.347  64.630  1.00  0.00    -0.409 C  
HETATM    8  O   UNL     1     -12.658  14.501  63.685  1.00  0.00    -1.017 OA 
HETATM    9  H   UNL     1     -13.228  15.218  63.940  1.00  0.00     0.000 HD 
BRANCH   7  10
HETATM   10  C   UNL     1     -12.163  14.086  66.040  1.00  0.00    -0.458 C  
BRANCH  10  11
HETATM   11  O   UNL     1     -11.150  14.010  67.052  1.00  0.00    -0.293 OA 
BRANCH  11  12
HETATM   12  C   UNL     1     -11.545  14.145  68.364  1.00  0.00    -0.318 A  
HETATM   13  C   UNL     1     -11.783  13.049  69.206  1.00  0.00    -0.375 A  
HETATM   14  C   UNL     1     -12.217  13.227  70.519  1.00  0.00    -0.416 A  
HETATM   15  C   UNL     1     -12.444  14.503  71.004  1.00  0.00    -0.412 A  
HETATM   16  C   UNL     1     -12.200  15.606  70.188  1.00  0.00    -0.387 A  
HETATM   17  C   UNL     1     -11.707  15.449  68.881  1.00  0.00    -0.359 A  
BRANCH  17  18
HETATM   18  O   UNL     1     -11.372  16.526  68.080  1.00  0.00    -0.308 OA 
BRANCH  18  19
HETATM   19  C   UNL     1     -10.087  17.095  68.365  1.00  0.00    -0.314 C  
BRANCH  19  20
HETATM   20  C   UNL     1     -10.161  18.591  68.417  1.00  0.00    -0.409 C  
HETATM   21  C   UNL     1     -10.532  19.347  67.372  1.00  0.00    -0.581 C  
ENDBRANCH  19  20
ENDBRANCH  18  19
ENDBRANCH  17  18
ENDBRANCH  11  12
ENDBRANCH  10  11
ENDBRANCH   7  10
ENDBRANCH   6   7
ENDBRANCH   4   6
ENDBRANCH   2   4
TORSDOF 9
ENDMDL
MODEL       38
REMARK 921   NORMALIZED FREE ENERGY PREDICTED BY IDOCK:   -5.03 KCAL/MOL
REMARK 922        TOTAL FREE ENERGY PREDICTED BY IDOCK:   -8.44 KCAL/MOL
REMARK 923 INTER-LIGAND FREE ENERGY PREDICTED BY IDOCK:   -7.41 KCAL/MOL
REMARK 924 INTRA-LIGAND FREE ENERGY PREDICTED BY IDOCK:   -1.03 KCAL/MOL
REMARK 927      BINDING AFFINITY PREDICTED BY RF-SCORE:    0.00 PKD
ROOT
HETATM    1  C   UNL     1      -8.687  11.414  66.343  1.00  0.00    -0.185 C  
HETATM    2  C   UNL     1      -9.244  10.911  65.010  1.00  0.00    -0.207 C  
HETATM    3  C   UNL     1      -9.167   9.380  64.973  1.00  0.00    -0.280 C  
ENDROOT
BRANCH   2   4
HETATM    4  N   UNL     1     -10.619  11.400  64.859  1.00  0.00    -0.302 NA 
HETATM    5  H   UNL     1     -10.983  11.747  65.746  1.00  0.00     0.000 HD 
BRANCH   4   6
HETATM    6  C   UNL     1     -10.752  12.412  63.803  1.00  0.00    -0.451 C  
BRANCH   6   7
HETATM    7  C   UNL     1     -11.578  13.630  64.267  1.00  0.00    -0.382 C  
HETATM    8  O   UNL     1     -12.550  13.983  63.277  1.00  0.00    -1.073 OA 
HETATM    9  H   UNL     1     -13.058  14.734  63.563  1.00  0.00     0.000 HD 
BRANCH   7  10
HETATM   10  C   UNL     1     -12.271  13.312  65.608  1.00  0.00    -0.462 C  
BRANCH  10  11
HETATM   11  O   UNL     1     -11.609  13.896  66.738  1.00  0.00    -0.341 OA 
BRANCH  11  12
HETATM   12  C   UNL     1     -11.777  13.289  67.962  1.00  0.00    -0.359 A  
HETATM   13  C   UNL     1     -11.713  11.899  68.140  1.00  0.00    -0.388 A  
HETATM   14  C   UNL     1     -11.923  11.320  69.390  1.00  0.00    -0.410 A  
HETATM   15  C   UNL     1     -12.226  12.119  70.479  1.00  0.00    -0.392 A  
HETATM   16  C   UNL     1     -12.280  13.503  70.327  1.00  0.00    -0.417 A  
HETATM   17  C   UNL     1     -12.013  14.110  69.087  1.00  0.00    -0.349 A  
BRANCH  17  18
HETATM   18  O   UNL     1     -11.972  15.483  68.926  1.00  0.00    -0.351 OA 
BRANCH  18  19
HETATM   19  C   UNL     1     -10.913  16.129  69.645  1.00  0.00    -0.346 C  
BRANCH  19  20
HETATM   20  C   UNL     1     -10.297  17.223  68.827  1.00  0.00    -0.358 C  
HETATM   21  C   UNL     1     -10.437  17.316  67.496  1.00  0.00    -0.356 C  
ENDBRANCH  19  20
ENDBRANCH  18  19
ENDBRANCH  17  18
ENDBRANCH  11  12
ENDBRANCH  10  11
ENDBRANCH   7  10
ENDBRANCH   6   7
ENDBRANCH   4   6
ENDBRANCH   2   4
TORSDOF 9
ENDMDL
MODEL       39
REMARK 921   NORMALIZED FREE ENERGY PREDICTED BY IDOCK:   -5.01 KCAL/MOL
REMARK 922        TOTAL FREE ENERGY PREDICTED BY IDOCK:   -8.42 KCAL/MOL
REMARK 923 INTER-LIGAND FREE ENERGY PREDICTED BY IDOCK:   -7.73 KCAL/MOL
REMARK 924 INTRA-LIGAND FREE ENERGY PREDICTED BY IDOCK:   -0.70 KCAL/MOL
REMARK 927      BINDING AFFINITY PREDICTED BY RF-SCORE:    0.00 PKD
ROOT
HETATM    1  C   UNL     1     -10.366  10.860  64.541  1.00  0.00    -0.417 C  
HETATM    2  C   UNL     1     -10.854  11.933  63.566  1.00  0.00    -0.434 C  
HETATM    3  C   UNL     1     -12.387  11.951  63.556  1.00  0.00    -0.603 C  
ENDROOT
BRANCH   2   4
HETATM    4  N   UNL     1     -10.288  13.226  63.966  1.00  0.00    -0.690 NA 
HETATM    5  H   UNL     1      -9.863  13.702  63.170  1.00  0.00     0.000 HD 
BRANCH   4   6
HETATM    6  C   UNL     1     -11.266  14.093  64.637  1.00  0.00    -0.368 C  
BRANCH   6   7
HETATM    7  C   UNL     1     -10.914  15.588  64.488  1.00  0.00    -0.206 C  
HETATM    8  O   UNL     1     -12.026  16.313  63.950  1.00  0.00    -1.357 OA 
HETATM    9  H   UNL     1     -11.809  17.234  63.859  1.00  0.00     0.000 HD 
BRANCH   7  10
HETATM   10  C   UNL     1     -10.508  16.169  65.858  1.00  0.00    -0.352 C  
BRANCH  10  11
HETATM   11  O   UNL     1      -9.154  16.640  65.893  1.00  0.00    -0.480 OA 
BRANCH  11  12
HETATM   12  C   UNL     1      -8.361  16.230  66.941  1.00  0.00    -0.232 A  
HETATM   13  C   UNL     1      -8.080  14.881  67.205  1.00  0.00    -0.239 A  
HETATM   14  C   UNL     1      -7.301  14.506  68.298  1.00  0.00    -0.120 A  
HETATM   15  C   UNL     1      -6.811  15.471  69.160  1.00  0.00    -0.155 A  
HETATM   16  C   UNL     1      -7.067  16.817  68.908  1.00  0.00    -0.215 A  
HETATM   17  C   UNL     1      -7.801  17.220  67.779  1.00  0.00    -0.188 A  
BRANCH  17  18
HETATM   18  O   UNL     1      -7.995  18.551  67.455  1.00  0.00    -0.234 OA 
BRANCH  18  19
HETATM   19  C   UNL     1      -8.810  19.271  68.390  1.00  0.00    -0.352 C  
BRANCH  19  20
HETATM   20  C   UNL     1      -9.819  20.121  67.678  1.00  0.00    -0.567 C  
HETATM   21  C   UNL     1     -10.888  19.618  67.043  1.00  0.00    -0.518 C  
ENDBRANCH  19  20
ENDBRANCH  18  19
ENDBRANCH  17  18
ENDBRANCH  11  12
ENDBRANCH  10  11
ENDBRANCH   7  10
ENDBRANCH   6   7
ENDBRANCH   4   6
ENDBRANCH   2   4
TORSDOF 9
ENDMDL
MODEL       40
REMARK 921   NORMALIZED FREE ENERGY PREDICTED BY IDOCK:   -5.01 KCAL/MOL
REMARK 922        TOTAL FREE ENERGY PREDICTED BY IDOCK:   -8.42 KCAL/MOL
REMARK 923 INTER-LIGAND FREE ENERGY PREDICTED BY IDOCK:   -7.22 KCAL/MOL
REMARK 924 INTRA-LIGAND FREE ENERGY PREDICTED BY IDOCK:   -1.20 KCAL/MOL
REMARK 927      BINDING AFFINITY PREDICTED BY RF-SCORE:    0.00 PKD
ROOT
HETATM    1  C   UNL     1      -9.994  16.588  66.893  1.00  0.00    -0.273 C  
HETATM    2  C   UNL     1      -9.044  15.621  66.184  1.00  0.00    -0.342 C  
HETATM    3  C   UNL     1      -8.437  14.659  67.212  1.00  0.00    -0.234 C  
ENDROOT
BRANCH   2   4
HETATM    4  N   UNL     1      -9.788  14.913  65.136  1.00  0.00    -0.417 NA 
HETATM    5  H   UNL     1      -9.865  13.919  65.350  1.00  0.00     0.000 HD 
BRANCH   4   6
HETATM    6  C   UNL     1     -11.111  15.500  64.882  1.00  0.00    -0.416 C  
BRANCH   6   7
HETATM    7  C   UNL     1     -12.151  14.433  64.479  1.00  0.00    -0.481 C  
HETATM    8  O   UNL     1     -11.586  13.511  63.541  1.00  0.00    -0.652 OA 
HETATM    9  H   UNL     1     -12.227  12.855  63.293  1.00  0.00     0.000 HD 
BRANCH   7  10
HETATM   10  C   UNL     1     -12.645  13.685  65.735  1.00  0.00    -0.461 C  
BRANCH  10  11
HETATM   11  O   UNL     1     -11.577  13.228  66.576  1.00  0.00    -0.319 OA 
BRANCH  11  12
HETATM   12  C   UNL     1     -11.829  13.112  67.924  1.00  0.00    -0.348 A  
HETATM   13  C   UNL     1     -12.060  14.217  68.756  1.00  0.00    -0.326 A  
HETATM   14  C   UNL     1     -12.277  14.059  70.124  1.00  0.00    -0.425 A  
HETATM   15  C   UNL     1     -12.244  12.795  70.687  1.00  0.00    -0.374 A  
HETATM   16  C   UNL     1     -12.031  11.683  69.876  1.00  0.00    -0.414 A  
HETATM   17  C   UNL     1     -11.867  11.816  68.486  1.00  0.00    -0.303 A  
BRANCH  17  18
HETATM   18  O   UNL     1     -11.743  10.725  67.644  1.00  0.00    -0.538 OA 
BRANCH  18  19
HETATM   19  C   UNL     1     -10.641   9.862  67.957  1.00  0.00    -0.242 C  
BRANCH  19  20
HETATM   20  C   UNL     1     -10.407   8.870  66.858  1.00  0.00    -0.332 C  
HETATM   21  C   UNL     1      -9.467   9.026  65.913  1.00  0.00    -0.317 C  
ENDBRANCH  19  20
ENDBRANCH  18  19
ENDBRANCH  17  18
ENDBRANCH  11  12
ENDBRANCH  10  11
ENDBRANCH   7  10
ENDBRANCH   6   7
ENDBRANCH   4   6
ENDBRANCH   2   4
TORSDOF 9
ENDMDL
MODEL       41
REMARK 921   NORMALIZED FREE ENERGY PREDICTED BY IDOCK:   -5.00 KCAL/MOL
REMARK 922        TOTAL FREE ENERGY PREDICTED BY IDOCK:   -8.41 KCAL/MOL
REMARK 923 INTER-LIGAND FREE ENERGY PREDICTED BY IDOCK:   -7.51 KCAL/MOL
REMARK 924 INTRA-LIGAND FREE ENERGY PREDICTED BY IDOCK:   -0.90 KCAL/MOL
REMARK 927      BINDING AFFINITY PREDICTED BY RF-SCORE:    0.00 PKD
ROOT
HETATM    1  C   UNL     1     -14.405   8.471  71.760  1.00  0.00    -0.522 C  
HETATM    2  C   UNL     1     -13.121   9.299  71.834  1.00  0.00    -0.415 C  
HETATM    3  C   UNL     1     -11.983   8.425  72.375  1.00  0.00    -0.451 C  
ENDROOT
BRANCH   2   4
HETATM    4  N   UNL     1     -12.824   9.830  70.499  1.00  0.00    -0.545 NA 
HETATM    5  H   UNL     1     -13.683  10.048  69.994  1.00  0.00     0.000 HD 
BRANCH   4   6
HETATM    6  C   UNL     1     -11.924  10.990  70.533  1.00  0.00    -0.379 C  
BRANCH   6   7
HETATM    7  C   UNL     1     -10.698  10.801  69.616  1.00  0.00    -0.211 C  
HETATM    8  O   UNL     1      -9.882   9.722  70.085  1.00  0.00    -0.240 OA 
HETATM    9  H   UNL     1      -9.127   9.605  69.520  1.00  0.00     0.000 HD 
BRANCH   7  10
HETATM   10  C   UNL     1     -11.164  10.530  68.170  1.00  0.00    -0.293 C  
BRANCH  10  11
HETATM   11  O   UNL     1     -12.116  11.491  67.695  1.00  0.00    -0.623 OA 
BRANCH  11  12
HETATM   12  C   UNL     1     -11.679  12.433  66.792  1.00  0.00    -0.362 A  
HETATM   13  C   UNL     1     -11.234  12.106  65.502  1.00  0.00    -0.381 A  
HETATM   14  C   UNL     1     -10.765  13.086  64.629  1.00  0.00    -0.386 A  
HETATM   15  C   UNL     1     -10.709  14.407  65.040  1.00  0.00    -0.440 A  
HETATM   16  C   UNL     1     -11.159  14.755  66.311  1.00  0.00    -0.341 A  
HETATM   17  C   UNL     1     -11.690  13.790  67.185  1.00  0.00    -0.385 A  
BRANCH  17  18
HETATM   18  O   UNL     1     -12.225  14.118  68.418  1.00  0.00    -0.314 OA 
BRANCH  18  19
HETATM   19  C   UNL     1     -11.317  14.804  69.290  1.00  0.00    -0.294 C  
BRANCH  19  20
HETATM   20  C   UNL     1     -12.060  15.638  70.290  1.00  0.00    -0.413 C  
HETATM   21  C   UNL     1     -13.090  15.177  71.014  1.00  0.00    -0.513 C  
ENDBRANCH  19  20
ENDBRANCH  18  19
ENDBRANCH  17  18
ENDBRANCH  11  12
ENDBRANCH  10  11
ENDBRANCH   7  10
ENDBRANCH   6   7
ENDBRANCH   4   6
ENDBRANCH   2   4
TORSDOF 9
ENDMDL
MODEL       42
REMARK 921   NORMALIZED FREE ENERGY PREDICTED BY IDOCK:   -4.99 KCAL/MOL
REMARK 922        TOTAL FREE ENERGY PREDICTED BY IDOCK:   -8.38 KCAL/MOL
REMARK 923 INTER-LIGAND FREE ENERGY PREDICTED BY IDOCK:   -7.17 KCAL/MOL
REMARK 924 INTRA-LIGAND FREE ENERGY PREDICTED BY IDOCK:   -1.21 KCAL/MOL
REMARK 927      BINDING AFFINITY PREDICTED BY RF-SCORE:    0.00 PKD
ROOT
HETATM    1  C   UNL     1     -12.733  10.730  71.152  1.00  0.00    -0.532 C  
HETATM    2  C   UNL     1     -11.477   9.933  70.794  1.00  0.00    -0.354 C  
HETATM    3  C   UNL     1     -11.601   8.511  71.355  1.00  0.00    -0.344 C  
ENDROOT
BRANCH   2   4
HETATM    4  N   UNL     1     -11.314   9.940  69.336  1.00  0.00    -0.416 NA 
HETATM    5  H   UNL     1     -11.578  10.844  68.944  1.00  0.00     0.000 HD 
BRANCH   4   6
HETATM    6  C   UNL     1      -9.961   9.556  68.912  1.00  0.00    -0.179 C  
BRANCH   6   7
HETATM    7  C   UNL     1      -9.983   8.547  67.745  1.00  0.00    -0.190 C  
HETATM    8  O   UNL     1     -11.204   7.799  67.752  1.00  0.00    -0.435 OA 
HETATM    9  H   UNL     1     -11.217   7.178  67.033  1.00  0.00     0.000 HD 
BRANCH   7  10
HETATM   10  C   UNL     1      -9.821   9.294  66.405  1.00  0.00    -0.277 C  
BRANCH  10  11
HETATM   11  O   UNL     1      -9.935  10.718  66.534  1.00  0.00    -0.199 OA 
BRANCH  11  12
HETATM   12  C   UNL     1     -10.659  11.391  65.577  1.00  0.00    -0.271 A  
HETATM   13  C   UNL     1     -10.436  11.236  64.201  1.00  0.00    -0.431 A  
HETATM   14  C   UNL     1     -11.168  11.963  63.264  1.00  0.00    -0.382 A  
HETATM   15  C   UNL     1     -12.118  12.876  63.687  1.00  0.00    -0.611 A  
HETATM   16  C   UNL     1     -12.365  13.035  65.048  1.00  0.00    -0.526 A  
HETATM   17  C   UNL     1     -11.679  12.269  66.007  1.00  0.00    -0.388 A  
BRANCH  17  18
HETATM   18  O   UNL     1     -11.965  12.341  67.359  1.00  0.00    -0.530 OA 
BRANCH  18  19
HETATM   19  C   UNL     1     -11.726  13.629  67.943  1.00  0.00    -0.360 C  
BRANCH  19  20
HETATM   20  C   UNL     1     -12.103  13.638  69.394  1.00  0.00    -0.364 C  
HETATM   21  C   UNL     1     -12.367  14.760  70.080  1.00  0.00    -0.381 C  
ENDBRANCH  19  20
ENDBRANCH  18  19
ENDBRANCH  17  18
ENDBRANCH  11  12
ENDBRANCH  10  11
ENDBRANCH   7  10
ENDBRANCH   6   7
ENDBRANCH   4   6
ENDBRANCH   2   4
TORSDOF 9
ENDMDL
MODEL       43
REMARK 921   NORMALIZED FREE ENERGY PREDICTED BY IDOCK:   -4.94 KCAL/MOL
REMARK 922        TOTAL FREE ENERGY PREDICTED BY IDOCK:   -8.30 KCAL/MOL
REMARK 923 INTER-LIGAND FREE ENERGY PREDICTED BY IDOCK:   -6.97 KCAL/MOL
REMARK 924 INTRA-LIGAND FREE ENERGY PREDICTED BY IDOCK:   -1.33 KCAL/MOL
REMARK 927      BINDING AFFINITY PREDICTED BY RF-SCORE:    0.00 PKD
ROOT
HETATM    1  C   UNL     1     -12.007  13.402  65.541  1.00  0.00    -0.433 C  
HETATM    2  C   UNL     1     -10.922  14.472  65.672  1.00  0.00    -0.323 C  
HETATM    3  C   UNL     1     -11.260  15.653  64.754  1.00  0.00    -0.391 C  
ENDROOT
BRANCH   2   4
HETATM    4  N   UNL     1     -10.825  14.876  67.079  1.00  0.00    -0.308 NA 
HETATM    5  H   UNL     1     -10.088  14.357  67.558  1.00  0.00     0.000 HD 
BRANCH   4   6
HETATM    6  C   UNL     1     -10.643  16.324  67.246  1.00  0.00    -0.298 C  
BRANCH   6   7
HETATM    7  C   UNL     1      -9.868  16.667  68.535  1.00  0.00    -0.252 C  
HETATM    8  O   UNL     1      -9.422  18.027  68.505  1.00  0.00    -0.300 OA 
HETATM    9  H   UNL     1      -8.945  18.238  69.299  1.00  0.00     0.000 HD 
BRANCH   7  10
HETATM   10  C   UNL     1     -10.766  16.425  69.766  1.00  0.00    -0.324 C  
BRANCH  10  11
HETATM   11  O   UNL     1     -12.032  15.838  69.433  1.00  0.00    -0.370 OA 
BRANCH  11  12
HETATM   12  C   UNL     1     -12.609  14.997  70.357  1.00  0.00    -0.350 A  
HETATM   13  C   UNL     1     -13.418  15.455  71.408  1.00  0.00    -0.607 A  
HETATM   14  C   UNL     1     -13.955  14.573  72.344  1.00  0.00    -0.580 A  
HETATM   15  C   UNL     1     -13.673  13.221  72.260  1.00  0.00    -0.686 A  
HETATM   16  C   UNL     1     -12.883  12.743  71.217  1.00  0.00    -0.355 A  
HETATM   17  C   UNL     1     -12.380  13.608  70.230  1.00  0.00    -0.322 A  
BRANCH  17  18
HETATM   18  O   UNL     1     -11.669  13.152  69.134  1.00  0.00    -0.287 OA 
BRANCH  18  19
HETATM   19  C   UNL     1     -11.712  11.730  68.955  1.00  0.00    -0.328 C  
BRANCH  19  20
HETATM   20  C   UNL     1     -10.377  11.202  68.524  1.00  0.00    -0.207 C  
HETATM   21  C   UNL     1     -10.213  10.381  67.476  1.00  0.00    -0.251 C  
ENDBRANCH  19  20
ENDBRANCH  18  19
ENDBRANCH  17  18
ENDBRANCH  11  12
ENDBRANCH  10  11
ENDBRANCH   7  10
ENDBRANCH   6   7
ENDBRANCH   4   6
ENDBRANCH   2   4
TORSDOF 9
ENDMDL
MODEL       44
REMARK 921   NORMALIZED FREE ENERGY PREDICTED BY IDOCK:   -4.92 KCAL/MOL
REMARK 922        TOTAL FREE ENERGY PREDICTED BY IDOCK:   -8.28 KCAL/MOL
REMARK 923 INTER-LIGAND FREE ENERGY PREDICTED BY IDOCK:   -6.99 KCAL/MOL
REMARK 924 INTRA-LIGAND FREE ENERGY PREDICTED BY IDOCK:   -1.29 KCAL/MOL
REMARK 927      BINDING AFFINITY PREDICTED BY RF-SCORE:    0.00 PKD
ROOT
HETATM    1  C   UNL     1     -10.314   5.677  69.226  1.00  0.00    -0.340 C  
HETATM    2  C   UNL     1     -11.422   6.284  70.090  1.00  0.00    -0.382 C  
HETATM    3  C   UNL     1     -11.068   6.101  71.571  1.00  0.00    -0.342 C  
ENDROOT
BRANCH   2   4
HETATM    4  N   UNL     1     -11.580   7.697  69.729  1.00  0.00    -0.432 NA 
HETATM    5  H   UNL     1     -12.180   8.180  70.398  1.00  0.00     0.000 HD 
BRANCH   4   6
HETATM    6  C   UNL     1     -10.296   8.394  69.576  1.00  0.00    -0.219 C  
BRANCH   6   7
HETATM    7  C   UNL     1     -10.139   9.549  70.586  1.00  0.00    -0.286 C  
HETATM    8  O   UNL     1      -9.559  10.695  69.952  1.00  0.00    -0.399 OA 
HETATM    9  H   UNL     1      -9.462  11.406  70.574  1.00  0.00     0.000 HD 
BRANCH   7  10
HETATM   10  C   UNL     1     -11.513   9.909  71.188  1.00  0.00    -0.383 C  
BRANCH  10  11
HETATM   11  O   UNL     1     -12.285  10.780  70.350  1.00  0.00    -0.294 OA 
BRANCH  11  12
HETATM   12  C   UNL     1     -12.589  12.031  70.838  1.00  0.00    -0.253 A  
HETATM   13  C   UNL     1     -13.397  12.236  71.967  1.00  0.00    -0.491 A  
HETATM   14  C   UNL     1     -13.710  13.520  72.407  1.00  0.00    -0.704 A  
HETATM   15  C   UNL     1     -13.243  14.622  71.713  1.00  0.00    -0.434 A  
HETATM   16  C   UNL     1     -12.429  14.441  70.597  1.00  0.00    -0.419 A  
HETATM   17  C   UNL     1     -12.053  13.155  70.171  1.00  0.00    -0.321 A  
BRANCH  17  18
HETATM   18  O   UNL     1     -11.175  12.947  69.123  1.00  0.00    -0.256 OA 
BRANCH  18  19
HETATM   19  C   UNL     1     -11.557  13.589  67.898  1.00  0.00    -0.342 C  
BRANCH  19  20
HETATM   20  C   UNL     1     -11.685  12.592  66.787  1.00  0.00    -0.460 C  
HETATM   21  C   UNL     1     -11.344  11.301  66.912  1.00  0.00    -0.231 C  
ENDBRANCH  19  20
ENDBRANCH  18  19
ENDBRANCH  17  18
ENDBRANCH  11  12
ENDBRANCH  10  11
ENDBRANCH   7  10
ENDBRANCH   6   7
ENDBRANCH   4   6
ENDBRANCH   2   4
TORSDOF 9
ENDMDL
MODEL       45
REMARK 921   NORMALIZED FREE ENERGY PREDICTED BY IDOCK:   -4.91 KCAL/MOL
REMARK 922        TOTAL FREE ENERGY PREDICTED BY IDOCK:   -8.27 KCAL/MOL
REMARK 923 INTER-LIGAND FREE ENERGY PREDICTED BY IDOCK:   -7.65 KCAL/MOL
REMARK 924 INTRA-LIGAND FREE ENERGY PREDICTED BY IDOCK:   -0.62 KCAL/MOL
REMARK 927      BINDING AFFINITY PREDICTED BY RF-SCORE:    0.00 PKD
ROOT
HETATM    1  C   UNL     1     -14.411   7.560  71.552  1.00  0.00    -0.603 C  
HETATM    2  C   UNL     1     -12.936   7.890  71.793  1.00  0.00    -0.325 C  
HETATM    3  C   UNL     1     -12.103   6.609  71.674  1.00  0.00    -0.404 C  
ENDROOT
BRANCH   2   4
HETATM    4  N   UNL     1     -12.519   8.914  70.828  1.00  0.00    -0.491 NA 
HETATM    5  H   UNL     1     -12.752   9.848  71.164  1.00  0.00     0.000 HD 
BRANCH   4   6
HETATM    6  C   UNL     1     -11.095   8.820  70.478  1.00  0.00    -0.246 C  
BRANCH   6   7
HETATM    7  C   UNL     1     -10.540  10.156  69.944  1.00  0.00    -0.285 C  
HETATM    8  O   UNL     1      -9.108  10.143  69.953  1.00  0.00    -0.347 OA 
HETATM    9  H   UNL     1      -8.766  10.967  69.624  1.00  0.00     0.000 HD 
BRANCH   7  10
HETATM   10  C   UNL     1     -11.064  10.407  68.515  1.00  0.00    -0.266 C  
BRANCH  10  11
HETATM   11  O   UNL     1     -12.150  11.342  68.468  1.00  0.00    -0.550 OA 
BRANCH  11  12
HETATM   12  C   UNL     1     -11.847  12.662  68.220  1.00  0.00    -0.306 A  
HETATM   13  C   UNL     1     -11.504  13.570  69.233  1.00  0.00    -0.345 A  
HETATM   14  C   UNL     1     -11.238  14.907  68.944  1.00  0.00    -0.282 A  
HETATM   15  C   UNL     1     -11.335  15.366  67.642  1.00  0.00    -0.292 A  
HETATM   16  C   UNL     1     -11.660  14.477  66.620  1.00  0.00    -0.385 A  
HETATM   17  C   UNL     1     -11.875  13.113  66.881  1.00  0.00    -0.386 A  
BRANCH  17  18
HETATM   18  O   UNL     1     -12.112  12.192  65.877  1.00  0.00    -0.594 OA 
BRANCH  18  19
HETATM   19  C   UNL     1     -12.753  12.738  64.716  1.00  0.00    -0.393 C  
BRANCH  19  20
HETATM   20  C   UNL     1     -12.041  12.325  63.464  1.00  0.00    -0.649 C  
HETATM   21  C   UNL     1     -10.797  11.821  63.456  1.00  0.00    -0.496 C  
ENDBRANCH  19  20
ENDBRANCH  18  19
ENDBRANCH  17  18
ENDBRANCH  11  12
ENDBRANCH  10  11
ENDBRANCH   7  10
ENDBRANCH   6   7
ENDBRANCH   4   6
ENDBRANCH   2   4
TORSDOF 9
ENDMDL
MODEL       46
REMARK 921   NORMALIZED FREE ENERGY PREDICTED BY IDOCK:   -4.91 KCAL/MOL
REMARK 922        TOTAL FREE ENERGY PREDICTED BY IDOCK:   -8.27 KCAL/MOL
REMARK 923 INTER-LIGAND FREE ENERGY PREDICTED BY IDOCK:   -7.64 KCAL/MOL
REMARK 924 INTRA-LIGAND FREE ENERGY PREDICTED BY IDOCK:   -0.63 KCAL/MOL
REMARK 927      BINDING AFFINITY PREDICTED BY RF-SCORE:    0.00 PKD
ROOT
HETATM    1  C   UNL     1     -14.318   7.858  71.484  1.00  0.00    -0.563 C  
HETATM    2  C   UNL     1     -13.307   8.967  71.778  1.00  0.00    -0.397 C  
HETATM    3  C   UNL     1     -11.963   8.340  72.167  1.00  0.00    -0.429 C  
ENDROOT
BRANCH   2   4
HETATM    4  N   UNL     1     -13.193   9.827  70.594  1.00  0.00    -0.599 NA 
HETATM    5  H   UNL     1     -13.961  10.498  70.555  1.00  0.00     0.000 HD 
BRANCH   4   6
HETATM    6  C   UNL     1     -11.894  10.507  70.506  1.00  0.00    -0.347 C  
BRANCH   6   7
HETATM    7  C   UNL     1     -11.984  11.829  69.714  1.00  0.00    -0.322 C  
HETATM    8  O   UNL     1     -11.512  12.922  70.509  1.00  0.00    -0.447 OA 
HETATM    9  H   UNL     1     -11.567  13.736  70.022  1.00  0.00     0.000 HD 
BRANCH   7  10
HETATM   10  C   UNL     1     -11.160  11.717  68.415  1.00  0.00    -0.237 C  
BRANCH  10  11
HETATM   11  O   UNL     1     -11.942  11.925  67.231  1.00  0.00    -0.605 OA 
BRANCH  11  12
HETATM   12  C   UNL     1     -11.347  11.666  66.017  1.00  0.00    -0.196 A  
HETATM   13  C   UNL     1     -10.401  10.647  65.833  1.00  0.00    -0.291 A  
HETATM   14  C   UNL     1      -9.794  10.440  64.595  1.00  0.00    -0.405 A  
HETATM   15  C   UNL     1     -10.105  11.263  63.527  1.00  0.00    -0.443 A  
HETATM   16  C   UNL     1     -11.052  12.272  63.686  1.00  0.00    -0.537 A  
HETATM   17  C   UNL     1     -11.717  12.460  64.909  1.00  0.00    -0.365 A  
BRANCH  17  18
HETATM   18  O   UNL     1     -12.725  13.394  65.071  1.00  0.00    -0.623 OA 
BRANCH  18  19
HETATM   19  C   UNL     1     -12.406  14.698  64.566  1.00  0.00    -0.398 C  
BRANCH  19  20
HETATM   20  C   UNL     1     -11.535  15.449  65.528  1.00  0.00    -0.078 C  
HETATM   21  C   UNL     1     -10.237  15.702  65.304  1.00  0.00    -0.358 C  
ENDBRANCH  19  20
ENDBRANCH  18  19
ENDBRANCH  17  18
ENDBRANCH  11  12
ENDBRANCH  10  11
ENDBRANCH   7  10
ENDBRANCH   6   7
ENDBRANCH   4   6
ENDBRANCH   2   4
TORSDOF 9
ENDMDL
MODEL       47
REMARK 921   NORMALIZED FREE ENERGY PREDICTED BY IDOCK:   -4.90 KCAL/MOL
REMARK 922        TOTAL FREE ENERGY PREDICTED BY IDOCK:   -8.25 KCAL/MOL
REMARK 923 INTER-LIGAND FREE ENERGY PREDICTED BY IDOCK:   -7.11 KCAL/MOL
REMARK 924 INTRA-LIGAND FREE ENERGY PREDICTED BY IDOCK:   -1.15 KCAL/MOL
REMARK 927      BINDING AFFINITY PREDICTED BY RF-SCORE:    0.00 PKD
ROOT
HETATM    1  C   UNL     1     -12.276  13.449  63.237  1.00  0.00    -0.314 C  
HETATM    2  C   UNL     1     -12.212  12.078  63.913  1.00  0.00    -0.453 C  
HETATM    3  C   UNL     1     -10.801  11.499  63.755  1.00  0.00    -0.486 C  
ENDROOT
BRANCH   2   4
HETATM    4  N   UNL     1     -12.594  12.230  65.322  1.00  0.00    -0.496 NA 
HETATM    5  H   UNL     1     -13.253  11.503  65.602  1.00  0.00     0.000 HD 
BRANCH   4   6
HETATM    6  C   UNL     1     -11.435  12.267  66.225  1.00  0.00    -0.380 C  
BRANCH   6   7
HETATM    7  C   UNL     1     -11.565  13.376  67.290  1.00  0.00    -0.360 C  
HETATM    8  O   UNL     1     -10.489  13.295  68.231  1.00  0.00    -0.237 OA 
HETATM    9  H   UNL     1     -10.569  13.978  68.887  1.00  0.00     0.000 HD 
BRANCH   7  10
HETATM   10  C   UNL     1     -11.576  14.758  66.606  1.00  0.00    -0.313 C  
BRANCH  10  11
HETATM   11  O   UNL     1     -10.321  15.445  66.703  1.00  0.00    -0.267 OA 
BRANCH  11  12
HETATM   12  C   UNL     1     -10.344  16.773  67.067  1.00  0.00    -0.300 A  
HETATM   13  C   UNL     1     -10.493  17.816  66.141  1.00  0.00    -0.301 A  
HETATM   14  C   UNL     1     -10.477  19.149  66.546  1.00  0.00    -0.534 A  
HETATM   15  C   UNL     1     -10.287  19.463  67.881  1.00  0.00    -0.542 A  
HETATM   16  C   UNL     1     -10.151  18.442  68.818  1.00  0.00    -0.393 A  
HETATM   17  C   UNL     1     -10.223  17.091  68.438  1.00  0.00    -0.331 A  
BRANCH  17  18
HETATM   18  O   UNL     1     -10.180  16.057  69.357  1.00  0.00    -0.236 OA 
BRANCH  18  19
HETATM   19  C   UNL     1     -11.107  16.196  70.442  1.00  0.00    -0.351 C  
BRANCH  19  20
HETATM   20  C   UNL     1     -12.391  15.483  70.147  1.00  0.00    -0.384 C  
HETATM   21  C   UNL     1     -12.784  14.373  70.791  1.00  0.00    -0.427 C  
ENDBRANCH  19  20
ENDBRANCH  18  19
ENDBRANCH  17  18
ENDBRANCH  11  12
ENDBRANCH  10  11
ENDBRANCH   7  10
ENDBRANCH   6   7
ENDBRANCH   4   6
ENDBRANCH   2   4
TORSDOF 9
ENDMDL
MODEL       48
REMARK 921   NORMALIZED FREE ENERGY PREDICTED BY IDOCK:   -4.88 KCAL/MOL
REMARK 922        TOTAL FREE ENERGY PREDICTED BY IDOCK:   -8.23 KCAL/MOL
REMARK 923 INTER-LIGAND FREE ENERGY PREDICTED BY IDOCK:   -7.17 KCAL/MOL
REMARK 924 INTRA-LIGAND FREE ENERGY PREDICTED BY IDOCK:   -1.06 KCAL/MOL
REMARK 927      BINDING AFFINITY PREDICTED BY RF-SCORE:    0.00 PKD
ROOT
HETATM    1  C   UNL     1     -12.030  14.563  69.360  1.00  0.00    -0.362 C  
HETATM    2  C   UNL     1     -11.556  13.855  68.089  1.00  0.00    -0.335 C  
HETATM    3  C   UNL     1     -11.661  12.338  68.283  1.00  0.00    -0.385 C  
ENDROOT
BRANCH   2   4
HETATM    4  N   UNL     1     -12.365  14.326  66.958  1.00  0.00    -0.580 NA 
HETATM    5  H   UNL     1     -12.218  15.321  66.793  1.00  0.00     0.000 HD 
BRANCH   4   6
HETATM    6  C   UNL     1     -12.136  13.549  65.732  1.00  0.00    -0.433 C  
BRANCH   6   7
HETATM    7  C   UNL     1     -11.555  14.417  64.596  1.00  0.00    -0.409 C  
HETATM    8  O   UNL     1     -12.375  14.326  63.426  1.00  0.00    -1.113 OA 
HETATM    9  H   UNL     1     -12.017  14.860  62.726  1.00  0.00     0.000 HD 
BRANCH   7  10
HETATM   10  C   UNL     1     -11.447  15.884  65.061  1.00  0.00    -0.079 C  
BRANCH  10  11
HETATM   11  O   UNL     1     -10.347  16.114  65.952  1.00  0.00    -0.330 OA 
BRANCH  11  12
HETATM   12  C   UNL     1     -10.174  17.390  66.438  1.00  0.00    -0.338 A  
HETATM   13  C   UNL     1     -10.593  18.535  65.744  1.00  0.00    -0.265 A  
HETATM   14  C   UNL     1     -10.367  19.812  66.254  1.00  0.00    -0.626 A  
HETATM   15  C   UNL     1      -9.698  19.967  67.455  1.00  0.00    -0.539 A  
HETATM   16  C   UNL     1      -9.286  18.843  68.167  1.00  0.00    -0.368 A  
HETATM   17  C   UNL     1      -9.555  17.546  67.698  1.00  0.00    -0.266 A  
BRANCH  17  18
HETATM   18  O   UNL     1      -9.238  16.412  68.425  1.00  0.00    -0.205 OA 
BRANCH  18  19
HETATM   19  C   UNL     1      -7.865  16.337  68.830  1.00  0.00    -0.224 C  
BRANCH  19  20
HETATM   20  C   UNL     1      -7.222  15.084  68.318  1.00  0.00    -0.113 C  
HETATM   21  C   UNL     1      -7.775  14.302  67.379  1.00  0.00    -0.194 C  
ENDBRANCH  19  20
ENDBRANCH  18  19
ENDBRANCH  17  18
ENDBRANCH  11  12
ENDBRANCH  10  11
ENDBRANCH   7  10
ENDBRANCH   6   7
ENDBRANCH   4   6
ENDBRANCH   2   4
TORSDOF 9
ENDMDL
MODEL       49
REMARK 921   NORMALIZED FREE ENERGY PREDICTED BY IDOCK:   -4.86 KCAL/MOL
REMARK 922        TOTAL FREE ENERGY PREDICTED BY IDOCK:   -8.19 KCAL/MOL
REMARK 923 INTER-LIGAND FREE ENERGY PREDICTED BY IDOCK:   -7.41 KCAL/MOL
REMARK 924 INTRA-LIGAND FREE ENERGY PREDICTED BY IDOCK:   -0.78 KCAL/MOL
REMARK 927      BINDING AFFINITY PREDICTED BY RF-SCORE:    0.00 PKD
ROOT
HETATM    1  C   UNL     1      -9.617  20.419  67.596  1.00  0.00    -0.517 C  
HETATM    2  C   UNL     1     -10.771  19.538  67.115  1.00  0.00    -0.482 C  
HETATM    3  C   UNL     1     -10.683  19.370  65.594  1.00  0.00    -0.377 C  
ENDROOT
BRANCH   2   4
HETATM    4  N   UNL     1     -10.706  18.251  67.818  1.00  0.00    -0.390 NA 
HETATM    5  H   UNL     1     -10.844  17.474  67.172  1.00  0.00     0.000 HD 
BRANCH   4   6
HETATM    6  C   UNL     1      -9.464  18.083  68.585  1.00  0.00    -0.309 C  
BRANCH   6   7
HETATM    7  C   UNL     1      -8.934  16.635  68.522  1.00  0.00    -0.235 C  
HETATM    8  O   UNL     1      -7.530  16.602  68.800  1.00  0.00    -0.198 OA 
HETATM    9  H   UNL     1      -7.204  15.710  68.762  1.00  0.00     0.000 HD 
BRANCH   7  10
HETATM   10  C   UNL     1      -9.701  15.754  69.529  1.00  0.00    -0.276 C  
BRANCH  10  11
HETATM   11  O   UNL     1     -11.089  16.097  69.638  1.00  0.00    -0.305 OA 
BRANCH  11  12
HETATM   12  C   UNL     1     -11.803  15.553  70.681  1.00  0.00    -0.365 A  
HETATM   13  C   UNL     1     -11.961  16.198  71.917  1.00  0.00    -0.583 A  
HETATM   14  C   UNL     1     -12.662  15.597  72.961  1.00  0.00    -0.581 A  
HETATM   15  C   UNL     1     -13.196  14.332  72.796  1.00  0.00    -0.614 A  
HETATM   16  C   UNL     1     -13.063  13.680  71.572  1.00  0.00    -0.431 A  
HETATM   17  C   UNL     1     -12.410  14.292  70.488  1.00  0.00    -0.360 A  
BRANCH  17  18
HETATM   18  O   UNL     1     -12.340  13.708  69.236  1.00  0.00    -0.288 OA 
BRANCH  18  19
HETATM   19  C   UNL     1     -11.552  12.511  69.189  1.00  0.00    -0.320 C  
BRANCH  19  20
HETATM   20  C   UNL     1     -11.193  12.160  67.776  1.00  0.00    -0.333 C  
HETATM   21  C   UNL     1     -11.799  12.697  66.707  1.00  0.00    -0.440 C  
ENDBRANCH  19  20
ENDBRANCH  18  19
ENDBRANCH  17  18
ENDBRANCH  11  12
ENDBRANCH  10  11
ENDBRANCH   7  10
ENDBRANCH   6   7
ENDBRANCH   4   6
ENDBRANCH   2   4
TORSDOF 9
ENDMDL
MODEL       50
REMARK 921   NORMALIZED FREE ENERGY PREDICTED BY IDOCK:   -4.84 KCAL/MOL
REMARK 922        TOTAL FREE ENERGY PREDICTED BY IDOCK:   -8.17 KCAL/MOL
REMARK 923 INTER-LIGAND FREE ENERGY PREDICTED BY IDOCK:   -7.49 KCAL/MOL
REMARK 924 INTRA-LIGAND FREE ENERGY PREDICTED BY IDOCK:   -0.68 KCAL/MOL
REMARK 927      BINDING AFFINITY PREDICTED BY RF-SCORE:    0.00 PKD
ROOT
HETATM    1  C   UNL     1      -9.403  10.190  63.623  1.00  0.00    -0.336 C  
HETATM    2  C   UNL     1     -10.217  10.361  64.907  1.00  0.00    -0.260 C  
HETATM    3  C   UNL     1      -9.433   9.775  66.087  1.00  0.00    -0.261 C  
ENDROOT
BRANCH   2   4
HETATM    4  N   UNL     1     -10.513  11.786  65.091  1.00  0.00    -0.271 NA 
HETATM    5  H   UNL     1      -9.693  12.358  64.889  1.00  0.00     0.000 HD 
BRANCH   4   6
HETATM    6  C   UNL     1     -11.673  12.233  64.308  1.00  0.00    -0.381 C  
BRANCH   6   7
HETATM    7  C   UNL     1     -11.868  13.762  64.382  1.00  0.00    -0.427 C  
HETATM    8  O   UNL     1     -12.587  14.232  63.237  1.00  0.00    -1.069 OA 
HETATM    9  H   UNL     1     -12.707  15.173  63.282  1.00  0.00     0.000 HD 
BRANCH   7  10
HETATM   10  C   UNL     1     -12.623  14.131  65.676  1.00  0.00    -0.470 C  
BRANCH  10  11
HETATM   11  O   UNL     1     -11.805  14.043  66.851  1.00  0.00    -0.385 OA 
BRANCH  11  12
HETATM   12  C   UNL     1     -11.253  15.207  67.335  1.00  0.00    -0.323 A  
HETATM   13  C   UNL     1     -10.532  16.102  66.531  1.00  0.00    -0.298 A  
HETATM   14  C   UNL     1      -9.959  17.254  67.067  1.00  0.00    -0.289 A  
HETATM   15  C   UNL     1     -10.074  17.517  68.421  1.00  0.00    -0.358 A  
HETATM   16  C   UNL     1     -10.798  16.648  69.234  1.00  0.00    -0.310 A  
HETATM   17  C   UNL     1     -11.433  15.512  68.703  1.00  0.00    -0.359 A  
BRANCH  17  18
HETATM   18  O   UNL     1     -12.231  14.681  69.468  1.00  0.00    -0.306 OA 
BRANCH  18  19
HETATM   19  C   UNL     1     -12.880  15.335  70.566  1.00  0.00    -0.373 C  
BRANCH  19  20
HETATM   20  C   UNL     1     -12.793  14.507  71.813  1.00  0.00    -0.415 C  
HETATM   21  C   UNL     1     -13.438  13.341  71.969  1.00  0.00    -0.596 C  
ENDBRANCH  19  20
ENDBRANCH  18  19
ENDBRANCH  17  18
ENDBRANCH  11  12
ENDBRANCH  10  11
ENDBRANCH   7  10
ENDBRANCH   6   7
ENDBRANCH   4   6
ENDBRANCH   2   4
TORSDOF 9
ENDMDL
MODEL       51
REMARK 921   NORMALIZED FREE ENERGY PREDICTED BY IDOCK:   -4.84 KCAL/MOL
REMARK 922        TOTAL FREE ENERGY PREDICTED BY IDOCK:   -8.15 KCAL/MOL
REMARK 923 INTER-LIGAND FREE ENERGY PREDICTED BY IDOCK:   -7.37 KCAL/MOL
REMARK 924 INTRA-LIGAND FREE ENERGY PREDICTED BY IDOCK:   -0.78 KCAL/MOL
REMARK 927      BINDING AFFINITY PREDICTED BY RF-SCORE:    0.00 PKD
ROOT
HETATM    1  C   UNL     1     -12.702   8.421  72.305  1.00  0.00    -0.376 C  
HETATM    2  C   UNL     1     -11.293   8.194  71.754  1.00  0.00    -0.278 C  
HETATM    3  C   UNL     1     -11.353   7.180  70.605  1.00  0.00    -0.327 C  
ENDROOT
BRANCH   2   4
HETATM    4  N   UNL     1     -10.742   9.485  71.324  1.00  0.00    -0.343 NA 
HETATM    5  H   UNL     1      -9.802   9.623  71.696  1.00  0.00     0.000 HD 
BRANCH   4   6
HETATM    6  C   UNL     1     -10.761   9.655  69.865  1.00  0.00    -0.252 C  
BRANCH   6   7
HETATM    7  C   UNL     1     -11.369  11.010  69.446  1.00  0.00    -0.284 C  
HETATM    8  O   UNL     1     -12.268  10.837  68.346  1.00  0.00    -0.832 OA 
HETATM    9  H   UNL     1     -12.643  11.672  68.088  1.00  0.00     0.000 HD 
BRANCH   7  10
HETATM   10  C   UNL     1     -12.105  11.644  70.644  1.00  0.00    -0.335 C  
BRANCH  10  11
HETATM   11  O   UNL     1     -12.762  12.876  70.315  1.00  0.00    -0.055 OA 
BRANCH  11  12
HETATM   12  C   UNL     1     -12.707  13.897  71.237  1.00  0.00    -0.367 A  
HETATM   13  C   UNL     1     -13.466  13.901  72.417  1.00  0.00    -0.661 A  
HETATM   14  C   UNL     1     -13.409  14.971  73.308  1.00  0.00    -0.429 A  
HETATM   15  C   UNL     1     -12.611  16.065  73.024  1.00  0.00    -0.605 A  
HETATM   16  C   UNL     1     -11.838  16.074  71.865  1.00  0.00    -0.619 A  
HETATM   17  C   UNL     1     -11.838  14.980  70.982  1.00  0.00    -0.323 A  
BRANCH  17  18
HETATM   18  O   UNL     1     -11.015  14.923  69.871  1.00  0.00    -0.253 OA 
BRANCH  18  19
HETATM   19  C   UNL     1     -11.495  15.668  68.744  1.00  0.00    -0.376 C  
BRANCH  19  20
HETATM   20  C   UNL     1     -11.699  14.776  67.557  1.00  0.00    -0.370 C  
HETATM   21  C   UNL     1     -10.729  14.011  67.035  1.00  0.00    -0.284 C  
ENDBRANCH  19  20
ENDBRANCH  18  19
ENDBRANCH  17  18
ENDBRANCH  11  12
ENDBRANCH  10  11
ENDBRANCH   7  10
ENDBRANCH   6   7
ENDBRANCH   4   6
ENDBRANCH   2   4
TORSDOF 9
ENDMDL
MODEL       52
REMARK 921   NORMALIZED FREE ENERGY PREDICTED BY IDOCK:   -4.83 KCAL/MOL
REMARK 922        TOTAL FREE ENERGY PREDICTED BY IDOCK:   -8.14 KCAL/MOL
REMARK 923 INTER-LIGAND FREE ENERGY PREDICTED BY IDOCK:   -7.24 KCAL/MOL
REMARK 924 INTRA-LIGAND FREE ENERGY PREDICTED BY IDOCK:   -0.90 KCAL/MOL
REMARK 927      BINDING AFFINITY PREDICTED BY RF-SCORE:    0.00 PKD
ROOT
HETATM    1  C   UNL     1     -14.153  14.052  72.194  1.00  0.00    -0.641 C  
HETATM    2  C   UNL     1     -13.662  15.384  71.624  1.00  0.00    -0.509 C  
HETATM    3  C   UNL     1     -12.559  15.948  72.528  1.00  0.00    -0.545 C  
ENDROOT
BRANCH   2   4
HETATM    4  N   UNL     1     -13.193  15.164  70.251  1.00  0.00    -0.660 NA 
HETATM    5  H   UNL     1     -13.502  15.917  69.635  1.00  0.00     0.000 HD 
BRANCH   4   6
HETATM    6  C   UNL     1     -11.738  14.980  70.168  1.00  0.00    -0.299 C  
BRANCH   6   7
HETATM    7  C   UNL     1     -11.340  14.004  69.041  1.00  0.00    -0.281 C  
HETATM    8  O   UNL     1      -9.917  13.856  68.985  1.00  0.00    -0.409 OA 
HETATM    9  H   UNL     1      -9.672  13.255  68.291  1.00  0.00     0.000 HD 
BRANCH   7  10
HETATM   10  C   UNL     1     -12.011  12.635  69.273  1.00  0.00    -0.246 C  
BRANCH  10  11
HETATM   11  O   UNL     1     -11.074  11.587  69.555  1.00  0.00    -0.244 OA 
BRANCH  11  12
HETATM   12  C   UNL     1     -11.466  10.595  70.425  1.00  0.00    -0.334 A  
HETATM   13  C   UNL     1     -12.749  10.536  70.988  1.00  0.00    -0.504 A  
HETATM   14  C   UNL     1     -13.095   9.534  71.893  1.00  0.00    -0.517 A  
HETATM   15  C   UNL     1     -12.157   8.589  72.269  1.00  0.00    -0.455 A  
HETATM   16  C   UNL     1     -10.882   8.621  71.711  1.00  0.00    -0.395 A  
HETATM   17  C   UNL     1     -10.530   9.588  70.753  1.00  0.00    -0.314 A  
BRANCH  17  18
HETATM   18  O   UNL     1      -9.302   9.591  70.117  1.00  0.00    -0.215 OA 
BRANCH  18  19
HETATM   19  C   UNL     1      -9.103   8.493  69.216  1.00  0.00    -0.153 C  
BRANCH  19  20
HETATM   20  C   UNL     1      -9.383   8.902  67.801  1.00  0.00    -0.157 C  
HETATM   21  C   UNL     1     -10.530   8.619  67.166  1.00  0.00    -0.360 C  
ENDBRANCH  19  20
ENDBRANCH  18  19
ENDBRANCH  17  18
ENDBRANCH  11  12
ENDBRANCH  10  11
ENDBRANCH   7  10
ENDBRANCH   6   7
ENDBRANCH   4   6
ENDBRANCH   2   4
TORSDOF 9
ENDMDL
MODEL       53
REMARK 921   NORMALIZED FREE ENERGY PREDICTED BY IDOCK:   -4.82 KCAL/MOL
REMARK 922        TOTAL FREE ENERGY PREDICTED BY IDOCK:   -8.14 KCAL/MOL
REMARK 923 INTER-LIGAND FREE ENERGY PREDICTED BY IDOCK:   -6.80 KCAL/MOL
REMARK 924 INTRA-LIGAND FREE ENERGY PREDICTED BY IDOCK:   -1.33 KCAL/MOL
REMARK 927      BINDING AFFINITY PREDICTED BY RF-SCORE:    0.00 PKD
ROOT
HETATM    1  C   UNL     1     -11.919  16.098  72.364  1.00  0.00    -0.649 C  
HETATM    2  C   UNL     1     -11.981  14.794  71.566  1.00  0.00    -0.353 C  
HETATM    3  C   UNL     1     -13.445  14.446  71.273  1.00  0.00    -0.401 C  
ENDROOT
BRANCH   2   4
HETATM    4  N   UNL     1     -11.194  14.955  70.338  1.00  0.00    -0.386 NA 
HETATM    5  H   UNL     1     -11.551  14.356  69.594  1.00  0.00     0.000 HD 
BRANCH   4   6
HETATM    6  C   UNL     1     -11.110  16.353  69.894  1.00  0.00    -0.310 C  
BRANCH   6   7
HETATM    7  C   UNL     1     -10.707  16.467  68.409  1.00  0.00    -0.327 C  
HETATM    8  O   UNL     1     -10.782  17.828  67.972  1.00  0.00    -0.382 OA 
HETATM    9  H   UNL     1     -10.534  17.898  67.058  1.00  0.00     0.000 HD 
BRANCH   7  10
HETATM   10  C   UNL     1      -9.278  15.920  68.212  1.00  0.00    -0.189 C  
BRANCH  10  11
HETATM   11  O   UNL     1      -9.240  14.500  68.010  1.00  0.00    -0.180 OA 
BRANCH  11  12
HETATM   12  C   UNL     1     -10.068  13.969  67.047  1.00  0.00    -0.255 A  
HETATM   13  C   UNL     1     -10.092  14.429  65.722  1.00  0.00    -0.361 A  
HETATM   14  C   UNL     1     -10.970  13.888  64.785  1.00  0.00    -0.407 A  
HETATM   15  C   UNL     1     -11.857  12.894  65.163  1.00  0.00    -0.415 A  
HETATM   16  C   UNL     1     -11.839  12.413  66.470  1.00  0.00    -0.407 A  
HETATM   17  C   UNL     1     -10.921  12.905  67.415  1.00  0.00    -0.260 A  
BRANCH  17  18
HETATM   18  O   UNL     1     -10.820  12.385  68.693  1.00  0.00    -0.227 OA 
BRANCH  18  19
HETATM   19  C   UNL     1     -11.959  11.619  69.109  1.00  0.00    -0.313 C  
BRANCH  19  20
HETATM   20  C   UNL     1     -11.816  11.175  70.533  1.00  0.00    -0.448 C  
HETATM   21  C   UNL     1     -12.803  10.585  71.224  1.00  0.00    -0.532 C  
ENDBRANCH  19  20
ENDBRANCH  18  19
ENDBRANCH  17  18
ENDBRANCH  11  12
ENDBRANCH  10  11
ENDBRANCH   7  10
ENDBRANCH   6   7
ENDBRANCH   4   6
ENDBRANCH   2   4
TORSDOF 9
ENDMDL
MODEL       54
REMARK 921   NORMALIZED FREE ENERGY PREDICTED BY IDOCK:   -4.81 KCAL/MOL
REMARK 922        TOTAL FREE ENERGY PREDICTED BY IDOCK:   -8.12 KCAL/MOL
REMARK 923 INTER-LIGAND FREE ENERGY PREDICTED BY IDOCK:   -7.22 KCAL/MOL
REMARK 924 INTRA-LIGAND FREE ENERGY PREDICTED BY IDOCK:   -0.90 KCAL/MOL
REMARK 927      BINDING AFFINITY PREDICTED BY RF-SCORE:    0.00 PKD
ROOT
HETATM    1  C   UNL     1     -12.638  13.778  65.356  1.00  0.00    -0.534 C  
HETATM    2  C   UNL     1     -12.046  12.412  65.002  1.00  0.00    -0.407 C  
HETATM    3  C   UNL     1     -12.457  12.036  63.573  1.00  0.00    -0.654 C  
ENDROOT
BRANCH   2   4
HETATM    4  N   UNL     1     -10.588  12.476  65.160  1.00  0.00    -0.285 NA 
HETATM    5  H   UNL     1     -10.329  13.127  65.901  1.00  0.00     0.000 HD 
BRANCH   4   6
HETATM    6  C   UNL     1      -9.981  11.157  65.382  1.00  0.00    -0.259 C  
BRANCH   6   7
HETATM    7  C   UNL     1     -10.515  10.481  66.662  1.00  0.00    -0.228 C  
HETATM    8  O   UNL     1     -10.108   9.109  66.711  1.00  0.00    -0.232 OA 
HETATM    9  H   UNL     1     -10.437   8.693  67.500  1.00  0.00     0.000 HD 
BRANCH   7  10
HETATM   10  C   UNL     1     -10.003  11.236  67.905  1.00  0.00    -0.175 C  
BRANCH  10  11
HETATM   11  O   UNL     1     -10.929  12.219  68.390  1.00  0.00    -0.211 OA 
BRANCH  11  12
HETATM   12  C   UNL     1     -11.643  11.918  69.528  1.00  0.00    -0.327 A  
HETATM   13  C   UNL     1     -11.819  10.607  69.995  1.00  0.00    -0.403 A  
HETATM   14  C   UNL     1     -12.579  10.341  71.133  1.00  0.00    -0.501 A  
HETATM   15  C   UNL     1     -13.197  11.379  71.808  1.00  0.00    -0.472 A  
HETATM   16  C   UNL     1     -13.024  12.690  71.369  1.00  0.00    -0.353 A  
HETATM   17  C   UNL     1     -12.214  12.984  70.258  1.00  0.00    -0.296 A  
BRANCH  17  18
HETATM   18  O   UNL     1     -11.952  14.280  69.853  1.00  0.00    -0.297 OA 
BRANCH  18  19
HETATM   19  C   UNL     1     -12.654  15.284  70.598  1.00  0.00    -0.417 C  
BRANCH  19  20
HETATM   20  C   UNL     1     -11.710  16.079  71.450  1.00  0.00    -0.536 C  
HETATM   21  C   UNL     1     -11.923  16.328  72.751  1.00  0.00    -0.636 C  
ENDBRANCH  19  20
ENDBRANCH  18  19
ENDBRANCH  17  18
ENDBRANCH  11  12
ENDBRANCH  10  11
ENDBRANCH   7  10
ENDBRANCH   6   7
ENDBRANCH   4   6
ENDBRANCH   2   4
TORSDOF 9
ENDMDL
MODEL       55
REMARK 921   NORMALIZED FREE ENERGY PREDICTED BY IDOCK:   -4.81 KCAL/MOL
REMARK 922        TOTAL FREE ENERGY PREDICTED BY IDOCK:   -8.11 KCAL/MOL
REMARK 923 INTER-LIGAND FREE ENERGY PREDICTED BY IDOCK:   -7.23 KCAL/MOL
REMARK 924 INTRA-LIGAND FREE ENERGY PREDICTED BY IDOCK:   -0.88 KCAL/MOL
REMARK 927      BINDING AFFINITY PREDICTED BY RF-SCORE:    0.00 PKD
ROOT
HETATM    1  C   UNL     1     -11.182  10.071  70.448  1.00  0.00    -0.393 C  
HETATM    2  C   UNL     1     -12.338  11.073  70.471  1.00  0.00    -0.373 C  
HETATM    3  C   UNL     1     -13.182  10.846  71.731  1.00  0.00    -0.513 C  
ENDROOT
BRANCH   2   4
HETATM    4  N   UNL     1     -11.785  12.431  70.412  1.00  0.00    -0.540 NA 
HETATM    5  H   UNL     1     -11.585  12.703  69.450  1.00  0.00     0.000 HD 
BRANCH   4   6
HETATM    6  C   UNL     1     -12.643  13.424  71.073  1.00  0.00    -0.343 C  
BRANCH   6   7
HETATM    7  C   UNL     1     -12.138  14.866  70.850  1.00  0.00    -0.317 C  
HETATM    8  O   UNL     1     -10.828  15.029  71.404  1.00  0.00    -0.557 OA 
HETATM    9  H   UNL     1     -10.518  15.917  71.267  1.00  0.00     0.000 HD 
BRANCH   7  10
HETATM   10  C   UNL     1     -12.127  15.189  69.342  1.00  0.00    -0.260 C  
BRANCH  10  11
HETATM   11  O   UNL     1     -11.033  14.578  68.643  1.00  0.00    -0.234 OA 
BRANCH  11  12
HETATM   12  C   UNL     1     -11.204  14.301  67.305  1.00  0.00    -0.318 A  
HETATM   13  C   UNL     1     -12.283  13.552  66.812  1.00  0.00    -0.392 A  
HETATM   14  C   UNL     1     -12.402  13.263  65.454  1.00  0.00    -0.528 A  
HETATM   15  C   UNL     1     -11.431  13.697  64.569  1.00  0.00    -0.401 A  
HETATM   16  C   UNL     1     -10.359  14.454  65.035  1.00  0.00    -0.449 A  
HETATM   17  C   UNL     1     -10.252  14.806  66.392  1.00  0.00    -0.291 A  
BRANCH  17  18
HETATM   18  O   UNL     1      -9.248  15.630  66.869  1.00  0.00    -0.213 OA 
BRANCH  18  19
HETATM   19  C   UNL     1      -9.098  16.856  66.141  1.00  0.00    -0.230 C  
BRANCH  19  20
HETATM   20  C   UNL     1     -10.348  17.679  66.211  1.00  0.00    -0.342 C  
HETATM   21  C   UNL     1     -10.354  19.019  66.142  1.00  0.00    -0.537 C  
ENDBRANCH  19  20
ENDBRANCH  18  19
ENDBRANCH  17  18
ENDBRANCH  11  12
ENDBRANCH  10  11
ENDBRANCH   7  10
ENDBRANCH   6   7
ENDBRANCH   4   6
ENDBRANCH   2   4
TORSDOF 9
ENDMDL
MODEL       56
REMARK 921   NORMALIZED FREE ENERGY PREDICTED BY IDOCK:   -4.80 KCAL/MOL
REMARK 922        TOTAL FREE ENERGY PREDICTED BY IDOCK:   -8.10 KCAL/MOL
REMARK 923 INTER-LIGAND FREE ENERGY PREDICTED BY IDOCK:   -6.93 KCAL/MOL
REMARK 924 INTRA-LIGAND FREE ENERGY PREDICTED BY IDOCK:   -1.17 KCAL/MOL
REMARK 927      BINDING AFFINITY PREDICTED BY RF-SCORE:    0.00 PKD
ROOT
HETATM    1  C   UNL     1     -12.259  14.338  64.503  1.00  0.00    -0.476 C  
HETATM    2  C   UNL     1     -12.502  12.882  64.907  1.00  0.00    -0.478 C  
HETATM    3  C   UNL     1     -11.708  11.957  63.977  1.00  0.00    -0.469 C  
ENDROOT
BRANCH   2   4
HETATM    4  N   UNL     1     -12.119  12.714  66.314  1.00  0.00    -0.568 NA 
HETATM    5  H   UNL     1     -11.810  11.759  66.496  1.00  0.00     0.000 HD 
BRANCH   4   6
HETATM    6  C   UNL     1     -11.110  13.687  66.751  1.00  0.00    -0.307 C  
BRANCH   6   7
HETATM    7  C   UNL     1     -11.340  14.149  68.205  1.00  0.00    -0.290 C  
HETATM    8  O   UNL     1     -12.166  15.318  68.235  1.00  0.00    -0.533 OA 
HETATM    9  H   UNL     1     -12.308  15.602  69.130  1.00  0.00     0.000 HD 
BRANCH   7  10
HETATM   10  C   UNL     1     -11.992  13.012  69.018  1.00  0.00    -0.267 C  
BRANCH  10  11
HETATM   11  O   UNL     1     -11.154  11.854  69.140  1.00  0.00    -0.233 OA 
BRANCH  11  12
HETATM   12  C   UNL     1     -11.533  10.883  70.040  1.00  0.00    -0.329 A  
HETATM   13  C   UNL     1     -12.607  11.042  70.928  1.00  0.00    -0.488 A  
HETATM   14  C   UNL     1     -12.937  10.049  71.848  1.00  0.00    -0.547 A  
HETATM   15  C   UNL     1     -12.182   8.890  71.914  1.00  0.00    -0.445 A  
HETATM   16  C   UNL     1     -11.120   8.707  71.032  1.00  0.00    -0.316 A  
HETATM   17  C   UNL     1     -10.808   9.671  70.057  1.00  0.00    -0.264 A  
BRANCH  17  18
HETATM   18  O   UNL     1      -9.817   9.478  69.112  1.00  0.00    -0.165 OA 
BRANCH  18  19
HETATM   19  C   UNL     1     -10.167   8.555  68.072  1.00  0.00    -0.213 C  
BRANCH  19  20
HETATM   20  C   UNL     1     -10.230   9.243  66.742  1.00  0.00    -0.325 C  
HETATM   21  C   UNL     1      -9.421  10.256  66.397  1.00  0.00    -0.218 C  
ENDBRANCH  19  20
ENDBRANCH  18  19
ENDBRANCH  17  18
ENDBRANCH  11  12
ENDBRANCH  10  11
ENDBRANCH   7  10
ENDBRANCH   6   7
ENDBRANCH   4   6
ENDBRANCH   2   4
TORSDOF 9
ENDMDL
MODEL       57
REMARK 921   NORMALIZED FREE ENERGY PREDICTED BY IDOCK:   -4.79 KCAL/MOL
REMARK 922        TOTAL FREE ENERGY PREDICTED BY IDOCK:   -8.08 KCAL/MOL
REMARK 923 INTER-LIGAND FREE ENERGY PREDICTED BY IDOCK:   -7.13 KCAL/MOL
REMARK 924 INTRA-LIGAND FREE ENERGY PREDICTED BY IDOCK:   -0.95 KCAL/MOL
REMARK 927      BINDING AFFINITY PREDICTED BY RF-SCORE:    0.00 PKD
ROOT
HETATM    1  C   UNL     1     -13.151  10.532  71.863  1.00  0.00    -0.567 C  
HETATM    2  C   UNL     1     -12.396  11.551  71.007  1.00  0.00    -0.329 C  
HETATM    3  C   UNL     1     -12.194  10.981  69.598  1.00  0.00    -0.370 C  
ENDROOT
BRANCH   2   4
HETATM    4  N   UNL     1     -13.155  12.807  70.991  1.00  0.00    -0.071 NA 
HETATM    5  H   UNL     1     -14.071  12.676  70.563  1.00  0.00     0.000 HD 
BRANCH   4   6
HETATM    6  C   UNL     1     -13.279  13.414  72.323  1.00  0.00    -0.472 C  
BRANCH   6   7
HETATM    7  C   UNL     1     -12.955  14.923  72.306  1.00  0.00    -0.341 C  
HETATM    8  O   UNL     1     -11.704  15.174  72.955  1.00  0.00    -0.387 OA 
HETATM    9  H   UNL     1     -11.505  16.103  72.944  1.00  0.00     0.000 HD 
BRANCH   7  10
HETATM   10  C   UNL     1     -12.915  15.432  70.851  1.00  0.00    -0.478 C  
BRANCH  10  11
HETATM   11  O   UNL     1     -11.588  15.497  70.312  1.00  0.00    -0.278 OA 
BRANCH  11  12
HETATM   12  C   UNL     1     -11.444  15.372  68.948  1.00  0.00    -0.342 A  
HETATM   13  C   UNL     1     -11.946  14.281  68.224  1.00  0.00    -0.346 A  
HETATM   14  C   UNL     1     -11.750  14.175  66.848  1.00  0.00    -0.437 A  
HETATM   15  C   UNL     1     -11.026  15.145  66.177  1.00  0.00    -0.331 A  
HETATM   16  C   UNL     1     -10.530  16.244  66.875  1.00  0.00    -0.302 A  
HETATM   17  C   UNL     1     -10.768  16.399  68.252  1.00  0.00    -0.337 A  
BRANCH  17  18
HETATM   18  O   UNL     1     -10.366  17.522  68.953  1.00  0.00    -0.353 OA 
BRANCH  18  19
HETATM   19  C   UNL     1      -9.267  18.225  68.359  1.00  0.00    -0.317 C  
BRANCH  19  20
HETATM   20  C   UNL     1      -9.632  19.652  68.079  1.00  0.00    -0.469 C  
HETATM   21  C   UNL     1     -10.120  20.071  66.902  1.00  0.00    -0.601 C  
ENDBRANCH  19  20
ENDBRANCH  18  19
ENDBRANCH  17  18
ENDBRANCH  11  12
ENDBRANCH  10  11
ENDBRANCH   7  10
ENDBRANCH   6   7
ENDBRANCH   4   6
ENDBRANCH   2   4
TORSDOF 9
ENDMDL
MODEL       58
REMARK 921   NORMALIZED FREE ENERGY PREDICTED BY IDOCK:   -4.74 KCAL/MOL
REMARK 922        TOTAL FREE ENERGY PREDICTED BY IDOCK:   -8.00 KCAL/MOL
REMARK 923 INTER-LIGAND FREE ENERGY PREDICTED BY IDOCK:   -7.34 KCAL/MOL
REMARK 924 INTRA-LIGAND FREE ENERGY PREDICTED BY IDOCK:   -0.66 KCAL/MOL
REMARK 927      BINDING AFFINITY PREDICTED BY RF-SCORE:    0.00 PKD
ROOT
HETATM    1  C   UNL     1     -11.664  12.375  63.514  1.00  0.00    -0.592 C  
HETATM    2  C   UNL     1     -11.596  13.302  64.729  1.00  0.00    -0.332 C  
HETATM    3  C   UNL     1     -12.231  14.652  64.374  1.00  0.00    -0.473 C  
ENDROOT
BRANCH   2   4
HETATM    4  N   UNL     1     -12.274  12.651  65.856  1.00  0.00    -0.597 NA 
HETATM    5  H   UNL     1     -12.250  11.636  65.760  1.00  0.00     0.000 HD 
BRANCH   4   6
HETATM    6  C   UNL     1     -11.739  13.068  67.160  1.00  0.00    -0.382 C  
BRANCH   6   7
HETATM    7  C   UNL     1     -10.497  12.249  67.567  1.00  0.00    -0.213 C  
HETATM    8  O   UNL     1      -9.770  12.921  68.602  1.00  0.00    -0.372 OA 
HETATM    9  H   UNL     1      -9.005  12.416  68.852  1.00  0.00     0.000 HD 
BRANCH   7  10
HETATM   10  C   UNL     1     -10.929  10.846  68.041  1.00  0.00    -0.265 C  
BRANCH  10  11
HETATM   11  O   UNL     1     -10.458  10.526  69.358  1.00  0.00    -0.218 OA 
BRANCH  11  12
HETATM   12  C   UNL     1     -11.396  10.189  70.307  1.00  0.00    -0.315 A  
HETATM   13  C   UNL     1     -12.295  11.116  70.855  1.00  0.00    -0.500 A  
HETATM   14  C   UNL     1     -13.207  10.743  71.841  1.00  0.00    -0.524 A  
HETATM   15  C   UNL     1     -13.219   9.443  72.314  1.00  0.00    -0.528 A  
HETATM   16  C   UNL     1     -12.344   8.503  71.774  1.00  0.00    -0.388 A  
HETATM   17  C   UNL     1     -11.457   8.845  70.738  1.00  0.00    -0.275 A  
BRANCH  17  18
HETATM   18  O   UNL     1     -10.640   7.914  70.122  1.00  0.00    -0.228 OA 
BRANCH  18  19
HETATM   19  C   UNL     1     -11.241   6.622  69.955  1.00  0.00    -0.369 C  
BRANCH  19  20
HETATM   20  C   UNL     1     -10.752   5.961  68.702  1.00  0.00    -0.339 C  
HETATM   21  C   UNL     1     -10.901   6.495  67.481  1.00  0.00    -0.433 C  
ENDBRANCH  19  20
ENDBRANCH  18  19
ENDBRANCH  17  18
ENDBRANCH  11  12
ENDBRANCH  10  11
ENDBRANCH   7  10
ENDBRANCH   6   7
ENDBRANCH   4   6
ENDBRANCH   2   4
TORSDOF 9
ENDMDL
MODEL       59
REMARK 921   NORMALIZED FREE ENERGY PREDICTED BY IDOCK:   -4.74 KCAL/MOL
REMARK 922        TOTAL FREE ENERGY PREDICTED BY IDOCK:   -8.00 KCAL/MOL
REMARK 923 INTER-LIGAND FREE ENERGY PREDICTED BY IDOCK:   -6.96 KCAL/MOL
REMARK 924 INTRA-LIGAND FREE ENERGY PREDICTED BY IDOCK:   -1.04 KCAL/MOL
REMARK 927      BINDING AFFINITY PREDICTED BY RF-SCORE:    0.00 PKD
ROOT
HETATM    1  C   UNL     1     -10.731   8.926  71.813  1.00  0.00    -0.432 C  
HETATM    2  C   UNL     1     -10.758   7.995  70.599  1.00  0.00    -0.228 C  
HETATM    3  C   UNL     1     -11.815   6.906  70.817  1.00  0.00    -0.427 C  
ENDROOT
BRANCH   2   4
HETATM    4  N   UNL     1     -11.026   8.795  69.398  1.00  0.00    -0.422 NA 
HETATM    5  H   UNL     1     -12.022   8.999  69.311  1.00  0.00     0.000 HD 
BRANCH   4   6
HETATM    6  C   UNL     1     -10.229  10.027  69.344  1.00  0.00    -0.222 C  
BRANCH   6   7
HETATM    7  C   UNL     1     -10.668  10.953  68.191  1.00  0.00    -0.214 C  
HETATM    8  O   UNL     1     -12.076  10.832  67.960  1.00  0.00    -0.778 OA 
HETATM    9  H   UNL     1     -12.347  11.402  67.249  1.00  0.00     0.000 HD 
BRANCH   7  10
HETATM   10  C   UNL     1     -10.304  12.414  68.525  1.00  0.00    -0.221 C  
BRANCH  10  11
HETATM   11  O   UNL     1     -11.338  13.346  68.180  1.00  0.00    -0.255 OA 
BRANCH  11  12
HETATM   12  C   UNL     1     -11.103  14.201  67.126  1.00  0.00    -0.307 A  
HETATM   13  C   UNL     1     -10.266  15.322  67.224  1.00  0.00    -0.248 A  
HETATM   14  C   UNL     1     -10.082  16.183  66.144  1.00  0.00    -0.356 A  
HETATM   15  C   UNL     1     -10.751  15.952  64.955  1.00  0.00    -0.426 A  
HETATM   16  C   UNL     1     -11.576  14.836  64.832  1.00  0.00    -0.401 A  
HETATM   17  C   UNL     1     -11.729  13.924  65.890  1.00  0.00    -0.359 A  
BRANCH  17  18
HETATM   18  O   UNL     1     -12.470  12.762  65.768  1.00  0.00    -0.579 OA 
BRANCH  18  19
HETATM   19  C   UNL     1     -12.262  12.057  64.537  1.00  0.00    -0.241 C  
BRANCH  19  20
HETATM   20  C   UNL     1     -10.880  11.479  64.477  1.00  0.00    -0.390 C  
HETATM   21  C   UNL     1     -10.168  11.388  63.344  1.00  0.00    -0.457 C  
ENDBRANCH  19  20
ENDBRANCH  18  19
ENDBRANCH  17  18
ENDBRANCH  11  12
ENDBRANCH  10  11
ENDBRANCH   7  10
ENDBRANCH   6   7
ENDBRANCH   4   6
ENDBRANCH   2   4
TORSDOF 9
ENDMDL
MODEL       60
REMARK 921   NORMALIZED FREE ENERGY PREDICTED BY IDOCK:   -4.73 KCAL/MOL
REMARK 922        TOTAL FREE ENERGY PREDICTED BY IDOCK:   -7.99 KCAL/MOL
REMARK 923 INTER-LIGAND FREE ENERGY PREDICTED BY IDOCK:   -6.83 KCAL/MOL
REMARK 924 INTRA-LIGAND FREE ENERGY PREDICTED BY IDOCK:   -1.16 KCAL/MOL
REMARK 927      BINDING AFFINITY PREDICTED BY RF-SCORE:    0.00 PKD
ROOT
HETATM    1  C   UNL     1     -10.346  17.268  66.083  1.00  0.00    -0.320 C  
HETATM    2  C   UNL     1      -9.039  16.479  66.182  1.00  0.00    -0.306 C  
HETATM    3  C   UNL     1      -8.480  16.598  67.605  1.00  0.00    -0.200 C  
ENDROOT
BRANCH   2   4
HETATM    4  N   UNL     1      -9.300  15.086  65.804  1.00  0.00    -0.483 NA 
HETATM    5  H   UNL     1      -9.379  14.492  66.630  1.00  0.00     0.000 HD 
BRANCH   4   6
HETATM    6  C   UNL     1     -10.477  14.941  64.937  1.00  0.00    -0.359 C  
BRANCH   6   7
HETATM    7  C   UNL     1     -10.925  13.470  64.808  1.00  0.00    -0.373 C  
HETATM    8  O   UNL     1      -9.788  12.604  64.738  1.00  0.00    -0.477 OA 
HETATM    9  H   UNL     1     -10.064  11.698  64.659  1.00  0.00     0.000 HD 
BRANCH   7  10
HETATM   10  C   UNL     1     -11.817  13.088  66.007  1.00  0.00    -0.417 C  
BRANCH  10  11
HETATM   11  O   UNL     1     -11.078  12.895  67.221  1.00  0.00    -0.258 OA 
BRANCH  11  12
HETATM   12  C   UNL     1     -11.543  13.513  68.359  1.00  0.00    -0.343 A  
HETATM   13  C   UNL     1     -11.655  14.907  68.479  1.00  0.00    -0.347 A  
HETATM   14  C   UNL     1     -12.098  15.496  69.662  1.00  0.00    -0.352 A  
HETATM   15  C   UNL     1     -12.412  14.705  70.753  1.00  0.00    -0.407 A  
HETATM   16  C   UNL     1     -12.322  13.319  70.650  1.00  0.00    -0.416 A  
HETATM   17  C   UNL     1     -11.933  12.702  69.447  1.00  0.00    -0.260 A  
BRANCH  17  18
HETATM   18  O   UNL     1     -11.919  11.328  69.288  1.00  0.00    -0.318 OA 
BRANCH  18  19
HETATM   19  C   UNL     1     -11.652  10.598  70.493  1.00  0.00    -0.350 C  
BRANCH  19  20
HETATM   20  C   UNL     1     -12.831   9.759  70.885  1.00  0.00    -0.314 C  
HETATM   21  C   UNL     1     -13.391   9.799  72.103  1.00  0.00    -0.527 C  
ENDBRANCH  19  20
ENDBRANCH  18  19
ENDBRANCH  17  18
ENDBRANCH  11  12
ENDBRANCH  10  11
ENDBRANCH   7  10
ENDBRANCH   6   7
ENDBRANCH   4   6
ENDBRANCH   2   4
TORSDOF 9
ENDMDL
MODEL       61
REMARK 921   NORMALIZED FREE ENERGY PREDICTED BY IDOCK:   -4.71 KCAL/MOL
REMARK 922        TOTAL FREE ENERGY PREDICTED BY IDOCK:   -7.96 KCAL/MOL
REMARK 923 INTER-LIGAND FREE ENERGY PREDICTED BY IDOCK:   -7.16 KCAL/MOL
REMARK 924 INTRA-LIGAND FREE ENERGY PREDICTED BY IDOCK:   -0.80 KCAL/MOL
REMARK 927      BINDING AFFINITY PREDICTED BY RF-SCORE:    0.00 PKD
ROOT
HETATM    1  C   UNL     1      -8.704  10.751  62.371  1.00  0.00    -0.331 C  
HETATM    2  C   UNL     1      -9.792  10.933  63.431  1.00  0.00    -0.362 C  
HETATM    3  C   UNL     1      -9.337  10.281  64.742  1.00  0.00    -0.313 C  
ENDROOT
BRANCH   2   4
HETATM    4  N   UNL     1     -10.059  12.367  63.590  1.00  0.00    -0.530 NA 
HETATM    5  H   UNL     1      -9.538  12.914  62.905  1.00  0.00     0.000 HD 
BRANCH   4   6
HETATM    6  C   UNL     1     -11.491  12.689  63.542  1.00  0.00    -0.491 C  
BRANCH   6   7
HETATM    7  C   UNL     1     -11.828  13.958  64.353  1.00  0.00    -0.429 C  
HETATM    8  O   UNL     1     -12.654  14.839  63.585  1.00  0.00    -1.014 OA 
HETATM    9  H   UNL     1     -12.862  15.620  64.084  1.00  0.00     0.000 HD 
BRANCH   7  10
HETATM   10  C   UNL     1     -12.540  13.566  65.665  1.00  0.00    -0.459 C  
BRANCH  10  11
HETATM   11  O   UNL     1     -12.167  14.391  66.777  1.00  0.00    -0.420 OA 
BRANCH  11  12
HETATM   12  C   UNL     1     -10.890  14.257  67.273  1.00  0.00    -0.284 A  
HETATM   13  C   UNL     1     -10.290  13.011  67.513  1.00  0.00    -0.224 A  
HETATM   14  C   UNL     1      -9.008  12.918  68.049  1.00  0.00    -0.196 A  
HETATM   15  C   UNL     1      -8.312  14.068  68.379  1.00  0.00    -0.162 A  
HETATM   16  C   UNL     1      -8.883  15.315  68.136  1.00  0.00    -0.171 A  
HETATM   17  C   UNL     1     -10.151  15.431  67.542  1.00  0.00    -0.233 A  
BRANCH  17  18
HETATM   18  O   UNL     1     -10.706  16.654  67.208  1.00  0.00    -0.306 OA 
BRANCH  18  19
HETATM   19  C   UNL     1     -10.045  17.324  66.126  1.00  0.00    -0.302 C  
BRANCH  19  20
HETATM   20  C   UNL     1      -9.689  18.730  66.503  1.00  0.00    -0.380 C  
HETATM   21  C   UNL     1     -10.189  19.809  65.883  1.00  0.00    -0.556 C  
ENDBRANCH  19  20
ENDBRANCH  18  19
ENDBRANCH  17  18
ENDBRANCH  11  12
ENDBRANCH  10  11
ENDBRANCH   7  10
ENDBRANCH   6   7
ENDBRANCH   4   6
ENDBRANCH   2   4
TORSDOF 9
ENDMDL
MODEL       62
REMARK 921   NORMALIZED FREE ENERGY PREDICTED BY IDOCK:   -4.71 KCAL/MOL
REMARK 922        TOTAL FREE ENERGY PREDICTED BY IDOCK:   -7.96 KCAL/MOL
REMARK 923 INTER-LIGAND FREE ENERGY PREDICTED BY IDOCK:   -6.59 KCAL/MOL
REMARK 924 INTRA-LIGAND FREE ENERGY PREDICTED BY IDOCK:   -1.36 KCAL/MOL
REMARK 927      BINDING AFFINITY PREDICTED BY RF-SCORE:    0.00 PKD
ROOT
HETATM    1  C   UNL     1      -7.222  15.894  67.524  1.00  0.00    -0.204 C  
HETATM    2  C   UNL     1      -7.370  16.814  68.737  1.00  0.00    -0.227 C  
HETATM    3  C   UNL     1      -6.117  17.689  68.868  1.00  0.00    -0.197 C  
ENDROOT
BRANCH   2   4
HETATM    4  N   UNL     1      -8.589  17.615  68.575  1.00  0.00    -0.286 NA 
HETATM    5  H   UNL     1      -8.837  18.084  69.446  1.00  0.00     0.000 HD 
BRANCH   4   6
HETATM    6  C   UNL     1      -8.496  18.576  67.467  1.00  0.00    -0.261 C  
BRANCH   6   7
HETATM    7  C   UNL     1      -9.876  19.144  67.075  1.00  0.00    -0.336 C  
HETATM    8  O   UNL     1      -9.766  20.526  66.717  1.00  0.00    -0.578 OA 
HETATM    9  H   UNL     1     -10.617  20.875  66.475  1.00  0.00     0.000 HD 
BRANCH   7  10
HETATM   10  C   UNL     1     -10.461  18.332  65.901  1.00  0.00    -0.307 C  
BRANCH  10  11
HETATM   11  O   UNL     1      -9.901  17.016  65.790  1.00  0.00    -0.525 OA 
BRANCH  11  12
HETATM   12  C   UNL     1     -10.773  15.959  65.660  1.00  0.00    -0.339 A  
HETATM   13  C   UNL     1     -11.267  15.524  64.421  1.00  0.00    -0.232 A  
HETATM   14  C   UNL     1     -12.176  14.472  64.334  1.00  0.00    -0.480 A  
HETATM   15  C   UNL     1     -12.626  13.851  65.487  1.00  0.00    -0.560 A  
HETATM   16  C   UNL     1     -12.138  14.258  66.726  1.00  0.00    -0.446 A  
HETATM   17  C   UNL     1     -11.176  15.278  66.831  1.00  0.00    -0.256 A  
BRANCH  17  18
HETATM   18  O   UNL     1     -10.608  15.642  68.038  1.00  0.00    -0.256 OA 
BRANCH  18  19
HETATM   19  C   UNL     1     -10.968  14.796  69.138  1.00  0.00    -0.267 C  
BRANCH  19  20
HETATM   20  C   UNL     1     -10.981  15.563  70.425  1.00  0.00    -0.360 C  
HETATM   21  C   UNL     1     -12.088  15.749  71.161  1.00  0.00    -0.475 C  
ENDBRANCH  19  20
ENDBRANCH  18  19
ENDBRANCH  17  18
ENDBRANCH  11  12
ENDBRANCH  10  11
ENDBRANCH   7  10
ENDBRANCH   6   7
ENDBRANCH   4   6
ENDBRANCH   2   4
TORSDOF 9
ENDMDL
MODEL       63
REMARK 921   NORMALIZED FREE ENERGY PREDICTED BY IDOCK:   -4.71 KCAL/MOL
REMARK 922        TOTAL FREE ENERGY PREDICTED BY IDOCK:   -7.95 KCAL/MOL
REMARK 923 INTER-LIGAND FREE ENERGY PREDICTED BY IDOCK:   -7.11 KCAL/MOL
REMARK 924 INTRA-LIGAND FREE ENERGY PREDICTED BY IDOCK:   -0.84 KCAL/MOL
REMARK 927      BINDING AFFINITY PREDICTED BY RF-SCORE:    0.00 PKD
ROOT
HETATM    1  C   UNL     1     -13.518   9.514  71.992  1.00  0.00    -0.522 C  
HETATM    2  C   UNL     1     -12.342  10.426  71.638  1.00  0.00    -0.304 C  
HETATM    3  C   UNL     1     -11.450   9.726  70.606  1.00  0.00    -0.397 C  
ENDROOT
BRANCH   2   4
HETATM    4  N   UNL     1     -12.868  11.702  71.140  1.00  0.00    -0.343 NA 
HETATM    5  H   UNL     1     -13.519  11.553  70.368  1.00  0.00     0.000 HD 
BRANCH   4   6
HETATM    6  C   UNL     1     -13.484  12.516  72.197  1.00  0.00    -0.422 C  
BRANCH   6   7
HETATM    7  C   UNL     1     -13.545  14.010  71.816  1.00  0.00    -0.394 C  
HETATM    8  O   UNL     1     -13.663  14.822  72.990  1.00  0.00    -0.524 OA 
HETATM    9  H   UNL     1     -13.701  15.742  72.755  1.00  0.00     0.000 HD 
BRANCH   7  10
HETATM   10  C   UNL     1     -12.283  14.400  71.020  1.00  0.00    -0.351 C  
BRANCH  10  11
HETATM   11  O   UNL     1     -12.405  14.154  69.613  1.00  0.00    -0.326 OA 
BRANCH  11  12
HETATM   12  C   UNL     1     -11.684  14.958  68.758  1.00  0.00    -0.325 A  
HETATM   13  C   UNL     1     -10.948  16.069  69.194  1.00  0.00    -0.297 A  
HETATM   14  C   UNL     1     -10.260  16.879  68.292  1.00  0.00    -0.318 A  
HETATM   15  C   UNL     1     -10.317  16.606  66.937  1.00  0.00    -0.299 A  
HETATM   16  C   UNL     1     -11.031  15.499  66.484  1.00  0.00    -0.243 A  
HETATM   17  C   UNL     1     -11.683  14.637  67.382  1.00  0.00    -0.390 A  
BRANCH  17  18
HETATM   18  O   UNL     1     -12.324  13.482  66.971  1.00  0.00    -0.335 OA 
BRANCH  18  19
HETATM   19  C   UNL     1     -11.471  12.537  66.311  1.00  0.00    -0.370 C  
BRANCH  19  20
HETATM   20  C   UNL     1     -11.951  12.260  64.919  1.00  0.00    -0.420 C  
HETATM   21  C   UNL     1     -11.851  13.143  63.915  1.00  0.00    -0.533 C  
ENDBRANCH  19  20
ENDBRANCH  18  19
ENDBRANCH  17  18
ENDBRANCH  11  12
ENDBRANCH  10  11
ENDBRANCH   7  10
ENDBRANCH   6   7
ENDBRANCH   4   6
ENDBRANCH   2   4
TORSDOF 9
ENDMDL
MODEL       64
REMARK 921   NORMALIZED FREE ENERGY PREDICTED BY IDOCK:   -4.69 KCAL/MOL
REMARK 922        TOTAL FREE ENERGY PREDICTED BY IDOCK:   -7.93 KCAL/MOL
REMARK 923 INTER-LIGAND FREE ENERGY PREDICTED BY IDOCK:   -7.33 KCAL/MOL
REMARK 924 INTRA-LIGAND FREE ENERGY PREDICTED BY IDOCK:   -0.60 KCAL/MOL
REMARK 927      BINDING AFFINITY PREDICTED BY RF-SCORE:    0.00 PKD
ROOT
HETATM    1  C   UNL     1     -10.682  19.117  67.290  1.00  0.00    -0.585 C  
HETATM    2  C   UNL     1      -9.725  17.933  67.138  1.00  0.00    -0.289 C  
HETATM    3  C   UNL     1      -8.692  17.966  68.271  1.00  0.00    -0.277 C  
ENDROOT
BRANCH   2   4
HETATM    4  N   UNL     1     -10.507  16.692  67.138  1.00  0.00    -0.314 NA 
HETATM    5  H   UNL     1     -11.384  16.813  66.633  1.00  0.00     0.000 HD 
BRANCH   4   6
HETATM    6  C   UNL     1      -9.753  15.543  66.617  1.00  0.00    -0.247 C  
BRANCH   6   7
HETATM    7  C   UNL     1     -10.366  14.198  67.059  1.00  0.00    -0.267 C  
HETATM    8  O   UNL     1      -9.360  13.352  67.627  1.00  0.00    -0.201 OA 
HETATM    9  H   UNL     1      -9.737  12.523  67.899  1.00  0.00     0.000 HD 
BRANCH   7  10
HETATM   10  C   UNL     1     -11.494  14.448  68.082  1.00  0.00    -0.310 C  
BRANCH  10  11
HETATM   11  O   UNL     1     -11.351  13.673  69.280  1.00  0.00    -0.260 OA 
BRANCH  11  12
HETATM   12  C   UNL     1     -12.254  13.894  70.295  1.00  0.00    -0.358 A  
HETATM   13  C   UNL     1     -12.781  15.161  70.587  1.00  0.00    -0.451 A  
HETATM   14  C   UNL     1     -13.666  15.349  71.646  1.00  0.00    -0.606 A  
HETATM   15  C   UNL     1     -14.021  14.278  72.448  1.00  0.00    -0.597 A  
HETATM   16  C   UNL     1     -13.520  13.009  72.168  1.00  0.00    -0.638 A  
HETATM   17  C   UNL     1     -12.672  12.788  71.069  1.00  0.00    -0.243 A  
BRANCH  17  18
HETATM   18  O   UNL     1     -12.231  11.526  70.713  1.00  0.00    -0.374 OA 
BRANCH  18  19
HETATM   19  C   UNL     1     -12.809  10.462  71.481  1.00  0.00    -0.464 C  
BRANCH  19  20
HETATM   20  C   UNL     1     -11.844   9.326  71.636  1.00  0.00    -0.453 C  
HETATM   21  C   UNL     1     -10.552   9.403  71.281  1.00  0.00    -0.400 C  
ENDBRANCH  19  20
ENDBRANCH  18  19
ENDBRANCH  17  18
ENDBRANCH  11  12
ENDBRANCH  10  11
ENDBRANCH   7  10
ENDBRANCH   6   7
ENDBRANCH   4   6
ENDBRANCH   2   4
TORSDOF 9
ENDMDL
MODEL       65
REMARK 921   NORMALIZED FREE ENERGY PREDICTED BY IDOCK:   -4.69 KCAL/MOL
REMARK 922        TOTAL FREE ENERGY PREDICTED BY IDOCK:   -7.92 KCAL/MOL
REMARK 923 INTER-LIGAND FREE ENERGY PREDICTED BY IDOCK:   -7.37 KCAL/MOL
REMARK 924 INTRA-LIGAND FREE ENERGY PREDICTED BY IDOCK:   -0.56 KCAL/MOL
REMARK 927      BINDING AFFINITY PREDICTED BY RF-SCORE:    0.00 PKD
ROOT
HETATM    1  C   UNL     1     -10.159  10.949  64.161  1.00  0.00    -0.416 C  
HETATM    2  C   UNL     1     -10.694  12.217  63.494  1.00  0.00    -0.451 C  
HETATM    3  C   UNL     1     -12.222  12.250  63.619  1.00  0.00    -0.665 C  
ENDROOT
BRANCH   2   4
HETATM    4  N   UNL     1     -10.063  13.383  64.123  1.00  0.00    -0.779 NA 
HETATM    5  H   UNL     1      -9.474  13.883  63.457  1.00  0.00     0.000 HD 
BRANCH   4   6
HETATM    6  C   UNL     1     -11.034  14.289  64.749  1.00  0.00    -0.398 C  
BRANCH   6   7
HETATM    7  C   UNL     1     -10.473  15.717  64.916  1.00  0.00    -0.229 C  
HETATM    8  O   UNL     1     -11.268  16.657  64.185  1.00  0.00    -1.410 OA 
HETATM    9  H   UNL     1     -10.922  17.536  64.288  1.00  0.00     0.000 HD 
BRANCH   7  10
HETATM   10  C   UNL     1     -10.439  16.094  66.412  1.00  0.00    -0.301 C  
BRANCH  10  11
HETATM   11  O   UNL     1      -9.714  17.303  66.672  1.00  0.00    -0.264 OA 
BRANCH  11  12
HETATM   12  C   UNL     1      -8.554  17.208  67.408  1.00  0.00    -0.203 A  
HETATM   13  C   UNL     1      -8.428  16.377  68.531  1.00  0.00    -0.211 A  
HETATM   14  C   UNL     1      -7.248  16.335  69.271  1.00  0.00    -0.221 A  
HETATM   15  C   UNL     1      -6.182  17.143  68.915  1.00  0.00    -0.179 A  
HETATM   16  C   UNL     1      -6.281  17.965  67.795  1.00  0.00    -0.169 A  
HETATM   17  C   UNL     1      -7.442  17.978  67.002  1.00  0.00    -0.207 A  
BRANCH  17  18
HETATM   18  O   UNL     1      -7.536  18.716  65.836  1.00  0.00    -0.430 OA 
BRANCH  18  19
HETATM   19  C   UNL     1      -7.029  20.053  65.943  1.00  0.00    -0.286 C  
BRANCH  19  20
HETATM   20  C   UNL     1      -5.855  20.256  65.034  1.00  0.00    -0.254 C  
HETATM   21  C   UNL     1      -5.811  19.800  63.773  1.00  0.00    -0.295 C  
ENDBRANCH  19  20
ENDBRANCH  18  19
ENDBRANCH  17  18
ENDBRANCH  11  12
ENDBRANCH  10  11
ENDBRANCH   7  10
ENDBRANCH   6   7
ENDBRANCH   4   6
ENDBRANCH   2   4
TORSDOF 9
ENDMDL
MODEL       66
REMARK 921   NORMALIZED FREE ENERGY PREDICTED BY IDOCK:   -4.68 KCAL/MOL
REMARK 922        TOTAL FREE ENERGY PREDICTED BY IDOCK:   -7.91 KCAL/MOL
REMARK 923 INTER-LIGAND FREE ENERGY PREDICTED BY IDOCK:   -7.09 KCAL/MOL
REMARK 924 INTRA-LIGAND FREE ENERGY PREDICTED BY IDOCK:   -0.82 KCAL/MOL
REMARK 927      BINDING AFFINITY PREDICTED BY RF-SCORE:    0.00 PKD
ROOT
HETATM    1  C   UNL     1     -10.773   7.230  67.950  1.00  0.00    -0.239 C  
HETATM    2  C   UNL     1     -11.167   6.148  68.957  1.00  0.00    -0.304 C  
HETATM    3  C   UNL     1      -9.903   5.461  69.486  1.00  0.00    -0.264 C  
ENDROOT
BRANCH   2   4
HETATM    4  N   UNL     1     -11.951   6.768  70.032  1.00  0.00    -0.656 NA 
HETATM    5  H   UNL     1     -12.875   6.342  70.102  1.00  0.00     0.000 HD 
BRANCH   4   6
HETATM    6  C   UNL     1     -11.260   6.745  71.328  1.00  0.00    -0.276 C  
BRANCH   6   7
HETATM    7  C   UNL     1     -11.829   7.792  72.308  1.00  0.00    -0.329 C  
HETATM    8  O   UNL     1     -11.327   7.567  73.629  1.00  0.00    -0.561 OA 
HETATM    9  H   UNL     1     -11.677   8.212  74.233  1.00  0.00     0.000 HD 
BRANCH   7  10
HETATM   10  C   UNL     1     -11.459   9.211  71.829  1.00  0.00    -0.381 C  
BRANCH  10  11
HETATM   11  O   UNL     1     -12.153   9.604  70.637  1.00  0.00    -0.263 OA 
BRANCH  11  12
HETATM   12  C   UNL     1     -11.755  10.768  70.019  1.00  0.00    -0.336 A  
HETATM   13  C   UNL     1     -10.883  10.790  68.921  1.00  0.00    -0.269 A  
HETATM   14  C   UNL     1     -10.476  11.993  68.346  1.00  0.00    -0.231 A  
HETATM   15  C   UNL     1     -10.915  13.194  68.874  1.00  0.00    -0.270 A  
HETATM   16  C   UNL     1     -11.793  13.194  69.955  1.00  0.00    -0.360 A  
HETATM   17  C   UNL     1     -12.261  11.992  70.513  1.00  0.00    -0.325 A  
BRANCH  17  18
HETATM   18  O   UNL     1     -13.200  11.959  71.528  1.00  0.00    -0.358 OA 
BRANCH  18  19
HETATM   19  C   UNL     1     -13.174  13.104  72.391  1.00  0.00    -0.414 C  
BRANCH  19  20
HETATM   20  C   UNL     1     -14.330  14.016  72.109  1.00  0.00    -0.577 C  
HETATM   21  C   UNL     1     -14.191  15.329  71.869  1.00  0.00    -0.681 C  
ENDBRANCH  19  20
ENDBRANCH  18  19
ENDBRANCH  17  18
ENDBRANCH  11  12
ENDBRANCH  10  11
ENDBRANCH   7  10
ENDBRANCH   6   7
ENDBRANCH   4   6
ENDBRANCH   2   4
TORSDOF 9
ENDMDL
MODEL       67
REMARK 921   NORMALIZED FREE ENERGY PREDICTED BY IDOCK:   -4.68 KCAL/MOL
REMARK 922        TOTAL FREE ENERGY PREDICTED BY IDOCK:   -7.91 KCAL/MOL
REMARK 923 INTER-LIGAND FREE ENERGY PREDICTED BY IDOCK:   -7.23 KCAL/MOL
REMARK 924 INTRA-LIGAND FREE ENERGY PREDICTED BY IDOCK:   -0.68 KCAL/MOL
REMARK 927      BINDING AFFINITY PREDICTED BY RF-SCORE:    0.00 PKD
ROOT
HETATM    1  C   UNL     1     -10.112  19.614  68.200  1.00  0.00    -0.556 C  
HETATM    2  C   UNL     1     -10.040  18.086  68.216  1.00  0.00    -0.385 C  
HETATM    3  C   UNL     1      -8.574  17.646  68.125  1.00  0.00    -0.261 C  
ENDROOT
BRANCH   2   4
HETATM    4  N   UNL     1     -10.689  17.597  69.437  1.00  0.00    -0.274 NA 
HETATM    5  H   UNL     1     -11.485  18.184  69.688  1.00  0.00     0.000 HD 
BRANCH   4   6
HETATM    6  C   UNL     1     -11.085  16.185  69.346  1.00  0.00    -0.335 C  
BRANCH   6   7
HETATM    7  C   UNL     1     -11.383  15.576  70.732  1.00  0.00    -0.355 C  
HETATM    8  O   UNL     1     -12.010  16.543  71.581  1.00  0.00    -0.651 OA 
HETATM    9  H   UNL     1     -12.194  16.167  72.434  1.00  0.00     0.000 HD 
BRANCH   7  10
HETATM   10  C   UNL     1     -12.287  14.335  70.574  1.00  0.00    -0.360 C  
BRANCH  10  11
HETATM   11  O   UNL     1     -12.377  13.871  69.221  1.00  0.00    -0.323 OA 
BRANCH  11  12
HETATM   12  C   UNL     1     -11.902  12.609  68.945  1.00  0.00    -0.302 A  
HETATM   13  C   UNL     1     -11.582  11.678  69.944  1.00  0.00    -0.366 A  
HETATM   14  C   UNL     1     -11.070  10.422  69.624  1.00  0.00    -0.328 A  
HETATM   15  C   UNL     1     -10.846  10.084  68.301  1.00  0.00    -0.286 A  
HETATM   16  C   UNL     1     -11.170  10.989  67.292  1.00  0.00    -0.330 A  
HETATM   17  C   UNL     1     -11.741  12.238  67.591  1.00  0.00    -0.334 A  
BRANCH  17  18
HETATM   18  O   UNL     1     -12.155  13.119  66.608  1.00  0.00    -0.391 OA 
BRANCH  18  19
HETATM   19  C   UNL     1     -11.171  13.380  65.599  1.00  0.00    -0.292 C  
BRANCH  19  20
HETATM   20  C   UNL     1     -11.780  13.333  64.230  1.00  0.00    -0.454 C  
HETATM   21  C   UNL     1     -12.067  12.190  63.589  1.00  0.00    -0.648 C  
ENDBRANCH  19  20
ENDBRANCH  18  19
ENDBRANCH  17  18
ENDBRANCH  11  12
ENDBRANCH  10  11
ENDBRANCH   7  10
ENDBRANCH   6   7
ENDBRANCH   4   6
ENDBRANCH   2   4
TORSDOF 9
ENDMDL
MODEL       68
REMARK 921   NORMALIZED FREE ENERGY PREDICTED BY IDOCK:   -4.65 KCAL/MOL
REMARK 922        TOTAL FREE ENERGY PREDICTED BY IDOCK:   -7.87 KCAL/MOL
REMARK 923 INTER-LIGAND FREE ENERGY PREDICTED BY IDOCK:   -7.03 KCAL/MOL
REMARK 924 INTRA-LIGAND FREE ENERGY PREDICTED BY IDOCK:   -0.84 KCAL/MOL
REMARK 927      BINDING AFFINITY PREDICTED BY RF-SCORE:    0.00 PKD
ROOT
HETATM    1  C   UNL     1     -11.997  14.312  64.823  1.00  0.00    -0.449 C  
HETATM    2  C   UNL     1     -12.535  12.890  64.991  1.00  0.00    -0.492 C  
HETATM    3  C   UNL     1     -12.221  12.076  63.730  1.00  0.00    -0.600 C  
ENDROOT
BRANCH   2   4
HETATM    4  N   UNL     1     -11.936  12.299  66.194  1.00  0.00    -0.618 NA 
HETATM    5  H   UNL     1     -11.012  11.918  65.993  1.00  0.00     0.000 HD 
BRANCH   4   6
HETATM    6  C   UNL     1     -11.885  13.237  67.324  1.00  0.00    -0.372 C  
BRANCH   6   7
HETATM    7  C   UNL     1     -10.775  12.871  68.331  1.00  0.00    -0.255 C  
HETATM    8  O   UNL     1     -11.258  12.987  69.673  1.00  0.00    -0.454 OA 
HETATM    9  H   UNL     1     -10.574  12.762  70.294  1.00  0.00     0.000 HD 
BRANCH   7  10
HETATM   10  C   UNL     1     -10.278  11.435  68.063  1.00  0.00    -0.185 C  
BRANCH  10  11
HETATM   11  O   UNL     1     -10.573  10.527  69.133  1.00  0.00    -0.201 OA 
BRANCH  11  12
HETATM   12  C   UNL     1     -10.652   9.187  68.831  1.00  0.00    -0.191 A  
HETATM   13  C   UNL     1     -10.565   8.693  67.521  1.00  0.00    -0.292 A  
HETATM   14  C   UNL     1     -10.686   7.330  67.254  1.00  0.00    -0.391 A  
HETATM   15  C   UNL     1     -10.919   6.441  68.288  1.00  0.00    -0.396 A  
HETATM   16  C   UNL     1     -10.994   6.909  69.598  1.00  0.00    -0.298 A  
HETATM   17  C   UNL     1     -10.817   8.272  69.895  1.00  0.00    -0.213 A  
BRANCH  17  18
HETATM   18  O   UNL     1     -10.798   8.753  71.192  1.00  0.00    -0.235 OA 
BRANCH  18  19
HETATM   19  C   UNL     1     -11.915   8.339  71.990  1.00  0.00    -0.348 C  
BRANCH  19  20
HETATM   20  C   UNL     1     -13.104   9.217  71.746  1.00  0.00    -0.472 C  
HETATM   21  C   UNL     1     -13.037  10.557  71.711  1.00  0.00    -0.570 C  
ENDBRANCH  19  20
ENDBRANCH  18  19
ENDBRANCH  17  18
ENDBRANCH  11  12
ENDBRANCH  10  11
ENDBRANCH   7  10
ENDBRANCH   6   7
ENDBRANCH   4   6
ENDBRANCH   2   4
TORSDOF 9
ENDMDL
MODEL       69
REMARK 921   NORMALIZED FREE ENERGY PREDICTED BY IDOCK:   -4.63 KCAL/MOL
REMARK 922        TOTAL FREE ENERGY PREDICTED BY IDOCK:   -7.84 KCAL/MOL
REMARK 923 INTER-LIGAND FREE ENERGY PREDICTED BY IDOCK:   -6.85 KCAL/MOL
REMARK 924 INTRA-LIGAND FREE ENERGY PREDICTED BY IDOCK:   -1.00 KCAL/MOL
REMARK 927      BINDING AFFINITY PREDICTED BY RF-SCORE:    0.00 PKD
ROOT
HETATM    1  C   UNL     1      -8.766  18.241  68.301  1.00  0.00    -0.302 C  
HETATM    2  C   UNL     1     -10.279  18.246  68.074  1.00  0.00    -0.385 C  
HETATM    3  C   UNL     1     -10.596  19.022  66.790  1.00  0.00    -0.508 C  
ENDROOT
BRANCH   2   4
HETATM    4  N   UNL     1     -10.750  16.858  68.012  1.00  0.00    -0.364 NA 
HETATM    5  H   UNL     1     -10.317  16.359  67.235  1.00  0.00     0.000 HD 
BRANCH   4   6
HETATM    6  C   UNL     1     -10.558  16.133  69.275  1.00  0.00    -0.280 C  
BRANCH   6   7
HETATM    7  C   UNL     1     -11.770  15.245  69.625  1.00  0.00    -0.334 C  
HETATM    8  O   UNL     1     -12.902  16.052  69.966  1.00  0.00    -0.611 OA 
HETATM    9  H   UNL     1     -13.648  15.504  70.181  1.00  0.00     0.000 HD 
BRANCH   7  10
HETATM   10  C   UNL     1     -12.107  14.327  68.432  1.00  0.00    -0.262 C  
BRANCH  10  11
HETATM   11  O   UNL     1     -10.984  14.083  67.573  1.00  0.00    -0.269 OA 
BRANCH  11  12
HETATM   12  C   UNL     1     -11.239  13.606  66.307  1.00  0.00    -0.305 A  
HETATM   13  C   UNL     1     -11.885  14.366  65.320  1.00  0.00    -0.373 A  
HETATM   14  C   UNL     1     -12.156  13.834  64.061  1.00  0.00    -0.448 A  
HETATM   15  C   UNL     1     -11.809  12.525  63.775  1.00  0.00    -0.577 A  
HETATM   16  C   UNL     1     -11.155  11.758  64.736  1.00  0.00    -0.356 A  
HETATM   17  C   UNL     1     -10.820  12.294  65.991  1.00  0.00    -0.275 A  
BRANCH  17  18
HETATM   18  O   UNL     1     -10.093  11.587  66.931  1.00  0.00    -0.206 OA 
BRANCH  18  19
HETATM   19  C   UNL     1     -10.843  10.574  67.616  1.00  0.00    -0.300 C  
BRANCH  19  20
HETATM   20  C   UNL     1     -10.903  10.852  69.087  1.00  0.00    -0.280 C  
HETATM   21  C   UNL     1     -12.052  10.949  69.773  1.00  0.00    -0.409 C  
ENDBRANCH  19  20
ENDBRANCH  18  19
ENDBRANCH  17  18
ENDBRANCH  11  12
ENDBRANCH  10  11
ENDBRANCH   7  10
ENDBRANCH   6   7
ENDBRANCH   4   6
ENDBRANCH   2   4
TORSDOF 9
ENDMDL
MODEL       70
REMARK 921   NORMALIZED FREE ENERGY PREDICTED BY IDOCK:   -4.63 KCAL/MOL
REMARK 922        TOTAL FREE ENERGY PREDICTED BY IDOCK:   -7.84 KCAL/MOL
REMARK 923 INTER-LIGAND FREE ENERGY PREDICTED BY IDOCK:   -7.09 KCAL/MOL
REMARK 924 INTRA-LIGAND FREE ENERGY PREDICTED BY IDOCK:   -0.75 KCAL/MOL
REMARK 927      BINDING AFFINITY PREDICTED BY RF-SCORE:    0.00 PKD
ROOT
HETATM    1  C   UNL     1     -10.645  18.242  67.664  1.00  0.00    -0.427 C  
HETATM    2  C   UNL     1     -10.198  16.987  68.416  1.00  0.00    -0.331 C  
HETATM    3  C   UNL     1      -8.666  16.931  68.445  1.00  0.00    -0.244 C  
ENDROOT
BRANCH   2   4
HETATM    4  N   UNL     1     -10.776  17.016  69.765  1.00  0.00    -0.315 NA 
HETATM    5  H   UNL     1     -11.329  17.860  69.907  1.00  0.00     0.000 HD 
BRANCH   4   6
HETATM    6  C   UNL     1     -11.562  15.813  70.074  1.00  0.00    -0.357 C  
BRANCH   6   7
HETATM    7  C   UNL     1     -11.516  15.460  71.575  1.00  0.00    -0.413 C  
HETATM    8  O   UNL     1     -11.869  16.598  72.369  1.00  0.00    -0.594 OA 
HETATM    9  H   UNL     1     -11.841  16.381  73.293  1.00  0.00     0.000 HD 
BRANCH   7  10
HETATM   10  C   UNL     1     -12.474  14.287  71.866  1.00  0.00    -0.282 C  
BRANCH  10  11
HETATM   11  O   UNL     1     -12.737  13.474  70.714  1.00  0.00    -0.304 OA 
BRANCH  11  12
HETATM   12  C   UNL     1     -12.507  12.121  70.819  1.00  0.00    -0.271 A  
HETATM   13  C   UNL     1     -13.055  11.331  71.840  1.00  0.00    -0.510 A  
HETATM   14  C   UNL     1     -12.769   9.970  71.933  1.00  0.00    -0.493 A  
HETATM   15  C   UNL     1     -11.911   9.381  71.021  1.00  0.00    -0.396 A  
HETATM   16  C   UNL     1     -11.367  10.145  69.990  1.00  0.00    -0.351 A  
HETATM   17  C   UNL     1     -11.689  11.506  69.845  1.00  0.00    -0.343 A  
BRANCH  17  18
HETATM   18  O   UNL     1     -11.236  12.267  68.783  1.00  0.00    -0.230 OA 
BRANCH  18  19
HETATM   19  C   UNL     1     -11.547  11.723  67.493  1.00  0.00    -0.291 C  
BRANCH  19  20
HETATM   20  C   UNL     1     -11.884  12.810  66.519  1.00  0.00    -0.471 C  
HETATM   21  C   UNL     1     -12.080  14.088  66.878  1.00  0.00    -0.465 C  
ENDBRANCH  19  20
ENDBRANCH  18  19
ENDBRANCH  17  18
ENDBRANCH  11  12
ENDBRANCH  10  11
ENDBRANCH   7  10
ENDBRANCH   6   7
ENDBRANCH   4   6
ENDBRANCH   2   4
TORSDOF 9
ENDMDL
MODEL       71
REMARK 921   NORMALIZED FREE ENERGY PREDICTED BY IDOCK:   -4.63 KCAL/MOL
REMARK 922        TOTAL FREE ENERGY PREDICTED BY IDOCK:   -7.84 KCAL/MOL
REMARK 923 INTER-LIGAND FREE ENERGY PREDICTED BY IDOCK:   -6.94 KCAL/MOL
REMARK 924 INTRA-LIGAND FREE ENERGY PREDICTED BY IDOCK:   -0.90 KCAL/MOL
REMARK 927      BINDING AFFINITY PREDICTED BY RF-SCORE:    0.00 PKD
ROOT
HETATM    1  C   UNL     1     -10.506  18.305  66.427  1.00  0.00    -0.387 C  
HETATM    2  C   UNL     1     -10.121  17.695  67.776  1.00  0.00    -0.338 C  
HETATM    3  C   UNL     1      -9.979  18.812  68.817  1.00  0.00    -0.442 C  
ENDROOT
BRANCH   2   4
HETATM    4  N   UNL     1     -11.140  16.710  68.156  1.00  0.00    -0.340 NA 
HETATM    5  H   UNL     1     -11.494  16.215  67.337  1.00  0.00     0.000 HD 
BRANCH   4   6
HETATM    6  C   UNL     1     -10.667  15.766  69.178  1.00  0.00    -0.246 C  
BRANCH   6   7
HETATM    7  C   UNL     1     -11.756  14.747  69.574  1.00  0.00    -0.321 C  
HETATM    8  O   UNL     1     -12.971  15.420  69.921  1.00  0.00    -0.635 OA 
HETATM    9  H   UNL     1     -13.641  14.792  70.165  1.00  0.00     0.000 HD 
BRANCH   7  10
HETATM   10  C   UNL     1     -12.002  13.765  68.410  1.00  0.00    -0.360 C  
BRANCH  10  11
HETATM   11  O   UNL     1     -10.925  13.731  67.463  1.00  0.00    -0.265 OA 
BRANCH  11  12
HETATM   12  C   UNL     1     -11.232  13.431  66.156  1.00  0.00    -0.295 A  
HETATM   13  C   UNL     1     -11.960  14.295  65.324  1.00  0.00    -0.389 A  
HETATM   14  C   UNL     1     -12.280  13.939  64.016  1.00  0.00    -0.413 A  
HETATM   15  C   UNL     1     -11.900  12.703  63.523  1.00  0.00    -0.619 A  
HETATM   16  C   UNL     1     -11.164  11.836  64.327  1.00  0.00    -0.414 A  
HETATM   17  C   UNL     1     -10.781  12.199  65.630  1.00  0.00    -0.275 A  
BRANCH  17  18
HETATM   18  O   UNL     1      -9.976  11.397  66.419  1.00  0.00    -0.203 OA 
BRANCH  18  19
HETATM   19  C   UNL     1      -9.946  10.020  66.020  1.00  0.00    -0.267 C  
BRANCH  19  20
HETATM   20  C   UNL     1     -10.265   9.119  67.175  1.00  0.00    -0.329 C  
HETATM   21  C   UNL     1     -10.308   7.782  67.077  1.00  0.00    -0.405 C  
ENDBRANCH  19  20
ENDBRANCH  18  19
ENDBRANCH  17  18
ENDBRANCH  11  12
ENDBRANCH  10  11
ENDBRANCH   7  10
ENDBRANCH   6   7
ENDBRANCH   4   6
ENDBRANCH   2   4
TORSDOF 9
ENDMDL
MODEL       72
REMARK 921   NORMALIZED FREE ENERGY PREDICTED BY IDOCK:   -4.61 KCAL/MOL
REMARK 922        TOTAL FREE ENERGY PREDICTED BY IDOCK:   -7.81 KCAL/MOL
REMARK 923 INTER-LIGAND FREE ENERGY PREDICTED BY IDOCK:   -7.33 KCAL/MOL
REMARK 924 INTRA-LIGAND FREE ENERGY PREDICTED BY IDOCK:   -0.48 KCAL/MOL
REMARK 927      BINDING AFFINITY PREDICTED BY RF-SCORE:    0.00 PKD
ROOT
HETATM    1  C   UNL     1      -9.688  20.834  67.377  1.00  0.00    -0.473 C  
HETATM    2  C   UNL     1      -9.368  19.343  67.504  1.00  0.00    -0.311 C  
HETATM    3  C   UNL     1      -8.484  19.117  68.736  1.00  0.00    -0.376 C  
ENDROOT
BRANCH   2   4
HETATM    4  N   UNL     1     -10.629  18.596  67.583  1.00  0.00    -0.419 NA 
HETATM    5  H   UNL     1     -11.239  18.826  66.799  1.00  0.00     0.000 HD 
BRANCH   4   6
HETATM    6  C   UNL     1     -10.426  17.145  67.684  1.00  0.00    -0.355 C  
BRANCH   6   7
HETATM    7  C   UNL     1     -10.588  16.440  66.321  1.00  0.00    -0.242 C  
HETATM    8  O   UNL     1      -9.463  16.714  65.479  1.00  0.00    -0.482 OA 
HETATM    9  H   UNL     1      -9.563  16.280  64.639  1.00  0.00     0.000 HD 
BRANCH   7  10
HETATM   10  C   UNL     1     -10.739  14.920  66.533  1.00  0.00    -0.309 C  
BRANCH  10  11
HETATM   11  O   UNL     1     -12.004  14.553  67.102  1.00  0.00    -0.406 OA 
BRANCH  11  12
HETATM   12  C   UNL     1     -12.000  13.643  68.136  1.00  0.00    -0.355 A  
HETATM   13  C   UNL     1     -12.096  14.019  69.484  1.00  0.00    -0.397 A  
HETATM   14  C   UNL     1     -12.053  13.069  70.503  1.00  0.00    -0.373 A  
HETATM   15  C   UNL     1     -11.889  11.730  70.193  1.00  0.00    -0.408 A  
HETATM   16  C   UNL     1     -11.806  11.335  68.860  1.00  0.00    -0.413 A  
HETATM   17  C   UNL     1     -11.906  12.270  67.816  1.00  0.00    -0.273 A  
BRANCH  17  18
HETATM   18  O   UNL     1     -11.916  11.898  66.483  1.00  0.00    -0.588 OA 
BRANCH  18  19
HETATM   19  C   UNL     1     -10.762  11.154  66.071  1.00  0.00    -0.211 C  
BRANCH  19  20
HETATM   20  C   UNL     1     -10.635  11.143  64.578  1.00  0.00    -0.397 C  
HETATM   21  C   UNL     1     -11.424  11.862  63.766  1.00  0.00    -0.542 C  
ENDBRANCH  19  20
ENDBRANCH  18  19
ENDBRANCH  17  18
ENDBRANCH  11  12
ENDBRANCH  10  11
ENDBRANCH   7  10
ENDBRANCH   6   7
ENDBRANCH   4   6
ENDBRANCH   2   4
TORSDOF 9
ENDMDL
MODEL       73
REMARK 921   NORMALIZED FREE ENERGY PREDICTED BY IDOCK:   -4.61 KCAL/MOL
REMARK 922        TOTAL FREE ENERGY PREDICTED BY IDOCK:   -7.80 KCAL/MOL
REMARK 923 INTER-LIGAND FREE ENERGY PREDICTED BY IDOCK:   -6.91 KCAL/MOL
REMARK 924 INTRA-LIGAND FREE ENERGY PREDICTED BY IDOCK:   -0.89 KCAL/MOL
REMARK 927      BINDING AFFINITY PREDICTED BY RF-SCORE:    0.00 PKD
ROOT
HETATM    1  C   UNL     1     -14.355  14.979  71.597  1.00  0.00    -0.680 C  
HETATM    2  C   UNL     1     -13.245  14.156  72.252  1.00  0.00    -0.447 C  
HETATM    3  C   UNL     1     -13.635  12.673  72.237  1.00  0.00    -0.508 C  
ENDROOT
BRANCH   2   4
HETATM    4  N   UNL     1     -11.989  14.405  71.535  1.00  0.00    -0.407 NA 
HETATM    5  H   UNL     1     -11.899  13.787  70.729  1.00  0.00     0.000 HD 
BRANCH   4   6
HETATM    6  C   UNL     1     -11.827  15.811  71.141  1.00  0.00    -0.425 C  
BRANCH   6   7
HETATM    7  C   UNL     1     -10.859  15.972  69.950  1.00  0.00    -0.351 C  
HETATM    8  O   UNL     1      -9.664  15.214  70.169  1.00  0.00    -0.476 OA 
HETATM    9  H   UNL     1      -9.068  15.313  69.436  1.00  0.00     0.000 HD 
BRANCH   7  10
HETATM   10  C   UNL     1     -11.550  15.516  68.649  1.00  0.00    -0.368 C  
BRANCH  10  11
HETATM   11  O   UNL     1     -11.730  14.095  68.573  1.00  0.00    -0.306 OA 
BRANCH  11  12
HETATM   12  C   UNL     1     -11.661  13.506  67.331  1.00  0.00    -0.380 A  
HETATM   13  C   UNL     1     -12.534  13.832  66.282  1.00  0.00    -0.441 A  
HETATM   14  C   UNL     1     -12.453  13.188  65.049  1.00  0.00    -0.516 A  
HETATM   15  C   UNL     1     -11.516  12.189  64.851  1.00  0.00    -0.379 A  
HETATM   16  C   UNL     1     -10.631  11.860  65.875  1.00  0.00    -0.306 A  
HETATM   17  C   UNL     1     -10.658  12.538  67.106  1.00  0.00    -0.228 A  
BRANCH  17  18
HETATM   18  O   UNL     1      -9.736  12.294  68.108  1.00  0.00    -0.202 OA 
BRANCH  18  19
HETATM   19  C   UNL     1      -8.505  13.016  67.965  1.00  0.00    -0.181 C  
BRANCH  19  20
HETATM   20  C   UNL     1      -7.434  12.142  67.387  1.00  0.00    -0.156 C  
HETATM   21  C   UNL     1      -6.130  12.458  67.415  1.00  0.00    -0.158 C  
ENDBRANCH  19  20
ENDBRANCH  18  19
ENDBRANCH  17  18
ENDBRANCH  11  12
ENDBRANCH  10  11
ENDBRANCH   7  10
ENDBRANCH   6   7
ENDBRANCH   4   6
ENDBRANCH   2   4
TORSDOF 9
ENDMDL
MODEL       74
REMARK 921   NORMALIZED FREE ENERGY PREDICTED BY IDOCK:   -4.60 KCAL/MOL
REMARK 922        TOTAL FREE ENERGY PREDICTED BY IDOCK:   -7.79 KCAL/MOL
REMARK 923 INTER-LIGAND FREE ENERGY PREDICTED BY IDOCK:   -7.03 KCAL/MOL
REMARK 924 INTRA-LIGAND FREE ENERGY PREDICTED BY IDOCK:   -0.76 KCAL/MOL
REMARK 927      BINDING AFFINITY PREDICTED BY RF-SCORE:    0.00 PKD
ROOT
HETATM    1  C   UNL     1     -10.299  19.831  68.504  1.00  0.00    -0.472 C  
HETATM    2  C   UNL     1     -10.870  19.040  67.325  1.00  0.00    -0.408 C  
HETATM    3  C   UNL     1     -10.408  19.682  66.011  1.00  0.00    -0.620 C  
ENDROOT
BRANCH   2   4
HETATM    4  N   UNL     1     -10.437  17.643  67.441  1.00  0.00    -0.362 NA 
HETATM    5  H   UNL     1      -9.422  17.580  67.511  1.00  0.00     0.000 HD 
BRANCH   4   6
HETATM    6  C   UNL     1     -11.086  16.935  68.553  1.00  0.00    -0.213 C  
BRANCH   6   7
HETATM    7  C   UNL     1     -11.193  15.419  68.292  1.00  0.00    -0.323 C  
HETATM    8  O   UNL     1     -12.168  14.828  69.158  1.00  0.00    -0.509 OA 
HETATM    9  H   UNL     1     -12.234  13.894  68.997  1.00  0.00     0.000 HD 
BRANCH   7  10
HETATM   10  C   UNL     1     -11.567  15.167  66.816  1.00  0.00    -0.134 C  
BRANCH  10  11
HETATM   11  O   UNL     1     -12.295  13.948  66.618  1.00  0.00    -0.435 OA 
BRANCH  11  12
HETATM   12  C   UNL     1     -11.620  12.881  66.070  1.00  0.00    -0.375 A  
HETATM   13  C   UNL     1     -11.397  12.745  64.692  1.00  0.00    -0.362 A  
HETATM   14  C   UNL     1     -10.738  11.631  64.173  1.00  0.00    -0.418 A  
HETATM   15  C   UNL     1     -10.313  10.623  65.021  1.00  0.00    -0.341 A  
HETATM   16  C   UNL     1     -10.512  10.746  66.394  1.00  0.00    -0.293 A  
HETATM   17  C   UNL     1     -11.122  11.887  66.942  1.00  0.00    -0.305 A  
BRANCH  17  18
HETATM   18  O   UNL     1     -11.252  12.077  68.307  1.00  0.00    -0.222 OA 
BRANCH  18  19
HETATM   19  C   UNL     1     -11.302  10.863  69.068  1.00  0.00    -0.281 C  
BRANCH  19  20
HETATM   20  C   UNL     1     -11.832  11.115  70.447  1.00  0.00    -0.462 C  
HETATM   21  C   UNL     1     -12.822  10.398  70.999  1.00  0.00    -0.494 C  
ENDBRANCH  19  20
ENDBRANCH  18  19
ENDBRANCH  17  18
ENDBRANCH  11  12
ENDBRANCH  10  11
ENDBRANCH   7  10
ENDBRANCH   6   7
ENDBRANCH   4   6
ENDBRANCH   2   4
TORSDOF 9
ENDMDL
MODEL       75
REMARK 921   NORMALIZED FREE ENERGY PREDICTED BY IDOCK:   -4.58 KCAL/MOL
REMARK 922        TOTAL FREE ENERGY PREDICTED BY IDOCK:   -7.77 KCAL/MOL
REMARK 923 INTER-LIGAND FREE ENERGY PREDICTED BY IDOCK:   -6.49 KCAL/MOL
REMARK 924 INTRA-LIGAND FREE ENERGY PREDICTED BY IDOCK:   -1.28 KCAL/MOL
REMARK 927      BINDING AFFINITY PREDICTED BY RF-SCORE:    0.00 PKD
ROOT
HETATM    1  C   UNL     1     -10.664  10.551  67.463  1.00  0.00    -0.326 C  
HETATM    2  C   UNL     1      -9.750  11.747  67.193  1.00  0.00    -0.183 C  
HETATM    3  C   UNL     1     -10.375  12.629  66.105  1.00  0.00    -0.273 C  
ENDROOT
BRANCH   2   4
HETATM    4  N   UNL     1      -9.547  12.478  68.449  1.00  0.00    -0.310 NA 
HETATM    5  H   UNL     1      -9.090  11.889  69.145  1.00  0.00     0.000 HD 
BRANCH   4   6
HETATM    6  C   UNL     1      -8.816  13.739  68.263  1.00  0.00    -0.185 C  
BRANCH   6   7
HETATM    7  C   UNL     1      -9.366  14.866  69.162  1.00  0.00    -0.145 C  
HETATM    8  O   UNL     1      -8.522  16.021  69.090  1.00  0.00    -0.235 OA 
HETATM    9  H   UNL     1      -8.861  16.715  69.644  1.00  0.00     0.000 HD 
BRANCH   7  10
HETATM   10  C   UNL     1     -10.803  15.225  68.731  1.00  0.00    -0.254 C  
BRANCH  10  11
HETATM   11  O   UNL     1     -11.744  14.170  68.972  1.00  0.00    -0.281 OA 
BRANCH  11  12
HETATM   12  C   UNL     1     -12.485  14.226  70.131  1.00  0.00    -0.335 A  
HETATM   13  C   UNL     1     -13.060  15.411  70.613  1.00  0.00    -0.405 A  
HETATM   14  C   UNL     1     -13.774  15.433  71.810  1.00  0.00    -0.610 A  
HETATM   15  C   UNL     1     -13.904  14.276  72.558  1.00  0.00    -0.575 A  
HETATM   16  C   UNL     1     -13.352  13.085  72.090  1.00  0.00    -0.622 A  
HETATM   17  C   UNL     1     -12.679  13.030  70.857  1.00  0.00    -0.217 A  
BRANCH  17  18
HETATM   18  O   UNL     1     -12.199  11.847  70.325  1.00  0.00    -0.309 OA 
BRANCH  18  19
HETATM   19  C   UNL     1     -12.583  10.674  71.055  1.00  0.00    -0.416 C  
BRANCH  19  20
HETATM   20  C   UNL     1     -11.702   9.512  70.708  1.00  0.00    -0.370 C  
HETATM   21  C   UNL     1     -10.693   9.094  71.486  1.00  0.00    -0.437 C  
ENDBRANCH  19  20
ENDBRANCH  18  19
ENDBRANCH  17  18
ENDBRANCH  11  12
ENDBRANCH  10  11
ENDBRANCH   7  10
ENDBRANCH   6   7
ENDBRANCH   4   6
ENDBRANCH   2   4
TORSDOF 9
ENDMDL
MODEL       76
REMARK 921   NORMALIZED FREE ENERGY PREDICTED BY IDOCK:   -4.58 KCAL/MOL
REMARK 922        TOTAL FREE ENERGY PREDICTED BY IDOCK:   -7.77 KCAL/MOL
REMARK 923 INTER-LIGAND FREE ENERGY PREDICTED BY IDOCK:   -6.97 KCAL/MOL
REMARK 924 INTRA-LIGAND FREE ENERGY PREDICTED BY IDOCK:   -0.79 KCAL/MOL
REMARK 927      BINDING AFFINITY PREDICTED BY RF-SCORE:    0.00 PKD
ROOT
HETATM    1  C   UNL     1     -14.407   8.556  72.075  1.00  0.00    -0.537 C  
HETATM    2  C   UNL     1     -12.946   8.368  71.663  1.00  0.00    -0.334 C  
HETATM    3  C   UNL     1     -12.765   6.973  71.052  1.00  0.00    -0.300 C  
ENDROOT
BRANCH   2   4
HETATM    4  N   UNL     1     -12.580   9.434  70.724  1.00  0.00    -0.504 NA 
HETATM    5  H   UNL     1     -13.322   9.590  70.041  1.00  0.00     0.000 HD 
BRANCH   4   6
HETATM    6  C   UNL     1     -12.214  10.687  71.399  1.00  0.00    -0.302 C  
BRANCH   6   7
HETATM    7  C   UNL     1     -12.381  11.913  70.477  1.00  0.00    -0.284 C  
HETATM    8  O   UNL     1     -12.114  13.121  71.197  1.00  0.00    -0.399 OA 
HETATM    9  H   UNL     1     -12.217  13.876  70.629  1.00  0.00     0.000 HD 
BRANCH   7  10
HETATM   10  C   UNL     1     -11.432  11.790  69.267  1.00  0.00    -0.306 C  
BRANCH  10  11
HETATM   11  O   UNL     1     -11.994  11.039  68.183  1.00  0.00    -0.610 OA 
BRANCH  11  12
HETATM   12  C   UNL     1     -11.124  10.463  67.285  1.00  0.00    -0.179 A  
HETATM   13  C   UNL     1     -10.579   9.182  67.462  1.00  0.00    -0.317 A  
HETATM   14  C   UNL     1      -9.673   8.649  66.547  1.00  0.00    -0.325 A  
HETATM   15  C   UNL     1      -9.278   9.396  65.452  1.00  0.00    -0.305 A  
HETATM   16  C   UNL     1      -9.817  10.664  65.249  1.00  0.00    -0.334 A  
HETATM   17  C   UNL     1     -10.776  11.197  66.128  1.00  0.00    -0.225 A  
BRANCH  17  18
HETATM   18  O   UNL     1     -11.394  12.414  65.905  1.00  0.00    -0.322 OA 
BRANCH  18  19
HETATM   19  C   UNL     1     -10.938  13.099  64.731  1.00  0.00    -0.336 C  
BRANCH  19  20
HETATM   20  C   UNL     1     -11.993  13.100  63.666  1.00  0.00    -0.580 C  
HETATM   21  C   UNL     1     -12.850  12.086  63.477  1.00  0.00    -0.472 C  
ENDBRANCH  19  20
ENDBRANCH  18  19
ENDBRANCH  17  18
ENDBRANCH  11  12
ENDBRANCH  10  11
ENDBRANCH   7  10
ENDBRANCH   6   7
ENDBRANCH   4   6
ENDBRANCH   2   4
TORSDOF 9
ENDMDL
MODEL       77
REMARK 921   NORMALIZED FREE ENERGY PREDICTED BY IDOCK:   -4.58 KCAL/MOL
REMARK 922        TOTAL FREE ENERGY PREDICTED BY IDOCK:   -7.77 KCAL/MOL
REMARK 923 INTER-LIGAND FREE ENERGY PREDICTED BY IDOCK:   -7.27 KCAL/MOL
REMARK 924 INTRA-LIGAND FREE ENERGY PREDICTED BY IDOCK:   -0.50 KCAL/MOL
REMARK 927      BINDING AFFINITY PREDICTED BY RF-SCORE:    0.00 PKD
ROOT
HETATM    1  C   UNL     1     -10.476  18.170  67.960  1.00  0.00    -0.387 C  
HETATM    2  C   UNL     1     -10.368  18.774  66.558  1.00  0.00    -0.424 C  
HETATM    3  C   UNL     1      -9.135  19.683  66.490  1.00  0.00    -0.436 C  
ENDROOT
BRANCH   2   4
HETATM    4  N   UNL     1     -10.306  17.683  65.579  1.00  0.00    -0.632 NA 
HETATM    5  H   UNL     1      -9.396  17.655  65.120  1.00  0.00     0.000 HD 
BRANCH   4   6
HETATM    6  C   UNL     1     -10.643  16.376  66.160  1.00  0.00    -0.255 C  
BRANCH   6   7
HETATM    7  C   UNL     1     -11.282  15.428  65.124  1.00  0.00    -0.350 C  
HETATM    8  O   UNL     1     -11.538  16.123  63.899  1.00  0.00    -1.369 OA 
HETATM    9  H   UNL     1     -11.932  15.539  63.261  1.00  0.00     0.000 HD 
BRANCH   7  10
HETATM   10  C   UNL     1     -10.350  14.225  64.871  1.00  0.00    -0.401 C  
BRANCH  10  11
HETATM   11  O   UNL     1     -11.049  12.974  64.805  1.00  0.00    -0.300 OA 
BRANCH  11  12
HETATM   12  C   UNL     1     -10.341  11.867  64.396  1.00  0.00    -0.299 A  
HETATM   13  C   UNL     1      -9.809  11.733  63.105  1.00  0.00    -0.363 A  
HETATM   14  C   UNL     1      -9.128  10.580  62.720  1.00  0.00    -0.299 A  
HETATM   15  C   UNL     1      -8.988   9.530  63.611  1.00  0.00    -0.207 A  
HETATM   16  C   UNL     1      -9.496   9.648  64.902  1.00  0.00    -0.288 A  
HETATM   17  C   UNL     1     -10.135  10.825  65.329  1.00  0.00    -0.290 A  
BRANCH  17  18
HETATM   18  O   UNL     1     -10.570  11.005  66.630  1.00  0.00    -0.247 OA 
BRANCH  18  19
HETATM   19  C   UNL     1      -9.798  10.301  67.612  1.00  0.00    -0.171 C  
BRANCH  19  20
HETATM   20  C   UNL     1     -10.580  10.114  68.877  1.00  0.00    -0.237 C  
HETATM   21  C   UNL     1     -11.148  11.127  69.548  1.00  0.00    -0.311 C  
ENDBRANCH  19  20
ENDBRANCH  18  19
ENDBRANCH  17  18
ENDBRANCH  11  12
ENDBRANCH  10  11
ENDBRANCH   7  10
ENDBRANCH   6   7
ENDBRANCH   4   6
ENDBRANCH   2   4
TORSDOF 9
ENDMDL
MODEL       78
REMARK 921   NORMALIZED FREE ENERGY PREDICTED BY IDOCK:   -4.54 KCAL/MOL
REMARK 922        TOTAL FREE ENERGY PREDICTED BY IDOCK:   -7.71 KCAL/MOL
REMARK 923 INTER-LIGAND FREE ENERGY PREDICTED BY IDOCK:   -6.89 KCAL/MOL
REMARK 924 INTRA-LIGAND FREE ENERGY PREDICTED BY IDOCK:   -0.82 KCAL/MOL
REMARK 927      BINDING AFFINITY PREDICTED BY RF-SCORE:    0.00 PKD
ROOT
HETATM    1  C   UNL     1     -10.519  19.482  66.007  1.00  0.00    -0.611 C  
HETATM    2  C   UNL     1      -9.682  20.193  67.073  1.00  0.00    -0.437 C  
HETATM    3  C   UNL     1     -10.303  19.947  68.453  1.00  0.00    -0.507 C  
ENDROOT
BRANCH   2   4
HETATM    4  N   UNL     1      -8.301  19.703  66.991  1.00  0.00    -0.283 NA 
HETATM    5  H   UNL     1      -7.729  20.100  67.736  1.00  0.00     0.000 HD 
BRANCH   4   6
HETATM    6  C   UNL     1      -8.217  18.236  66.987  1.00  0.00    -0.239 C  
BRANCH   6   7
HETATM    7  C   UNL     1      -7.415  17.697  68.190  1.00  0.00    -0.231 C  
HETATM    8  O   UNL     1      -7.088  18.761  69.091  1.00  0.00    -0.293 OA 
HETATM    9  H   UNL     1      -6.594  18.429  69.832  1.00  0.00     0.000 HD 
BRANCH   7  10
HETATM   10  C   UNL     1      -8.232  16.611  68.919  1.00  0.00    -0.231 C  
BRANCH  10  11
HETATM   11  O   UNL     1      -9.577  16.495  68.433  1.00  0.00    -0.220 OA 
BRANCH  11  12
HETATM   12  C   UNL     1     -10.155  15.246  68.442  1.00  0.00    -0.220 A  
HETATM   13  C   UNL     1      -9.659  14.169  67.692  1.00  0.00    -0.216 A  
HETATM   14  C   UNL     1     -10.295  12.929  67.702  1.00  0.00    -0.218 A  
HETATM   15  C   UNL     1     -11.450  12.751  68.442  1.00  0.00    -0.349 A  
HETATM   16  C   UNL     1     -11.951  13.803  69.205  1.00  0.00    -0.399 A  
HETATM   17  C   UNL     1     -11.293  15.044  69.255  1.00  0.00    -0.296 A  
BRANCH  17  18
HETATM   18  O   UNL     1     -11.716  16.077  70.071  1.00  0.00    -0.330 OA 
BRANCH  18  19
HETATM   19  C   UNL     1     -12.621  15.676  71.108  1.00  0.00    -0.453 C  
BRANCH  19  20
HETATM   20  C   UNL     1     -12.126  16.115  72.453  1.00  0.00    -0.630 C  
HETATM   21  C   UNL     1     -12.723  15.775  73.605  1.00  0.00    -0.729 C  
ENDBRANCH  19  20
ENDBRANCH  18  19
ENDBRANCH  17  18
ENDBRANCH  11  12
ENDBRANCH  10  11
ENDBRANCH   7  10
ENDBRANCH   6   7
ENDBRANCH   4   6
ENDBRANCH   2   4
TORSDOF 9
ENDMDL
MODEL       79
REMARK 921   NORMALIZED FREE ENERGY PREDICTED BY IDOCK:   -4.54 KCAL/MOL
REMARK 922        TOTAL FREE ENERGY PREDICTED BY IDOCK:   -7.69 KCAL/MOL
REMARK 923 INTER-LIGAND FREE ENERGY PREDICTED BY IDOCK:   -6.30 KCAL/MOL
REMARK 924 INTRA-LIGAND FREE ENERGY PREDICTED BY IDOCK:   -1.40 KCAL/MOL
REMARK 927      BINDING AFFINITY PREDICTED BY RF-SCORE:    0.00 PKD
ROOT
HETATM    1  C   UNL     1     -11.933  12.839  64.834  1.00  0.00    -0.451 C  
HETATM    2  C   UNL     1     -10.942  13.988  65.034  1.00  0.00    -0.375 C  
HETATM    3  C   UNL     1     -11.537  15.278  64.458  1.00  0.00    -0.312 C  
ENDROOT
BRANCH   2   4
HETATM    4  N   UNL     1     -10.642  14.107  66.466  1.00  0.00    -0.280 NA 
HETATM    5  H   UNL     1      -9.998  14.878  66.641  1.00  0.00     0.000 HD 
BRANCH   4   6
HETATM    6  C   UNL     1     -11.850  14.232  67.292  1.00  0.00    -0.413 C  
BRANCH   6   7
HETATM    7  C   UNL     1     -11.521  14.653  68.740  1.00  0.00    -0.296 C  
HETATM    8  O   UNL     1     -10.512  13.801  69.292  1.00  0.00    -0.426 OA 
HETATM    9  H   UNL     1     -10.309  14.060  70.184  1.00  0.00     0.000 HD 
BRANCH   7  10
HETATM   10  C   UNL     1     -11.053  16.122  68.764  1.00  0.00    -0.354 C  
BRANCH  10  11
HETATM   11  O   UNL     1     -11.071  16.742  67.471  1.00  0.00    -0.196 OA 
BRANCH  11  12
HETATM   12  C   UNL     1     -10.300  17.868  67.291  1.00  0.00    -0.369 A  
HETATM   13  C   UNL     1     -10.699  19.143  67.717  1.00  0.00    -0.463 A  
HETATM   14  C   UNL     1      -9.904  20.264  67.484  1.00  0.00    -0.576 A  
HETATM   15  C   UNL     1      -8.709  20.134  66.798  1.00  0.00    -0.390 A  
HETATM   16  C   UNL     1      -8.288  18.874  66.379  1.00  0.00    -0.306 A  
HETATM   17  C   UNL     1      -9.046  17.723  66.655  1.00  0.00    -0.266 A  
BRANCH  17  18
HETATM   18  O   UNL     1      -8.611  16.451  66.329  1.00  0.00    -0.296 OA 
BRANCH  18  19
HETATM   19  C   UNL     1      -7.256  16.176  66.710  1.00  0.00    -0.155 C  
BRANCH  19  20
HETATM   20  C   UNL     1      -7.203  15.175  67.823  1.00  0.00    -0.185 C  
HETATM   21  C   UNL     1      -7.166  13.849  67.621  1.00  0.00    -0.187 C  
ENDBRANCH  19  20
ENDBRANCH  18  19
ENDBRANCH  17  18
ENDBRANCH  11  12
ENDBRANCH  10  11
ENDBRANCH   7  10
ENDBRANCH   6   7
ENDBRANCH   4   6
ENDBRANCH   2   4
TORSDOF 9
ENDMDL
MODEL       80
REMARK 921   NORMALIZED FREE ENERGY PREDICTED BY IDOCK:   -4.52 KCAL/MOL
REMARK 922        TOTAL FREE ENERGY PREDICTED BY IDOCK:   -7.67 KCAL/MOL
REMARK 923 INTER-LIGAND FREE ENERGY PREDICTED BY IDOCK:   -6.87 KCAL/MOL
REMARK 924 INTRA-LIGAND FREE ENERGY PREDICTED BY IDOCK:   -0.81 KCAL/MOL
REMARK 927      BINDING AFFINITY PREDICTED BY RF-SCORE:    0.00 PKD
ROOT
HETATM    1  C   UNL     1     -12.509  12.135  63.525  1.00  0.00    -0.666 C  
HETATM    2  C   UNL     1     -11.677  13.159  64.299  1.00  0.00    -0.395 C  
HETATM    3  C   UNL     1     -12.312  14.547  64.150  1.00  0.00    -0.317 C  
ENDROOT
BRANCH   2   4
HETATM    4  N   UNL     1     -11.595  12.736  65.701  1.00  0.00    -0.349 NA 
HETATM    5  H   UNL     1     -11.605  11.719  65.777  1.00  0.00     0.000 HD 
BRANCH   4   6
HETATM    6  C   UNL     1     -10.435  13.305  66.401  1.00  0.00    -0.284 C  
BRANCH   6   7
HETATM    7  C   UNL     1      -9.492  12.211  66.945  1.00  0.00    -0.210 C  
HETATM    8  O   UNL     1      -8.125  12.612  66.804  1.00  0.00    -0.386 OA 
HETATM    9  H   UNL     1      -7.545  11.938  67.139  1.00  0.00     0.000 HD 
BRANCH   7  10
HETATM   10  C   UNL     1      -9.817  11.931  68.427  1.00  0.00    -0.201 C  
BRANCH  10  11
HETATM   11  O   UNL     1     -11.182  11.547  68.643  1.00  0.00    -0.205 OA 
BRANCH  11  12
HETATM   12  C   UNL     1     -11.859  12.148  69.680  1.00  0.00    -0.322 A  
HETATM   13  C   UNL     1     -12.035  13.536  69.774  1.00  0.00    -0.405 A  
HETATM   14  C   UNL     1     -12.697  14.109  70.859  1.00  0.00    -0.432 A  
HETATM   15  C   UNL     1     -13.172  13.305  71.881  1.00  0.00    -0.523 A  
HETATM   16  C   UNL     1     -13.020  11.923  71.800  1.00  0.00    -0.455 A  
HETATM   17  C   UNL     1     -12.408  11.322  70.686  1.00  0.00    -0.383 A  
BRANCH  17  18
HETATM   18  O   UNL     1     -12.322   9.949  70.536  1.00  0.00    -0.241 OA 
BRANCH  18  19
HETATM   19  C   UNL     1     -12.450   9.214  71.761  1.00  0.00    -0.372 C  
BRANCH  19  20
HETATM   20  C   UNL     1     -11.751   7.891  71.669  1.00  0.00    -0.320 C  
HETATM   21  C   UNL     1     -12.066   6.952  70.765  1.00  0.00    -0.400 C  
ENDBRANCH  19  20
ENDBRANCH  18  19
ENDBRANCH  17  18
ENDBRANCH  11  12
ENDBRANCH  10  11
ENDBRANCH   7  10
ENDBRANCH   6   7
ENDBRANCH   4   6
ENDBRANCH   2   4
TORSDOF 9
ENDMDL
MODEL       81
REMARK 921   NORMALIZED FREE ENERGY PREDICTED BY IDOCK:   -4.52 KCAL/MOL
REMARK 922        TOTAL FREE ENERGY PREDICTED BY IDOCK:   -7.67 KCAL/MOL
REMARK 923 INTER-LIGAND FREE ENERGY PREDICTED BY IDOCK:   -6.76 KCAL/MOL
REMARK 924 INTRA-LIGAND FREE ENERGY PREDICTED BY IDOCK:   -0.92 KCAL/MOL
REMARK 927      BINDING AFFINITY PREDICTED BY RF-SCORE:    0.00 PKD
ROOT
HETATM    1  C   UNL     1     -12.121  12.544  64.934  1.00  0.00    -0.499 C  
HETATM    2  C   UNL     1     -10.953  11.555  64.938  1.00  0.00    -0.254 C  
HETATM    3  C   UNL     1      -9.964  11.933  63.828  1.00  0.00    -0.379 C  
ENDROOT
BRANCH   2   4
HETATM    4  N   UNL     1     -10.328  11.571  66.265  1.00  0.00    -0.231 NA 
HETATM    5  H   UNL     1     -10.269  12.522  66.630  1.00  0.00     0.000 HD 
BRANCH   4   6
HETATM    6  C   UNL     1     -10.999  10.681  67.222  1.00  0.00    -0.284 C  
BRANCH   6   7
HETATM    7  C   UNL     1     -10.568  10.962  68.677  1.00  0.00    -0.195 C  
HETATM    8  O   UNL     1      -9.288  11.603  68.705  1.00  0.00    -0.343 OA 
HETATM    9  H   UNL     1      -9.023  11.776  69.602  1.00  0.00     0.000 HD 
BRANCH   7  10
HETATM   10  C   UNL     1     -11.624  11.845  69.374  1.00  0.00    -0.325 C  
BRANCH  10  11
HETATM   11  O   UNL     1     -12.134  12.887  68.530  1.00  0.00    -0.279 OA 
BRANCH  11  12
HETATM   12  C   UNL     1     -11.639  14.158  68.713  1.00  0.00    -0.327 A  
HETATM   13  C   UNL     1     -10.738  14.762  67.824  1.00  0.00    -0.268 A  
HETATM   14  C   UNL     1     -10.232  16.038  68.063  1.00  0.00    -0.245 A  
HETATM   15  C   UNL     1     -10.599  16.723  69.209  1.00  0.00    -0.336 A  
HETATM   16  C   UNL     1     -11.503  16.147  70.099  1.00  0.00    -0.309 A  
HETATM   17  C   UNL     1     -12.069  14.885  69.846  1.00  0.00    -0.332 A  
BRANCH  17  18
HETATM   18  O   UNL     1     -13.035  14.327  70.664  1.00  0.00    -0.338 OA 
BRANCH  18  19
HETATM   19  C   UNL     1     -13.619  15.246  71.597  1.00  0.00    -0.491 C  
BRANCH  19  20
HETATM   20  C   UNL     1     -13.197  14.928  72.999  1.00  0.00    -0.596 C  
HETATM   21  C   UNL     1     -12.733  15.850  73.856  1.00  0.00    -0.727 C  
ENDBRANCH  19  20
ENDBRANCH  18  19
ENDBRANCH  17  18
ENDBRANCH  11  12
ENDBRANCH  10  11
ENDBRANCH   7  10
ENDBRANCH   6   7
ENDBRANCH   4   6
ENDBRANCH   2   4
TORSDOF 9
ENDMDL
MODEL       82
REMARK 921   NORMALIZED FREE ENERGY PREDICTED BY IDOCK:   -4.51 KCAL/MOL
REMARK 922        TOTAL FREE ENERGY PREDICTED BY IDOCK:   -7.65 KCAL/MOL
REMARK 923 INTER-LIGAND FREE ENERGY PREDICTED BY IDOCK:   -6.93 KCAL/MOL
REMARK 924 INTRA-LIGAND FREE ENERGY PREDICTED BY IDOCK:   -0.72 KCAL/MOL
REMARK 927      BINDING AFFINITY PREDICTED BY RF-SCORE:    0.00 PKD
ROOT
HETATM    1  C   UNL     1     -12.252  12.689  63.337  1.00  0.00    -0.610 C  
HETATM    2  C   UNL     1     -10.966  12.372  64.103  1.00  0.00    -0.367 C  
HETATM    3  C   UNL     1     -10.156  11.327  63.326  1.00  0.00    -0.428 C  
ENDROOT
BRANCH   2   4
HETATM    4  N   UNL     1     -10.216  13.618  64.302  1.00  0.00    -0.753 NA 
HETATM    5  H   UNL     1     -10.637  14.385  63.777  1.00  0.00     0.000 HD 
BRANCH   4   6
HETATM    6  C   UNL     1     -10.064  13.971  65.720  1.00  0.00    -0.327 C  
BRANCH   6   7
HETATM    7  C   UNL     1     -10.102  15.497  65.945  1.00  0.00    -0.349 C  
HETATM    8  O   UNL     1     -10.977  15.822  67.030  1.00  0.00    -0.304 OA 
HETATM    9  H   UNL     1     -11.000  16.762  67.168  1.00  0.00     0.000 HD 
BRANCH   7  10
HETATM   10  C   UNL     1      -8.678  16.019  66.230  1.00  0.00    -0.336 C  
BRANCH  10  11
HETATM   11  O   UNL     1      -8.475  16.382  67.603  1.00  0.00    -0.167 OA 
BRANCH  11  12
HETATM   12  C   UNL     1      -7.612  17.421  67.869  1.00  0.00    -0.194 A  
HETATM   13  C   UNL     1      -6.251  17.388  67.531  1.00  0.00    -0.169 A  
HETATM   14  C   UNL     1      -5.402  18.447  67.849  1.00  0.00    -0.157 A  
HETATM   15  C   UNL     1      -5.894  19.545  68.533  1.00  0.00    -0.236 A  
HETATM   16  C   UNL     1      -7.245  19.603  68.866  1.00  0.00    -0.381 A  
HETATM   17  C   UNL     1      -8.130  18.573  68.503  1.00  0.00    -0.330 A  
BRANCH  17  18
HETATM   18  O   UNL     1      -9.491  18.643  68.741  1.00  0.00    -0.340 OA 
BRANCH  18  19
HETATM   19  C   UNL     1     -10.111  19.844  68.262  1.00  0.00    -0.447 C  
BRANCH  19  20
HETATM   20  C   UNL     1      -9.988  19.954  66.772  1.00  0.00    -0.569 C  
HETATM   21  C   UNL     1     -10.768  19.276  65.916  1.00  0.00    -0.463 C  
ENDBRANCH  19  20
ENDBRANCH  18  19
ENDBRANCH  17  18
ENDBRANCH  11  12
ENDBRANCH  10  11
ENDBRANCH   7  10
ENDBRANCH   6   7
ENDBRANCH   4   6
ENDBRANCH   2   4
TORSDOF 9
ENDMDL
MODEL       83
REMARK 921   NORMALIZED FREE ENERGY PREDICTED BY IDOCK:   -4.50 KCAL/MOL
REMARK 922        TOTAL FREE ENERGY PREDICTED BY IDOCK:   -7.64 KCAL/MOL
REMARK 923 INTER-LIGAND FREE ENERGY PREDICTED BY IDOCK:   -6.30 KCAL/MOL
REMARK 924 INTRA-LIGAND FREE ENERGY PREDICTED BY IDOCK:   -1.34 KCAL/MOL
REMARK 927      BINDING AFFINITY PREDICTED BY RF-SCORE:    0.00 PKD
ROOT
HETATM    1  C   UNL     1     -12.534  15.545  70.416  1.00  0.00    -0.443 C  
HETATM    2  C   UNL     1     -12.462  14.547  71.574  1.00  0.00    -0.355 C  
HETATM    3  C   UNL     1     -13.635  14.792  72.530  1.00  0.00    -0.571 C  
ENDROOT
BRANCH   2   4
HETATM    4  N   UNL     1     -12.471  13.186  71.024  1.00  0.00    -0.364 NA 
HETATM    5  H   UNL     1     -11.523  12.819  70.943  1.00  0.00     0.000 HD 
BRANCH   4   6
HETATM    6  C   UNL     1     -13.327  12.269  71.787  1.00  0.00    -0.254 C  
BRANCH   6   7
HETATM    7  C   UNL     1     -12.734  10.846  71.860  1.00  0.00    -0.234 C  
HETATM    8  O   UNL     1     -13.655   9.950  72.490  1.00  0.00    -0.656 OA 
HETATM    9  H   UNL     1     -13.290   9.074  72.535  1.00  0.00     0.000 HD 
BRANCH   7  10
HETATM   10  C   UNL     1     -12.390  10.350  70.440  1.00  0.00    -0.286 C  
BRANCH  10  11
HETATM   11  O   UNL     1     -11.167  10.898  69.931  1.00  0.00    -0.272 OA 
BRANCH  11  12
HETATM   12  C   UNL     1     -10.857  10.655  68.612  1.00  0.00    -0.227 A  
HETATM   13  C   UNL     1     -10.535   9.379  68.125  1.00  0.00    -0.267 A  
HETATM   14  C   UNL     1     -10.193   9.181  66.789  1.00  0.00    -0.331 A  
HETATM   15  C   UNL     1     -10.143  10.259  65.922  1.00  0.00    -0.319 A  
HETATM   16  C   UNL     1     -10.473  11.531  66.381  1.00  0.00    -0.292 A  
HETATM   17  C   UNL     1     -10.877  11.743  67.711  1.00  0.00    -0.213 A  
BRANCH  17  18
HETATM   18  O   UNL     1     -11.295  12.978  68.173  1.00  0.00    -0.258 OA 
BRANCH  18  19
HETATM   19  C   UNL     1     -11.905  13.805  67.172  1.00  0.00    -0.406 C  
BRANCH  19  20
HETATM   20  C   UNL     1     -11.111  15.058  66.954  1.00  0.00    -0.331 C  
HETATM   21  C   UNL     1     -10.029  15.380  67.677  1.00  0.00    -0.225 C  
ENDBRANCH  19  20
ENDBRANCH  18  19
ENDBRANCH  17  18
ENDBRANCH  11  12
ENDBRANCH  10  11
ENDBRANCH   7  10
ENDBRANCH   6   7
ENDBRANCH   4   6
ENDBRANCH   2   4
TORSDOF 9
ENDMDL
MODEL       84
REMARK 921   NORMALIZED FREE ENERGY PREDICTED BY IDOCK:   -4.50 KCAL/MOL
REMARK 922        TOTAL FREE ENERGY PREDICTED BY IDOCK:   -7.63 KCAL/MOL
REMARK 923 INTER-LIGAND FREE ENERGY PREDICTED BY IDOCK:   -7.00 KCAL/MOL
REMARK 924 INTRA-LIGAND FREE ENERGY PREDICTED BY IDOCK:   -0.64 KCAL/MOL
REMARK 927      BINDING AFFINITY PREDICTED BY RF-SCORE:    0.00 PKD
ROOT
HETATM    1  C   UNL     1     -12.297   7.017  71.825  1.00  0.00    -0.391 C  
HETATM    2  C   UNL     1     -12.688   8.432  71.395  1.00  0.00    -0.262 C  
HETATM    3  C   UNL     1     -13.568   9.068  72.478  1.00  0.00    -0.492 C  
ENDROOT
BRANCH   2   4
HETATM    4  N   UNL     1     -11.465   9.206  71.152  1.00  0.00    -0.293 NA 
HETATM    5  H   UNL     1     -10.784   9.056  71.897  1.00  0.00     0.000 HD 
BRANCH   4   6
HETATM    6  C   UNL     1     -10.872   8.937  69.835  1.00  0.00    -0.211 C  
BRANCH   6   7
HETATM    7  C   UNL     1     -10.799  10.207  68.962  1.00  0.00    -0.224 C  
HETATM    8  O   UNL     1     -11.484  10.002  67.721  1.00  0.00    -0.582 OA 
HETATM    9  H   UNL     1     -11.438  10.784  67.183  1.00  0.00     0.000 HD 
BRANCH   7  10
HETATM   10  C   UNL     1     -11.412  11.400  69.722  1.00  0.00    -0.300 C  
BRANCH  10  11
HETATM   11  O   UNL     1     -12.223  12.242  68.890  1.00  0.00    -0.187 OA 
BRANCH  11  12
HETATM   12  C   UNL     1     -11.753  13.505  68.608  1.00  0.00    -0.354 A  
HETATM   13  C   UNL     1     -10.929  13.785  67.507  1.00  0.00    -0.285 A  
HETATM   14  C   UNL     1     -10.445  15.071  67.276  1.00  0.00    -0.265 A  
HETATM   15  C   UNL     1     -10.757  16.095  68.153  1.00  0.00    -0.315 A  
HETATM   16  C   UNL     1     -11.585  15.841  69.244  1.00  0.00    -0.380 A  
HETATM   17  C   UNL     1     -12.131  14.564  69.463  1.00  0.00    -0.306 A  
BRANCH  17  18
HETATM   18  O   UNL     1     -13.026  14.304  70.485  1.00  0.00    -0.331 OA 
BRANCH  18  19
HETATM   19  C   UNL     1     -13.164  15.370  71.433  1.00  0.00    -0.500 C  
BRANCH  19  20
HETATM   20  C   UNL     1     -13.193  14.842  72.835  1.00  0.00    -0.590 C  
HETATM   21  C   UNL     1     -12.407  15.311  73.816  1.00  0.00    -0.731 C  
ENDBRANCH  19  20
ENDBRANCH  18  19
ENDBRANCH  17  18
ENDBRANCH  11  12
ENDBRANCH  10  11
ENDBRANCH   7  10
ENDBRANCH   6   7
ENDBRANCH   4   6
ENDBRANCH   2   4
TORSDOF 9
ENDMDL
MODEL       85
REMARK 921   NORMALIZED FREE ENERGY PREDICTED BY IDOCK:   -4.49 KCAL/MOL
REMARK 922        TOTAL FREE ENERGY PREDICTED BY IDOCK:   -7.63 KCAL/MOL
REMARK 923 INTER-LIGAND FREE ENERGY PREDICTED BY IDOCK:   -6.80 KCAL/MOL
REMARK 924 INTRA-LIGAND FREE ENERGY PREDICTED BY IDOCK:   -0.83 KCAL/MOL
REMARK 927      BINDING AFFINITY PREDICTED BY RF-SCORE:    0.00 PKD
ROOT
HETATM    1  C   UNL     1     -13.601   9.266  71.795  1.00  0.00    -0.465 C  
HETATM    2  C   UNL     1     -12.261   9.916  71.447  1.00  0.00    -0.408 C  
HETATM    3  C   UNL     1     -11.133   8.900  71.664  1.00  0.00    -0.420 C  
ENDROOT
BRANCH   2   4
HETATM    4  N   UNL     1     -12.315  10.396  70.061  1.00  0.00    -0.503 NA 
HETATM    5  H   UNL     1     -13.249  10.731  69.827  1.00  0.00     0.000 HD 
BRANCH   4   6
HETATM    6  C   UNL     1     -11.300  11.418  69.772  1.00  0.00    -0.255 C  
BRANCH   6   7
HETATM    7  C   UNL     1     -11.924  12.814  69.569  1.00  0.00    -0.276 C  
HETATM    8  O   UNL     1     -11.211  13.797  70.327  1.00  0.00    -0.485 OA 
HETATM    9  H   UNL     1     -11.596  14.657  70.202  1.00  0.00     0.000 HD 
BRANCH   7  10
HETATM   10  C   UNL     1     -11.911  13.180  68.070  1.00  0.00    -0.358 C  
BRANCH  10  11
HETATM   11  O   UNL     1     -12.156  12.057  67.213  1.00  0.00    -0.572 OA 
BRANCH  11  12
HETATM   12  C   UNL     1     -11.737  12.147  65.905  1.00  0.00    -0.328 A  
HETATM   13  C   UNL     1     -12.435  12.871  64.927  1.00  0.00    -0.540 A  
HETATM   14  C   UNL     1     -11.995  12.909  63.605  1.00  0.00    -0.613 A  
HETATM   15  C   UNL     1     -10.865  12.203  63.232  1.00  0.00    -0.381 A  
HETATM   16  C   UNL     1     -10.149  11.489  64.191  1.00  0.00    -0.354 A  
HETATM   17  C   UNL     1     -10.542  11.486  65.540  1.00  0.00    -0.281 A  
BRANCH  17  18
HETATM   18  O   UNL     1      -9.803  10.861  66.528  1.00  0.00    -0.193 OA 
BRANCH  18  19
HETATM   19  C   UNL     1      -8.392  11.106  66.453  1.00  0.00    -0.167 C  
BRANCH  19  20
HETATM   20  C   UNL     1      -7.623  10.044  67.177  1.00  0.00    -0.092 C  
HETATM   21  C   UNL     1      -8.185   9.187  68.043  1.00  0.00    -0.112 C  
ENDBRANCH  19  20
ENDBRANCH  18  19
ENDBRANCH  17  18
ENDBRANCH  11  12
ENDBRANCH  10  11
ENDBRANCH   7  10
ENDBRANCH   6   7
ENDBRANCH   4   6
ENDBRANCH   2   4
TORSDOF 9
ENDMDL
MODEL       86
REMARK 921   NORMALIZED FREE ENERGY PREDICTED BY IDOCK:   -4.49 KCAL/MOL
REMARK 922        TOTAL FREE ENERGY PREDICTED BY IDOCK:   -7.63 KCAL/MOL
REMARK 923 INTER-LIGAND FREE ENERGY PREDICTED BY IDOCK:   -6.46 KCAL/MOL
REMARK 924 INTRA-LIGAND FREE ENERGY PREDICTED BY IDOCK:   -1.17 KCAL/MOL
REMARK 927      BINDING AFFINITY PREDICTED BY RF-SCORE:    0.00 PKD
ROOT
HETATM    1  C   UNL     1     -12.130  12.681  63.461  1.00  0.00    -0.648 C  
HETATM    2  C   UNL     1     -11.248  11.527  63.943  1.00  0.00    -0.355 C  
HETATM    3  C   UNL     1      -9.910  11.565  63.196  1.00  0.00    -0.413 C  
ENDROOT
BRANCH   2   4
HETATM    4  N   UNL     1     -11.075  11.641  65.395  1.00  0.00    -0.274 NA 
HETATM    5  H   UNL     1     -11.934  11.392  65.886  1.00  0.00     0.000 HD 
BRANCH   4   6
HETATM    6  C   UNL     1      -9.937  10.860  65.896  1.00  0.00    -0.243 C  
BRANCH   6   7
HETATM    7  C   UNL     1      -9.144  11.619  66.981  1.00  0.00    -0.179 C  
HETATM    8  O   UNL     1      -8.614  12.839  66.452  1.00  0.00    -0.422 OA 
HETATM    9  H   UNL     1      -8.126  13.307  67.121  1.00  0.00     0.000 HD 
BRANCH   7  10
HETATM   10  C   UNL     1     -10.059  11.912  68.188  1.00  0.00    -0.198 C  
BRANCH  10  11
HETATM   11  O   UNL     1     -10.914  13.045  67.987  1.00  0.00    -0.235 OA 
BRANCH  11  12
HETATM   12  C   UNL     1     -11.255  13.793  69.091  1.00  0.00    -0.262 A  
HETATM   13  C   UNL     1     -12.066  13.302  70.125  1.00  0.00    -0.403 A  
HETATM   14  C   UNL     1     -12.418  14.103  71.210  1.00  0.00    -0.446 A  
HETATM   15  C   UNL     1     -11.986  15.417  71.267  1.00  0.00    -0.431 A  
HETATM   16  C   UNL     1     -11.169  15.920  70.258  1.00  0.00    -0.388 A  
HETATM   17  C   UNL     1     -10.755  15.111  69.185  1.00  0.00    -0.253 A  
BRANCH  17  18
HETATM   18  O   UNL     1      -9.872  15.555  68.217  1.00  0.00    -0.210 OA 
BRANCH  18  19
HETATM   19  C   UNL     1     -10.356  16.662  67.443  1.00  0.00    -0.292 C  
BRANCH  19  20
HETATM   20  C   UNL     1     -10.037  16.481  65.990  1.00  0.00    -0.368 C  
HETATM   21  C   UNL     1     -10.489  15.450  65.259  1.00  0.00    -0.440 C  
ENDBRANCH  19  20
ENDBRANCH  18  19
ENDBRANCH  17  18
ENDBRANCH  11  12
ENDBRANCH  10  11
ENDBRANCH   7  10
ENDBRANCH   6   7
ENDBRANCH   4   6
ENDBRANCH   2   4
TORSDOF 9
ENDMDL
MODEL       87
REMARK 921   NORMALIZED FREE ENERGY PREDICTED BY IDOCK:   -4.48 KCAL/MOL
REMARK 922        TOTAL FREE ENERGY PREDICTED BY IDOCK:   -7.60 KCAL/MOL
REMARK 923 INTER-LIGAND FREE ENERGY PREDICTED BY IDOCK:   -7.12 KCAL/MOL
REMARK 924 INTRA-LIGAND FREE ENERGY PREDICTED BY IDOCK:   -0.49 KCAL/MOL
REMARK 927      BINDING AFFINITY PREDICTED BY RF-SCORE:    0.00 PKD
ROOT
HETATM    1  C   UNL     1     -10.459   7.197  73.582  1.00  0.00    -0.412 C  
HETATM    2  C   UNL     1     -10.951   7.555  72.178  1.00  0.00    -0.250 C  
HETATM    3  C   UNL     1     -12.070   6.589  71.770  1.00  0.00    -0.393 C  
ENDROOT
BRANCH   2   4
HETATM    4  N   UNL     1     -11.398   8.953  72.177  1.00  0.00    -0.346 NA 
HETATM    5  H   UNL     1     -10.940   9.483  72.918  1.00  0.00     0.000 HD 
BRANCH   4   6
HETATM    6  C   UNL     1     -11.220   9.607  70.874  1.00  0.00    -0.352 C  
BRANCH   6   7
HETATM    7  C   UNL     1     -12.352  10.611  70.569  1.00  0.00    -0.359 C  
HETATM    8  O   UNL     1     -12.848  11.189  71.781  1.00  0.00    -0.422 OA 
HETATM    9  H   UNL     1     -13.546  11.807  71.593  1.00  0.00     0.000 HD 
BRANCH   7  10
HETATM   10  C   UNL     1     -11.833  11.713  69.623  1.00  0.00    -0.352 C  
BRANCH  10  11
HETATM   11  O   UNL     1     -12.119  13.038  70.090  1.00  0.00    -0.336 OA 
BRANCH  11  12
HETATM   12  C   UNL     1     -11.637  14.095  69.351  1.00  0.00    -0.304 A  
HETATM   13  C   UNL     1     -11.662  14.121  67.949  1.00  0.00    -0.402 A  
HETATM   14  C   UNL     1     -11.132  15.194  67.236  1.00  0.00    -0.332 A  
HETATM   15  C   UNL     1     -10.545  16.250  67.912  1.00  0.00    -0.318 A  
HETATM   16  C   UNL     1     -10.523  16.251  69.305  1.00  0.00    -0.285 A  
HETATM   17  C   UNL     1     -11.104  15.205  70.043  1.00  0.00    -0.275 A  
BRANCH  17  18
HETATM   18  O   UNL     1     -11.175  15.221  71.425  1.00  0.00    -0.356 OA 
BRANCH  18  19
HETATM   19  C   UNL     1     -12.228  16.041  71.951  1.00  0.00    -0.489 C  
BRANCH  19  20
HETATM   20  C   UNL     1     -12.907  15.368  73.105  1.00  0.00    -0.606 C  
HETATM   21  C   UNL     1     -12.783  15.781  74.375  1.00  0.00    -0.530 C  
ENDBRANCH  19  20
ENDBRANCH  18  19
ENDBRANCH  17  18
ENDBRANCH  11  12
ENDBRANCH  10  11
ENDBRANCH   7  10
ENDBRANCH   6   7
ENDBRANCH   4   6
ENDBRANCH   2   4
TORSDOF 9
ENDMDL
MODEL       88
REMARK 921   NORMALIZED FREE ENERGY PREDICTED BY IDOCK:   -4.46 KCAL/MOL
REMARK 922        TOTAL FREE ENERGY PREDICTED BY IDOCK:   -7.58 KCAL/MOL
REMARK 923 INTER-LIGAND FREE ENERGY PREDICTED BY IDOCK:   -6.94 KCAL/MOL
REMARK 924 INTRA-LIGAND FREE ENERGY PREDICTED BY IDOCK:   -0.64 KCAL/MOL
REMARK 927      BINDING AFFINITY PREDICTED BY RF-SCORE:    0.00 PKD
ROOT
HETATM    1  C   UNL     1     -13.785  13.567  72.547  1.00  0.00    -0.664 C  
HETATM    2  C   UNL     1     -13.977  15.045  72.204  1.00  0.00    -0.507 C  
HETATM    3  C   UNL     1     -13.206  15.905  73.214  1.00  0.00    -0.698 C  
ENDROOT
BRANCH   2   4
HETATM    4  N   UNL     1     -13.526  15.272  70.826  1.00  0.00    -0.711 NA 
HETATM    5  H   UNL     1     -13.003  16.144  70.752  1.00  0.00     0.000 HD 
BRANCH   4   6
HETATM    6  C   UNL     1     -12.751  14.146  70.288  1.00  0.00    -0.229 C  
BRANCH   6   7
HETATM    7  C   UNL     1     -11.711  14.604  69.244  1.00  0.00    -0.312 C  
HETATM    8  O   UNL     1     -10.404  14.651  69.827  1.00  0.00    -0.427 OA 
HETATM    9  H   UNL     1      -9.763  14.933  69.184  1.00  0.00     0.000 HD 
BRANCH   7  10
HETATM   10  C   UNL     1     -11.724  13.644  68.037  1.00  0.00    -0.352 C  
BRANCH  10  11
HETATM   11  O   UNL     1     -10.530  12.858  67.927  1.00  0.00    -0.215 OA 
BRANCH  11  12
HETATM   12  C   UNL     1     -10.605  11.528  68.274  1.00  0.00    -0.200 A  
HETATM   13  C   UNL     1     -10.771  11.092  69.597  1.00  0.00    -0.193 A  
HETATM   14  C   UNL     1     -10.808   9.735  69.911  1.00  0.00    -0.306 A  
HETATM   15  C   UNL     1     -10.654   8.790  68.911  1.00  0.00    -0.178 A  
HETATM   16  C   UNL     1     -10.503   9.202  67.589  1.00  0.00    -0.323 A  
HETATM   17  C   UNL     1     -10.522  10.564  67.244  1.00  0.00    -0.250 A  
BRANCH  17  18
HETATM   18  O   UNL     1     -10.463  11.000  65.932  1.00  0.00    -0.254 OA 
BRANCH  18  19
HETATM   19  C   UNL     1      -9.677  10.166  65.070  1.00  0.00    -0.318 C  
BRANCH  19  20
HETATM   20  C   UNL     1      -9.831  10.580  63.637  1.00  0.00    -0.354 C  
HETATM   21  C   UNL     1     -10.267  11.791  63.263  1.00  0.00    -0.452 C  
ENDBRANCH  19  20
ENDBRANCH  18  19
ENDBRANCH  17  18
ENDBRANCH  11  12
ENDBRANCH  10  11
ENDBRANCH   7  10
ENDBRANCH   6   7
ENDBRANCH   4   6
ENDBRANCH   2   4
TORSDOF 9
ENDMDL
MODEL       89
REMARK 921   NORMALIZED FREE ENERGY PREDICTED BY IDOCK:   -4.45 KCAL/MOL
REMARK 922        TOTAL FREE ENERGY PREDICTED BY IDOCK:   -7.57 KCAL/MOL
REMARK 923 INTER-LIGAND FREE ENERGY PREDICTED BY IDOCK:   -6.64 KCAL/MOL
REMARK 924 INTRA-LIGAND FREE ENERGY PREDICTED BY IDOCK:   -0.93 KCAL/MOL
REMARK 927      BINDING AFFINITY PREDICTED BY RF-SCORE:    0.00 PKD
ROOT
HETATM    1  C   UNL     1     -10.424  19.769  65.719  1.00  0.00    -0.545 C  
HETATM    2  C   UNL     1     -10.190  19.785  67.230  1.00  0.00    -0.438 C  
HETATM    3  C   UNL     1     -10.910  18.592  67.869  1.00  0.00    -0.240 C  
ENDROOT
BRANCH   2   4
HETATM    4  N   UNL     1      -8.744  19.759  67.483  1.00  0.00    -0.320 NA 
HETATM    5  H   UNL     1      -8.544  19.409  68.420  1.00  0.00     0.000 HD 
BRANCH   4   6
HETATM    6  C   UNL     1      -8.002  19.000  66.467  1.00  0.00    -0.282 C  
BRANCH   6   7
HETATM    7  C   UNL     1      -7.511  17.639  67.003  1.00  0.00    -0.199 C  
HETATM    8  O   UNL     1      -7.725  17.550  68.416  1.00  0.00    -0.240 OA 
HETATM    9  H   UNL     1      -7.423  16.712  68.746  1.00  0.00     0.000 HD 
BRANCH   7  10
HETATM   10  C   UNL     1      -8.247  16.494  66.277  1.00  0.00    -0.325 C  
BRANCH  10  11
HETATM   11  O   UNL     1      -9.143  15.769  67.131  1.00  0.00    -0.200 OA 
BRANCH  11  12
HETATM   12  C   UNL     1     -10.215  15.137  66.542  1.00  0.00    -0.276 A  
HETATM   13  C   UNL     1     -10.435  15.136  65.157  1.00  0.00    -0.437 A  
HETATM   14  C   UNL     1     -11.552  14.513  64.603  1.00  0.00    -0.413 A  
HETATM   15  C   UNL     1     -12.482  13.903  65.427  1.00  0.00    -0.528 A  
HETATM   16  C   UNL     1     -12.276  13.881  66.804  1.00  0.00    -0.438 A  
HETATM   17  C   UNL     1     -11.126  14.452  67.377  1.00  0.00    -0.308 A  
BRANCH  17  18
HETATM   18  O   UNL     1     -10.850  14.368  68.730  1.00  0.00    -0.236 OA 
BRANCH  18  19
HETATM   19  C   UNL     1     -11.928  13.845  69.519  1.00  0.00    -0.343 C  
BRANCH  19  20
HETATM   20  C   UNL     1     -12.304  14.799  70.612  1.00  0.00    -0.401 C  
HETATM   21  C   UNL     1     -11.426  15.615  71.214  1.00  0.00    -0.469 C  
ENDBRANCH  19  20
ENDBRANCH  18  19
ENDBRANCH  17  18
ENDBRANCH  11  12
ENDBRANCH  10  11
ENDBRANCH   7  10
ENDBRANCH   6   7
ENDBRANCH   4   6
ENDBRANCH   2   4
TORSDOF 9
ENDMDL
MODEL       90
REMARK 921   NORMALIZED FREE ENERGY PREDICTED BY IDOCK:   -4.44 KCAL/MOL
REMARK 922        TOTAL FREE ENERGY PREDICTED BY IDOCK:   -7.55 KCAL/MOL
REMARK 923 INTER-LIGAND FREE ENERGY PREDICTED BY IDOCK:   -6.88 KCAL/MOL
REMARK 924 INTRA-LIGAND FREE ENERGY PREDICTED BY IDOCK:   -0.67 KCAL/MOL
REMARK 927      BINDING AFFINITY PREDICTED BY RF-SCORE:    0.00 PKD
ROOT
HETATM    1  C   UNL     1     -12.080  11.971  63.371  1.00  0.00    -0.597 C  
HETATM    2  C   UNL     1     -10.820  11.707  64.197  1.00  0.00    -0.372 C  
HETATM    3  C   UNL     1      -9.863  10.817  63.394  1.00  0.00    -0.400 C  
ENDROOT
BRANCH   2   4
HETATM    4  N   UNL     1     -10.211  12.994  64.553  1.00  0.00    -0.547 NA 
HETATM    5  H   UNL     1     -10.497  13.725  63.902  1.00  0.00     0.000 HD 
BRANCH   4   6
HETATM    6  C   UNL     1     -10.485  13.389  65.941  1.00  0.00    -0.287 C  
BRANCH   6   7
HETATM    7  C   UNL     1     -11.464  14.579  66.024  1.00  0.00    -0.348 C  
HETATM    8  O   UNL     1     -12.273  14.482  67.201  1.00  0.00    -0.552 OA 
HETATM    9  H   UNL     1     -12.876  15.215  67.251  1.00  0.00     0.000 HD 
BRANCH   7  10
HETATM   10  C   UNL     1     -10.676  15.905  66.024  1.00  0.00    -0.284 C  
BRANCH  10  11
HETATM   11  O   UNL     1     -10.783  16.625  67.259  1.00  0.00    -0.306 OA 
BRANCH  11  12
HETATM   12  C   UNL     1     -10.182  17.862  67.333  1.00  0.00    -0.360 A  
HETATM   13  C   UNL     1     -10.690  18.997  66.685  1.00  0.00    -0.429 A  
HETATM   14  C   UNL     1     -10.033  20.224  66.756  1.00  0.00    -0.587 A  
HETATM   15  C   UNL     1      -8.843  20.331  67.455  1.00  0.00    -0.442 A  
HETATM   16  C   UNL     1      -8.328  19.219  68.117  1.00  0.00    -0.358 A  
HETATM   17  C   UNL     1      -9.006  17.987  68.106  1.00  0.00    -0.283 A  
BRANCH  17  18
HETATM   18  O   UNL     1      -8.567  16.891  68.827  1.00  0.00    -0.252 OA 
BRANCH  18  19
HETATM   19  C   UNL     1      -7.140  16.766  68.897  1.00  0.00    -0.215 C  
BRANCH  19  20
HETATM   20  C   UNL     1      -6.685  15.467  68.302  1.00  0.00    -0.122 C  
HETATM   21  C   UNL     1      -7.254  14.911  67.223  1.00  0.00    -0.142 C  
ENDBRANCH  19  20
ENDBRANCH  18  19
ENDBRANCH  17  18
ENDBRANCH  11  12
ENDBRANCH  10  11
ENDBRANCH   7  10
ENDBRANCH   6   7
ENDBRANCH   4   6
ENDBRANCH   2   4
TORSDOF 9
ENDMDL
MODEL       91
REMARK 921   NORMALIZED FREE ENERGY PREDICTED BY IDOCK:   -4.44 KCAL/MOL
REMARK 922        TOTAL FREE ENERGY PREDICTED BY IDOCK:   -7.55 KCAL/MOL
REMARK 923 INTER-LIGAND FREE ENERGY PREDICTED BY IDOCK:   -6.84 KCAL/MOL
REMARK 924 INTRA-LIGAND FREE ENERGY PREDICTED BY IDOCK:   -0.71 KCAL/MOL
REMARK 927      BINDING AFFINITY PREDICTED BY RF-SCORE:    0.00 PKD
ROOT
HETATM    1  C   UNL     1     -11.123   5.988  70.022  1.00  0.00    -0.451 C  
HETATM    2  C   UNL     1     -12.000   6.952  70.824  1.00  0.00    -0.373 C  
HETATM    3  C   UNL     1     -11.758   6.732  72.322  1.00  0.00    -0.300 C  
ENDROOT
BRANCH   2   4
HETATM    4  N   UNL     1     -11.691   8.326  70.410  1.00  0.00    -0.473 NA 
HETATM    5  H   UNL     1     -12.242   8.594  69.594  1.00  0.00     0.000 HD 
BRANCH   4   6
HETATM    6  C   UNL     1     -11.853   9.299  71.498  1.00  0.00    -0.374 C  
BRANCH   6   7
HETATM    7  C   UNL     1     -12.863  10.409  71.138  1.00  0.00    -0.414 C  
HETATM    8  O   UNL     1     -13.378  11.023  72.325  1.00  0.00    -0.633 OA 
HETATM    9  H   UNL     1     -14.000  11.706  72.102  1.00  0.00     0.000 HD 
BRANCH   7  10
HETATM   10  C   UNL     1     -12.183  11.464  70.241  1.00  0.00    -0.349 C  
BRANCH  10  11
HETATM   11  O   UNL     1     -12.179  11.106  68.852  1.00  0.00    -0.522 OA 
BRANCH  11  12
HETATM   12  C   UNL     1     -11.581  11.976  67.969  1.00  0.00    -0.342 A  
HETATM   13  C   UNL     1     -11.952  13.324  67.856  1.00  0.00    -0.349 A  
HETATM   14  C   UNL     1     -11.345  14.164  66.925  1.00  0.00    -0.343 A  
HETATM   15  C   UNL     1     -10.375  13.665  66.073  1.00  0.00    -0.305 A  
HETATM   16  C   UNL     1      -9.982  12.333  66.178  1.00  0.00    -0.260 A  
HETATM   17  C   UNL     1     -10.540  11.485  67.150  1.00  0.00    -0.237 A  
BRANCH  17  18
HETATM   18  O   UNL     1     -10.108  10.184  67.337  1.00  0.00    -0.185 OA 
BRANCH  18  19
HETATM   19  C   UNL     1      -9.833   9.474  66.122  1.00  0.00    -0.272 C  
BRANCH  19  20
HETATM   20  C   UNL     1      -9.786   7.995  66.362  1.00  0.00    -0.255 C  
HETATM   21  C   UNL     1     -10.756   7.321  66.997  1.00  0.00    -0.406 C  
ENDBRANCH  19  20
ENDBRANCH  18  19
ENDBRANCH  17  18
ENDBRANCH  11  12
ENDBRANCH  10  11
ENDBRANCH   7  10
ENDBRANCH   6   7
ENDBRANCH   4   6
ENDBRANCH   2   4
TORSDOF 9
ENDMDL
MODEL       92
REMARK 921   NORMALIZED FREE ENERGY PREDICTED BY IDOCK:   -4.44 KCAL/MOL
REMARK 922        TOTAL FREE ENERGY PREDICTED BY IDOCK:   -7.55 KCAL/MOL
REMARK 923 INTER-LIGAND FREE ENERGY PREDICTED BY IDOCK:   -6.61 KCAL/MOL
REMARK 924 INTRA-LIGAND FREE ENERGY PREDICTED BY IDOCK:   -0.93 KCAL/MOL
REMARK 927      BINDING AFFINITY PREDICTED BY RF-SCORE:    0.00 PKD
ROOT
HETATM    1  C   UNL     1      -9.714   5.622  66.819  1.00  0.00    -0.169 C  
HETATM    2  C   UNL     1     -10.908   6.181  67.595  1.00  0.00    -0.332 C  
HETATM    3  C   UNL     1     -10.622   6.094  69.099  1.00  0.00    -0.345 C  
ENDROOT
BRANCH   2   4
HETATM    4  N   UNL     1     -11.151   7.560  67.157  1.00  0.00    -0.493 NA 
HETATM    5  H   UNL     1     -11.714   8.066  67.840  1.00  0.00     0.000 HD 
BRANCH   4   6
HETATM    6  C   UNL     1      -9.912   8.288  66.851  1.00  0.00    -0.273 C  
BRANCH   6   7
HETATM    7  C   UNL     1      -9.582   9.346  67.924  1.00  0.00    -0.134 C  
HETATM    8  O   UNL     1      -8.690  10.333  67.395  1.00  0.00    -0.128 OA 
HETATM    9  H   UNL     1      -8.486  10.986  68.056  1.00  0.00     0.000 HD 
BRANCH   7  10
HETATM   10  C   UNL     1     -10.882  10.011  68.420  1.00  0.00    -0.235 C  
BRANCH  10  11
HETATM   11  O   UNL     1     -11.568  10.744  67.396  1.00  0.00    -0.485 OA 
BRANCH  11  12
HETATM   12  C   UNL     1     -11.503  12.118  67.440  1.00  0.00    -0.345 A  
HETATM   13  C   UNL     1     -10.926  12.822  68.507  1.00  0.00    -0.288 A  
HETATM   14  C   UNL     1     -10.911  14.215  68.530  1.00  0.00    -0.271 A  
HETATM   15  C   UNL     1     -11.495  14.929  67.498  1.00  0.00    -0.361 A  
HETATM   16  C   UNL     1     -12.062  14.250  66.422  1.00  0.00    -0.442 A  
HETATM   17  C   UNL     1     -12.035  12.846  66.352  1.00  0.00    -0.395 A  
BRANCH  17  18
HETATM   18  O   UNL     1     -12.509  12.148  65.256  1.00  0.00    -0.520 OA 
BRANCH  18  19
HETATM   19  C   UNL     1     -12.038  12.641  63.994  1.00  0.00    -0.462 C  
BRANCH  19  20
HETATM   20  C   UNL     1     -10.742  11.992  63.614  1.00  0.00    -0.506 C  
HETATM   21  C   UNL     1     -10.290  10.862  64.180  1.00  0.00    -0.432 C  
ENDBRANCH  19  20
ENDBRANCH  18  19
ENDBRANCH  17  18
ENDBRANCH  11  12
ENDBRANCH  10  11
ENDBRANCH   7  10
ENDBRANCH   6   7
ENDBRANCH   4   6
ENDBRANCH   2   4
TORSDOF 9
ENDMDL
MODEL       93
REMARK 921   NORMALIZED FREE ENERGY PREDICTED BY IDOCK:   -4.43 KCAL/MOL
REMARK 922        TOTAL FREE ENERGY PREDICTED BY IDOCK:   -7.54 KCAL/MOL
REMARK 923 INTER-LIGAND FREE ENERGY PREDICTED BY IDOCK:   -6.52 KCAL/MOL
REMARK 924 INTRA-LIGAND FREE ENERGY PREDICTED BY IDOCK:   -1.02 KCAL/MOL
REMARK 927      BINDING AFFINITY PREDICTED BY RF-SCORE:    0.00 PKD
ROOT
HETATM    1  C   UNL     1     -12.114  12.367  63.642  1.00  0.00    -0.648 C  
HETATM    2  C   UNL     1     -11.072  11.384  64.179  1.00  0.00    -0.308 C  
HETATM    3  C   UNL     1      -9.740  11.608  63.452  1.00  0.00    -0.369 C  
ENDROOT
BRANCH   2   4
HETATM    4  N   UNL     1     -10.949  11.575  65.629  1.00  0.00    -0.270 NA 
HETATM    5  H   UNL     1     -10.574  10.738  66.077  1.00  0.00     0.000 HD 
BRANCH   4   6
HETATM    6  C   UNL     1     -10.158  12.761  65.983  1.00  0.00    -0.268 C  
BRANCH   6   7
HETATM    7  C   UNL     1      -9.000  12.421  66.945  1.00  0.00    -0.212 C  
HETATM    8  O   UNL     1      -7.889  13.295  66.722  1.00  0.00    -0.382 OA 
HETATM    9  H   UNL     1      -7.176  13.086  67.314  1.00  0.00     0.000 HD 
BRANCH   7  10
HETATM   10  C   UNL     1      -9.484  12.533  68.406  1.00  0.00    -0.167 C  
BRANCH  10  11
HETATM   11  O   UNL     1     -10.910  12.450  68.536  1.00  0.00    -0.225 OA 
BRANCH  11  12
HETATM   12  C   UNL     1     -11.415  11.699  69.574  1.00  0.00    -0.304 A  
HETATM   13  C   UNL     1     -11.066  10.357  69.786  1.00  0.00    -0.352 A  
HETATM   14  C   UNL     1     -11.627   9.621  70.828  1.00  0.00    -0.395 A  
HETATM   15  C   UNL     1     -12.564  10.207  71.661  1.00  0.00    -0.533 A  
HETATM   16  C   UNL     1     -12.913  11.542  71.477  1.00  0.00    -0.485 A  
HETATM   17  C   UNL     1     -12.316  12.318  70.468  1.00  0.00    -0.264 A  
BRANCH  17  18
HETATM   18  O   UNL     1     -12.577  13.669  70.317  1.00  0.00    -0.277 OA 
BRANCH  18  19
HETATM   19  C   UNL     1     -12.115  14.483  71.403  1.00  0.00    -0.354 C  
BRANCH  19  20
HETATM   20  C   UNL     1     -11.091  15.472  70.935  1.00  0.00    -0.387 C  
HETATM   21  C   UNL     1     -10.975  15.864  69.658  1.00  0.00    -0.319 C  
ENDBRANCH  19  20
ENDBRANCH  18  19
ENDBRANCH  17  18
ENDBRANCH  11  12
ENDBRANCH  10  11
ENDBRANCH   7  10
ENDBRANCH   6   7
ENDBRANCH   4   6
ENDBRANCH   2   4
TORSDOF 9
ENDMDL
MODEL       94
REMARK 921   NORMALIZED FREE ENERGY PREDICTED BY IDOCK:   -4.42 KCAL/MOL
REMARK 922        TOTAL FREE ENERGY PREDICTED BY IDOCK:   -7.52 KCAL/MOL
REMARK 923 INTER-LIGAND FREE ENERGY PREDICTED BY IDOCK:   -6.73 KCAL/MOL
REMARK 924 INTRA-LIGAND FREE ENERGY PREDICTED BY IDOCK:   -0.79 KCAL/MOL
REMARK 927      BINDING AFFINITY PREDICTED BY RF-SCORE:    0.00 PKD
ROOT
HETATM    1  C   UNL     1     -10.532   9.298  67.343  1.00  0.00    -0.340 C  
HETATM    2  C   UNL     1     -10.514  10.805  67.078  1.00  0.00    -0.247 C  
HETATM    3  C   UNL     1     -10.416  11.055  65.569  1.00  0.00    -0.302 C  
ENDROOT
BRANCH   2   4
HETATM    4  N   UNL     1     -11.722  11.400  67.661  1.00  0.00    -0.594 NA 
HETATM    5  H   UNL     1     -11.731  11.291  68.675  1.00  0.00     0.000 HD 
BRANCH   4   6
HETATM    6  C   UNL     1     -11.904  12.808  67.281  1.00  0.00    -0.350 C  
BRANCH   6   7
HETATM    7  C   UNL     1     -11.865  13.748  68.504  1.00  0.00    -0.370 C  
HETATM    8  O   UNL     1     -10.947  13.255  69.486  1.00  0.00    -0.449 OA 
HETATM    9  H   UNL     1     -10.924  13.835  70.239  1.00  0.00     0.000 HD 
BRANCH   7  10
HETATM   10  C   UNL     1     -11.461  15.168  68.058  1.00  0.00    -0.342 C  
BRANCH  10  11
HETATM   11  O   UNL     1     -10.727  15.186  66.826  1.00  0.00    -0.300 OA 
BRANCH  11  12
HETATM   12  C   UNL     1      -9.398  15.541  66.879  1.00  0.00    -0.233 A  
HETATM   13  C   UNL     1      -8.400  14.691  67.377  1.00  0.00    -0.223 A  
HETATM   14  C   UNL     1      -7.070  15.101  67.446  1.00  0.00    -0.219 A  
HETATM   15  C   UNL     1      -6.719  16.377  67.042  1.00  0.00    -0.239 A  
HETATM   16  C   UNL     1      -7.693  17.233  66.531  1.00  0.00    -0.325 A  
HETATM   17  C   UNL     1      -9.029  16.817  66.399  1.00  0.00    -0.289 A  
BRANCH  17  18
HETATM   18  O   UNL     1      -9.999  17.612  65.814  1.00  0.00    -0.544 OA 
BRANCH  18  19
HETATM   19  C   UNL     1     -10.628  18.533  66.716  1.00  0.00    -0.354 C  
BRANCH  19  20
HETATM   20  C   UNL     1     -10.311  19.950  66.343  1.00  0.00    -0.611 C  
HETATM   21  C   UNL     1      -9.471  20.726  67.043  1.00  0.00    -0.396 C  
ENDBRANCH  19  20
ENDBRANCH  18  19
ENDBRANCH  17  18
ENDBRANCH  11  12
ENDBRANCH  10  11
ENDBRANCH   7  10
ENDBRANCH   6   7
ENDBRANCH   4   6
ENDBRANCH   2   4
TORSDOF 9
ENDMDL
MODEL       95
REMARK 921   NORMALIZED FREE ENERGY PREDICTED BY IDOCK:   -4.41 KCAL/MOL
REMARK 922        TOTAL FREE ENERGY PREDICTED BY IDOCK:   -7.50 KCAL/MOL
REMARK 923 INTER-LIGAND FREE ENERGY PREDICTED BY IDOCK:   -6.36 KCAL/MOL
REMARK 924 INTRA-LIGAND FREE ENERGY PREDICTED BY IDOCK:   -1.14 KCAL/MOL
REMARK 927      BINDING AFFINITY PREDICTED BY RF-SCORE:    0.00 PKD
ROOT
HETATM    1  C   UNL     1      -9.684   8.952  68.383  1.00  0.00    -0.175 C  
HETATM    2  C   UNL     1      -9.092   9.682  67.177  1.00  0.00    -0.134 C  
HETATM    3  C   UNL     1     -10.023   9.509  65.971  1.00  0.00    -0.348 C  
ENDROOT
BRANCH   2   4
HETATM    4  N   UNL     1      -8.898  11.094  67.529  1.00  0.00    -0.138 NA 
HETATM    5  H   UNL     1      -7.916  11.293  67.715  1.00  0.00     0.000 HD 
BRANCH   4   6
HETATM    6  C   UNL     1      -9.439  12.013  66.518  1.00  0.00    -0.228 C  
BRANCH   6   7
HETATM    7  C   UNL     1     -10.309  13.121  67.147  1.00  0.00    -0.247 C  
HETATM    8  O   UNL     1     -10.717  14.064  66.150  1.00  0.00    -0.285 OA 
HETATM    9  H   UNL     1     -11.253  14.747  66.538  1.00  0.00     0.000 HD 
BRANCH   7  10
HETATM   10  C   UNL     1     -11.543  12.494  67.828  1.00  0.00    -0.343 C  
BRANCH  10  11
HETATM   11  O   UNL     1     -11.284  12.051  69.167  1.00  0.00    -0.234 OA 
BRANCH  11  12
HETATM   12  C   UNL     1     -12.017  12.624  70.182  1.00  0.00    -0.299 A  
HETATM   13  C   UNL     1     -12.093  14.010  70.381  1.00  0.00    -0.426 A  
HETATM   14  C   UNL     1     -12.818  14.550  71.442  1.00  0.00    -0.406 A  
HETATM   15  C   UNL     1     -13.457  13.711  72.338  1.00  0.00    -0.685 A  
HETATM   16  C   UNL     1     -13.406  12.332  72.151  1.00  0.00    -0.473 A  
HETATM   17  C   UNL     1     -12.729  11.771  71.054  1.00  0.00    -0.275 A  
BRANCH  17  18
HETATM   18  O   UNL     1     -12.735  10.412  70.793  1.00  0.00    -0.340 OA 
BRANCH  18  19
HETATM   19  C   UNL     1     -13.235   9.608  71.871  1.00  0.00    -0.446 C  
BRANCH  19  20
HETATM   20  C   UNL     1     -12.205   8.616  72.323  1.00  0.00    -0.447 C  
HETATM   21  C   UNL     1     -10.900   8.725  72.032  1.00  0.00    -0.428 C  
ENDBRANCH  19  20
ENDBRANCH  18  19
ENDBRANCH  17  18
ENDBRANCH  11  12
ENDBRANCH  10  11
ENDBRANCH   7  10
ENDBRANCH   6   7
ENDBRANCH   4   6
ENDBRANCH   2   4
TORSDOF 9
ENDMDL
MODEL       96
REMARK 921   NORMALIZED FREE ENERGY PREDICTED BY IDOCK:   -4.40 KCAL/MOL
REMARK 922        TOTAL FREE ENERGY PREDICTED BY IDOCK:   -7.48 KCAL/MOL
REMARK 923 INTER-LIGAND FREE ENERGY PREDICTED BY IDOCK:   -6.82 KCAL/MOL
REMARK 924 INTRA-LIGAND FREE ENERGY PREDICTED BY IDOCK:   -0.67 KCAL/MOL
REMARK 927      BINDING AFFINITY PREDICTED BY RF-SCORE:    0.00 PKD
ROOT
HETATM    1  C   UNL     1     -14.235  14.774  71.769  1.00  0.00    -0.629 C  
HETATM    2  C   UNL     1     -12.953  15.333  71.151  1.00  0.00    -0.454 C  
HETATM    3  C   UNL     1     -11.989  15.748  72.269  1.00  0.00    -0.592 C  
ENDROOT
BRANCH   2   4
HETATM    4  N   UNL     1     -12.372  14.314  70.269  1.00  0.00    -0.338 NA 
HETATM    5  H   UNL     1     -13.033  13.556  70.103  1.00  0.00     0.000 HD 
BRANCH   4   6
HETATM    6  C   UNL     1     -11.878  14.871  69.002  1.00  0.00    -0.301 C  
BRANCH   6   7
HETATM    7  C   UNL     1     -11.957  13.848  67.850  1.00  0.00    -0.358 C  
HETATM    8  O   UNL     1     -12.628  14.417  66.720  1.00  0.00    -0.540 OA 
HETATM    9  H   UNL     1     -12.677  13.787  66.010  1.00  0.00     0.000 HD 
BRANCH   7  10
HETATM   10  C   UNL     1     -10.537  13.394  67.456  1.00  0.00    -0.250 C  
BRANCH  10  11
HETATM   11  O   UNL     1     -10.017  12.363  68.307  1.00  0.00    -0.216 OA 
BRANCH  11  12
HETATM   12  C   UNL     1     -10.083  11.065  67.853  1.00  0.00    -0.178 A  
HETATM   13  C   UNL     1      -9.750  10.697  66.541  1.00  0.00    -0.236 A  
HETATM   14  C   UNL     1      -9.864   9.377  66.110  1.00  0.00    -0.356 A  
HETATM   15  C   UNL     1     -10.336   8.406  66.976  1.00  0.00    -0.385 A  
HETATM   16  C   UNL     1     -10.659   8.748  68.287  1.00  0.00    -0.194 A  
HETATM   17  C   UNL     1     -10.496  10.062  68.758  1.00  0.00    -0.208 A  
BRANCH  17  18
HETATM   18  O   UNL     1     -10.724  10.413  70.077  1.00  0.00    -0.277 OA 
BRANCH  18  19
HETATM   19  C   UNL     1     -12.098  10.679  70.387  1.00  0.00    -0.341 C  
BRANCH  19  20
HETATM   20  C   UNL     1     -12.481  10.068  71.701  1.00  0.00    -0.513 C  
HETATM   21  C   UNL     1     -13.378   9.078  71.820  1.00  0.00    -0.453 C  
ENDBRANCH  19  20
ENDBRANCH  18  19
ENDBRANCH  17  18
ENDBRANCH  11  12
ENDBRANCH  10  11
ENDBRANCH   7  10
ENDBRANCH   6   7
ENDBRANCH   4   6
ENDBRANCH   2   4
TORSDOF 9
ENDMDL
MODEL       97
REMARK 921   NORMALIZED FREE ENERGY PREDICTED BY IDOCK:   -4.39 KCAL/MOL
REMARK 922        TOTAL FREE ENERGY PREDICTED BY IDOCK:   -7.48 KCAL/MOL
REMARK 923 INTER-LIGAND FREE ENERGY PREDICTED BY IDOCK:   -6.66 KCAL/MOL
REMARK 924 INTRA-LIGAND FREE ENERGY PREDICTED BY IDOCK:   -0.82 KCAL/MOL
REMARK 927      BINDING AFFINITY PREDICTED BY RF-SCORE:    0.00 PKD
ROOT
HETATM    1  C   UNL     1     -12.760  11.403  71.169  1.00  0.00    -0.479 C  
HETATM    2  C   UNL     1     -11.686  11.809  70.158  1.00  0.00    -0.269 C  
HETATM    3  C   UNL     1     -12.116  11.366  68.754  1.00  0.00    -0.256 C  
ENDROOT
BRANCH   2   4
HETATM    4  N   UNL     1     -11.483  13.260  70.243  1.00  0.00    -0.507 NA 
HETATM    5  H   UNL     1     -11.366  13.667  69.315  1.00  0.00     0.000 HD 
BRANCH   4   6
HETATM    6  C   UNL     1     -12.551  13.942  70.986  1.00  0.00    -0.371 C  
BRANCH   6   7
HETATM    7  C   UNL     1     -12.658  15.434  70.609  1.00  0.00    -0.439 C  
HETATM    8  O   UNL     1     -12.428  16.259  71.757  1.00  0.00    -0.575 OA 
HETATM    9  H   UNL     1     -12.494  17.178  71.524  1.00  0.00     0.000 HD 
BRANCH   7  10
HETATM   10  C   UNL     1     -11.641  15.767  69.498  1.00  0.00    -0.363 C  
BRANCH  10  11
HETATM   11  O   UNL     1     -10.316  15.999  69.997  1.00  0.00    -0.281 OA 
BRANCH  11  12
HETATM   12  C   UNL     1      -9.280  15.983  69.091  1.00  0.00    -0.247 A  
HETATM   13  C   UNL     1      -8.510  14.840  68.832  1.00  0.00    -0.159 A  
HETATM   14  C   UNL     1      -7.446  14.874  67.933  1.00  0.00    -0.153 A  
HETATM   15  C   UNL     1      -7.117  16.059  67.296  1.00  0.00    -0.238 A  
HETATM   16  C   UNL     1      -7.878  17.202  67.529  1.00  0.00    -0.190 A  
HETATM   17  C   UNL     1      -8.991  17.174  68.387  1.00  0.00    -0.259 A  
BRANCH  17  18
HETATM   18  O   UNL     1      -9.817  18.269  68.569  1.00  0.00    -0.343 OA 
BRANCH  18  19
HETATM   19  C   UNL     1      -9.212  19.525  68.234  1.00  0.00    -0.351 C  
BRANCH  19  20
HETATM   20  C   UNL     1      -9.985  20.222  67.156  1.00  0.00    -0.593 C  
HETATM   21  C   UNL     1     -10.659  19.573  66.195  1.00  0.00    -0.585 C  
ENDBRANCH  19  20
ENDBRANCH  18  19
ENDBRANCH  17  18
ENDBRANCH  11  12
ENDBRANCH  10  11
ENDBRANCH   7  10
ENDBRANCH   6   7
ENDBRANCH   4   6
ENDBRANCH   2   4
TORSDOF 9
ENDMDL
MODEL       98
REMARK 921   NORMALIZED FREE ENERGY PREDICTED BY IDOCK:   -4.38 KCAL/MOL
REMARK 922        TOTAL FREE ENERGY PREDICTED BY IDOCK:   -7.46 KCAL/MOL
REMARK 923 INTER-LIGAND FREE ENERGY PREDICTED BY IDOCK:   -6.36 KCAL/MOL
REMARK 924 INTRA-LIGAND FREE ENERGY PREDICTED BY IDOCK:   -1.10 KCAL/MOL
REMARK 927      BINDING AFFINITY PREDICTED BY RF-SCORE:    0.00 PKD
ROOT
HETATM    1  C   UNL     1     -10.239   9.229  66.758  1.00  0.00    -0.325 C  
HETATM    2  C   UNL     1      -9.336  10.459  66.880  1.00  0.00    -0.162 C  
HETATM    3  C   UNL     1      -7.977  10.036  67.451  1.00  0.00    -0.106 C  
ENDROOT
BRANCH   2   4
HETATM    4  N   UNL     1      -9.211  11.085  65.559  1.00  0.00    -0.209 NA 
HETATM    5  H   UNL     1      -8.286  10.919  65.162  1.00  0.00     0.000 HD 
BRANCH   4   6
HETATM    6  C   UNL     1     -10.267  10.665  64.628  1.00  0.00    -0.334 C  
BRANCH   6   7
HETATM    7  C   UNL     1     -10.957  11.869  63.953  1.00  0.00    -0.406 C  
HETATM    8  O   UNL     1     -11.868  11.422  62.942  1.00  0.00    -0.874 OA 
HETATM    9  H   UNL     1     -12.293  12.164  62.527  1.00  0.00     0.000 HD 
BRANCH   7  10
HETATM   10  C   UNL     1     -11.702  12.706  65.013  1.00  0.00    -0.359 C  
BRANCH  10  11
HETATM   11  O   UNL     1     -10.832  13.548  65.781  1.00  0.00    -0.273 OA 
BRANCH  11  12
HETATM   12  C   UNL     1     -11.206  13.846  67.072  1.00  0.00    -0.313 A  
HETATM   13  C   UNL     1     -11.675  12.880  67.974  1.00  0.00    -0.401 A  
HETATM   14  C   UNL     1     -12.077  13.229  69.262  1.00  0.00    -0.291 A  
HETATM   15  C   UNL     1     -12.042  14.554  69.661  1.00  0.00    -0.369 A  
HETATM   16  C   UNL     1     -11.567  15.527  68.785  1.00  0.00    -0.390 A  
HETATM   17  C   UNL     1     -11.102  15.188  67.503  1.00  0.00    -0.319 A  
BRANCH  17  18
HETATM   18  O   UNL     1     -10.543  16.118  66.645  1.00  0.00    -0.311 OA 
BRANCH  18  19
HETATM   19  C   UNL     1     -10.254  17.383  67.256  1.00  0.00    -0.324 C  
BRANCH  19  20
HETATM   20  C   UNL     1      -8.797  17.713  67.145  1.00  0.00    -0.251 C  
HETATM   21  C   UNL     1      -7.947  17.041  66.354  1.00  0.00    -0.342 C  
ENDBRANCH  19  20
ENDBRANCH  18  19
ENDBRANCH  17  18
ENDBRANCH  11  12
ENDBRANCH  10  11
ENDBRANCH   7  10
ENDBRANCH   6   7
ENDBRANCH   4   6
ENDBRANCH   2   4
TORSDOF 9
ENDMDL
MODEL       99
REMARK 921   NORMALIZED FREE ENERGY PREDICTED BY IDOCK:   -4.38 KCAL/MOL
REMARK 922        TOTAL FREE ENERGY PREDICTED BY IDOCK:   -7.46 KCAL/MOL
REMARK 923 INTER-LIGAND FREE ENERGY PREDICTED BY IDOCK:   -6.79 KCAL/MOL
REMARK 924 INTRA-LIGAND FREE ENERGY PREDICTED BY IDOCK:   -0.67 KCAL/MOL
REMARK 927      BINDING AFFINITY PREDICTED BY RF-SCORE:    0.00 PKD
ROOT
HETATM    1  C   UNL     1     -10.575  16.702  67.032  1.00  0.00    -0.247 C  
HETATM    2  C   UNL     1     -10.648  15.277  66.479  1.00  0.00    -0.304 C  
HETATM    3  C   UNL     1      -9.235  14.685  66.413  1.00  0.00    -0.280 C  
ENDROOT
BRANCH   2   4
HETATM    4  N   UNL     1     -11.540  14.485  67.334  1.00  0.00    -0.370 NA 
HETATM    5  H   UNL     1     -12.404  14.253  66.843  1.00  0.00     0.000 HD 
BRANCH   4   6
HETATM    6  C   UNL     1     -10.896  13.277  67.866  1.00  0.00    -0.243 C  
BRANCH   6   7
HETATM    7  C   UNL     1     -11.603  11.988  67.398  1.00  0.00    -0.318 C  
HETATM    8  O   UNL     1     -11.313  11.729  66.021  1.00  0.00    -0.330 OA 
HETATM    9  H   UNL     1     -11.748  10.935  65.733  1.00  0.00     0.000 HD 
BRANCH   7  10
HETATM   10  C   UNL     1     -11.155  10.799  68.273  1.00  0.00    -0.271 C  
BRANCH  10  11
HETATM   11  O   UNL     1     -11.020  11.138  69.660  1.00  0.00    -0.244 OA 
BRANCH  11  12
HETATM   12  C   UNL     1     -11.708  10.372  70.574  1.00  0.00    -0.344 A  
HETATM   13  C   UNL     1     -11.446   9.010  70.781  1.00  0.00    -0.331 A  
HETATM   14  C   UNL     1     -12.189   8.261  71.692  1.00  0.00    -0.350 A  
HETATM   15  C   UNL     1     -13.223   8.856  72.394  1.00  0.00    -0.482 A  
HETATM   16  C   UNL     1     -13.491  10.211  72.214  1.00  0.00    -0.291 A  
HETATM   17  C   UNL     1     -12.716  10.996  71.344  1.00  0.00    -0.429 A  
BRANCH  17  18
HETATM   18  O   UNL     1     -12.900  12.361  71.211  1.00  0.00    -0.353 OA 
BRANCH  18  19
HETATM   19  C   UNL     1     -13.703  12.950  72.244  1.00  0.00    -0.458 C  
BRANCH  19  20
HETATM   20  C   UNL     1     -13.404  14.411  72.389  1.00  0.00    -0.546 C  
HETATM   21  C   UNL     1     -13.604  15.305  71.409  1.00  0.00    -0.598 C  
ENDBRANCH  19  20
ENDBRANCH  18  19
ENDBRANCH  17  18
ENDBRANCH  11  12
ENDBRANCH  10  11
ENDBRANCH   7  10
ENDBRANCH   6   7
ENDBRANCH   4   6
ENDBRANCH   2   4
TORSDOF 9
ENDMDL
MODEL      100
REMARK 921   NORMALIZED FREE ENERGY PREDICTED BY IDOCK:   -4.33 KCAL/MOL
REMARK 922        TOTAL FREE ENERGY PREDICTED BY IDOCK:   -7.38 KCAL/MOL
REMARK 923 INTER-LIGAND FREE ENERGY PREDICTED BY IDOCK:   -6.39 KCAL/MOL
REMARK 924 INTRA-LIGAND FREE ENERGY PREDICTED BY IDOCK:   -0.99 KCAL/MOL
REMARK 927      BINDING AFFINITY PREDICTED BY RF-SCORE:    0.00 PKD
ROOT
HETATM    1  C   UNL     1     -12.103  12.953  63.368  1.00  0.00    -0.610 C  
HETATM    2  C   UNL     1     -11.562  13.020  64.798  1.00  0.00    -0.329 C  
HETATM    3  C   UNL     1     -12.625  13.637  65.715  1.00  0.00    -0.511 C  
ENDROOT
BRANCH   2   4
HETATM    4  N   UNL     1     -11.183  11.667  65.221  1.00  0.00    -0.246 NA 
HETATM    5  H   UNL     1     -10.496  11.264  64.584  1.00  0.00     0.000 HD 
BRANCH   4   6
HETATM    6  C   UNL     1     -10.706  11.617  66.610  1.00  0.00    -0.270 C  
BRANCH   6   7
HETATM    7  C   UNL     1      -9.166  11.598  66.694  1.00  0.00    -0.191 C  
HETATM    8  O   UNL     1      -8.598  11.280  65.418  1.00  0.00    -0.369 OA 
HETATM    9  H   UNL     1      -7.649  11.268  65.470  1.00  0.00     0.000 HD 
BRANCH   7  10
HETATM   10  C   UNL     1      -8.651  12.967  67.182  1.00  0.00    -0.195 C  
BRANCH  10  11
HETATM   11  O   UNL     1      -9.603  13.673  67.990  1.00  0.00    -0.203 OA 
BRANCH  11  12
HETATM   12  C   UNL     1      -9.834  14.998  67.697  1.00  0.00    -0.220 A  
HETATM   13  C   UNL     1      -9.374  15.611  66.522  1.00  0.00    -0.305 A  
HETATM   14  C   UNL     1      -9.598  16.965  66.278  1.00  0.00    -0.300 A  
HETATM   15  C   UNL     1     -10.264  17.735  67.217  1.00  0.00    -0.350 A  
HETATM   16  C   UNL     1     -10.741  17.142  68.383  1.00  0.00    -0.347 A  
HETATM   17  C   UNL     1     -10.576  15.766  68.621  1.00  0.00    -0.250 A  
BRANCH  17  18
HETATM   18  O   UNL     1     -11.116  15.133  69.726  1.00  0.00    -0.251 OA 
BRANCH  18  19
HETATM   19  C   UNL     1     -11.488  16.021  70.790  1.00  0.00    -0.414 C  
BRANCH  19  20
HETATM   20  C   UNL     1     -12.469  15.368  71.716  1.00  0.00    -0.451 C  
HETATM   21  C   UNL     1     -13.739  15.102  71.375  1.00  0.00    -0.577 C  
ENDBRANCH  19  20
ENDBRANCH  18  19
ENDBRANCH  17  18
ENDBRANCH  11  12
ENDBRANCH  10  11
ENDBRANCH   7  10
ENDBRANCH   6   7
ENDBRANCH   4   6
ENDBRANCH   2   4
TORSDOF 9
ENDMDL
MODEL      101
REMARK 921   NORMALIZED FREE ENERGY PREDICTED BY IDOCK:   -4.32 KCAL/MOL
REMARK 922        TOTAL FREE ENERGY PREDICTED BY IDOCK:   -7.37 KCAL/MOL
REMARK 923 INTER-LIGAND FREE ENERGY PREDICTED BY IDOCK:   -6.72 KCAL/MOL
REMARK 924 INTRA-LIGAND FREE ENERGY PREDICTED BY IDOCK:   -0.65 KCAL/MOL
REMARK 927      BINDING AFFINITY PREDICTED BY RF-SCORE:    0.00 PKD
ROOT
HETATM    1  C   UNL     1      -9.934   7.993  71.896  1.00  0.00    -0.255 C  
HETATM    2  C   UNL     1     -11.067   7.188  71.257  1.00  0.00    -0.249 C  
HETATM    3  C   UNL     1     -11.567   6.136  72.254  1.00  0.00    -0.362 C  
ENDROOT
BRANCH   2   4
HETATM    4  N   UNL     1     -12.131   8.113  70.850  1.00  0.00    -0.473 NA 
HETATM    5  H   UNL     1     -12.988   7.608  70.625  1.00  0.00     0.000 HD 
BRANCH   4   6
HETATM    6  C   UNL     1     -12.384   9.164  71.845  1.00  0.00    -0.385 C  
BRANCH   6   7
HETATM    7  C   UNL     1     -12.909  10.462  71.197  1.00  0.00    -0.414 C  
HETATM    8  O   UNL     1     -13.311  11.398  72.203  1.00  0.00    -0.589 OA 
HETATM    9  H   UNL     1     -13.634  12.198  71.804  1.00  0.00     0.000 HD 
BRANCH   7  10
HETATM   10  C   UNL     1     -11.815  11.078  70.300  1.00  0.00    -0.367 C  
BRANCH  10  11
HETATM   11  O   UNL     1     -12.161  12.376  69.798  1.00  0.00    -0.285 OA 
BRANCH  11  12
HETATM   12  C   UNL     1     -11.583  12.780  68.616  1.00  0.00    -0.314 A  
HETATM   13  C   UNL     1     -11.720  12.066  67.416  1.00  0.00    -0.352 A  
HETATM   14  C   UNL     1     -11.090  12.489  66.248  1.00  0.00    -0.336 A  
HETATM   15  C   UNL     1     -10.292  13.620  66.264  1.00  0.00    -0.293 A  
HETATM   16  C   UNL     1     -10.154  14.351  67.441  1.00  0.00    -0.243 A  
HETATM   17  C   UNL     1     -10.828  13.974  68.616  1.00  0.00    -0.258 A  
BRANCH  17  18
HETATM   18  O   UNL     1     -10.782  14.729  69.774  1.00  0.00    -0.228 OA 
BRANCH  18  19
HETATM   19  C   UNL     1     -11.831  15.700  69.886  1.00  0.00    -0.360 C  
BRANCH  19  20
HETATM   20  C   UNL     1     -12.560  15.554  71.188  1.00  0.00    -0.509 C  
HETATM   21  C   UNL     1     -12.001  15.035  72.291  1.00  0.00    -0.447 C  
ENDBRANCH  19  20
ENDBRANCH  18  19
ENDBRANCH  17  18
ENDBRANCH  11  12
ENDBRANCH  10  11
ENDBRANCH   7  10
ENDBRANCH   6   7
ENDBRANCH   4   6
ENDBRANCH   2   4
TORSDOF 9
ENDMDL
MODEL      102
REMARK 921   NORMALIZED FREE ENERGY PREDICTED BY IDOCK:   -4.32 KCAL/MOL
REMARK 922        TOTAL FREE ENERGY PREDICTED BY IDOCK:   -7.36 KCAL/MOL
REMARK 923 INTER-LIGAND FREE ENERGY PREDICTED BY IDOCK:   -6.41 KCAL/MOL
REMARK 924 INTRA-LIGAND FREE ENERGY PREDICTED BY IDOCK:   -0.95 KCAL/MOL
REMARK 927      BINDING AFFINITY PREDICTED BY RF-SCORE:    0.00 PKD
ROOT
HETATM    1  C   UNL     1      -6.674  16.878  67.535  1.00  0.00    -0.173 C  
HETATM    2  C   UNL     1      -6.987  17.941  68.590  1.00  0.00    -0.252 C  
HETATM    3  C   UNL     1      -5.870  18.991  68.600  1.00  0.00    -0.224 C  
ENDROOT
BRANCH   2   4
HETATM    4  N   UNL     1      -8.297  18.530  68.292  1.00  0.00    -0.312 NA 
HETATM    5  H   UNL     1      -8.356  19.487  68.641  1.00  0.00     0.000 HD 
BRANCH   4   6
HETATM    6  C   UNL     1      -8.637  18.470  66.863  1.00  0.00    -0.278 C  
BRANCH   6   7
HETATM    7  C   UNL     1     -10.150  18.269  66.635  1.00  0.00    -0.375 C  
HETATM    8  O   UNL     1     -10.378  17.451  65.482  1.00  0.00    -0.621 OA 
HETATM    9  H   UNL     1     -11.310  17.327  65.342  1.00  0.00     0.000 HD 
BRANCH   7  10
HETATM   10  C   UNL     1     -10.786  17.624  67.884  1.00  0.00    -0.337 C  
BRANCH  10  11
HETATM   11  O   UNL     1     -10.312  16.294  68.135  1.00  0.00    -0.258 OA 
BRANCH  11  12
HETATM   12  C   UNL     1     -11.011  15.526  69.039  1.00  0.00    -0.256 A  
HETATM   13  C   UNL     1     -11.331  15.969  70.331  1.00  0.00    -0.405 A  
HETATM   14  C   UNL     1     -12.011  15.147  71.229  1.00  0.00    -0.399 A  
HETATM   15  C   UNL     1     -12.360  13.860  70.859  1.00  0.00    -0.451 A  
HETATM   16  C   UNL     1     -12.064  13.406  69.576  1.00  0.00    -0.334 A  
HETATM   17  C   UNL     1     -11.431  14.239  68.636  1.00  0.00    -0.296 A  
BRANCH  17  18
HETATM   18  O   UNL     1     -11.205  13.847  67.329  1.00  0.00    -0.295 OA 
BRANCH  18  19
HETATM   19  C   UNL     1     -12.394  13.713  66.540  1.00  0.00    -0.361 C  
BRANCH  19  20
HETATM   20  C   UNL     1     -12.097  13.054  65.227  1.00  0.00    -0.484 C  
HETATM   21  C   UNL     1     -11.514  11.851  65.121  1.00  0.00    -0.304 C  
ENDBRANCH  19  20
ENDBRANCH  18  19
ENDBRANCH  17  18
ENDBRANCH  11  12
ENDBRANCH  10  11
ENDBRANCH   7  10
ENDBRANCH   6   7
ENDBRANCH   4   6
ENDBRANCH   2   4
TORSDOF 9
ENDMDL
MODEL      103
REMARK 921   NORMALIZED FREE ENERGY PREDICTED BY IDOCK:   -4.27 KCAL/MOL
REMARK 922        TOTAL FREE ENERGY PREDICTED BY IDOCK:   -7.28 KCAL/MOL
REMARK 923 INTER-LIGAND FREE ENERGY PREDICTED BY IDOCK:   -6.58 KCAL/MOL
REMARK 924 INTRA-LIGAND FREE ENERGY PREDICTED BY IDOCK:   -0.71 KCAL/MOL
REMARK 927      BINDING AFFINITY PREDICTED BY RF-SCORE:    0.00 PKD
ROOT
HETATM    1  C   UNL     1     -10.399   6.503  71.226  1.00  0.00    -0.234 C  
HETATM    2  C   UNL     1     -11.608   5.913  71.956  1.00  0.00    -0.228 C  
HETATM    3  C   UNL     1     -11.122   5.016  73.100  1.00  0.00    -0.395 C  
ENDROOT
BRANCH   2   4
HETATM    4  N   UNL     1     -12.451   7.014  72.436  1.00  0.00    -0.509 NA 
HETATM    5  H   UNL     1     -11.895   7.708  72.936  1.00  0.00     0.000 HD 
BRANCH   4   6
HETATM    6  C   UNL     1     -13.235   7.641  71.364  1.00  0.00    -0.289 C  
BRANCH   6   7
HETATM    7  C   UNL     1     -13.652   9.084  71.717  1.00  0.00    -0.413 C  
HETATM    8  O   UNL     1     -14.209   9.136  73.035  1.00  0.00    -1.082 OA 
HETATM    9  H   UNL     1     -14.466  10.025  73.253  1.00  0.00     0.000 HD 
BRANCH   7  10
HETATM   10  C   UNL     1     -12.432  10.021  71.614  1.00  0.00    -0.418 C  
BRANCH  10  11
HETATM   11  O   UNL     1     -12.519  10.943  70.519  1.00  0.00    -0.320 OA 
BRANCH  11  12
HETATM   12  C   UNL     1     -11.592  10.824  69.508  1.00  0.00    -0.303 A  
HETATM   13  C   UNL     1     -10.966   9.611  69.184  1.00  0.00    -0.177 A  
HETATM   14  C   UNL     1     -10.007   9.540  68.176  1.00  0.00    -0.191 A  
HETATM   15  C   UNL     1      -9.637  10.685  67.492  1.00  0.00    -0.180 A  
HETATM   16  C   UNL     1     -10.255  11.897  67.789  1.00  0.00    -0.211 A  
HETATM   17  C   UNL     1     -11.267  11.979  68.761  1.00  0.00    -0.263 A  
BRANCH  17  18
HETATM   18  O   UNL     1     -11.961  13.149  69.015  1.00  0.00    -0.311 OA 
BRANCH  18  19
HETATM   19  C   UNL     1     -11.565  14.257  68.196  1.00  0.00    -0.332 C  
BRANCH  19  20
HETATM   20  C   UNL     1     -11.736  15.554  68.928  1.00  0.00    -0.385 C  
HETATM   21  C   UNL     1     -10.773  16.484  69.014  1.00  0.00    -0.332 C  
ENDBRANCH  19  20
ENDBRANCH  18  19
ENDBRANCH  17  18
ENDBRANCH  11  12
ENDBRANCH  10  11
ENDBRANCH   7  10
ENDBRANCH   6   7
ENDBRANCH   4   6
ENDBRANCH   2   4
TORSDOF 9
ENDMDL
MODEL      104
REMARK 921   NORMALIZED FREE ENERGY PREDICTED BY IDOCK:   -4.25 KCAL/MOL
REMARK 922        TOTAL FREE ENERGY PREDICTED BY IDOCK:   -7.27 KCAL/MOL
REMARK 923 INTER-LIGAND FREE ENERGY PREDICTED BY IDOCK:   -6.75 KCAL/MOL
REMARK 924 INTRA-LIGAND FREE ENERGY PREDICTED BY IDOCK:   -0.51 KCAL/MOL
REMARK 927      BINDING AFFINITY PREDICTED BY RF-SCORE:    0.00 PKD
ROOT
HETATM    1  C   UNL     1      -8.623   7.337  72.221  1.00  0.00    -0.131 C  
HETATM    2  C   UNL     1      -9.999   7.079  72.837  1.00  0.00    -0.187 C  
HETATM    3  C   UNL     1      -9.835   6.745  74.325  1.00  0.00    -0.348 C  
ENDROOT
BRANCH   2   4
HETATM    4  N   UNL     1     -10.839   8.264  72.626  1.00  0.00    -0.346 NA 
HETATM    5  H   UNL     1     -11.074   8.708  73.514  1.00  0.00     0.000 HD 
BRANCH   4   6
HETATM    6  C   UNL     1     -10.238   9.230  71.697  1.00  0.00    -0.201 C  
BRANCH   6   7
HETATM    7  C   UNL     1     -11.187   9.583  70.532  1.00  0.00    -0.287 C  
HETATM    8  O   UNL     1     -11.904   8.421  70.101  1.00  0.00    -0.458 OA 
HETATM    9  H   UNL     1     -12.489   8.638  69.384  1.00  0.00     0.000 HD 
BRANCH   7  10
HETATM   10  C   UNL     1     -12.171  10.685  70.975  1.00  0.00    -0.393 C  
BRANCH  10  11
HETATM   11  O   UNL     1     -11.990  11.920  70.267  1.00  0.00    -0.344 OA 
BRANCH  11  12
HETATM   12  C   UNL     1     -12.521  13.061  70.826  1.00  0.00    -0.302 A  
HETATM   13  C   UNL     1     -13.305  13.048  71.989  1.00  0.00    -0.588 A  
HETATM   14  C   UNL     1     -13.854  14.222  72.503  1.00  0.00    -0.575 A  
HETATM   15  C   UNL     1     -13.649  15.424  71.849  1.00  0.00    -0.590 A  
HETATM   16  C   UNL     1     -12.862  15.461  70.700  1.00  0.00    -0.484 A  
HETATM   17  C   UNL     1     -12.252  14.298  70.199  1.00  0.00    -0.345 A  
BRANCH  17  18
HETATM   18  O   UNL     1     -11.394  14.318  69.113  1.00  0.00    -0.249 OA 
BRANCH  18  19
HETATM   19  C   UNL     1     -11.592  15.428  68.227  1.00  0.00    -0.348 C  
BRANCH  19  20
HETATM   20  C   UNL     1     -10.314  15.797  67.536  1.00  0.00    -0.280 C  
HETATM   21  C   UNL     1     -10.120  16.977  66.928  1.00  0.00    -0.298 C  
ENDBRANCH  19  20
ENDBRANCH  18  19
ENDBRANCH  17  18
ENDBRANCH  11  12
ENDBRANCH  10  11
ENDBRANCH   7  10
ENDBRANCH   6   7
ENDBRANCH   4   6
ENDBRANCH   2   4
TORSDOF 9
ENDMDL
MODEL      105
REMARK 921   NORMALIZED FREE ENERGY PREDICTED BY IDOCK:   -4.25 KCAL/MOL
REMARK 922        TOTAL FREE ENERGY PREDICTED BY IDOCK:   -7.26 KCAL/MOL
REMARK 923 INTER-LIGAND FREE ENERGY PREDICTED BY IDOCK:   -5.96 KCAL/MOL
REMARK 924 INTRA-LIGAND FREE ENERGY PREDICTED BY IDOCK:   -1.30 KCAL/MOL
REMARK 927      BINDING AFFINITY PREDICTED BY RF-SCORE:    0.00 PKD
ROOT
HETATM    1  C   UNL     1     -10.486   8.162  66.996  1.00  0.00    -0.396 C  
HETATM    2  C   UNL     1      -9.369   9.136  66.617  1.00  0.00    -0.177 C  
HETATM    3  C   UNL     1      -9.495   9.500  65.133  1.00  0.00    -0.305 C  
ENDROOT
BRANCH   2   4
HETATM    4  N   UNL     1      -9.459  10.316  67.485  1.00  0.00    -0.151 NA 
HETATM    5  H   UNL     1      -9.581  10.043  68.461  1.00  0.00     0.000 HD 
BRANCH   4   6
HETATM    6  C   UNL     1      -8.314  11.224  67.333  1.00  0.00    -0.137 C  
BRANCH   6   7
HETATM    7  C   UNL     1      -8.748  12.704  67.295  1.00  0.00    -0.198 C  
HETATM    8  O   UNL     1      -7.636  13.545  66.971  1.00  0.00    -0.368 OA 
HETATM    9  H   UNL     1      -7.903  14.456  66.948  1.00  0.00     0.000 HD 
BRANCH   7  10
HETATM   10  C   UNL     1      -9.879  12.891  66.263  1.00  0.00    -0.273 C  
BRANCH  10  11
HETATM   11  O   UNL     1     -11.188  12.709  66.820  1.00  0.00    -0.273 OA 
BRANCH  11  12
HETATM   12  C   UNL     1     -11.542  13.497  67.891  1.00  0.00    -0.342 A  
HETATM   13  C   UNL     1     -11.570  14.899  67.832  1.00  0.00    -0.364 A  
HETATM   14  C   UNL     1     -11.900  15.663  68.949  1.00  0.00    -0.368 A  
HETATM   15  C   UNL     1     -12.185  15.040  70.152  1.00  0.00    -0.392 A  
HETATM   16  C   UNL     1     -12.177  13.650  70.229  1.00  0.00    -0.423 A  
HETATM   17  C   UNL     1     -11.903  12.860  69.099  1.00  0.00    -0.303 A  
BRANCH  17  18
HETATM   18  O   UNL     1     -11.975  11.478  69.123  1.00  0.00    -0.321 OA 
BRANCH  18  19
HETATM   19  C   UNL     1     -12.061  10.916  70.440  1.00  0.00    -0.363 C  
BRANCH  19  20
HETATM   20  C   UNL     1     -10.936   9.957  70.688  1.00  0.00    -0.405 C  
HETATM   21  C   UNL     1     -11.012   8.942  71.562  1.00  0.00    -0.398 C  
ENDBRANCH  19  20
ENDBRANCH  18  19
ENDBRANCH  17  18
ENDBRANCH  11  12
ENDBRANCH  10  11
ENDBRANCH   7  10
ENDBRANCH   6   7
ENDBRANCH   4   6
ENDBRANCH   2   4
TORSDOF 9
ENDMDL
MODEL      106
REMARK 921   NORMALIZED FREE ENERGY PREDICTED BY IDOCK:   -4.25 KCAL/MOL
REMARK 922        TOTAL FREE ENERGY PREDICTED BY IDOCK:   -7.26 KCAL/MOL
REMARK 923 INTER-LIGAND FREE ENERGY PREDICTED BY IDOCK:   -6.68 KCAL/MOL
REMARK 924 INTRA-LIGAND FREE ENERGY PREDICTED BY IDOCK:   -0.58 KCAL/MOL
REMARK 927      BINDING AFFINITY PREDICTED BY RF-SCORE:    0.00 PKD
ROOT
HETATM    1  C   UNL     1      -9.254  17.348  68.412  1.00  0.00    -0.277 C  
HETATM    2  C   UNL     1     -10.302  16.719  67.493  1.00  0.00    -0.301 C  
HETATM    3  C   UNL     1     -10.074  17.202  66.056  1.00  0.00    -0.303 C  
ENDROOT
BRANCH   2   4
HETATM    4  N   UNL     1     -10.211  15.258  67.607  1.00  0.00    -0.240 NA 
HETATM    5  H   UNL     1     -10.599  14.936  68.493  1.00  0.00     0.000 HD 
BRANCH   4   6
HETATM    6  C   UNL     1     -10.834  14.559  66.475  1.00  0.00    -0.314 C  
BRANCH   6   7
HETATM    7  C   UNL     1     -12.110  13.799  66.892  1.00  0.00    -0.413 C  
HETATM    8  O   UNL     1     -12.456  12.821  65.907  1.00  0.00    -0.560 OA 
HETATM    9  H   UNL     1     -13.243  12.353  66.164  1.00  0.00     0.000 HD 
BRANCH   7  10
HETATM   10  C   UNL     1     -11.893  13.125  68.263  1.00  0.00    -0.349 C  
BRANCH  10  11
HETATM   11  O   UNL     1     -12.138  11.712  68.242  1.00  0.00    -0.552 OA 
BRANCH  11  12
HETATM   12  C   UNL     1     -11.431  10.928  69.124  1.00  0.00    -0.303 A  
HETATM   13  C   UNL     1     -10.188  10.357  68.812  1.00  0.00    -0.201 A  
HETATM   14  C   UNL     1      -9.520   9.539  69.721  1.00  0.00    -0.228 A  
HETATM   15  C   UNL     1     -10.094   9.257  70.949  1.00  0.00    -0.373 A  
HETATM   16  C   UNL     1     -11.321   9.825  71.284  1.00  0.00    -0.445 A  
HETATM   17  C   UNL     1     -11.983  10.699  70.405  1.00  0.00    -0.346 A  
BRANCH  17  18
HETATM   18  O   UNL     1     -13.157  11.348  70.745  1.00  0.00    -0.126 OA 
BRANCH  18  19
HETATM   19  C   UNL     1     -13.237  11.735  72.124  1.00  0.00    -0.237 C  
BRANCH  19  20
HETATM   20  C   UNL     1     -13.729  13.144  72.258  1.00  0.00    -0.647 C  
HETATM   21  C   UNL     1     -12.913  14.208  72.312  1.00  0.00    -0.469 C  
ENDBRANCH  19  20
ENDBRANCH  18  19
ENDBRANCH  17  18
ENDBRANCH  11  12
ENDBRANCH  10  11
ENDBRANCH   7  10
ENDBRANCH   6   7
ENDBRANCH   4   6
ENDBRANCH   2   4
TORSDOF 9
ENDMDL
MODEL      107
REMARK 921   NORMALIZED FREE ENERGY PREDICTED BY IDOCK:   -4.25 KCAL/MOL
REMARK 922        TOTAL FREE ENERGY PREDICTED BY IDOCK:   -7.25 KCAL/MOL
REMARK 923 INTER-LIGAND FREE ENERGY PREDICTED BY IDOCK:   -6.23 KCAL/MOL
REMARK 924 INTRA-LIGAND FREE ENERGY PREDICTED BY IDOCK:   -1.02 KCAL/MOL
REMARK 927      BINDING AFFINITY PREDICTED BY RF-SCORE:    0.00 PKD
ROOT
HETATM    1  C   UNL     1     -11.806  13.414  64.204  1.00  0.00    -0.492 C  
HETATM    2  C   UNL     1     -10.745  14.086  65.077  1.00  0.00    -0.396 C  
HETATM    3  C   UNL     1     -10.893  15.609  64.975  1.00  0.00    -0.468 C  
ENDROOT
BRANCH   2   4
HETATM    4  N   UNL     1     -10.895  13.606  66.455  1.00  0.00    -0.289 NA 
HETATM    5  H   UNL     1     -10.018  13.691  66.969  1.00  0.00     0.000 HD 
BRANCH   4   6
HETATM    6  C   UNL     1     -11.992  14.269  67.173  1.00  0.00    -0.417 C  
BRANCH   6   7
HETATM    7  C   UNL     1     -11.843  14.143  68.703  1.00  0.00    -0.348 C  
HETATM    8  O   UNL     1     -11.722  12.769  69.084  1.00  0.00    -0.290 OA 
HETATM    9  H   UNL     1     -11.631  12.692  70.027  1.00  0.00     0.000 HD 
BRANCH   7  10
HETATM   10  C   UNL     1     -10.610  14.940  69.176  1.00  0.00    -0.246 C  
BRANCH  10  11
HETATM   11  O   UNL     1     -10.203  15.954  68.246  1.00  0.00    -0.220 OA 
BRANCH  11  12
HETATM   12  C   UNL     1      -9.002  16.586  68.475  1.00  0.00    -0.231 A  
HETATM   13  C   UNL     1      -7.785  15.898  68.585  1.00  0.00    -0.161 A  
HETATM   14  C   UNL     1      -6.595  16.573  68.853  1.00  0.00    -0.173 A  
HETATM   15  C   UNL     1      -6.605  17.944  69.040  1.00  0.00    -0.247 A  
HETATM   16  C   UNL     1      -7.801  18.648  68.921  1.00  0.00    -0.264 A  
HETATM   17  C   UNL     1      -9.002  17.994  68.594  1.00  0.00    -0.268 A  
BRANCH  17  18
HETATM   18  O   UNL     1     -10.186  18.677  68.382  1.00  0.00    -0.374 OA 
BRANCH  18  19
HETATM   19  C   UNL     1     -10.015  20.051  68.009  1.00  0.00    -0.416 C  
BRANCH  19  20
HETATM   20  C   UNL     1     -10.164  20.228  66.528  1.00  0.00    -0.477 C  
HETATM   21  C   UNL     1     -10.601  19.259  65.710  1.00  0.00    -0.450 C  
ENDBRANCH  19  20
ENDBRANCH  18  19
ENDBRANCH  17  18
ENDBRANCH  11  12
ENDBRANCH  10  11
ENDBRANCH   7  10
ENDBRANCH   6   7
ENDBRANCH   4   6
ENDBRANCH   2   4
TORSDOF 9
ENDMDL
MODEL      108
REMARK 921   NORMALIZED FREE ENERGY PREDICTED BY IDOCK:   -4.24 KCAL/MOL
REMARK 922        TOTAL FREE ENERGY PREDICTED BY IDOCK:   -7.25 KCAL/MOL
REMARK 923 INTER-LIGAND FREE ENERGY PREDICTED BY IDOCK:   -6.74 KCAL/MOL
REMARK 924 INTRA-LIGAND FREE ENERGY PREDICTED BY IDOCK:   -0.51 KCAL/MOL
REMARK 927      BINDING AFFINITY PREDICTED BY RF-SCORE:    0.00 PKD
ROOT
HETATM    1  C   UNL     1     -10.403   4.071  63.208  1.00  0.00    -0.135 C  
HETATM    2  C   UNL     1     -10.272   3.732  64.694  1.00  0.00    -0.180 C  
HETATM    3  C   UNL     1      -8.794   3.785  65.099  1.00  0.00    -0.123 C  
ENDROOT
BRANCH   2   4
HETATM    4  N   UNL     1     -11.091   4.673  65.466  1.00  0.00    -0.942 NA 
HETATM    5  H   UNL     1     -11.947   4.226  65.796  1.00  0.00     0.000 HD 
BRANCH   4   6
HETATM    6  C   UNL     1     -10.356   5.288  66.579  1.00  0.00    -0.285 C  
BRANCH   6   7
HETATM    7  C   UNL     1     -11.022   6.594  67.062  1.00  0.00    -0.393 C  
HETATM    8  O   UNL     1     -11.437   6.471  68.426  1.00  0.00    -0.564 OA 
HETATM    9  H   UNL     1     -11.847   7.275  68.723  1.00  0.00     0.000 HD 
BRANCH   7  10
HETATM   10  C   UNL     1     -10.037   7.771  66.907  1.00  0.00    -0.286 C  
BRANCH  10  11
HETATM   11  O   UNL     1     -10.442   8.945  67.625  1.00  0.00    -0.246 OA 
BRANCH  11  12
HETATM   12  C   UNL     1     -10.592  10.112  66.911  1.00  0.00    -0.200 A  
HETATM   13  C   UNL     1     -10.006  10.318  65.653  1.00  0.00    -0.347 A  
HETATM   14  C   UNL     1     -10.152  11.528  64.977  1.00  0.00    -0.315 A  
HETATM   15  C   UNL     1     -10.866  12.561  65.558  1.00  0.00    -0.312 A  
HETATM   16  C   UNL     1     -11.467  12.373  66.800  1.00  0.00    -0.423 A  
HETATM   17  C   UNL     1     -11.380  11.141  67.471  1.00  0.00    -0.278 A  
BRANCH  17  18
HETATM   18  O   UNL     1     -12.040  10.896  68.663  1.00  0.00    -0.527 OA 
BRANCH  18  19
HETATM   19  C   UNL     1     -11.810  11.883  69.677  1.00  0.00    -0.337 C  
BRANCH  19  20
HETATM   20  C   UNL     1     -12.086  11.325  71.041  1.00  0.00    -0.335 C  
HETATM   21  C   UNL     1     -12.951  10.325  71.267  1.00  0.00    -0.517 C  
ENDBRANCH  19  20
ENDBRANCH  18  19
ENDBRANCH  17  18
ENDBRANCH  11  12
ENDBRANCH  10  11
ENDBRANCH   7  10
ENDBRANCH   6   7
ENDBRANCH   4   6
ENDBRANCH   2   4
TORSDOF 9
ENDMDL
MODEL      109
REMARK 921   NORMALIZED FREE ENERGY PREDICTED BY IDOCK:   -4.24 KCAL/MOL
REMARK 922        TOTAL FREE ENERGY PREDICTED BY IDOCK:   -7.24 KCAL/MOL
REMARK 923 INTER-LIGAND FREE ENERGY PREDICTED BY IDOCK:   -6.00 KCAL/MOL
REMARK 924 INTRA-LIGAND FREE ENERGY PREDICTED BY IDOCK:   -1.24 KCAL/MOL
REMARK 927      BINDING AFFINITY PREDICTED BY RF-SCORE:    0.00 PKD
ROOT
HETATM    1  C   UNL     1     -10.670   9.123  69.455  1.00  0.00    -0.210 C  
HETATM    2  C   UNL     1     -10.840  10.479  68.767  1.00  0.00    -0.231 C  
HETATM    3  C   UNL     1     -10.560  10.326  67.267  1.00  0.00    -0.324 C  
ENDROOT
BRANCH   2   4
HETATM    4  N   UNL     1     -12.196  10.975  69.030  1.00  0.00    -0.669 NA 
HETATM    5  H   UNL     1     -12.891  10.410  68.543  1.00  0.00     0.000 HD 
BRANCH   4   6
HETATM    6  C   UNL     1     -12.501  11.066  70.464  1.00  0.00    -0.344 C  
BRANCH   6   7
HETATM    7  C   UNL     1     -13.084  12.442  70.847  1.00  0.00     0.156 C  
HETATM    8  O   UNL     1     -13.623  12.407  72.172  1.00  0.00    -0.483 OA 
HETATM    9  H   UNL     1     -13.982  13.255  72.408  1.00  0.00     0.000 HD 
BRANCH   7  10
HETATM   10  C   UNL     1     -11.987  13.522  70.743  1.00  0.00    -0.173 C  
BRANCH  10  11
HETATM   11  O   UNL     1     -12.084  14.313  69.551  1.00  0.00    -0.313 OA 
BRANCH  11  12
HETATM   12  C   UNL     1     -10.965  14.411  68.755  1.00  0.00    -0.250 A  
HETATM   13  C   UNL     1      -9.766  14.995  69.192  1.00  0.00    -0.212 A  
HETATM   14  C   UNL     1      -8.666  15.106  68.344  1.00  0.00    -0.169 A  
HETATM   15  C   UNL     1      -8.753  14.659  67.037  1.00  0.00    -0.258 A  
HETATM   16  C   UNL     1      -9.929  14.063  66.588  1.00  0.00    -0.280 A  
HETATM   17  C   UNL     1     -11.030  13.888  67.444  1.00  0.00    -0.288 A  
BRANCH  17  18
HETATM   18  O   UNL     1     -12.177  13.222  67.053  1.00  0.00    -0.353 OA 
BRANCH  18  19
HETATM   19  C   UNL     1     -12.668  13.602  65.760  1.00  0.00    -0.416 C  
BRANCH  19  20
HETATM   20  C   UNL     1     -12.406  12.528  64.749  1.00  0.00    -0.544 C  
HETATM   21  C   UNL     1     -12.030  12.780  63.486  1.00  0.00    -0.633 C  
ENDBRANCH  19  20
ENDBRANCH  18  19
ENDBRANCH  17  18
ENDBRANCH  11  12
ENDBRANCH  10  11
ENDBRANCH   7  10
ENDBRANCH   6   7
ENDBRANCH   4   6
ENDBRANCH   2   4
TORSDOF 9
ENDMDL
MODEL      110
REMARK 921   NORMALIZED FREE ENERGY PREDICTED BY IDOCK:   -4.23 KCAL/MOL
REMARK 922        TOTAL FREE ENERGY PREDICTED BY IDOCK:   -7.23 KCAL/MOL
REMARK 923 INTER-LIGAND FREE ENERGY PREDICTED BY IDOCK:   -5.99 KCAL/MOL
REMARK 924 INTRA-LIGAND FREE ENERGY PREDICTED BY IDOCK:   -1.23 KCAL/MOL
REMARK 927      BINDING AFFINITY PREDICTED BY RF-SCORE:    0.00 PKD
ROOT
HETATM    1  C   UNL     1     -12.470  11.357  70.841  1.00  0.00    -0.478 C  
HETATM    2  C   UNL     1     -11.414  11.969  69.918  1.00  0.00    -0.162 C  
HETATM    3  C   UNL     1     -11.725  11.585  68.466  1.00  0.00    -0.379 C  
ENDROOT
BRANCH   2   4
HETATM    4  N   UNL     1     -11.400  13.423  70.115  1.00  0.00    -0.492 NA 
HETATM    5  H   UNL     1     -11.258  13.910  69.231  1.00  0.00     0.000 HD 
BRANCH   4   6
HETATM    6  C   UNL     1     -12.602  13.916  70.801  1.00  0.00    -0.354 C  
BRANCH   6   7
HETATM    7  C   UNL     1     -12.723  15.452  70.728  1.00  0.00    -0.459 C  
HETATM    8  O   UNL     1     -12.827  16.010  72.042  1.00  0.00    -0.451 OA 
HETATM    9  H   UNL     1     -12.901  16.957  71.996  1.00  0.00     0.000 HD 
BRANCH   7  10
HETATM   10  C   UNL     1     -11.499  16.038  69.993  1.00  0.00    -0.331 C  
BRANCH  10  11
HETATM   11  O   UNL     1     -11.698  16.166  68.579  1.00  0.00    -0.348 OA 
BRANCH  11  12
HETATM   12  C   UNL     1     -10.671  16.700  67.834  1.00  0.00    -0.344 A  
HETATM   13  C   UNL     1     -10.604  18.058  67.488  1.00  0.00    -0.402 A  
HETATM   14  C   UNL     1      -9.565  18.553  66.702  1.00  0.00    -0.328 A  
HETATM   15  C   UNL     1      -8.588  17.695  66.229  1.00  0.00    -0.224 A  
HETATM   16  C   UNL     1      -8.627  16.346  66.573  1.00  0.00    -0.329 A  
HETATM   17  C   UNL     1      -9.634  15.838  67.412  1.00  0.00    -0.217 A  
BRANCH  17  18
HETATM   18  O   UNL     1      -9.650  14.523  67.842  1.00  0.00    -0.209 OA 
BRANCH  18  19
HETATM   19  C   UNL     1      -8.961  13.612  66.975  1.00  0.00    -0.236 C  
BRANCH  19  20
HETATM   20  C   UNL     1      -7.906  12.853  67.722  1.00  0.00    -0.158 C  
HETATM   21  C   UNL     1      -7.237  13.358  68.769  1.00  0.00    -0.092 C  
ENDBRANCH  19  20
ENDBRANCH  18  19
ENDBRANCH  17  18
ENDBRANCH  11  12
ENDBRANCH  10  11
ENDBRANCH   7  10
ENDBRANCH   6   7
ENDBRANCH   4   6
ENDBRANCH   2   4
TORSDOF 9
ENDMDL
MODEL      111
REMARK 921   NORMALIZED FREE ENERGY PREDICTED BY IDOCK:   -4.22 KCAL/MOL
REMARK 922        TOTAL FREE ENERGY PREDICTED BY IDOCK:   -7.21 KCAL/MOL
REMARK 923 INTER-LIGAND FREE ENERGY PREDICTED BY IDOCK:   -6.30 KCAL/MOL
REMARK 924 INTRA-LIGAND FREE ENERGY PREDICTED BY IDOCK:   -0.90 KCAL/MOL
REMARK 927      BINDING AFFINITY PREDICTED BY RF-SCORE:    0.00 PKD
ROOT
HETATM    1  C   UNL     1     -10.387   8.199  68.368  1.00  0.00    -0.236 C  
HETATM    2  C   UNL     1      -9.387   9.327  68.107  1.00  0.00    -0.134 C  
HETATM    3  C   UNL     1      -8.790   9.162  66.704  1.00  0.00    -0.147 C  
ENDROOT
BRANCH   2   4
HETATM    4  N   UNL     1     -10.075  10.613  68.267  1.00  0.00    -0.153 NA 
HETATM    5  H   UNL     1      -9.431  11.391  68.130  1.00  0.00     0.000 HD 
BRANCH   4   6
HETATM    6  C   UNL     1     -11.251  10.743  67.396  1.00  0.00    -0.241 C  
BRANCH   6   7
HETATM    7  C   UNL     1     -11.316  12.124  66.712  1.00  0.00    -0.342 C  
HETATM    8  O   UNL     1     -12.044  12.040  65.481  1.00  0.00    -0.479 OA 
HETATM    9  H   UNL     1     -12.084  12.890  65.060  1.00  0.00     0.000 HD 
BRANCH   7  10
HETATM   10  C   UNL     1     -11.981  13.145  67.658  1.00  0.00    -0.315 C  
BRANCH  10  11
HETATM   11  O   UNL     1     -11.310  13.267  68.919  1.00  0.00    -0.255 OA 
BRANCH  11  12
HETATM   12  C   UNL     1     -12.080  13.232  70.059  1.00  0.00    -0.315 A  
HETATM   13  C   UNL     1     -12.355  12.049  70.760  1.00  0.00    -0.403 A  
HETATM   14  C   UNL     1     -13.168  12.051  71.891  1.00  0.00    -0.469 A  
HETATM   15  C   UNL     1     -13.741  13.233  72.327  1.00  0.00    -0.686 A  
HETATM   16  C   UNL     1     -13.469  14.422  71.655  1.00  0.00    -0.451 A  
HETATM   17  C   UNL     1     -12.605  14.450  70.547  1.00  0.00    -0.353 A  
BRANCH  17  18
HETATM   18  O   UNL     1     -12.247  15.627  69.913  1.00  0.00    -0.362 OA 
BRANCH  18  19
HETATM   19  C   UNL     1     -10.987  16.164  70.338  1.00  0.00    -0.309 C  
BRANCH  19  20
HETATM   20  C   UNL     1     -10.229  16.737  69.179  1.00  0.00    -0.306 C  
HETATM   21  C   UNL     1     -10.722  16.795  67.933  1.00  0.00    -0.347 C  
ENDBRANCH  19  20
ENDBRANCH  18  19
ENDBRANCH  17  18
ENDBRANCH  11  12
ENDBRANCH  10  11
ENDBRANCH   7  10
ENDBRANCH   6   7
ENDBRANCH   4   6
ENDBRANCH   2   4
TORSDOF 9
ENDMDL
MODEL      112
REMARK 921   NORMALIZED FREE ENERGY PREDICTED BY IDOCK:   -4.21 KCAL/MOL
REMARK 922        TOTAL FREE ENERGY PREDICTED BY IDOCK:   -7.20 KCAL/MOL
REMARK 923 INTER-LIGAND FREE ENERGY PREDICTED BY IDOCK:   -6.04 KCAL/MOL
REMARK 924 INTRA-LIGAND FREE ENERGY PREDICTED BY IDOCK:   -1.16 KCAL/MOL
REMARK 927      BINDING AFFINITY PREDICTED BY RF-SCORE:    0.00 PKD
ROOT
HETATM    1  C   UNL     1      -9.082  15.216  66.527  1.00  0.00    -0.328 C  
HETATM    2  C   UNL     1     -10.019  15.808  67.581  1.00  0.00    -0.239 C  
HETATM    3  C   UNL     1      -9.885  17.335  67.581  1.00  0.00    -0.279 C  
ENDROOT
BRANCH   2   4
HETATM    4  N   UNL     1     -11.390  15.373  67.289  1.00  0.00    -0.273 NA 
HETATM    5  H   UNL     1     -11.398  14.649  66.570  1.00  0.00     0.000 HD 
BRANCH   4   6
HETATM    6  C   UNL     1     -12.116  14.932  68.488  1.00  0.00    -0.158 C  
BRANCH   6   7
HETATM    7  C   UNL     1     -11.379  13.795  69.226  1.00  0.00    -0.273 C  
HETATM    8  O   UNL     1     -11.838  13.695  70.578  1.00  0.00    -0.464 OA 
HETATM    9  H   UNL     1     -11.384  12.995  71.033  1.00  0.00     0.000 HD 
BRANCH   7  10
HETATM   10  C   UNL     1     -11.603  12.460  68.486  1.00  0.00    -0.313 C  
BRANCH  10  11
HETATM   11  O   UNL     1     -10.814  12.336  67.294  1.00  0.00    -0.231 OA 
BRANCH  11  12
HETATM   12  C   UNL     1     -10.462  11.069  66.889  1.00  0.00    -0.246 A  
HETATM   13  C   UNL     1     -10.589   9.940  67.712  1.00  0.00    -0.313 A  
HETATM   14  C   UNL     1     -10.188   8.679  67.277  1.00  0.00    -0.337 A  
HETATM   15  C   UNL     1      -9.630   8.528  66.019  1.00  0.00    -0.236 A  
HETATM   16  C   UNL     1      -9.508   9.633  65.180  1.00  0.00    -0.332 A  
HETATM   17  C   UNL     1      -9.959  10.903  65.579  1.00  0.00    -0.260 A  
BRANCH  17  18
HETATM   18  O   UNL     1      -9.933  11.999  64.735  1.00  0.00    -0.255 OA 
BRANCH  18  19
HETATM   19  C   UNL     1     -10.636  11.810  63.500  1.00  0.00    -0.440 C  
BRANCH  19  20
HETATM   20  C   UNL     1     -11.867  12.662  63.446  1.00  0.00    -0.594 C  
HETATM   21  C   UNL     1     -11.982  13.833  64.091  1.00  0.00    -0.473 C  
ENDBRANCH  19  20
ENDBRANCH  18  19
ENDBRANCH  17  18
ENDBRANCH  11  12
ENDBRANCH  10  11
ENDBRANCH   7  10
ENDBRANCH   6   7
ENDBRANCH   4   6
ENDBRANCH   2   4
TORSDOF 9
ENDMDL
MODEL      113
REMARK 921   NORMALIZED FREE ENERGY PREDICTED BY IDOCK:   -4.20 KCAL/MOL
REMARK 922        TOTAL FREE ENERGY PREDICTED BY IDOCK:   -7.18 KCAL/MOL
REMARK 923 INTER-LIGAND FREE ENERGY PREDICTED BY IDOCK:   -6.59 KCAL/MOL
REMARK 924 INTRA-LIGAND FREE ENERGY PREDICTED BY IDOCK:   -0.59 KCAL/MOL
REMARK 927      BINDING AFFINITY PREDICTED BY RF-SCORE:    0.00 PKD
ROOT
HETATM    1  C   UNL     1      -9.382   7.959  71.231  1.00  0.00    -0.172 C  
HETATM    2  C   UNL     1      -9.548   9.208  70.363  1.00  0.00    -0.224 C  
HETATM    3  C   UNL     1      -8.456   9.227  69.286  1.00  0.00    -0.137 C  
ENDROOT
BRANCH   2   4
HETATM    4  N   UNL     1     -10.896   9.203  69.784  1.00  0.00    -0.256 NA 
HETATM    5  H   UNL     1     -10.963   8.531  69.019  1.00  0.00     0.000 HD 
BRANCH   4   6
HETATM    6  C   UNL     1     -11.945   8.967  70.785  1.00  0.00    -0.170 C  
BRANCH   6   7
HETATM    7  C   UNL     1     -12.858  10.197  70.968  1.00  0.00    -0.382 C  
HETATM    8  O   UNL     1     -13.407  10.221  72.291  1.00  0.00    -0.586 OA 
HETATM    9  H   UNL     1     -13.970  10.979  72.404  1.00  0.00     0.000 HD 
BRANCH   7  10
HETATM   10  C   UNL     1     -12.058  11.488  70.698  1.00  0.00    -0.353 C  
BRANCH  10  11
HETATM   11  O   UNL     1     -12.892  12.623  70.429  1.00  0.00     0.031 OA 
BRANCH  11  12
HETATM   12  C   UNL     1     -12.751  13.727  71.240  1.00  0.00    -0.371 A  
HETATM   13  C   UNL     1     -13.293  13.799  72.532  1.00  0.00    -0.656 A  
HETATM   14  C   UNL     1     -13.158  14.948  73.309  1.00  0.00    -0.585 A  
HETATM   15  C   UNL     1     -12.500  16.054  72.798  1.00  0.00    -0.582 A  
HETATM   16  C   UNL     1     -11.942  15.997  71.524  1.00  0.00    -0.539 A  
HETATM   17  C   UNL     1     -12.016  14.828  70.747  1.00  0.00    -0.310 A  
BRANCH  17  18
HETATM   18  O   UNL     1     -11.396  14.713  69.516  1.00  0.00    -0.256 OA 
BRANCH  18  19
HETATM   19  C   UNL     1     -11.616  15.826  68.639  1.00  0.00    -0.386 C  
BRANCH  19  20
HETATM   20  C   UNL     1     -10.322  16.496  68.287  1.00  0.00    -0.293 C  
HETATM   21  C   UNL     1      -9.974  17.710  68.738  1.00  0.00    -0.358 C  
ENDBRANCH  19  20
ENDBRANCH  18  19
ENDBRANCH  17  18
ENDBRANCH  11  12
ENDBRANCH  10  11
ENDBRANCH   7  10
ENDBRANCH   6   7
ENDBRANCH   4   6
ENDBRANCH   2   4
TORSDOF 9
ENDMDL
MODEL      114
REMARK 921   NORMALIZED FREE ENERGY PREDICTED BY IDOCK:   -4.19 KCAL/MOL
REMARK 922        TOTAL FREE ENERGY PREDICTED BY IDOCK:   -7.16 KCAL/MOL
REMARK 923 INTER-LIGAND FREE ENERGY PREDICTED BY IDOCK:   -6.34 KCAL/MOL
REMARK 924 INTRA-LIGAND FREE ENERGY PREDICTED BY IDOCK:   -0.82 KCAL/MOL
REMARK 927      BINDING AFFINITY PREDICTED BY RF-SCORE:    0.00 PKD
ROOT
HETATM    1  C   UNL     1     -13.302  15.589  71.190  1.00  0.00    -0.553 C  
HETATM    2  C   UNL     1     -12.708  14.297  71.756  1.00  0.00    -0.347 C  
HETATM    3  C   UNL     1     -13.826  13.460  72.390  1.00  0.00    -0.665 C  
ENDROOT
BRANCH   2   4
HETATM    4  N   UNL     1     -12.025  13.580  70.673  1.00  0.00    -0.512 NA 
HETATM    5  H   UNL     1     -12.524  12.724  70.431  1.00  0.00     0.000 HD 
BRANCH   4   6
HETATM    6  C   UNL     1     -11.806  14.415  69.485  1.00  0.00    -0.329 C  
BRANCH   6   7
HETATM    7  C   UNL     1     -10.955  13.695  68.418  1.00  0.00    -0.262 C  
HETATM    8  O   UNL     1      -9.617  13.504  68.889  1.00  0.00    -0.408 OA 
HETATM    9  H   UNL     1      -9.093  13.060  68.231  1.00  0.00     0.000 HD 
BRANCH   7  10
HETATM   10  C   UNL     1     -11.597  12.336  68.068  1.00  0.00    -0.349 C  
BRANCH  10  11
HETATM   11  O   UNL     1     -11.126  11.260  68.890  1.00  0.00    -0.202 OA 
BRANCH  11  12
HETATM   12  C   UNL     1     -10.755  10.092  68.264  1.00  0.00    -0.240 A  
HETATM   13  C   UNL     1     -10.429  10.026  66.901  1.00  0.00    -0.284 A  
HETATM   14  C   UNL     1     -10.092   8.816  66.297  1.00  0.00    -0.254 A  
HETATM   15  C   UNL     1     -10.099   7.648  67.039  1.00  0.00    -0.338 A  
HETATM   16  C   UNL     1     -10.405   7.694  68.397  1.00  0.00    -0.228 A  
HETATM   17  C   UNL     1     -10.691   8.912  69.038  1.00  0.00    -0.126 A  
BRANCH  17  18
HETATM   18  O   UNL     1     -10.911   9.000  70.401  1.00  0.00    -0.234 OA 
BRANCH  18  19
HETATM   19  C   UNL     1     -11.415   7.796  70.995  1.00  0.00    -0.281 C  
BRANCH  19  20
HETATM   20  C   UNL     1     -11.203   7.800  72.479  1.00  0.00    -0.419 C  
HETATM   21  C   UNL     1     -10.811   6.719  73.170  1.00  0.00    -0.315 C  
ENDBRANCH  19  20
ENDBRANCH  18  19
ENDBRANCH  17  18
ENDBRANCH  11  12
ENDBRANCH  10  11
ENDBRANCH   7  10
ENDBRANCH   6   7
ENDBRANCH   4   6
ENDBRANCH   2   4
TORSDOF 9
ENDMDL
MODEL      115
REMARK 921   NORMALIZED FREE ENERGY PREDICTED BY IDOCK:   -4.16 KCAL/MOL
REMARK 922        TOTAL FREE ENERGY PREDICTED BY IDOCK:   -7.12 KCAL/MOL
REMARK 923 INTER-LIGAND FREE ENERGY PREDICTED BY IDOCK:   -6.09 KCAL/MOL
REMARK 924 INTRA-LIGAND FREE ENERGY PREDICTED BY IDOCK:   -1.03 KCAL/MOL
REMARK 927      BINDING AFFINITY PREDICTED BY RF-SCORE:    0.00 PKD
ROOT
HETATM    1  C   UNL     1     -10.673  15.934  65.174  1.00  0.00    -0.449 C  
HETATM    2  C   UNL     1     -10.929  14.450  65.448  1.00  0.00    -0.339 C  
HETATM    3  C   UNL     1     -12.441  14.191  65.469  1.00  0.00    -0.495 C  
ENDROOT
BRANCH   2   4
HETATM    4  N   UNL     1     -10.246  13.657  64.419  1.00  0.00    -0.712 NA 
HETATM    5  H   UNL     1      -9.425  13.190  64.804  1.00  0.00     0.000 HD 
BRANCH   4   6
HETATM    6  C   UNL     1     -11.137  12.695  63.757  1.00  0.00    -0.453 C  
BRANCH   6   7
HETATM    7  C   UNL     1     -10.480  11.307  63.603  1.00  0.00    -0.405 C  
HETATM    8  O   UNL     1      -9.575  11.301  62.494  1.00  0.00    -0.558 OA 
HETATM    9  H   UNL     1      -9.170  10.447  62.399  1.00  0.00     0.000 HD 
BRANCH   7  10
HETATM   10  C   UNL     1      -9.737  10.933  64.902  1.00  0.00    -0.266 C  
BRANCH  10  11
HETATM   11  O   UNL     1     -10.396   9.904  65.652  1.00  0.00    -0.220 OA 
BRANCH  11  12
HETATM   12  C   UNL     1     -10.671  10.155  66.978  1.00  0.00    -0.196 A  
HETATM   13  C   UNL     1     -11.066  11.415  67.451  1.00  0.00    -0.349 A  
HETATM   14  C   UNL     1     -11.301  11.637  68.806  1.00  0.00    -0.324 A  
HETATM   15  C   UNL     1     -11.121  10.609  69.716  1.00  0.00    -0.358 A  
HETATM   16  C   UNL     1     -10.743   9.346  69.265  1.00  0.00    -0.228 A  
HETATM   17  C   UNL     1     -10.558   9.087  67.896  1.00  0.00    -0.196 A  
BRANCH  17  18
HETATM   18  O   UNL     1     -10.269   7.824  67.412  1.00  0.00    -0.202 OA 
BRANCH  18  19
HETATM   19  C   UNL     1      -9.036   7.275  67.896  1.00  0.00    -0.132 C  
BRANCH  19  20
HETATM   20  C   UNL     1      -7.866   7.844  67.152  1.00  0.00    -0.109 C  
HETATM   21  C   UNL     1      -7.700   7.711  65.827  1.00  0.00    -0.100 C  
ENDBRANCH  19  20
ENDBRANCH  18  19
ENDBRANCH  17  18
ENDBRANCH  11  12
ENDBRANCH  10  11
ENDBRANCH   7  10
ENDBRANCH   6   7
ENDBRANCH   4   6
ENDBRANCH   2   4
TORSDOF 9
ENDMDL
MODEL      116
REMARK 921   NORMALIZED FREE ENERGY PREDICTED BY IDOCK:   -4.14 KCAL/MOL
REMARK 922        TOTAL FREE ENERGY PREDICTED BY IDOCK:   -7.10 KCAL/MOL
REMARK 923 INTER-LIGAND FREE ENERGY PREDICTED BY IDOCK:   -5.96 KCAL/MOL
REMARK 924 INTRA-LIGAND FREE ENERGY PREDICTED BY IDOCK:   -1.14 KCAL/MOL
REMARK 927      BINDING AFFINITY PREDICTED BY RF-SCORE:    0.00 PKD
ROOT
HETATM    1  C   UNL     1     -10.234   7.774  66.764  1.00  0.00    -0.346 C  
HETATM    2  C   UNL     1     -11.158   6.622  67.164  1.00  0.00    -0.357 C  
HETATM    3  C   UNL     1     -10.578   5.301  66.644  1.00  0.00    -0.334 C  
ENDROOT
BRANCH   2   4
HETATM    4  N   UNL     1     -11.308   6.624  68.624  1.00  0.00    -0.576 NA 
HETATM    5  H   UNL     1     -12.291   6.676  68.890  1.00  0.00     0.000 HD 
BRANCH   4   6
HETATM    6  C   UNL     1     -10.649   5.478  69.266  1.00  0.00    -0.255 C  
BRANCH   6   7
HETATM    7  C   UNL     1      -9.513   5.918  70.213  1.00  0.00    -0.162 C  
HETATM    8  O   UNL     1      -8.448   6.523  69.472  1.00  0.00    -0.128 OA 
HETATM    9  H   UNL     1      -7.749   6.793  70.056  1.00  0.00     0.000 HD 
BRANCH   7  10
HETATM   10  C   UNL     1     -10.062   6.905  71.264  1.00  0.00    -0.190 C  
BRANCH  10  11
HETATM   11  O   UNL     1      -9.862   8.279  70.907  1.00  0.00    -0.177 OA 
BRANCH  11  12
HETATM   12  C   UNL     1     -10.916   9.146  71.083  1.00  0.00    -0.320 A  
HETATM   13  C   UNL     1     -11.952   8.913  72.000  1.00  0.00    -0.439 A  
HETATM   14  C   UNL     1     -13.020   9.799  72.123  1.00  0.00    -0.483 A  
HETATM   15  C   UNL     1     -13.085  10.921  71.315  1.00  0.00    -0.405 A  
HETATM   16  C   UNL     1     -12.059  11.179  70.409  1.00  0.00    -0.475 A  
HETATM   17  C   UNL     1     -10.944  10.329  70.310  1.00  0.00    -0.309 A  
BRANCH  17  18
HETATM   18  O   UNL     1      -9.869  10.606  69.483  1.00  0.00    -0.187 OA 
BRANCH  18  19
HETATM   19  C   UNL     1     -10.035  11.778  68.675  1.00  0.00    -0.172 C  
BRANCH  19  20
HETATM   20  C   UNL     1     -10.398  11.413  67.267  1.00  0.00    -0.230 C  
HETATM   21  C   UNL     1     -11.314  12.076  66.546  1.00  0.00    -0.413 C  
ENDBRANCH  19  20
ENDBRANCH  18  19
ENDBRANCH  17  18
ENDBRANCH  11  12
ENDBRANCH  10  11
ENDBRANCH   7  10
ENDBRANCH   6   7
ENDBRANCH   4   6
ENDBRANCH   2   4
TORSDOF 9
ENDMDL
MODEL      117
REMARK 921   NORMALIZED FREE ENERGY PREDICTED BY IDOCK:   -4.12 KCAL/MOL
REMARK 922        TOTAL FREE ENERGY PREDICTED BY IDOCK:   -7.05 KCAL/MOL
REMARK 923 INTER-LIGAND FREE ENERGY PREDICTED BY IDOCK:   -6.17 KCAL/MOL
REMARK 924 INTRA-LIGAND FREE ENERGY PREDICTED BY IDOCK:   -0.88 KCAL/MOL
REMARK 927      BINDING AFFINITY PREDICTED BY RF-SCORE:    0.00 PKD
ROOT
HETATM    1  C   UNL     1      -7.073  15.674  67.677  1.00  0.00    -0.192 C  
HETATM    2  C   UNL     1      -7.392  14.191  67.478  1.00  0.00    -0.175 C  
HETATM    3  C   UNL     1      -6.662  13.367  68.545  1.00  0.00    -0.096 C  
ENDROOT
BRANCH   2   4
HETATM    4  N   UNL     1      -8.847  14.010  67.538  1.00  0.00    -0.187 NA 
HETATM    5  H   UNL     1      -9.326  14.910  67.561  1.00  0.00     0.000 HD 
BRANCH   4   6
HETATM    6  C   UNL     1      -9.362  13.166  66.452  1.00  0.00    -0.179 C  
BRANCH   6   7
HETATM    7  C   UNL     1     -10.037  11.884  66.983  1.00  0.00    -0.205 C  
HETATM    8  O   UNL     1      -9.188  11.225  67.928  1.00  0.00    -0.149 OA 
HETATM    9  H   UNL     1      -9.604  10.435  68.255  1.00  0.00     0.000 HD 
BRANCH   7  10
HETATM   10  C   UNL     1     -11.390  12.237  67.635  1.00  0.00    -0.311 C  
BRANCH  10  11
HETATM   11  O   UNL     1     -11.256  12.766  68.961  1.00  0.00    -0.254 OA 
BRANCH  11  12
HETATM   12  C   UNL     1     -11.925  12.122  69.977  1.00  0.00    -0.315 A  
HETATM   13  C   UNL     1     -12.037  10.726  70.053  1.00  0.00    -0.423 A  
HETATM   14  C   UNL     1     -12.753  10.113  71.080  1.00  0.00    -0.481 A  
HETATM   15  C   UNL     1     -13.390  10.886  72.034  1.00  0.00    -0.394 A  
HETATM   16  C   UNL     1     -13.280  12.274  71.985  1.00  0.00    -0.508 A  
HETATM   17  C   UNL     1     -12.514  12.909  70.992  1.00  0.00    -0.283 A  
BRANCH  17  18
HETATM   18  O   UNL     1     -12.313  14.277  70.970  1.00  0.00    -0.317 OA 
BRANCH  18  19
HETATM   19  C   UNL     1     -13.505  15.051  71.168  1.00  0.00    -0.437 C  
BRANCH  19  20
HETATM   20  C   UNL     1     -13.498  15.715  72.511  1.00  0.00    -0.630 C  
HETATM   21  C   UNL     1     -12.374  16.053  73.160  1.00  0.00    -0.637 C  
ENDBRANCH  19  20
ENDBRANCH  18  19
ENDBRANCH  17  18
ENDBRANCH  11  12
ENDBRANCH  10  11
ENDBRANCH   7  10
ENDBRANCH   6   7
ENDBRANCH   4   6
ENDBRANCH   2   4
TORSDOF 9
ENDMDL
MODEL      118
REMARK 921   NORMALIZED FREE ENERGY PREDICTED BY IDOCK:   -4.10 KCAL/MOL
REMARK 922        TOTAL FREE ENERGY PREDICTED BY IDOCK:   -7.02 KCAL/MOL
REMARK 923 INTER-LIGAND FREE ENERGY PREDICTED BY IDOCK:   -5.98 KCAL/MOL
REMARK 924 INTRA-LIGAND FREE ENERGY PREDICTED BY IDOCK:   -1.04 KCAL/MOL
REMARK 927      BINDING AFFINITY PREDICTED BY RF-SCORE:    0.00 PKD
ROOT
HETATM    1  C   UNL     1     -12.074  12.238  70.334  1.00  0.00    -0.385 C  
HETATM    2  C   UNL     1     -12.250  11.019  69.425  1.00  0.00    -0.259 C  
HETATM    3  C   UNL     1     -11.010  10.866  68.536  1.00  0.00    -0.278 C  
ENDROOT
BRANCH   2   4
HETATM    4  N   UNL     1     -12.481   9.837  70.262  1.00  0.00    -0.493 NA 
HETATM    5  H   UNL     1     -11.631   9.279  70.350  1.00  0.00     0.000 HD 
BRANCH   4   6
HETATM    6  C   UNL     1     -13.029  10.172  71.584  1.00  0.00    -0.456 C  
BRANCH   6   7
HETATM    7  C   UNL     1     -13.099   8.941  72.512  1.00  0.00    -0.364 C  
HETATM    8  O   UNL     1     -14.391   8.845  73.120  1.00  0.00    -1.143 OA 
HETATM    9  H   UNL     1     -14.434   8.087  73.691  1.00  0.00     0.000 HD 
BRANCH   7  10
HETATM   10  C   UNL     1     -12.789   7.662  71.708  1.00  0.00    -0.330 C  
BRANCH  10  11
HETATM   11  O   UNL     1     -11.442   7.198  71.882  1.00  0.00    -0.255 OA 
BRANCH  11  12
HETATM   12  C   UNL     1     -10.883   6.463  70.862  1.00  0.00    -0.263 A  
HETATM   13  C   UNL     1     -11.376   6.478  69.549  1.00  0.00    -0.419 A  
HETATM   14  C   UNL     1     -10.803   5.691  68.552  1.00  0.00    -0.173 A  
HETATM   15  C   UNL     1      -9.741   4.857  68.856  1.00  0.00    -0.242 A  
HETATM   16  C   UNL     1      -9.226   4.837  70.150  1.00  0.00    -0.195 A  
HETATM   17  C   UNL     1      -9.753   5.666  71.156  1.00  0.00    -0.172 A  
BRANCH  17  18
HETATM   18  O   UNL     1      -9.207   5.734  72.425  1.00  0.00    -0.144 OA 
BRANCH  18  19
HETATM   19  C   UNL     1      -7.880   6.276  72.467  1.00  0.00    -0.102 C  
BRANCH  19  20
HETATM   20  C   UNL     1      -7.914   7.769  72.597  1.00  0.00    -0.145 C  
HETATM   21  C   UNL     1      -7.890   8.601  71.545  1.00  0.00    -0.163 C  
ENDBRANCH  19  20
ENDBRANCH  18  19
ENDBRANCH  17  18
ENDBRANCH  11  12
ENDBRANCH  10  11
ENDBRANCH   7  10
ENDBRANCH   6   7
ENDBRANCH   4   6
ENDBRANCH   2   4
TORSDOF 9
ENDMDL
MODEL      119
REMARK 921   NORMALIZED FREE ENERGY PREDICTED BY IDOCK:   -4.09 KCAL/MOL
REMARK 922        TOTAL FREE ENERGY PREDICTED BY IDOCK:   -7.02 KCAL/MOL
REMARK 923 INTER-LIGAND FREE ENERGY PREDICTED BY IDOCK:   -6.22 KCAL/MOL
REMARK 924 INTRA-LIGAND FREE ENERGY PREDICTED BY IDOCK:   -0.80 KCAL/MOL
REMARK 927      BINDING AFFINITY PREDICTED BY RF-SCORE:    0.00 PKD
ROOT
HETATM    1  C   UNL     1      -9.720   7.484  71.340  1.00  0.00    -0.180 C  
HETATM    2  C   UNL     1      -9.023   8.811  71.033  1.00  0.00    -0.217 C  
HETATM    3  C   UNL     1      -7.976   8.592  69.934  1.00  0.00    -0.105 C  
ENDROOT
BRANCH   2   4
HETATM    4  N   UNL     1     -10.038   9.796  70.642  1.00  0.00    -0.341 NA 
HETATM    5  H   UNL     1     -10.146   9.827  69.628  1.00  0.00     0.000 HD 
BRANCH   4   6
HETATM    6  C   UNL     1     -11.331   9.576  71.304  1.00  0.00    -0.376 C  
BRANCH   6   7
HETATM    7  C   UNL     1     -12.415  10.552  70.799  1.00  0.00    -0.378 C  
HETATM    8  O   UNL     1     -12.951  11.312  71.887  1.00  0.00    -0.456 OA 
HETATM    9  H   UNL     1     -13.618  11.913  71.576  1.00  0.00     0.000 HD 
BRANCH   7  10
HETATM   10  C   UNL     1     -11.816  11.492  69.733  1.00  0.00    -0.357 C  
BRANCH  10  11
HETATM   11  O   UNL     1     -12.246  11.180  68.400  1.00  0.00    -0.610 OA 
BRANCH  11  12
HETATM   12  C   UNL     1     -11.277  10.875  67.471  1.00  0.00    -0.293 A  
HETATM   13  C   UNL     1     -10.695   9.604  67.363  1.00  0.00    -0.308 A  
HETATM   14  C   UNL     1      -9.691   9.345  66.432  1.00  0.00    -0.315 A  
HETATM   15  C   UNL     1      -9.235  10.359  65.608  1.00  0.00    -0.220 A  
HETATM   16  C   UNL     1      -9.809  11.626  65.689  1.00  0.00    -0.270 A  
HETATM   17  C   UNL     1     -10.862  11.892  66.582  1.00  0.00    -0.276 A  
BRANCH  17  18
HETATM   18  O   UNL     1     -11.511  13.113  66.622  1.00  0.00    -0.317 OA 
BRANCH  18  19
HETATM   19  C   UNL     1     -12.209  13.450  65.415  1.00  0.00    -0.452 C  
BRANCH  19  20
HETATM   20  C   UNL     1     -11.445  14.463  64.618  1.00  0.00    -0.390 C  
HETATM   21  C   UNL     1     -11.065  15.653  65.108  1.00  0.00    -0.357 C  
ENDBRANCH  19  20
ENDBRANCH  18  19
ENDBRANCH  17  18
ENDBRANCH  11  12
ENDBRANCH  10  11
ENDBRANCH   7  10
ENDBRANCH   6   7
ENDBRANCH   4   6
ENDBRANCH   2   4
TORSDOF 9
ENDMDL
MODEL      120
REMARK 921   NORMALIZED FREE ENERGY PREDICTED BY IDOCK:   -4.09 KCAL/MOL
REMARK 922        TOTAL FREE ENERGY PREDICTED BY IDOCK:   -7.01 KCAL/MOL
REMARK 923 INTER-LIGAND FREE ENERGY PREDICTED BY IDOCK:   -6.27 KCAL/MOL
REMARK 924 INTRA-LIGAND FREE ENERGY PREDICTED BY IDOCK:   -0.75 KCAL/MOL
REMARK 927      BINDING AFFINITY PREDICTED BY RF-SCORE:    0.00 PKD
ROOT
HETATM    1  C   UNL     1      -9.936   5.633  66.486  1.00  0.00    -0.210 C  
HETATM    2  C   UNL     1     -10.879   6.092  67.600  1.00  0.00    -0.332 C  
HETATM    3  C   UNL     1     -10.293   5.691  68.959  1.00  0.00    -0.314 C  
ENDROOT
BRANCH   2   4
HETATM    4  N   UNL     1     -11.071   7.543  67.486  1.00  0.00    -0.532 NA 
HETATM    5  H   UNL     1     -11.016   7.991  68.401  1.00  0.00     0.000 HD 
BRANCH   4   6
HETATM    6  C   UNL     1     -10.141   8.168  66.536  1.00  0.00    -0.216 C  
BRANCH   6   7
HETATM    7  C   UNL     1      -9.506   9.453  67.107  1.00  0.00    -0.145 C  
HETATM    8  O   UNL     1      -9.536  10.502  66.133  1.00  0.00    -0.169 OA 
HETATM    9  H   UNL     1      -9.144  11.294  66.484  1.00  0.00     0.000 HD 
BRANCH   7  10
HETATM   10  C   UNL     1     -10.257   9.886  68.383  1.00  0.00    -0.178 C  
BRANCH  10  11
HETATM   11  O   UNL     1     -11.509  10.531  68.109  1.00  0.00    -0.342 OA 
BRANCH  11  12
HETATM   12  C   UNL     1     -11.813  11.666  68.827  1.00  0.00    -0.325 A  
HETATM   13  C   UNL     1     -11.748  12.956  68.279  1.00  0.00    -0.390 A  
HETATM   14  C   UNL     1     -12.031  14.082  69.049  1.00  0.00    -0.392 A  
HETATM   15  C   UNL     1     -12.359  13.940  70.387  1.00  0.00    -0.433 A  
HETATM   16  C   UNL     1     -12.443  12.668  70.946  1.00  0.00    -0.368 A  
HETATM   17  C   UNL     1     -12.219  11.516  70.172  1.00  0.00    -0.308 A  
BRANCH  17  18
HETATM   18  O   UNL     1     -12.381  10.238  70.676  1.00  0.00    -0.299 OA 
BRANCH  18  19
HETATM   19  C   UNL     1     -13.270  10.157  71.798  1.00  0.00    -0.438 C  
BRANCH  19  20
HETATM   20  C   UNL     1     -13.733   8.748  72.016  1.00  0.00    -0.491 C  
HETATM   21  C   UNL     1     -13.006   7.673  71.679  1.00  0.00    -0.385 C  
ENDBRANCH  19  20
ENDBRANCH  18  19
ENDBRANCH  17  18
ENDBRANCH  11  12
ENDBRANCH  10  11
ENDBRANCH   7  10
ENDBRANCH   6   7
ENDBRANCH   4   6
ENDBRANCH   2   4
TORSDOF 9
ENDMDL
MODEL      121
REMARK 921   NORMALIZED FREE ENERGY PREDICTED BY IDOCK:   -4.09 KCAL/MOL
REMARK 922        TOTAL FREE ENERGY PREDICTED BY IDOCK:   -7.01 KCAL/MOL
REMARK 923 INTER-LIGAND FREE ENERGY PREDICTED BY IDOCK:   -6.31 KCAL/MOL
REMARK 924 INTRA-LIGAND FREE ENERGY PREDICTED BY IDOCK:   -0.70 KCAL/MOL
REMARK 927      BINDING AFFINITY PREDICTED BY RF-SCORE:    0.00 PKD
ROOT
HETATM    1  C   UNL     1     -10.311   7.949  72.335  1.00  0.00    -0.333 C  
HETATM    2  C   UNL     1     -11.365   7.389  71.378  1.00  0.00    -0.256 C  
HETATM    3  C   UNL     1     -11.967   6.112  71.977  1.00  0.00    -0.310 C  
ENDROOT
BRANCH   2   4
HETATM    4  N   UNL     1     -12.381   8.421  71.140  1.00  0.00    -0.431 NA 
HETATM    5  H   UNL     1     -13.283   8.142  71.526  1.00  0.00     0.000 HD 
BRANCH   4   6
HETATM    6  C   UNL     1     -11.980   9.742  71.643  1.00  0.00    -0.375 C  
BRANCH   6   7
HETATM    7  C   UNL     1     -12.778  10.883  70.978  1.00  0.00    -0.407 C  
HETATM    8  O   UNL     1     -13.193  11.841  71.957  1.00  0.00    -0.506 OA 
HETATM    9  H   UNL     1     -13.685  12.543  71.547  1.00  0.00     0.000 HD 
BRANCH   7  10
HETATM   10  C   UNL     1     -11.914  11.563  69.896  1.00  0.00    -0.351 C  
BRANCH  10  11
HETATM   11  O   UNL     1     -12.223  11.122  68.567  1.00  0.00    -0.600 OA 
BRANCH  11  12
HETATM   12  C   UNL     1     -11.201  10.587  67.816  1.00  0.00    -0.273 A  
HETATM   13  C   UNL     1     -10.895   9.218  67.808  1.00  0.00    -0.192 A  
HETATM   14  C   UNL     1      -9.829   8.720  67.061  1.00  0.00    -0.279 A  
HETATM   15  C   UNL     1      -9.034   9.585  66.330  1.00  0.00    -0.182 A  
HETATM   16  C   UNL     1      -9.328  10.947  66.314  1.00  0.00    -0.203 A  
HETATM   17  C   UNL     1     -10.434  11.461  67.013  1.00  0.00    -0.236 A  
BRANCH  17  18
HETATM   18  O   UNL     1     -10.803  12.792  66.944  1.00  0.00    -0.247 OA 
BRANCH  18  19
HETATM   19  C   UNL     1     -10.442  13.441  65.718  1.00  0.00    -0.290 C  
BRANCH  19  20
HETATM   20  C   UNL     1     -11.596  13.464  64.762  1.00  0.00    -0.367 C  
HETATM   21  C   UNL     1     -12.177  14.595  64.335  1.00  0.00    -0.473 C  
ENDBRANCH  19  20
ENDBRANCH  18  19
ENDBRANCH  17  18
ENDBRANCH  11  12
ENDBRANCH  10  11
ENDBRANCH   7  10
ENDBRANCH   6   7
ENDBRANCH   4   6
ENDBRANCH   2   4
TORSDOF 9
ENDMDL
MODEL      122
REMARK 921   NORMALIZED FREE ENERGY PREDICTED BY IDOCK:   -4.09 KCAL/MOL
REMARK 922        TOTAL FREE ENERGY PREDICTED BY IDOCK:   -7.01 KCAL/MOL
REMARK 923 INTER-LIGAND FREE ENERGY PREDICTED BY IDOCK:   -5.93 KCAL/MOL
REMARK 924 INTRA-LIGAND FREE ENERGY PREDICTED BY IDOCK:   -1.08 KCAL/MOL
REMARK 927      BINDING AFFINITY PREDICTED BY RF-SCORE:    0.00 PKD
ROOT
HETATM    1  C   UNL     1     -11.128  12.846  68.833  1.00  0.00    -0.301 C  
HETATM    2  C   UNL     1     -11.765  11.722  68.013  1.00  0.00    -0.293 C  
HETATM    3  C   UNL     1     -10.731  11.163  67.028  1.00  0.00    -0.316 C  
ENDROOT
BRANCH   2   4
HETATM    4  N   UNL     1     -12.266  10.694  68.932  1.00  0.00    -0.793 NA 
HETATM    5  H   UNL     1     -11.660   9.873  68.928  1.00  0.00     0.000 HD 
BRANCH   4   6
HETATM    6  C   UNL     1     -12.460  11.197  70.299  1.00  0.00    -0.274 C  
BRANCH   6   7
HETATM    7  C   UNL     1     -12.703  10.055  71.308  1.00  0.00    -0.399 C  
HETATM    8  O   UNL     1     -13.631   9.104  70.775  1.00  0.00    -0.544 OA 
HETATM    9  H   UNL     1     -13.781   8.401  71.397  1.00  0.00     0.000 HD 
BRANCH   7  10
HETATM   10  C   UNL     1     -11.366   9.366  71.650  1.00  0.00    -0.382 C  
BRANCH  10  11
HETATM   11  O   UNL     1     -10.937   8.438  70.643  1.00  0.00    -0.235 OA 
BRANCH  11  12
HETATM   12  C   UNL     1     -10.428   7.230  71.063  1.00  0.00    -0.215 A  
HETATM   13  C   UNL     1      -9.665   7.087  72.232  1.00  0.00    -0.169 A  
HETATM   14  C   UNL     1      -9.138   5.852  72.604  1.00  0.00    -0.130 A  
HETATM   15  C   UNL     1      -9.342   4.743  71.801  1.00  0.00    -0.186 A  
HETATM   16  C   UNL     1     -10.108   4.861  70.643  1.00  0.00    -0.306 A  
HETATM   17  C   UNL     1     -10.698   6.084  70.281  1.00  0.00    -0.300 A  
BRANCH  17  18
HETATM   18  O   UNL     1     -11.536   6.211  69.188  1.00  0.00    -0.379 OA 
BRANCH  18  19
HETATM   19  C   UNL     1     -10.877   6.071  67.922  1.00  0.00    -0.290 C  
BRANCH  19  20
HETATM   20  C   UNL     1     -10.273   7.371  67.484  1.00  0.00    -0.289 C  
HETATM   21  C   UNL     1      -8.950   7.592  67.444  1.00  0.00    -0.130 C  
ENDBRANCH  19  20
ENDBRANCH  18  19
ENDBRANCH  17  18
ENDBRANCH  11  12
ENDBRANCH  10  11
ENDBRANCH   7  10
ENDBRANCH   6   7
ENDBRANCH   4   6
ENDBRANCH   2   4
TORSDOF 9
ENDMDL
MODEL      123
REMARK 921   NORMALIZED FREE ENERGY PREDICTED BY IDOCK:   -4.08 KCAL/MOL
REMARK 922        TOTAL FREE ENERGY PREDICTED BY IDOCK:   -7.00 KCAL/MOL
REMARK 923 INTER-LIGAND FREE ENERGY PREDICTED BY IDOCK:   -5.67 KCAL/MOL
REMARK 924 INTRA-LIGAND FREE ENERGY PREDICTED BY IDOCK:   -1.34 KCAL/MOL
REMARK 927      BINDING AFFINITY PREDICTED BY RF-SCORE:    0.00 PKD
ROOT
HETATM    1  C   UNL     1      -8.571   4.717  69.760  1.00  0.00    -0.096 C  
HETATM    2  C   UNL     1      -9.970   4.798  70.375  1.00  0.00    -0.245 C  
HETATM    3  C   UNL     1      -9.999   3.991  71.678  1.00  0.00    -0.232 C  
ENDROOT
BRANCH   2   4
HETATM    4  N   UNL     1     -10.309   6.209  70.590  1.00  0.00    -0.205 NA 
HETATM    5  H   UNL     1      -9.742   6.815  69.997  1.00  0.00     0.000 HD 
BRANCH   4   6
HETATM    6  C   UNL     1     -11.741   6.485  70.410  1.00  0.00    -0.375 C  
BRANCH   6   7
HETATM    7  C   UNL     1     -12.355   7.187  71.640  1.00  0.00    -0.362 C  
HETATM    8  O   UNL     1     -11.685   6.778  72.837  1.00  0.00    -0.491 OA 
HETATM    9  H   UNL     1     -12.064   7.210  73.594  1.00  0.00     0.000 HD 
BRANCH   7  10
HETATM   10  C   UNL     1     -12.261   8.717  71.470  1.00  0.00    -0.327 C  
BRANCH  10  11
HETATM   11  O   UNL     1     -11.078   9.136  70.775  1.00  0.00    -0.242 OA 
BRANCH  11  12
HETATM   12  C   UNL     1     -11.213  10.108  69.810  1.00  0.00    -0.272 A  
HETATM   13  C   UNL     1     -11.751  11.377  70.073  1.00  0.00    -0.416 A  
HETATM   14  C   UNL     1     -11.903  12.321  69.060  1.00  0.00    -0.358 A  
HETATM   15  C   UNL     1     -11.545  12.005  67.761  1.00  0.00    -0.400 A  
HETATM   16  C   UNL     1     -10.996  10.756  67.481  1.00  0.00    -0.372 A  
HETATM   17  C   UNL     1     -10.780   9.811  68.498  1.00  0.00    -0.215 A  
BRANCH  17  18
HETATM   18  O   UNL     1     -10.156   8.598  68.266  1.00  0.00    -0.178 OA 
BRANCH  18  19
HETATM   19  C   UNL     1     -10.560   7.951  67.051  1.00  0.00    -0.311 C  
BRANCH  19  20
HETATM   20  C   UNL     1      -9.971   6.577  66.953  1.00  0.00    -0.227 C  
HETATM   21  C   UNL     1     -10.654   5.513  66.505  1.00  0.00    -0.343 C  
ENDBRANCH  19  20
ENDBRANCH  18  19
ENDBRANCH  17  18
ENDBRANCH  11  12
ENDBRANCH  10  11
ENDBRANCH   7  10
ENDBRANCH   6   7
ENDBRANCH   4   6
ENDBRANCH   2   4
TORSDOF 9
ENDMDL
MODEL      124
REMARK 921   NORMALIZED FREE ENERGY PREDICTED BY IDOCK:   -4.07 KCAL/MOL
REMARK 922        TOTAL FREE ENERGY PREDICTED BY IDOCK:   -6.98 KCAL/MOL
REMARK 923 INTER-LIGAND FREE ENERGY PREDICTED BY IDOCK:   -6.28 KCAL/MOL
REMARK 924 INTRA-LIGAND FREE ENERGY PREDICTED BY IDOCK:   -0.70 KCAL/MOL
REMARK 927      BINDING AFFINITY PREDICTED BY RF-SCORE:    0.00 PKD
ROOT
HETATM    1  C   UNL     1      -9.248   7.248  68.742  1.00  0.00    -0.137 C  
HETATM    2  C   UNL     1     -10.774   7.357  68.701  1.00  0.00    -0.101 C  
HETATM    3  C   UNL     1     -11.377   6.430  69.763  1.00  0.00    -0.494 C  
ENDROOT
BRANCH   2   4
HETATM    4  N   UNL     1     -11.152   8.759  68.911  1.00  0.00    -0.426 NA 
HETATM    5  H   UNL     1     -10.720   9.131  69.757  1.00  0.00     0.000 HD 
BRANCH   4   6
HETATM    6  C   UNL     1     -10.854   9.609  67.751  1.00  0.00    -0.217 C  
BRANCH   6   7
HETATM    7  C   UNL     1     -10.254  10.969  68.166  1.00  0.00    -0.182 C  
HETATM    8  O   UNL     1      -9.761  10.909  69.509  1.00  0.00    -0.425 OA 
HETATM    9  H   UNL     1      -9.391  11.747  69.765  1.00  0.00     0.000 HD 
BRANCH   7  10
HETATM   10  C   UNL     1      -9.120  11.358  67.196  1.00  0.00    -0.164 C  
BRANCH  10  11
HETATM   11  O   UNL     1      -9.329  12.629  66.564  1.00  0.00    -0.237 OA 
BRANCH  11  12
HETATM   12  C   UNL     1     -10.258  12.693  65.550  1.00  0.00    -0.281 A  
HETATM   13  C   UNL     1     -10.358  11.723  64.542  1.00  0.00    -0.340 A  
HETATM   14  C   UNL     1     -11.290  11.844  63.513  1.00  0.00    -0.516 A  
HETATM   15  C   UNL     1     -12.122  12.948  63.460  1.00  0.00    -0.633 A  
HETATM   16  C   UNL     1     -12.049  13.916  64.459  1.00  0.00    -0.473 A  
HETATM   17  C   UNL     1     -11.157  13.784  65.537  1.00  0.00    -0.298 A  
BRANCH  17  18
HETATM   18  O   UNL     1     -11.124  14.682  66.589  1.00  0.00    -0.320 OA 
BRANCH  18  19
HETATM   19  C   UNL     1     -11.992  14.344  67.679  1.00  0.00    -0.343 C  
BRANCH  19  20
HETATM   20  C   UNL     1     -11.759  15.247  68.852  1.00  0.00    -0.362 C  
HETATM   21  C   UNL     1     -11.061  16.390  68.775  1.00  0.00    -0.337 C  
ENDBRANCH  19  20
ENDBRANCH  18  19
ENDBRANCH  17  18
ENDBRANCH  11  12
ENDBRANCH  10  11
ENDBRANCH   7  10
ENDBRANCH   6   7
ENDBRANCH   4   6
ENDBRANCH   2   4
TORSDOF 9
ENDMDL
MODEL      125
REMARK 921   NORMALIZED FREE ENERGY PREDICTED BY IDOCK:   -4.07 KCAL/MOL
REMARK 922        TOTAL FREE ENERGY PREDICTED BY IDOCK:   -6.98 KCAL/MOL
REMARK 923 INTER-LIGAND FREE ENERGY PREDICTED BY IDOCK:   -6.33 KCAL/MOL
REMARK 924 INTRA-LIGAND FREE ENERGY PREDICTED BY IDOCK:   -0.65 KCAL/MOL
REMARK 927      BINDING AFFINITY PREDICTED BY RF-SCORE:    0.00 PKD
ROOT
HETATM    1  C   UNL     1      -8.576   5.657  69.526  1.00  0.00    -0.110 C  
HETATM    2  C   UNL     1      -9.555   6.731  69.050  1.00  0.00    -0.135 C  
HETATM    3  C   UNL     1     -10.976   6.154  69.038  1.00  0.00    -0.436 C  
ENDROOT
BRANCH   2   4
HETATM    4  N   UNL     1      -9.439   7.898  69.932  1.00  0.00    -0.160 NA 
HETATM    5  H   UNL     1      -8.679   8.508  69.632  1.00  0.00     0.000 HD 
BRANCH   4   6
HETATM    6  C   UNL     1     -10.698   8.647  70.055  1.00  0.00    -0.228 C  
BRANCH   6   7
HETATM    7  C   UNL     1     -10.539  10.121  69.628  1.00  0.00    -0.257 C  
HETATM    8  O   UNL     1      -9.171  10.528  69.730  1.00  0.00    -0.409 OA 
HETATM    9  H   UNL     1      -9.073  11.437  69.468  1.00  0.00     0.000 HD 
BRANCH   7  10
HETATM   10  C   UNL     1     -11.046  10.305  68.183  1.00  0.00    -0.264 C  
BRANCH  10  11
HETATM   11  O   UNL     1     -12.104  11.268  68.074  1.00  0.00    -0.638 OA 
BRANCH  11  12
HETATM   12  C   UNL     1     -11.854  12.413  67.353  1.00  0.00    -0.289 A  
HETATM   13  C   UNL     1     -11.707  12.421  65.958  1.00  0.00    -0.469 A  
HETATM   14  C   UNL     1     -11.419  13.597  65.268  1.00  0.00    -0.320 A  
HETATM   15  C   UNL     1     -11.249  14.781  65.963  1.00  0.00    -0.341 A  
HETATM   16  C   UNL     1     -11.405  14.799  67.347  1.00  0.00    -0.361 A  
HETATM   17  C   UNL     1     -11.752  13.635  68.055  1.00  0.00    -0.352 A  
BRANCH  17  18
HETATM   18  O   UNL     1     -12.000  13.640  69.416  1.00  0.00    -0.314 OA 
BRANCH  18  19
HETATM   19  C   UNL     1     -11.455  14.770  70.110  1.00  0.00    -0.266 C  
BRANCH  19  20
HETATM   20  C   UNL     1     -12.229  15.057  71.361  1.00  0.00    -0.388 C  
HETATM   21  C   UNL     1     -13.543  15.327  71.368  1.00  0.00    -0.598 C  
ENDBRANCH  19  20
ENDBRANCH  18  19
ENDBRANCH  17  18
ENDBRANCH  11  12
ENDBRANCH  10  11
ENDBRANCH   7  10
ENDBRANCH   6   7
ENDBRANCH   4   6
ENDBRANCH   2   4
TORSDOF 9
ENDMDL
MODEL      126
REMARK 921   NORMALIZED FREE ENERGY PREDICTED BY IDOCK:   -4.06 KCAL/MOL
REMARK 922        TOTAL FREE ENERGY PREDICTED BY IDOCK:   -6.97 KCAL/MOL
REMARK 923 INTER-LIGAND FREE ENERGY PREDICTED BY IDOCK:   -5.59 KCAL/MOL
REMARK 924 INTRA-LIGAND FREE ENERGY PREDICTED BY IDOCK:   -1.38 KCAL/MOL
REMARK 927      BINDING AFFINITY PREDICTED BY RF-SCORE:    0.00 PKD
ROOT
HETATM    1  C   UNL     1     -11.030   9.526  67.960  1.00  0.00    -0.155 C  
HETATM    2  C   UNL     1     -11.155  10.528  69.110  1.00  0.00    -0.250 C  
HETATM    3  C   UNL     1     -11.302   9.766  70.433  1.00  0.00    -0.362 C  
ENDROOT
BRANCH   2   4
HETATM    4  N   UNL     1      -9.978  11.403  69.102  1.00  0.00    -0.416 NA 
HETATM    5  H   UNL     1      -9.968  12.009  69.923  1.00  0.00     0.000 HD 
BRANCH   4   6
HETATM    6  C   UNL     1      -8.716  10.660  68.983  1.00  0.00    -0.146 C  
BRANCH   6   7
HETATM    7  C   UNL     1      -7.655  11.444  68.183  1.00  0.00    -0.114 C  
HETATM    8  O   UNL     1      -6.385  10.786  68.256  1.00  0.00    -0.056 OA 
HETATM    9  H   UNL     1      -5.731  11.269  67.764  1.00  0.00     0.000 HD 
BRANCH   7  10
HETATM   10  C   UNL     1      -8.102  11.579  66.713  1.00  0.00    -0.158 C  
BRANCH  10  11
HETATM   11  O   UNL     1      -9.061  12.626  66.509  1.00  0.00    -0.223 OA 
BRANCH  11  12
HETATM   12  C   UNL     1     -10.080  12.395  65.613  1.00  0.00    -0.257 A  
HETATM   13  C   UNL     1      -9.887  11.737  64.389  1.00  0.00    -0.227 A  
HETATM   14  C   UNL     1     -10.939  11.553  63.494  1.00  0.00    -0.453 A  
HETATM   15  C   UNL     1     -12.196  12.046  63.795  1.00  0.00    -0.600 A  
HETATM   16  C   UNL     1     -12.413  12.689  65.011  1.00  0.00    -0.556 A  
HETATM   17  C   UNL     1     -11.380  12.833  65.953  1.00  0.00    -0.324 A  
BRANCH  17  18
HETATM   18  O   UNL     1     -11.586  13.388  67.204  1.00  0.00    -0.321 OA 
BRANCH  18  19
HETATM   19  C   UNL     1     -11.701  14.817  67.203  1.00  0.00    -0.334 C  
BRANCH  19  20
HETATM   20  C   UNL     1     -11.747  15.353  68.601  1.00  0.00    -0.371 C  
HETATM   21  C   UNL     1     -10.737  16.033  69.164  1.00  0.00    -0.272 C  
ENDBRANCH  19  20
ENDBRANCH  18  19
ENDBRANCH  17  18
ENDBRANCH  11  12
ENDBRANCH  10  11
ENDBRANCH   7  10
ENDBRANCH   6   7
ENDBRANCH   4   6
ENDBRANCH   2   4
TORSDOF 9
ENDMDL
MODEL      127
REMARK 921   NORMALIZED FREE ENERGY PREDICTED BY IDOCK:   -4.05 KCAL/MOL
REMARK 922        TOTAL FREE ENERGY PREDICTED BY IDOCK:   -6.95 KCAL/MOL
REMARK 923 INTER-LIGAND FREE ENERGY PREDICTED BY IDOCK:   -6.17 KCAL/MOL
REMARK 924 INTRA-LIGAND FREE ENERGY PREDICTED BY IDOCK:   -0.78 KCAL/MOL
REMARK 927      BINDING AFFINITY PREDICTED BY RF-SCORE:    0.00 PKD
ROOT
HETATM    1  C   UNL     1     -12.705  15.753  70.837  1.00  0.00    -0.422 C  
HETATM    2  C   UNL     1     -12.352  14.534  71.692  1.00  0.00    -0.350 C  
HETATM    3  C   UNL     1     -13.485  14.269  72.690  1.00  0.00    -0.623 C  
ENDROOT
BRANCH   2   4
HETATM    4  N   UNL     1     -12.116  13.389  70.805  1.00  0.00    -0.497 NA 
HETATM    5  H   UNL     1     -12.873  12.709  70.877  1.00  0.00     0.000 HD 
BRANCH   4   6
HETATM    6  C   UNL     1     -11.896  13.786  69.408  1.00  0.00    -0.341 C  
BRANCH   6   7
HETATM    7  C   UNL     1     -11.125  12.711  68.614  1.00  0.00    -0.266 C  
HETATM    8  O   UNL     1      -9.716  12.841  68.833  1.00  0.00    -0.411 OA 
HETATM    9  H   UNL     1      -9.241  12.179  68.344  1.00  0.00     0.000 HD 
BRANCH   7  10
HETATM   10  C   UNL     1     -11.604  11.306  69.034  1.00  0.00    -0.319 C  
BRANCH  10  11
HETATM   11  O   UNL     1     -10.982  10.834  70.236  1.00  0.00    -0.246 OA 
BRANCH  11  12
HETATM   12  C   UNL     1     -11.702   9.972  71.033  1.00  0.00    -0.392 A  
HETATM   13  C   UNL     1     -13.090  10.073  71.208  1.00  0.00    -0.493 A  
HETATM   14  C   UNL     1     -13.777   9.201  72.051  1.00  0.00    -0.508 A  
HETATM   15  C   UNL     1     -13.084   8.230  72.753  1.00  0.00     0.080 A  
HETATM   16  C   UNL     1     -11.708   8.103  72.582  1.00  0.00    -0.419 A  
HETATM   17  C   UNL     1     -11.005   8.934  71.692  1.00  0.00    -0.345 A  
BRANCH  17  18
HETATM   18  O   UNL     1      -9.655   8.774  71.435  1.00  0.00    -0.215 OA 
BRANCH  18  19
HETATM   19  C   UNL     1      -8.876   8.412  72.583  1.00  0.00    -0.217 C  
BRANCH  19  20
HETATM   20  C   UNL     1      -7.410   8.505  72.288  1.00  0.00    -0.095 C  
HETATM   21  C   UNL     1      -6.468   8.558  73.241  1.00  0.00    -0.098 C  
ENDBRANCH  19  20
ENDBRANCH  18  19
ENDBRANCH  17  18
ENDBRANCH  11  12
ENDBRANCH  10  11
ENDBRANCH   7  10
ENDBRANCH   6   7
ENDBRANCH   4   6
ENDBRANCH   2   4
TORSDOF 9
ENDMDL
MODEL      128
REMARK 921   NORMALIZED FREE ENERGY PREDICTED BY IDOCK:   -4.04 KCAL/MOL
REMARK 922        TOTAL FREE ENERGY PREDICTED BY IDOCK:   -6.94 KCAL/MOL
REMARK 923 INTER-LIGAND FREE ENERGY PREDICTED BY IDOCK:   -6.15 KCAL/MOL
REMARK 924 INTRA-LIGAND FREE ENERGY PREDICTED BY IDOCK:   -0.79 KCAL/MOL
REMARK 927      BINDING AFFINITY PREDICTED BY RF-SCORE:    0.00 PKD
ROOT
HETATM    1  C   UNL     1     -11.155  16.645  68.537  1.00  0.00    -0.301 C  
HETATM    2  C   UNL     1     -11.374  15.132  68.605  1.00  0.00    -0.310 C  
HETATM    3  C   UNL     1     -12.214  14.796  69.843  1.00  0.00    -0.358 C  
ENDROOT
BRANCH   2   4
HETATM    4  N   UNL     1     -12.020  14.694  67.363  1.00  0.00    -0.517 NA 
HETATM    5  H   UNL     1     -12.889  15.204  67.203  1.00  0.00     0.000 HD 
BRANCH   4   6
HETATM    6  C   UNL     1     -11.132  14.787  66.195  1.00  0.00    -0.339 C  
BRANCH   6   7
HETATM    7  C   UNL     1     -11.020  13.445  65.443  1.00  0.00    -0.286 C  
HETATM    8  O   UNL     1     -10.209  13.593  64.272  1.00  0.00    -0.678 OA 
HETATM    9  H   UNL     1     -10.140  12.766  63.809  1.00  0.00     0.000 HD 
BRANCH   7  10
HETATM   10  C   UNL     1     -10.422  12.371  66.376  1.00  0.00    -0.243 C  
BRANCH  10  11
HETATM   11  O   UNL     1     -11.328  11.294  66.650  1.00  0.00    -0.338 OA 
BRANCH  11  12
HETATM   12  C   UNL     1     -11.325  10.763  67.920  1.00  0.00    -0.299 A  
HETATM   13  C   UNL     1     -11.872  11.428  69.027  1.00  0.00    -0.415 A  
HETATM   14  C   UNL     1     -11.818  10.872  70.303  1.00  0.00    -0.450 A  
HETATM   15  C   UNL     1     -11.193   9.652  70.499  1.00  0.00    -0.359 A  
HETATM   16  C   UNL     1     -10.657   8.968  69.411  1.00  0.00    -0.231 A  
HETATM   17  C   UNL     1     -10.753   9.485  68.107  1.00  0.00    -0.197 A  
BRANCH  17  18
HETATM   18  O   UNL     1     -10.309   8.789  66.997  1.00  0.00    -0.261 OA 
BRANCH  18  19
HETATM   19  C   UNL     1     -10.731   7.419  66.954  1.00  0.00    -0.254 C  
BRANCH  19  20
HETATM   20  C   UNL     1      -9.586   6.515  66.610  1.00  0.00    -0.201 C  
HETATM   21  C   UNL     1      -8.300   6.870  66.746  1.00  0.00    -0.116 C  
ENDBRANCH  19  20
ENDBRANCH  18  19
ENDBRANCH  17  18
ENDBRANCH  11  12
ENDBRANCH  10  11
ENDBRANCH   7  10
ENDBRANCH   6   7
ENDBRANCH   4   6
ENDBRANCH   2   4
TORSDOF 9
ENDMDL
MODEL      129
REMARK 921   NORMALIZED FREE ENERGY PREDICTED BY IDOCK:   -4.04 KCAL/MOL
REMARK 922        TOTAL FREE ENERGY PREDICTED BY IDOCK:   -6.94 KCAL/MOL
REMARK 923 INTER-LIGAND FREE ENERGY PREDICTED BY IDOCK:   -5.87 KCAL/MOL
REMARK 924 INTRA-LIGAND FREE ENERGY PREDICTED BY IDOCK:   -1.07 KCAL/MOL
REMARK 927      BINDING AFFINITY PREDICTED BY RF-SCORE:    0.00 PKD
ROOT
HETATM    1  C   UNL     1     -11.996  13.783  67.115  1.00  0.00    -0.442 C  
HETATM    2  C   UNL     1     -10.971  14.362  68.092  1.00  0.00    -0.254 C  
HETATM    3  C   UNL     1     -11.527  15.652  68.707  1.00  0.00    -0.382 C  
ENDROOT
BRANCH   2   4
HETATM    4  N   UNL     1     -10.667  13.350  69.110  1.00  0.00    -0.428 NA 
HETATM    5  H   UNL     1     -10.082  13.740  69.849  1.00  0.00     0.000 HD 
BRANCH   4   6
HETATM    6  C   UNL     1     -11.873  12.723  69.669  1.00  0.00    -0.317 C  
BRANCH   6   7
HETATM    7  C   UNL     1     -11.698  11.203  69.866  1.00  0.00    -0.355 C  
HETATM    8  O   UNL     1     -12.821  10.495  69.330  1.00  0.00    -0.654 OA 
HETATM    9  H   UNL     1     -12.713   9.559  69.452  1.00  0.00     0.000 HD 
BRANCH   7  10
HETATM   10  C   UNL     1     -10.395  10.734  69.185  1.00  0.00    -0.217 C  
BRANCH  10  11
HETATM   11  O   UNL     1     -10.475  10.736  67.753  1.00  0.00    -0.186 OA 
BRANCH  11  12
HETATM   12  C   UNL     1      -9.694   9.832  67.068  1.00  0.00    -0.183 A  
HETATM   13  C   UNL     1      -8.839   8.923  67.707  1.00  0.00    -0.136 A  
HETATM   14  C   UNL     1      -8.038   8.048  66.976  1.00  0.00    -0.116 A  
HETATM   15  C   UNL     1      -8.059   8.084  65.593  1.00  0.00    -0.121 A  
HETATM   16  C   UNL     1      -8.912   8.970  64.938  1.00  0.00    -0.170 A  
HETATM   17  C   UNL     1      -9.770   9.820  65.657  1.00  0.00    -0.288 A  
BRANCH  17  18
HETATM   18  O   UNL     1     -10.690  10.646  65.036  1.00  0.00    -0.203 OA 
BRANCH  18  19
HETATM   19  C   UNL     1     -10.282  11.113  63.743  1.00  0.00    -0.377 C  
BRANCH  19  20
HETATM   20  C   UNL     1     -10.704  12.535  63.529  1.00  0.00    -0.417 C  
HETATM   21  C   UNL     1     -11.987  12.923  63.473  1.00  0.00    -0.629 C  
ENDBRANCH  19  20
ENDBRANCH  18  19
ENDBRANCH  17  18
ENDBRANCH  11  12
ENDBRANCH  10  11
ENDBRANCH   7  10
ENDBRANCH   6   7
ENDBRANCH   4   6
ENDBRANCH   2   4
TORSDOF 9
ENDMDL
MODEL      130
REMARK 921   NORMALIZED FREE ENERGY PREDICTED BY IDOCK:   -4.03 KCAL/MOL
REMARK 922        TOTAL FREE ENERGY PREDICTED BY IDOCK:   -6.93 KCAL/MOL
REMARK 923 INTER-LIGAND FREE ENERGY PREDICTED BY IDOCK:   -5.16 KCAL/MOL
REMARK 924 INTRA-LIGAND FREE ENERGY PREDICTED BY IDOCK:   -1.77 KCAL/MOL
REMARK 927      BINDING AFFINITY PREDICTED BY RF-SCORE:    0.00 PKD
ROOT
HETATM    1  C   UNL     1     -10.295  10.948  64.446  1.00  0.00    -0.430 C  
HETATM    2  C   UNL     1      -9.499   9.832  65.124  1.00  0.00    -0.273 C  
HETATM    3  C   UNL     1      -8.003  10.041  64.858  1.00  0.00    -0.140 C  
ENDROOT
BRANCH   2   4
HETATM    4  N   UNL     1      -9.812   9.833  66.557  1.00  0.00    -0.210 NA 
HETATM    5  H   UNL     1     -10.804   9.655  66.715  1.00  0.00     0.000 HD 
BRANCH   4   6
HETATM    6  C   UNL     1      -8.981   8.894  67.323  1.00  0.00    -0.128 C  
BRANCH   6   7
HETATM    7  C   UNL     1      -8.544   9.481  68.682  1.00  0.00    -0.119 C  
HETATM    8  O   UNL     1      -8.297  10.887  68.564  1.00  0.00    -0.127 OA 
HETATM    9  H   UNL     1      -8.028  11.248  69.401  1.00  0.00     0.000 HD 
BRANCH   7  10
HETATM   10  C   UNL     1      -9.634   9.216  69.741  1.00  0.00    -0.181 C  
BRANCH  10  11
HETATM   11  O   UNL     1     -10.951   9.568  69.295  1.00  0.00    -0.219 OA 
BRANCH  11  12
HETATM   12  C   UNL     1     -11.635  10.523  70.012  1.00  0.00    -0.313 A  
HETATM   13  C   UNL     1     -12.360  10.232  71.177  1.00  0.00    -0.501 A  
HETATM   14  C   UNL     1     -13.068  11.222  71.854  1.00  0.00    -0.510 A  
HETATM   15  C   UNL     1     -13.084  12.517  71.365  1.00  0.00    -0.303 A  
HETATM   16  C   UNL     1     -12.359  12.831  70.218  1.00  0.00    -0.277 A  
HETATM   17  C   UNL     1     -11.591  11.859  69.553  1.00  0.00    -0.327 A  
BRANCH  17  18
HETATM   18  O   UNL     1     -10.792  12.161  68.465  1.00  0.00    -0.216 OA 
BRANCH  18  19
HETATM   19  C   UNL     1     -11.457  12.901  67.433  1.00  0.00    -0.336 C  
BRANCH  19  20
HETATM   20  C   UNL     1     -10.574  13.988  66.898  1.00  0.00    -0.280 C  
HETATM   21  C   UNL     1      -9.241  13.876  66.804  1.00  0.00    -0.267 C  
ENDBRANCH  19  20
ENDBRANCH  18  19
ENDBRANCH  17  18
ENDBRANCH  11  12
ENDBRANCH  10  11
ENDBRANCH   7  10
ENDBRANCH   6   7
ENDBRANCH   4   6
ENDBRANCH   2   4
TORSDOF 9
ENDMDL
MODEL      131
REMARK 921   NORMALIZED FREE ENERGY PREDICTED BY IDOCK:   -4.03 KCAL/MOL
REMARK 922        TOTAL FREE ENERGY PREDICTED BY IDOCK:   -6.93 KCAL/MOL
REMARK 923 INTER-LIGAND FREE ENERGY PREDICTED BY IDOCK:   -6.05 KCAL/MOL
REMARK 924 INTRA-LIGAND FREE ENERGY PREDICTED BY IDOCK:   -0.88 KCAL/MOL
REMARK 927      BINDING AFFINITY PREDICTED BY RF-SCORE:    0.00 PKD
ROOT
HETATM    1  C   UNL     1     -11.541  15.460  70.244  1.00  0.00    -0.346 C  
HETATM    2  C   UNL     1     -11.035  14.926  68.902  1.00  0.00    -0.251 C  
HETATM    3  C   UNL     1     -11.880  13.716  68.485  1.00  0.00    -0.406 C  
ENDROOT
BRANCH   2   4
HETATM    4  N   UNL     1     -11.092  16.008  67.913  1.00  0.00    -0.331 NA 
HETATM    5  H   UNL     1     -10.420  16.742  68.135  1.00  0.00     0.000 HD 
BRANCH   4   6
HETATM    6  C   UNL     1     -10.914  15.531  66.535  1.00  0.00    -0.243 C  
BRANCH   6   7
HETATM    7  C   UNL     1     -10.405  16.645  65.596  1.00  0.00    -0.290 C  
HETATM    8  O   UNL     1     -11.218  16.720  64.420  1.00  0.00    -1.192 OA 
HETATM    9  H   UNL     1     -10.904  17.406  63.842  1.00  0.00     0.000 HD 
BRANCH   7  10
HETATM   10  C   UNL     1     -10.410  17.997  66.338  1.00  0.00    -0.379 C  
BRANCH  10  11
HETATM   11  O   UNL     1      -9.426  18.073  67.379  1.00  0.00    -0.258 OA 
BRANCH  11  12
HETATM   12  C   UNL     1      -8.323  18.866  67.158  1.00  0.00    -0.274 A  
HETATM   13  C   UNL     1      -8.329  20.255  67.354  1.00  0.00    -0.396 A  
HETATM   14  C   UNL     1      -7.200  21.027  67.085  1.00  0.00    -0.348 A  
HETATM   15  C   UNL     1      -6.054  20.427  66.593  1.00  0.00    -0.221 A  
HETATM   16  C   UNL     1      -6.022  19.047  66.406  1.00  0.00    -0.184 A  
HETATM   17  C   UNL     1      -7.130  18.244  66.726  1.00  0.00    -0.206 A  
BRANCH  17  18
HETATM   18  O   UNL     1      -7.099  16.864  66.634  1.00  0.00    -0.207 OA 
BRANCH  18  19
HETATM   19  C   UNL     1      -5.982  16.255  67.297  1.00  0.00    -0.140 C  
BRANCH  19  20
HETATM   20  C   UNL     1      -6.340  14.894  67.812  1.00  0.00    -0.174 C  
HETATM   21  C   UNL     1      -7.523  14.305  67.579  1.00  0.00    -0.201 C  
ENDBRANCH  19  20
ENDBRANCH  18  19
ENDBRANCH  17  18
ENDBRANCH  11  12
ENDBRANCH  10  11
ENDBRANCH   7  10
ENDBRANCH   6   7
ENDBRANCH   4   6
ENDBRANCH   2   4
TORSDOF 9
ENDMDL
MODEL      132
REMARK 921   NORMALIZED FREE ENERGY PREDICTED BY IDOCK:   -4.00 KCAL/MOL
REMARK 922        TOTAL FREE ENERGY PREDICTED BY IDOCK:   -6.88 KCAL/MOL
REMARK 923 INTER-LIGAND FREE ENERGY PREDICTED BY IDOCK:   -6.51 KCAL/MOL
REMARK 924 INTRA-LIGAND FREE ENERGY PREDICTED BY IDOCK:   -0.37 KCAL/MOL
REMARK 927      BINDING AFFINITY PREDICTED BY RF-SCORE:    0.00 PKD
ROOT
HETATM    1  C   UNL     1      -8.661   8.324  72.348  1.00  0.00    -0.279 C  
HETATM    2  C   UNL     1     -10.136   8.050  72.047  1.00  0.00    -0.218 C  
HETATM    3  C   UNL     1     -10.782   7.363  73.256  1.00  0.00    -0.441 C  
ENDROOT
BRANCH   2   4
HETATM    4  N   UNL     1     -10.793   9.319  71.715  1.00  0.00    -0.354 NA 
HETATM    5  H   UNL     1     -10.159  10.106  71.854  1.00  0.00     0.000 HD 
BRANCH   4   6
HETATM    6  C   UNL     1     -11.358   9.331  70.359  1.00  0.00    -0.242 C  
BRANCH   6   7
HETATM    7  C   UNL     1     -10.917  10.573  69.558  1.00  0.00    -0.264 C  
HETATM    8  O   UNL     1      -9.494  10.721  69.606  1.00  0.00    -0.421 OA 
HETATM    9  H   UNL     1      -9.222  11.487  69.112  1.00  0.00     0.000 HD 
BRANCH   7  10
HETATM   10  C   UNL     1     -11.393  10.449  68.096  1.00  0.00    -0.213 C  
BRANCH  10  11
HETATM   11  O   UNL     1     -11.068  11.594  67.297  1.00  0.00    -0.256 OA 
BRANCH  11  12
HETATM   12  C   UNL     1     -10.760  11.383  65.972  1.00  0.00    -0.263 A  
HETATM   13  C   UNL     1      -9.701  10.562  65.555  1.00  0.00    -0.298 A  
HETATM   14  C   UNL     1      -9.400  10.402  64.204  1.00  0.00    -0.323 A  
HETATM   15  C   UNL     1     -10.136  11.079  63.247  1.00  0.00    -0.400 A  
HETATM   16  C   UNL     1     -11.201  11.888  63.639  1.00  0.00    -0.522 A  
HETATM   17  C   UNL     1     -11.557  12.017  64.992  1.00  0.00    -0.263 A  
BRANCH  17  18
HETATM   18  O   UNL     1     -12.662  12.740  65.404  1.00  0.00    -0.621 OA 
BRANCH  18  19
HETATM   19  C   UNL     1     -12.359  14.060  65.876  1.00  0.00    -0.486 C  
BRANCH  19  20
HETATM   20  C   UNL     1     -12.123  14.999  64.731  1.00  0.00    -0.266 C  
HETATM   21  C   UNL     1     -11.081  15.841  64.672  1.00  0.00    -0.376 C  
ENDBRANCH  19  20
ENDBRANCH  18  19
ENDBRANCH  17  18
ENDBRANCH  11  12
ENDBRANCH  10  11
ENDBRANCH   7  10
ENDBRANCH   6   7
ENDBRANCH   4   6
ENDBRANCH   2   4
TORSDOF 9
ENDMDL
MODEL      133
REMARK 921   NORMALIZED FREE ENERGY PREDICTED BY IDOCK:   -4.00 KCAL/MOL
REMARK 922        TOTAL FREE ENERGY PREDICTED BY IDOCK:   -6.87 KCAL/MOL
REMARK 923 INTER-LIGAND FREE ENERGY PREDICTED BY IDOCK:   -6.08 KCAL/MOL
REMARK 924 INTRA-LIGAND FREE ENERGY PREDICTED BY IDOCK:   -0.79 KCAL/MOL
REMARK 927      BINDING AFFINITY PREDICTED BY RF-SCORE:    0.00 PKD
ROOT
HETATM    1  C   UNL     1      -8.794   6.665  69.976  1.00  0.00    -0.141 C  
HETATM    2  C   UNL     1      -9.865   6.772  68.890  1.00  0.00    -0.145 C  
HETATM    3  C   UNL     1     -11.222   6.357  69.471  1.00  0.00    -0.477 C  
ENDROOT
BRANCH   2   4
HETATM    4  N   UNL     1      -9.880   8.147  68.377  1.00  0.00    -0.166 NA 
HETATM    5  H   UNL     1     -10.080   8.813  69.124  1.00  0.00     0.000 HD 
BRANCH   4   6
HETATM    6  C   UNL     1      -8.643   8.505  67.670  1.00  0.00    -0.133 C  
BRANCH   6   7
HETATM    7  C   UNL     1      -8.922   9.330  66.396  1.00  0.00    -0.154 C  
HETATM    8  O   UNL     1      -9.907   8.681  65.584  1.00  0.00    -0.443 OA 
HETATM    9  H   UNL     1     -10.078   9.189  64.799  1.00  0.00     0.000 HD 
BRANCH   7  10
HETATM   10  C   UNL     1      -9.396  10.746  66.783  1.00  0.00    -0.161 C  
BRANCH  10  11
HETATM   11  O   UNL     1     -10.821  10.897  66.735  1.00  0.00    -0.261 OA 
BRANCH  11  12
HETATM   12  C   UNL     1     -11.329  11.946  66.002  1.00  0.00    -0.316 A  
HETATM   13  C   UNL     1     -11.320  11.973  64.600  1.00  0.00    -0.377 A  
HETATM   14  C   UNL     1     -11.813  13.069  63.895  1.00  0.00    -0.542 A  
HETATM   15  C   UNL     1     -12.300  14.169  64.580  1.00  0.00    -0.432 A  
HETATM   16  C   UNL     1     -12.331  14.156  65.973  1.00  0.00    -0.470 A  
HETATM   17  C   UNL     1     -11.893  13.037  66.701  1.00  0.00    -0.393 A  
BRANCH  17  18
HETATM   18  O   UNL     1     -11.994  12.960  68.079  1.00  0.00    -0.346 OA 
BRANCH  18  19
HETATM   19  C   UNL     1     -11.800  14.210  68.754  1.00  0.00    -0.349 C  
BRANCH  19  20
HETATM   20  C   UNL     1     -12.015  14.063  70.229  1.00  0.00    -0.409 C  
HETATM   21  C   UNL     1     -12.498  12.947  70.796  1.00  0.00    -0.370 C  
ENDBRANCH  19  20
ENDBRANCH  18  19
ENDBRANCH  17  18
ENDBRANCH  11  12
ENDBRANCH  10  11
ENDBRANCH   7  10
ENDBRANCH   6   7
ENDBRANCH   4   6
ENDBRANCH   2   4
TORSDOF 9
ENDMDL
MODEL      134
REMARK 921   NORMALIZED FREE ENERGY PREDICTED BY IDOCK:   -4.00 KCAL/MOL
REMARK 922        TOTAL FREE ENERGY PREDICTED BY IDOCK:   -6.87 KCAL/MOL
REMARK 923 INTER-LIGAND FREE ENERGY PREDICTED BY IDOCK:   -6.20 KCAL/MOL
REMARK 924 INTRA-LIGAND FREE ENERGY PREDICTED BY IDOCK:   -0.67 KCAL/MOL
REMARK 927      BINDING AFFINITY PREDICTED BY RF-SCORE:    0.00 PKD
ROOT
HETATM    1  C   UNL     1     -10.290   8.119  71.834  1.00  0.00    -0.300 C  
HETATM    2  C   UNL     1     -11.233   7.739  70.691  1.00  0.00    -0.268 C  
HETATM    3  C   UNL     1     -12.390   6.899  71.244  1.00  0.00    -0.422 C  
ENDROOT
BRANCH   2   4
HETATM    4  N   UNL     1     -11.704   8.967  70.040  1.00  0.00    -0.451 NA 
HETATM    5  H   UNL     1     -12.518   9.347  70.522  1.00  0.00     0.000 HD 
BRANCH   4   6
HETATM    6  C   UNL     1     -10.650   9.982  69.907  1.00  0.00    -0.282 C  
BRANCH   6   7
HETATM    7  C   UNL     1     -11.214  11.354  69.483  1.00  0.00    -0.256 C  
HETATM    8  O   UNL     1     -10.169  12.330  69.424  1.00  0.00    -0.352 OA 
HETATM    9  H   UNL     1     -10.517  13.174  69.162  1.00  0.00     0.000 HD 
BRANCH   7  10
HETATM   10  C   UNL     1     -11.910  11.231  68.111  1.00  0.00    -0.205 C  
BRANCH  10  11
HETATM   11  O   UNL     1     -10.988  11.189  67.013  1.00  0.00    -0.275 OA 
BRANCH  11  12
HETATM   12  C   UNL     1     -11.295  11.929  65.893  1.00  0.00    -0.308 A  
HETATM   13  C   UNL     1     -12.019  13.129  65.945  1.00  0.00    -0.479 A  
HETATM   14  C   UNL     1     -12.339  13.830  64.784  1.00  0.00    -0.420 A  
HETATM   15  C   UNL     1     -11.962  13.331  63.549  1.00  0.00    -0.537 A  
HETATM   16  C   UNL     1     -11.230  12.149  63.476  1.00  0.00    -0.536 A  
HETATM   17  C   UNL     1     -10.847  11.457  64.639  1.00  0.00    -0.292 A  
BRANCH  17  18
HETATM   18  O   UNL     1     -10.045  10.330  64.602  1.00  0.00    -0.345 OA 
BRANCH  18  19
HETATM   19  C   UNL     1      -8.874  10.466  63.787  1.00  0.00    -0.212 C  
BRANCH  19  20
HETATM   20  C   UNL     1      -7.655   9.982  64.512  1.00  0.00    -0.142 C  
HETATM   21  C   UNL     1      -7.498  10.085  65.840  1.00  0.00    -0.115 C  
ENDBRANCH  19  20
ENDBRANCH  18  19
ENDBRANCH  17  18
ENDBRANCH  11  12
ENDBRANCH  10  11
ENDBRANCH   7  10
ENDBRANCH   6   7
ENDBRANCH   4   6
ENDBRANCH   2   4
TORSDOF 9
ENDMDL
MODEL      135
REMARK 921   NORMALIZED FREE ENERGY PREDICTED BY IDOCK:   -3.99 KCAL/MOL
REMARK 922        TOTAL FREE ENERGY PREDICTED BY IDOCK:   -6.86 KCAL/MOL
REMARK 923 INTER-LIGAND FREE ENERGY PREDICTED BY IDOCK:   -6.12 KCAL/MOL
REMARK 924 INTRA-LIGAND FREE ENERGY PREDICTED BY IDOCK:   -0.74 KCAL/MOL
REMARK 927      BINDING AFFINITY PREDICTED BY RF-SCORE:    0.00 PKD
ROOT
HETATM    1  C   UNL     1     -10.749  19.711  67.115  1.00  0.00    -0.587 C  
HETATM    2  C   UNL     1      -9.521  19.014  66.526  1.00  0.00    -0.345 C  
HETATM    3  C   UNL     1      -8.259  19.525  67.232  1.00  0.00    -0.321 C  
ENDROOT
BRANCH   2   4
HETATM    4  N   UNL     1      -9.687  17.563  66.672  1.00  0.00    -0.286 NA 
HETATM    5  H   UNL     1      -9.672  17.100  65.763  1.00  0.00     0.000 HD 
BRANCH   4   6
HETATM    6  C   UNL     1      -8.702  16.965  67.584  1.00  0.00    -0.209 C  
BRANCH   6   7
HETATM    7  C   UNL     1      -7.854  15.879  66.891  1.00  0.00    -0.247 C  
HETATM    8  O   UNL     1      -6.480  16.276  66.833  1.00  0.00    -0.248 OA 
HETATM    9  H   UNL     1      -5.958  15.607  66.406  1.00  0.00     0.000 HD 
BRANCH   7  10
HETATM   10  C   UNL     1      -7.994  14.543  67.650  1.00  0.00    -0.177 C  
BRANCH  10  11
HETATM   11  O   UNL     1      -8.625  13.516  66.874  1.00  0.00    -0.189 OA 
BRANCH  11  12
HETATM   12  C   UNL     1      -9.573  12.735  67.497  1.00  0.00    -0.192 A  
HETATM   13  C   UNL     1      -9.249  11.743  68.435  1.00  0.00    -0.175 A  
HETATM   14  C   UNL     1     -10.235  10.950  69.017  1.00  0.00    -0.219 A  
HETATM   15  C   UNL     1     -11.560  11.117  68.653  1.00  0.00    -0.383 A  
HETATM   16  C   UNL     1     -11.905  12.105  67.734  1.00  0.00    -0.327 A  
HETATM   17  C   UNL     1     -10.932  12.955  67.179  1.00  0.00    -0.262 A  
BRANCH  17  18
HETATM   18  O   UNL     1     -11.254  14.001  66.334  1.00  0.00    -0.308 OA 
BRANCH  18  19
HETATM   19  C   UNL     1     -12.389  13.751  65.494  1.00  0.00    -0.475 C  
BRANCH  19  20
HETATM   20  C   UNL     1     -11.961  13.246  64.149  1.00  0.00    -0.505 C  
HETATM   21  C   UNL     1     -12.536  12.201  63.536  1.00  0.00    -0.666 C  
ENDBRANCH  19  20
ENDBRANCH  18  19
ENDBRANCH  17  18
ENDBRANCH  11  12
ENDBRANCH  10  11
ENDBRANCH   7  10
ENDBRANCH   6   7
ENDBRANCH   4   6
ENDBRANCH   2   4
TORSDOF 9
ENDMDL
MODEL      136
REMARK 921   NORMALIZED FREE ENERGY PREDICTED BY IDOCK:   -3.99 KCAL/MOL
REMARK 922        TOTAL FREE ENERGY PREDICTED BY IDOCK:   -6.86 KCAL/MOL
REMARK 923 INTER-LIGAND FREE ENERGY PREDICTED BY IDOCK:   -5.97 KCAL/MOL
REMARK 924 INTRA-LIGAND FREE ENERGY PREDICTED BY IDOCK:   -0.89 KCAL/MOL
REMARK 927      BINDING AFFINITY PREDICTED BY RF-SCORE:    0.00 PKD
ROOT
HETATM    1  C   UNL     1      -8.676  18.745  68.455  1.00  0.00    -0.369 C  
HETATM    2  C   UNL     1     -10.171  18.480  68.268  1.00  0.00    -0.376 C  
HETATM    3  C   UNL     1     -10.745  19.491  67.268  1.00  0.00    -0.604 C  
ENDROOT
BRANCH   2   4
HETATM    4  N   UNL     1     -10.351  17.094  67.819  1.00  0.00    -0.334 NA 
HETATM    5  H   UNL     1      -9.451  16.639  67.669  1.00  0.00     0.000 HD 
BRANCH   4   6
HETATM    6  C   UNL     1     -11.194  16.306  68.728  1.00  0.00    -0.343 C  
BRANCH   6   7
HETATM    7  C   UNL     1     -11.637  14.970  68.096  1.00  0.00    -0.340 C  
HETATM    8  O   UNL     1     -10.625  14.473  67.213  1.00  0.00    -0.274 OA 
HETATM    9  H   UNL     1     -10.899  13.650  66.824  1.00  0.00     0.000 HD 
BRANCH   7  10
HETATM   10  C   UNL     1     -11.932  13.939  69.206  1.00  0.00    -0.357 C  
BRANCH  10  11
HETATM   11  O   UNL     1     -12.159  12.616  68.700  1.00  0.00    -0.269 OA 
BRANCH  11  12
HETATM   12  C   UNL     1     -11.583  11.565  69.378  1.00  0.00    -0.321 A  
HETATM   13  C   UNL     1     -12.153  10.990  70.523  1.00  0.00    -0.470 A  
HETATM   14  C   UNL     1     -11.520   9.950  71.200  1.00  0.00    -0.459 A  
HETATM   15  C   UNL     1     -10.294   9.484  70.760  1.00  0.00    -0.377 A  
HETATM   16  C   UNL     1      -9.717  10.032  69.617  1.00  0.00    -0.255 A  
HETATM   17  C   UNL     1     -10.367  11.041  68.886  1.00  0.00    -0.205 A  
BRANCH  17  18
HETATM   18  O   UNL     1      -9.861  11.542  67.699  1.00  0.00    -0.177 OA 
BRANCH  18  19
HETATM   19  C   UNL     1      -8.439  11.418  67.566  1.00  0.00    -0.137 C  
BRANCH  19  20
HETATM   20  C   UNL     1      -8.077  10.730  66.285  1.00  0.00    -0.159 C  
HETATM   21  C   UNL     1      -8.571   9.536  65.924  1.00  0.00    -0.144 C  
ENDBRANCH  19  20
ENDBRANCH  18  19
ENDBRANCH  17  18
ENDBRANCH  11  12
ENDBRANCH  10  11
ENDBRANCH   7  10
ENDBRANCH   6   7
ENDBRANCH   4   6
ENDBRANCH   2   4
TORSDOF 9
ENDMDL
MODEL      137
REMARK 921   NORMALIZED FREE ENERGY PREDICTED BY IDOCK:   -3.99 KCAL/MOL
REMARK 922        TOTAL FREE ENERGY PREDICTED BY IDOCK:   -6.86 KCAL/MOL
REMARK 923 INTER-LIGAND FREE ENERGY PREDICTED BY IDOCK:   -5.23 KCAL/MOL
REMARK 924 INTRA-LIGAND FREE ENERGY PREDICTED BY IDOCK:   -1.63 KCAL/MOL
REMARK 927      BINDING AFFINITY PREDICTED BY RF-SCORE:    0.00 PKD
ROOT
HETATM    1  C   UNL     1     -11.025   6.360  68.064  1.00  0.00    -0.400 C  
HETATM    2  C   UNL     1     -10.525   5.322  69.071  1.00  0.00    -0.136 C  
HETATM    3  C   UNL     1      -9.499   4.407  68.390  1.00  0.00    -0.213 C  
ENDROOT
BRANCH   2   4
HETATM    4  N   UNL     1      -9.958   6.023  70.228  1.00  0.00    -0.180 NA 
HETATM    5  H   UNL     1      -9.998   7.034  70.098  1.00  0.00     0.000 HD 
BRANCH   4   6
HETATM    6  C   UNL     1     -10.587   5.631  71.497  1.00  0.00    -0.244 C  
BRANCH   6   7
HETATM    7  C   UNL     1     -11.711   6.602  71.912  1.00  0.00    -0.313 C  
HETATM    8  O   UNL     1     -12.752   5.899  72.599  1.00  0.00    -0.514 OA 
HETATM    9  H   UNL     1     -13.445   6.498  72.855  1.00  0.00     0.000 HD 
BRANCH   7  10
HETATM   10  C   UNL     1     -11.134   7.716  72.810  1.00  0.00    -0.383 C  
BRANCH  10  11
HETATM   11  O   UNL     1     -10.228   8.586  72.118  1.00  0.00    -0.286 OA 
BRANCH  11  12
HETATM   12  C   UNL     1     -10.753   9.433  71.169  1.00  0.00    -0.347 A  
HETATM   13  C   UNL     1     -11.950  10.140  71.355  1.00  0.00    -0.447 A  
HETATM   14  C   UNL     1     -12.467  10.961  70.355  1.00  0.00    -0.411 A  
HETATM   15  C   UNL     1     -11.809  11.070  69.142  1.00  0.00    -0.407 A  
HETATM   16  C   UNL     1     -10.612  10.387  68.941  1.00  0.00    -0.241 A  
HETATM   17  C   UNL     1     -10.044   9.600  69.958  1.00  0.00    -0.252 A  
BRANCH  17  18
HETATM   18  O   UNL     1      -8.814   8.982  69.820  1.00  0.00    -0.138 OA 
BRANCH  18  19
HETATM   19  C   UNL     1      -8.251   9.077  68.505  1.00  0.00    -0.112 C  
BRANCH  19  20
HETATM   20  C   UNL     1      -7.474   7.842  68.163  1.00  0.00    -0.107 C  
HETATM   21  C   UNL     1      -7.440   7.310  66.932  1.00  0.00    -0.097 C  
ENDBRANCH  19  20
ENDBRANCH  18  19
ENDBRANCH  17  18
ENDBRANCH  11  12
ENDBRANCH  10  11
ENDBRANCH   7  10
ENDBRANCH   6   7
ENDBRANCH   4   6
ENDBRANCH   2   4
TORSDOF 9
ENDMDL
MODEL      138
REMARK 921   NORMALIZED FREE ENERGY PREDICTED BY IDOCK:   -3.98 KCAL/MOL
REMARK 922        TOTAL FREE ENERGY PREDICTED BY IDOCK:   -6.85 KCAL/MOL
REMARK 923 INTER-LIGAND FREE ENERGY PREDICTED BY IDOCK:   -6.19 KCAL/MOL
REMARK 924 INTRA-LIGAND FREE ENERGY PREDICTED BY IDOCK:   -0.66 KCAL/MOL
REMARK 927      BINDING AFFINITY PREDICTED BY RF-SCORE:    0.00 PKD
ROOT
HETATM    1  C   UNL     1     -10.245   8.721  71.503  1.00  0.00    -0.371 C  
HETATM    2  C   UNL     1     -11.423   9.440  70.842  1.00  0.00    -0.316 C  
HETATM    3  C   UNL     1     -12.601   9.492  71.822  1.00  0.00    -0.490 C  
ENDROOT
BRANCH   2   4
HETATM    4  N   UNL     1     -10.986  10.778  70.429  1.00  0.00    -0.445 NA 
HETATM    5  H   UNL     1     -10.624  10.766  69.475  1.00  0.00     0.000 HD 
BRANCH   4   6
HETATM    6  C   UNL     1     -12.038  11.793  70.579  1.00  0.00    -0.347 C  
BRANCH   6   7
HETATM    7  C   UNL     1     -11.897  12.932  69.549  1.00  0.00    -0.320 C  
HETATM    8  O   UNL     1     -10.816  13.800  69.906  1.00  0.00    -0.447 OA 
HETATM    9  H   UNL     1     -10.730  14.502  69.271  1.00  0.00     0.000 HD 
BRANCH   7  10
HETATM   10  C   UNL     1     -11.667  12.341  68.143  1.00  0.00    -0.349 C  
BRANCH  10  11
HETATM   11  O   UNL     1     -10.287  12.332  67.754  1.00  0.00    -0.201 OA 
BRANCH  11  12
HETATM   12  C   UNL     1      -9.870  11.340  66.895  1.00  0.00    -0.193 A  
HETATM   13  C   UNL     1      -9.014  10.300  67.287  1.00  0.00    -0.140 A  
HETATM   14  C   UNL     1      -8.588   9.334  66.378  1.00  0.00    -0.141 A  
HETATM   15  C   UNL     1      -8.989   9.405  65.055  1.00  0.00    -0.258 A  
HETATM   16  C   UNL     1      -9.851  10.421  64.648  1.00  0.00    -0.405 A  
HETATM   17  C   UNL     1     -10.339  11.371  65.562  1.00  0.00    -0.266 A  
BRANCH  17  18
HETATM   18  O   UNL     1     -11.264  12.337  65.207  1.00  0.00    -0.309 OA 
BRANCH  18  19
HETATM   19  C   UNL     1     -10.712  13.441  64.478  1.00  0.00    -0.419 C  
BRANCH  19  20
HETATM   20  C   UNL     1     -11.114  14.747  65.094  1.00  0.00    -0.389 C  
HETATM   21  C   UNL     1     -10.260  15.546  65.750  1.00  0.00    -0.390 C  
ENDBRANCH  19  20
ENDBRANCH  18  19
ENDBRANCH  17  18
ENDBRANCH  11  12
ENDBRANCH  10  11
ENDBRANCH   7  10
ENDBRANCH   6   7
ENDBRANCH   4   6
ENDBRANCH   2   4
TORSDOF 9
ENDMDL
MODEL      139
REMARK 921   NORMALIZED FREE ENERGY PREDICTED BY IDOCK:   -3.97 KCAL/MOL
REMARK 922        TOTAL FREE ENERGY PREDICTED BY IDOCK:   -6.84 KCAL/MOL
REMARK 923 INTER-LIGAND FREE ENERGY PREDICTED BY IDOCK:   -6.26 KCAL/MOL
REMARK 924 INTRA-LIGAND FREE ENERGY PREDICTED BY IDOCK:   -0.58 KCAL/MOL
REMARK 927      BINDING AFFINITY PREDICTED BY RF-SCORE:    0.00 PKD
ROOT
HETATM    1  C   UNL     1     -10.555  15.578  65.128  1.00  0.00    -0.455 C  
HETATM    2  C   UNL     1     -11.062  14.136  65.080  1.00  0.00    -0.348 C  
HETATM    3  C   UNL     1     -12.172  14.022  64.029  1.00  0.00    -0.395 C  
ENDROOT
BRANCH   2   4
HETATM    4  N   UNL     1      -9.931  13.248  64.789  1.00  0.00    -0.594 NA 
HETATM    5  H   UNL     1      -9.639  12.742  65.625  1.00  0.00     0.000 HD 
BRANCH   4   6
HETATM    6  C   UNL     1     -10.204  12.322  63.681  1.00  0.00    -0.403 C  
BRANCH   6   7
HETATM    7  C   UNL     1     -10.391  10.871  64.171  1.00  0.00    -0.364 C  
HETATM    8  O   UNL     1      -9.706   9.957  63.308  1.00  0.00    -0.514 OA 
HETATM    9  H   UNL     1      -9.821   9.064  63.610  1.00  0.00     0.000 HD 
BRANCH   7  10
HETATM   10  C   UNL     1      -9.870  10.735  65.617  1.00  0.00    -0.245 C  
BRANCH  10  11
HETATM   11  O   UNL     1     -10.430   9.615  66.316  1.00  0.00    -0.191 OA 
BRANCH  11  12
HETATM   12  C   UNL     1     -10.081   9.447  67.637  1.00  0.00    -0.211 A  
HETATM   13  C   UNL     1      -9.062   8.578  68.053  1.00  0.00    -0.144 A  
HETATM   14  C   UNL     1      -8.763   8.409  69.404  1.00  0.00    -0.137 A  
HETATM   15  C   UNL     1      -9.494   9.087  70.363  1.00  0.00    -0.247 A  
HETATM   16  C   UNL     1     -10.502   9.966  69.970  1.00  0.00    -0.331 A  
HETATM   17  C   UNL     1     -10.779  10.194  68.611  1.00  0.00    -0.222 A  
BRANCH  17  18
HETATM   18  O   UNL     1     -11.712  11.125  68.190  1.00  0.00    -0.480 OA 
BRANCH  18  19
HETATM   19  C   UNL     1     -11.857  12.251  69.066  1.00  0.00    -0.305 C  
BRANCH  19  20
HETATM   20  C   UNL     1     -11.305  13.495  68.438  1.00  0.00    -0.327 C  
HETATM   21  C   UNL     1     -11.847  14.710  68.611  1.00  0.00    -0.346 C  
ENDBRANCH  19  20
ENDBRANCH  18  19
ENDBRANCH  17  18
ENDBRANCH  11  12
ENDBRANCH  10  11
ENDBRANCH   7  10
ENDBRANCH   6   7
ENDBRANCH   4   6
ENDBRANCH   2   4
TORSDOF 9
ENDMDL
MODEL      140
REMARK 921   NORMALIZED FREE ENERGY PREDICTED BY IDOCK:   -3.97 KCAL/MOL
REMARK 922        TOTAL FREE ENERGY PREDICTED BY IDOCK:   -6.83 KCAL/MOL
REMARK 923 INTER-LIGAND FREE ENERGY PREDICTED BY IDOCK:   -6.02 KCAL/MOL
REMARK 924 INTRA-LIGAND FREE ENERGY PREDICTED BY IDOCK:   -0.81 KCAL/MOL
REMARK 927      BINDING AFFINITY PREDICTED BY RF-SCORE:    0.00 PKD
ROOT
HETATM    1  C   UNL     1     -11.802  13.016  64.120  1.00  0.00    -0.478 C  
HETATM    2  C   UNL     1     -11.244  13.730  65.352  1.00  0.00    -0.302 C  
HETATM    3  C   UNL     1     -10.916  15.184  64.991  1.00  0.00    -0.443 C  
ENDROOT
BRANCH   2   4
HETATM    4  N   UNL     1     -12.228  13.638  66.437  1.00  0.00    -0.431 NA 
HETATM    5  H   UNL     1     -12.614  12.696  66.500  1.00  0.00     0.000 HD 
BRANCH   4   6
HETATM    6  C   UNL     1     -11.691  14.075  67.732  1.00  0.00    -0.368 C  
BRANCH   6   7
HETATM    7  C   UNL     1     -10.644  13.088  68.289  1.00  0.00    -0.247 C  
HETATM    8  O   UNL     1      -9.725  13.767  69.152  1.00  0.00    -0.410 OA 
HETATM    9  H   UNL     1      -9.080  13.158  69.495  1.00  0.00     0.000 HD 
BRANCH   7  10
HETATM   10  C   UNL     1     -11.352  11.949  69.051  1.00  0.00    -0.279 C  
BRANCH  10  11
HETATM   11  O   UNL     1     -11.877  10.932  68.186  1.00  0.00    -0.564 OA 
BRANCH  11  12
HETATM   12  C   UNL     1     -10.978  10.092  67.569  1.00  0.00    -0.212 A  
HETATM   13  C   UNL     1     -10.467  10.330  66.284  1.00  0.00    -0.214 A  
HETATM   14  C   UNL     1      -9.585   9.436  65.680  1.00  0.00    -0.345 A  
HETATM   15  C   UNL     1      -9.219   8.276  66.339  1.00  0.00    -0.247 A  
HETATM   16  C   UNL     1      -9.703   8.027  67.621  1.00  0.00    -0.198 A  
HETATM   17  C   UNL     1     -10.547   8.944  68.271  1.00  0.00    -0.152 A  
BRANCH  17  18
HETATM   18  O   UNL     1     -10.972   8.767  69.576  1.00  0.00    -0.186 OA 
BRANCH  18  19
HETATM   19  C   UNL     1     -10.866   7.418  70.052  1.00  0.00    -0.252 C  
BRANCH  19  20
HETATM   20  C   UNL     1     -12.137   6.980  70.713  1.00  0.00    -0.374 C  
HETATM   21  C   UNL     1     -12.965   7.822  71.350  1.00  0.00    -0.322 C  
ENDBRANCH  19  20
ENDBRANCH  18  19
ENDBRANCH  17  18
ENDBRANCH  11  12
ENDBRANCH  10  11
ENDBRANCH   7  10
ENDBRANCH   6   7
ENDBRANCH   4   6
ENDBRANCH   2   4
TORSDOF 9
ENDMDL
MODEL      141
REMARK 921   NORMALIZED FREE ENERGY PREDICTED BY IDOCK:   -3.97 KCAL/MOL
REMARK 922        TOTAL FREE ENERGY PREDICTED BY IDOCK:   -6.83 KCAL/MOL
REMARK 923 INTER-LIGAND FREE ENERGY PREDICTED BY IDOCK:   -5.96 KCAL/MOL
REMARK 924 INTRA-LIGAND FREE ENERGY PREDICTED BY IDOCK:   -0.86 KCAL/MOL
REMARK 927      BINDING AFFINITY PREDICTED BY RF-SCORE:    0.00 PKD
ROOT
HETATM    1  C   UNL     1     -13.670  15.348  71.663  1.00  0.00    -0.606 C  
HETATM    2  C   UNL     1     -12.738  14.158  71.901  1.00  0.00    -0.320 C  
HETATM    3  C   UNL     1     -13.558  12.961  72.397  1.00  0.00    -0.577 C  
ENDROOT
BRANCH   2   4
HETATM    4  N   UNL     1     -12.024  13.862  70.654  1.00  0.00    -0.455 NA 
HETATM    5  H   UNL     1     -12.366  12.998  70.234  1.00  0.00     0.000 HD 
BRANCH   4   6
HETATM    6  C   UNL     1     -12.074  14.971  69.691  1.00  0.00    -0.300 C  
BRANCH   6   7
HETATM    7  C   UNL     1     -11.196  14.703  68.451  1.00  0.00    -0.274 C  
HETATM    8  O   UNL     1      -9.878  14.307  68.847  1.00  0.00    -0.309 OA 
HETATM    9  H   UNL     1      -9.337  14.142  68.083  1.00  0.00     0.000 HD 
BRANCH   7  10
HETATM   10  C   UNL     1     -11.844  13.608  67.578  1.00  0.00    -0.381 C  
BRANCH  10  11
HETATM   11  O   UNL     1     -11.385  12.287  67.896  1.00  0.00    -0.256 OA 
BRANCH  11  12
HETATM   12  C   UNL     1     -10.803  11.553  66.887  1.00  0.00    -0.284 A  
HETATM   13  C   UNL     1     -10.749  11.993  65.556  1.00  0.00    -0.318 A  
HETATM   14  C   UNL     1     -10.182  11.203  64.557  1.00  0.00    -0.383 A  
HETATM   15  C   UNL     1      -9.682   9.950  64.867  1.00  0.00    -0.332 A  
HETATM   16  C   UNL     1      -9.714   9.501  66.185  1.00  0.00    -0.324 A  
HETATM   17  C   UNL     1     -10.228  10.305  67.216  1.00  0.00    -0.218 A  
BRANCH  17  18
HETATM   18  O   UNL     1     -10.191   9.923  68.546  1.00  0.00    -0.164 OA 
BRANCH  18  19
HETATM   19  C   UNL     1     -10.305   8.509  68.755  1.00  0.00    -0.213 C  
BRANCH  19  20
HETATM   20  C   UNL     1      -9.132   7.984  69.526  1.00  0.00    -0.152 C  
HETATM   21  C   UNL     1      -8.027   8.705  69.768  1.00  0.00    -0.095 C  
ENDBRANCH  19  20
ENDBRANCH  18  19
ENDBRANCH  17  18
ENDBRANCH  11  12
ENDBRANCH  10  11
ENDBRANCH   7  10
ENDBRANCH   6   7
ENDBRANCH   4   6
ENDBRANCH   2   4
TORSDOF 9
ENDMDL
MODEL      142
REMARK 921   NORMALIZED FREE ENERGY PREDICTED BY IDOCK:   -3.96 KCAL/MOL
REMARK 922        TOTAL FREE ENERGY PREDICTED BY IDOCK:   -6.81 KCAL/MOL
REMARK 923 INTER-LIGAND FREE ENERGY PREDICTED BY IDOCK:   -5.29 KCAL/MOL
REMARK 924 INTRA-LIGAND FREE ENERGY PREDICTED BY IDOCK:   -1.52 KCAL/MOL
REMARK 927      BINDING AFFINITY PREDICTED BY RF-SCORE:    0.00 PKD
ROOT
HETATM    1  C   UNL     1     -11.103  12.813  68.408  1.00  0.00    -0.293 C  
HETATM    2  C   UNL     1     -11.735  11.617  67.694  1.00  0.00    -0.228 C  
HETATM    3  C   UNL     1     -10.724  11.022  66.707  1.00  0.00    -0.319 C  
ENDROOT
BRANCH   2   4
HETATM    4  N   UNL     1     -12.166  10.641  68.701  1.00  0.00    -0.814 NA 
HETATM    5  H   UNL     1     -11.730   9.733  68.539  1.00  0.00     0.000 HD 
BRANCH   4   6
HETATM    6  C   UNL     1     -11.933  11.100  70.076  1.00  0.00    -0.367 C  
BRANCH   6   7
HETATM    7  C   UNL     1     -11.741   9.924  71.056  1.00  0.00    -0.382 C  
HETATM    8  O   UNL     1     -12.617   8.843  70.720  1.00  0.00    -0.496 OA 
HETATM    9  H   UNL     1     -12.498   8.118  71.323  1.00  0.00     0.000 HD 
BRANCH   7  10
HETATM   10  C   UNL     1     -10.272   9.452  71.025  1.00  0.00    -0.299 C  
BRANCH  10  11
HETATM   11  O   UNL     1      -9.538   9.966  69.905  1.00  0.00    -0.222 OA 
BRANCH  11  12
HETATM   12  C   UNL     1      -8.639   9.125  69.289  1.00  0.00    -0.137 A  
HETATM   13  C   UNL     1      -7.251   9.242  69.449  1.00  0.00    -0.068 A  
HETATM   14  C   UNL     1      -6.372   8.392  68.780  1.00  0.00    -0.049 A  
HETATM   15  C   UNL     1      -6.866   7.426  67.920  1.00  0.00    -0.074 A  
HETATM   16  C   UNL     1      -8.242   7.284  67.758  1.00  0.00    -0.119 A  
HETATM   17  C   UNL     1      -9.146   8.093  68.468  1.00  0.00    -0.136 A  
BRANCH  17  18
HETATM   18  O   UNL     1     -10.516   7.917  68.395  1.00  0.00    -0.205 OA 
BRANCH  18  19
HETATM   19  C   UNL     1     -10.934   6.545  68.381  1.00  0.00    -0.281 C  
BRANCH  19  20
HETATM   20  C   UNL     1     -11.133   6.030  69.775  1.00  0.00    -0.476 C  
HETATM   21  C   UNL     1     -10.184   5.375  70.461  1.00  0.00    -0.326 C  
ENDBRANCH  19  20
ENDBRANCH  18  19
ENDBRANCH  17  18
ENDBRANCH  11  12
ENDBRANCH  10  11
ENDBRANCH   7  10
ENDBRANCH   6   7
ENDBRANCH   4   6
ENDBRANCH   2   4
TORSDOF 9
ENDMDL
MODEL      143
REMARK 921   NORMALIZED FREE ENERGY PREDICTED BY IDOCK:   -3.95 KCAL/MOL
REMARK 922        TOTAL FREE ENERGY PREDICTED BY IDOCK:   -6.81 KCAL/MOL
REMARK 923 INTER-LIGAND FREE ENERGY PREDICTED BY IDOCK:   -5.53 KCAL/MOL
REMARK 924 INTRA-LIGAND FREE ENERGY PREDICTED BY IDOCK:   -1.28 KCAL/MOL
REMARK 927      BINDING AFFINITY PREDICTED BY RF-SCORE:    0.00 PKD
ROOT
HETATM    1  C   UNL     1     -11.946  12.993  63.568  1.00  0.00    -0.615 C  
HETATM    2  C   UNL     1     -10.791  13.184  64.553  1.00  0.00    -0.383 C  
HETATM    3  C   UNL     1     -10.680  14.667  64.924  1.00  0.00    -0.447 C  
ENDROOT
BRANCH   2   4
HETATM    4  N   UNL     1     -11.028  12.336  65.727  1.00  0.00    -0.290 NA 
HETATM    5  H   UNL     1     -10.149  12.079  66.176  1.00  0.00     0.000 HD 
BRANCH   4   6
HETATM    6  C   UNL     1     -11.953  12.945  66.692  1.00  0.00    -0.366 C  
BRANCH   6   7
HETATM    7  C   UNL     1     -11.870  12.273  68.079  1.00  0.00    -0.305 C  
HETATM    8  O   UNL     1     -12.041  10.856  67.960  1.00  0.00    -0.780 OA 
HETATM    9  H   UNL     1     -11.990  10.443  68.815  1.00  0.00     0.000 HD 
BRANCH   7  10
HETATM   10  C   UNL     1     -10.512  12.596  68.736  1.00  0.00    -0.143 C  
BRANCH  10  11
HETATM   11  O   UNL     1      -9.880  13.758  68.183  1.00  0.00    -0.225 OA 
BRANCH  11  12
HETATM   12  C   UNL     1      -8.507  13.750  68.077  1.00  0.00    -0.176 A  
HETATM   13  C   UNL     1      -7.797  12.725  67.435  1.00  0.00    -0.172 A  
HETATM   14  C   UNL     1      -6.404  12.736  67.380  1.00  0.00    -0.139 A  
HETATM   15  C   UNL     1      -5.697  13.759  67.986  1.00  0.00    -0.132 A  
HETATM   16  C   UNL     1      -6.384  14.795  68.616  1.00  0.00    -0.085 A  
HETATM   17  C   UNL     1      -7.789  14.832  68.632  1.00  0.00    -0.140 A  
BRANCH  17  18
HETATM   18  O   UNL     1      -8.498  15.891  69.172  1.00  0.00    -0.229 OA 
BRANCH  18  19
HETATM   19  C   UNL     1      -8.269  17.147  68.518  1.00  0.00    -0.261 C  
BRANCH  19  20
HETATM   20  C   UNL     1      -9.535  17.677  67.916  1.00  0.00    -0.276 C  
HETATM   21  C   UNL     1     -10.721  17.061  68.032  1.00  0.00    -0.365 C  
ENDBRANCH  19  20
ENDBRANCH  18  19
ENDBRANCH  17  18
ENDBRANCH  11  12
ENDBRANCH  10  11
ENDBRANCH   7  10
ENDBRANCH   6   7
ENDBRANCH   4   6
ENDBRANCH   2   4
TORSDOF 9
ENDMDL
MODEL      144
REMARK 921   NORMALIZED FREE ENERGY PREDICTED BY IDOCK:   -3.94 KCAL/MOL
REMARK 922        TOTAL FREE ENERGY PREDICTED BY IDOCK:   -6.79 KCAL/MOL
REMARK 923 INTER-LIGAND FREE ENERGY PREDICTED BY IDOCK:   -6.25 KCAL/MOL
REMARK 924 INTRA-LIGAND FREE ENERGY PREDICTED BY IDOCK:   -0.55 KCAL/MOL
REMARK 927      BINDING AFFINITY PREDICTED BY RF-SCORE:    0.00 PKD
ROOT
HETATM    1  C   UNL     1     -12.708  15.271  70.468  1.00  0.00    -0.440 C  
HETATM    2  C   UNL     1     -12.422  14.136  71.453  1.00  0.00    -0.359 C  
HETATM    3  C   UNL     1     -13.577  14.031  72.456  1.00  0.00    -0.670 C  
ENDROOT
BRANCH   2   4
HETATM    4  N   UNL     1     -12.230  12.893  70.697  1.00  0.00    -0.457 NA 
HETATM    5  H   UNL     1     -13.107  12.379  70.611  1.00  0.00     0.000 HD 
BRANCH   4   6
HETATM    6  C   UNL     1     -11.619  13.116  69.380  1.00  0.00    -0.300 C  
BRANCH   6   7
HETATM    7  C   UNL     1     -10.995  11.828  68.804  1.00  0.00    -0.234 C  
HETATM    8  O   UNL     1      -9.571  11.849  68.959  1.00  0.00    -0.409 OA 
HETATM    9  H   UNL     1      -9.187  11.055  68.605  1.00  0.00     0.000 HD 
BRANCH   7  10
HETATM   10  C   UNL     1     -11.592  10.595  69.514  1.00  0.00    -0.288 C  
BRANCH  10  11
HETATM   11  O   UNL     1     -10.699   9.473  69.543  1.00  0.00    -0.218 OA 
BRANCH  11  12
HETATM   12  C   UNL     1     -10.902   8.519  70.515  1.00  0.00    -0.228 A  
HETATM   13  C   UNL     1     -10.893   8.813  71.887  1.00  0.00    -0.431 A  
HETATM   14  C   UNL     1     -11.068   7.812  72.841  1.00  0.00    -0.457 A  
HETATM   15  C   UNL     1     -11.229   6.497  72.441  1.00  0.00    -0.310 A  
HETATM   16  C   UNL     1     -11.255   6.186  71.084  1.00  0.00    -0.355 A  
HETATM   17  C   UNL     1     -11.139   7.188  70.105  1.00  0.00    -0.272 A  
BRANCH  17  18
HETATM   18  O   UNL     1     -11.250   6.922  68.752  1.00  0.00    -0.139 OA 
BRANCH  18  19
HETATM   19  C   UNL     1     -10.116   6.248  68.189  1.00  0.00    -0.152 C  
BRANCH  19  20
HETATM   20  C   UNL     1     -10.491   5.522  66.933  1.00  0.00    -0.348 C  
HETATM   21  C   UNL     1      -9.591   5.074  66.044  1.00  0.00    -0.179 C  
ENDBRANCH  19  20
ENDBRANCH  18  19
ENDBRANCH  17  18
ENDBRANCH  11  12
ENDBRANCH  10  11
ENDBRANCH   7  10
ENDBRANCH   6   7
ENDBRANCH   4   6
ENDBRANCH   2   4
TORSDOF 9
ENDMDL
MODEL      145
REMARK 921   NORMALIZED FREE ENERGY PREDICTED BY IDOCK:   -3.94 KCAL/MOL
REMARK 922        TOTAL FREE ENERGY PREDICTED BY IDOCK:   -6.78 KCAL/MOL
REMARK 923 INTER-LIGAND FREE ENERGY PREDICTED BY IDOCK:   -6.03 KCAL/MOL
REMARK 924 INTRA-LIGAND FREE ENERGY PREDICTED BY IDOCK:   -0.76 KCAL/MOL
REMARK 927      BINDING AFFINITY PREDICTED BY RF-SCORE:    0.00 PKD
ROOT
HETATM    1  C   UNL     1     -12.011  13.245  64.056  1.00  0.00    -0.525 C  
HETATM    2  C   UNL     1     -11.384  14.029  65.210  1.00  0.00    -0.321 C  
HETATM    3  C   UNL     1     -11.065  15.454  64.742  1.00  0.00    -0.416 C  
ENDROOT
BRANCH   2   4
HETATM    4  N   UNL     1     -12.310  14.014  66.348  1.00  0.00    -0.461 NA 
HETATM    5  H   UNL     1     -12.693  13.080  66.495  1.00  0.00     0.000 HD 
BRANCH   4   6
HETATM    6  C   UNL     1     -11.706  14.535  67.582  1.00  0.00    -0.382 C  
BRANCH   6   7
HETATM    7  C   UNL     1     -10.916  13.451  68.344  1.00  0.00    -0.267 C  
HETATM    8  O   UNL     1      -9.879  14.046  69.131  1.00  0.00    -0.422 OA 
HETATM    9  H   UNL     1      -9.393  13.378  69.601  1.00  0.00     0.000 HD 
BRANCH   7  10
HETATM   10  C   UNL     1     -11.873  12.642  69.244  1.00  0.00    -0.302 C  
BRANCH  10  11
HETATM   11  O   UNL     1     -11.874  11.239  68.949  1.00  0.00    -0.317 OA 
BRANCH  11  12
HETATM   12  C   UNL     1     -11.304  10.391  69.872  1.00  0.00    -0.302 A  
HETATM   13  C   UNL     1     -11.990   9.918  71.001  1.00  0.00    -0.456 A  
HETATM   14  C   UNL     1     -11.365   9.089  71.930  1.00  0.00    -0.438 A  
HETATM   15  C   UNL     1     -10.037   8.739  71.761  1.00  0.00    -0.403 A  
HETATM   16  C   UNL     1      -9.342   9.186  70.640  1.00  0.00    -0.312 A  
HETATM   17  C   UNL     1      -9.970   9.975  69.661  1.00  0.00    -0.236 A  
BRANCH  17  18
HETATM   18  O   UNL     1      -9.333  10.359  68.494  1.00  0.00    -0.147 OA 
BRANCH  18  19
HETATM   19  C   UNL     1      -7.937  10.035  68.452  1.00  0.00    -0.097 C  
BRANCH  19  20
HETATM   20  C   UNL     1      -7.114  11.245  68.132  1.00  0.00    -0.071 C  
HETATM   21  C   UNL     1      -7.517  12.209  67.290  1.00  0.00    -0.152 C  
ENDBRANCH  19  20
ENDBRANCH  18  19
ENDBRANCH  17  18
ENDBRANCH  11  12
ENDBRANCH  10  11
ENDBRANCH   7  10
ENDBRANCH   6   7
ENDBRANCH   4   6
ENDBRANCH   2   4
TORSDOF 9
ENDMDL
MODEL      146
REMARK 921   NORMALIZED FREE ENERGY PREDICTED BY IDOCK:   -3.93 KCAL/MOL
REMARK 922        TOTAL FREE ENERGY PREDICTED BY IDOCK:   -6.78 KCAL/MOL
REMARK 923 INTER-LIGAND FREE ENERGY PREDICTED BY IDOCK:   -5.87 KCAL/MOL
REMARK 924 INTRA-LIGAND FREE ENERGY PREDICTED BY IDOCK:   -0.91 KCAL/MOL
REMARK 927      BINDING AFFINITY PREDICTED BY RF-SCORE:    0.00 PKD
ROOT
HETATM    1  C   UNL     1     -10.607   6.629  67.783  1.00  0.00    -0.311 C  
HETATM    2  C   UNL     1     -10.547   6.312  69.278  1.00  0.00    -0.273 C  
HETATM    3  C   UNL     1      -9.083   6.299  69.736  1.00  0.00    -0.143 C  
ENDROOT
BRANCH   2   4
HETATM    4  N   UNL     1     -11.344   7.309  70.003  1.00  0.00    -0.446 NA 
HETATM    5  H   UNL     1     -11.826   7.932  69.355  1.00  0.00     0.000 HD 
BRANCH   4   6
HETATM    6  C   UNL     1     -12.288   6.702  70.952  1.00  0.00    -0.201 C  
BRANCH   6   7
HETATM    7  C   UNL     1     -12.935   7.753  71.878  1.00  0.00    -0.282 C  
HETATM    8  O   UNL     1     -12.126   7.961  73.041  1.00  0.00    -0.626 OA 
HETATM    9  H   UNL     1     -12.525   8.609  73.612  1.00  0.00     0.000 HD 
BRANCH   7  10
HETATM   10  C   UNL     1     -13.123   9.079  71.113  1.00  0.00    -0.128 C  
BRANCH  10  11
HETATM   11  O   UNL     1     -12.008   9.972  71.247  1.00  0.00    -0.347 OA 
BRANCH  11  12
HETATM   12  C   UNL     1     -12.246  11.319  71.099  1.00  0.00    -0.246 A  
HETATM   13  C   UNL     1     -12.922  12.085  72.061  1.00  0.00    -0.374 A  
HETATM   14  C   UNL     1     -13.174  13.441  71.858  1.00  0.00    -0.522 A  
HETATM   15  C   UNL     1     -12.777  14.048  70.679  1.00  0.00    -0.373 A  
HETATM   16  C   UNL     1     -12.093  13.309  69.717  1.00  0.00    -0.355 A  
HETATM   17  C   UNL     1     -11.778  11.955  69.928  1.00  0.00    -0.308 A  
BRANCH  17  18
HETATM   18  O   UNL     1     -11.023  11.220  69.032  1.00  0.00    -0.209 OA 
BRANCH  18  19
HETATM   19  C   UNL     1      -9.901  11.928  68.487  1.00  0.00    -0.183 C  
BRANCH  19  20
HETATM   20  C   UNL     1      -9.820  11.744  67.002  1.00  0.00    -0.213 C  
HETATM   21  C   UNL     1     -10.885  11.473  66.233  1.00  0.00    -0.333 C  
ENDBRANCH  19  20
ENDBRANCH  18  19
ENDBRANCH  17  18
ENDBRANCH  11  12
ENDBRANCH  10  11
ENDBRANCH   7  10
ENDBRANCH   6   7
ENDBRANCH   4   6
ENDBRANCH   2   4
TORSDOF 9
ENDMDL
MODEL      147
REMARK 921   NORMALIZED FREE ENERGY PREDICTED BY IDOCK:   -3.93 KCAL/MOL
REMARK 922        TOTAL FREE ENERGY PREDICTED BY IDOCK:   -6.77 KCAL/MOL
REMARK 923 INTER-LIGAND FREE ENERGY PREDICTED BY IDOCK:   -5.70 KCAL/MOL
REMARK 924 INTRA-LIGAND FREE ENERGY PREDICTED BY IDOCK:   -1.07 KCAL/MOL
REMARK 927      BINDING AFFINITY PREDICTED BY RF-SCORE:    0.00 PKD
ROOT
HETATM    1  C   UNL     1      -9.822   6.205  66.664  1.00  0.00    -0.202 C  
HETATM    2  C   UNL     1     -11.035   6.724  67.438  1.00  0.00    -0.337 C  
HETATM    3  C   UNL     1     -11.037   6.119  68.847  1.00  0.00    -0.417 C  
ENDROOT
BRANCH   2   4
HETATM    4  N   UNL     1     -10.983   8.191  67.466  1.00  0.00    -0.493 NA 
HETATM    5  H   UNL     1     -10.998   8.538  68.425  1.00  0.00     0.000 HD 
BRANCH   4   6
HETATM    6  C   UNL     1      -9.836   8.734  66.726  1.00  0.00    -0.247 C  
BRANCH   6   7
HETATM    7  C   UNL     1      -9.084   9.813  67.533  1.00  0.00    -0.130 C  
HETATM    8  O   UNL     1      -8.539  10.806  66.657  1.00  0.00    -0.135 OA 
HETATM    9  H   UNL     1      -8.076  11.470  67.154  1.00  0.00     0.000 HD 
BRANCH   7  10
HETATM   10  C   UNL     1     -10.040  10.465  68.553  1.00  0.00    -0.171 C  
BRANCH  10  11
HETATM   11  O   UNL     1      -9.857   9.979  69.889  1.00  0.00    -0.235 OA 
BRANCH  11  12
HETATM   12  C   UNL     1     -10.984   9.748  70.646  1.00  0.00    -0.331 A  
HETATM   13  C   UNL     1     -12.167  10.487  70.499  1.00  0.00    -0.435 A  
HETATM   14  C   UNL     1     -13.275  10.245  71.309  1.00  0.00    -0.447 A  
HETATM   15  C   UNL     1     -13.211   9.278  72.297  1.00  0.00    -0.535 A  
HETATM   16  C   UNL     1     -12.050   8.524  72.450  1.00  0.00    -0.436 A  
HETATM   17  C   UNL     1     -10.942   8.712  71.605  1.00  0.00    -0.308 A  
BRANCH  17  18
HETATM   18  O   UNL     1      -9.811   7.919  71.676  1.00  0.00    -0.160 OA 
BRANCH  18  19
HETATM   19  C   UNL     1      -9.720   7.127  72.868  1.00  0.00    -0.165 C  
BRANCH  19  20
HETATM   20  C   UNL     1      -8.755   7.732  73.842  1.00  0.00    -0.322 C  
HETATM   21  C   UNL     1      -7.506   8.097  73.513  1.00  0.00    -0.197 C  
ENDBRANCH  19  20
ENDBRANCH  18  19
ENDBRANCH  17  18
ENDBRANCH  11  12
ENDBRANCH  10  11
ENDBRANCH   7  10
ENDBRANCH   6   7
ENDBRANCH   4   6
ENDBRANCH   2   4
TORSDOF 9
ENDMDL
MODEL      148
REMARK 921   NORMALIZED FREE ENERGY PREDICTED BY IDOCK:   -3.93 KCAL/MOL
REMARK 922        TOTAL FREE ENERGY PREDICTED BY IDOCK:   -6.76 KCAL/MOL
REMARK 923 INTER-LIGAND FREE ENERGY PREDICTED BY IDOCK:   -6.00 KCAL/MOL
REMARK 924 INTRA-LIGAND FREE ENERGY PREDICTED BY IDOCK:   -0.77 KCAL/MOL
REMARK 927      BINDING AFFINITY PREDICTED BY RF-SCORE:    0.00 PKD
ROOT
HETATM    1  C   UNL     1     -12.839  13.141  71.114  1.00  0.00    -0.349 C  
HETATM    2  C   UNL     1     -11.766  13.008  70.031  1.00  0.00    -0.215 C  
HETATM    3  C   UNL     1     -12.153  11.879  69.069  1.00  0.00    -0.245 C  
ENDROOT
BRANCH   2   4
HETATM    4  N   UNL     1     -11.628  14.298  69.345  1.00  0.00    -0.287 NA 
HETATM    5  H   UNL     1     -12.511  14.808  69.345  1.00  0.00     0.000 HD 
BRANCH   4   6
HETATM    6  C   UNL     1     -10.543  15.122  69.894  1.00  0.00    -0.235 C  
BRANCH   6   7
HETATM    7  C   UNL     1      -9.452  15.420  68.844  1.00  0.00    -0.219 C  
HETATM    8  O   UNL     1      -8.268  15.916  69.479  1.00  0.00    -0.219 OA 
HETATM    9  H   UNL     1      -7.596  16.099  68.832  1.00  0.00     0.000 HD 
BRANCH   7  10
HETATM   10  C   UNL     1      -9.135  14.141  68.043  1.00  0.00    -0.191 C  
BRANCH  10  11
HETATM   11  O   UNL     1      -8.952  14.384  66.641  1.00  0.00    -0.252 OA 
BRANCH  11  12
HETATM   12  C   UNL     1     -10.078  14.470  65.855  1.00  0.00    -0.326 A  
HETATM   13  C   UNL     1     -10.908  13.371  65.585  1.00  0.00    -0.292 A  
HETATM   14  C   UNL     1     -12.020  13.492  64.755  1.00  0.00    -0.424 A  
HETATM   15  C   UNL     1     -12.309  14.708  64.160  1.00  0.00    -0.294 A  
HETATM   16  C   UNL     1     -11.507  15.815  64.426  1.00  0.00    -0.268 A  
HETATM   17  C   UNL     1     -10.415  15.728  65.306  1.00  0.00    -0.401 A  
BRANCH  17  18
HETATM   18  O   UNL     1      -9.654  16.829  65.658  1.00  0.00    -0.527 OA 
BRANCH  18  19
HETATM   19  C   UNL     1     -10.416  17.931  66.169  1.00  0.00    -0.321 C  
BRANCH  19  20
HETATM   20  C   UNL     1      -9.524  19.085  66.516  1.00  0.00    -0.375 C  
HETATM   21  C   UNL     1      -9.887  20.072  67.349  1.00  0.00    -0.558 C  
ENDBRANCH  19  20
ENDBRANCH  18  19
ENDBRANCH  17  18
ENDBRANCH  11  12
ENDBRANCH  10  11
ENDBRANCH   7  10
ENDBRANCH   6   7
ENDBRANCH   4   6
ENDBRANCH   2   4
TORSDOF 9
ENDMDL
MODEL      149
REMARK 921   NORMALIZED FREE ENERGY PREDICTED BY IDOCK:   -3.92 KCAL/MOL
REMARK 922        TOTAL FREE ENERGY PREDICTED BY IDOCK:   -6.75 KCAL/MOL
REMARK 923 INTER-LIGAND FREE ENERGY PREDICTED BY IDOCK:   -6.01 KCAL/MOL
REMARK 924 INTRA-LIGAND FREE ENERGY PREDICTED BY IDOCK:   -0.74 KCAL/MOL
REMARK 927      BINDING AFFINITY PREDICTED BY RF-SCORE:    0.00 PKD
ROOT
HETATM    1  C   UNL     1     -11.510  10.852  68.267  1.00  0.00    -0.376 C  
HETATM    2  C   UNL     1     -12.086  11.267  69.622  1.00  0.00    -0.322 C  
HETATM    3  C   UNL     1     -11.627  10.273  70.695  1.00  0.00    -0.435 C  
ENDROOT
BRANCH   2   4
HETATM    4  N   UNL     1     -11.655  12.639  69.916  1.00  0.00    -0.511 NA 
HETATM    5  H   UNL     1     -11.409  12.740  70.901  1.00  0.00     0.000 HD 
BRANCH   4   6
HETATM    6  C   UNL     1     -10.557  13.089  69.050  1.00  0.00    -0.044 C  
BRANCH   6   7
HETATM    7  C   UNL     1     -10.552  14.622  68.870  1.00  0.00    -0.253 C  
HETATM    8  O   UNL     1      -9.884  15.253  69.968  1.00  0.00    -0.457 OA 
HETATM    9  H   UNL     1      -9.881  16.197  69.857  1.00  0.00     0.000 HD 
BRANCH   7  10
HETATM   10  C   UNL     1      -9.860  14.990  67.541  1.00  0.00    -0.217 C  
BRANCH  10  11
HETATM   11  O   UNL     1      -9.605  13.853  66.704  1.00  0.00    -0.270 OA 
BRANCH  11  12
HETATM   12  C   UNL     1     -10.484  13.608  65.673  1.00  0.00    -0.299 A  
HETATM   13  C   UNL     1     -11.398  14.563  65.205  1.00  0.00    -0.353 A  
HETATM   14  C   UNL     1     -12.296  14.263  64.182  1.00  0.00    -0.361 A  
HETATM   15  C   UNL     1     -12.312  12.996  63.627  1.00  0.00    -0.499 A  
HETATM   16  C   UNL     1     -11.402  12.037  64.067  1.00  0.00    -0.478 A  
HETATM   17  C   UNL     1     -10.450  12.337  65.057  1.00  0.00    -0.290 A  
BRANCH  17  18
HETATM   18  O   UNL     1      -9.478  11.434  65.451  1.00  0.00    -0.221 OA 
BRANCH  18  19
HETATM   19  C   UNL     1      -9.763  10.073  65.102  1.00  0.00    -0.311 C  
BRANCH  19  20
HETATM   20  C   UNL     1      -8.607   9.451  64.378  1.00  0.00    -0.214 C  
HETATM   21  C   UNL     1      -7.476   9.067  64.988  1.00  0.00    -0.097 C  
ENDBRANCH  19  20
ENDBRANCH  18  19
ENDBRANCH  17  18
ENDBRANCH  11  12
ENDBRANCH  10  11
ENDBRANCH   7  10
ENDBRANCH   6   7
ENDBRANCH   4   6
ENDBRANCH   2   4
TORSDOF 9
ENDMDL
MODEL      150
REMARK 921   NORMALIZED FREE ENERGY PREDICTED BY IDOCK:   -3.91 KCAL/MOL
REMARK 922        TOTAL FREE ENERGY PREDICTED BY IDOCK:   -6.74 KCAL/MOL
REMARK 923 INTER-LIGAND FREE ENERGY PREDICTED BY IDOCK:   -6.29 KCAL/MOL
REMARK 924 INTRA-LIGAND FREE ENERGY PREDICTED BY IDOCK:   -0.45 KCAL/MOL
REMARK 927      BINDING AFFINITY PREDICTED BY RF-SCORE:    0.00 PKD
ROOT
HETATM    1  C   UNL     1      -8.456  15.953  66.219  1.00  0.00    -0.302 C  
HETATM    2  C   UNL     1      -8.351  14.667  67.041  1.00  0.00    -0.185 C  
HETATM    3  C   UNL     1      -8.811  14.944  68.477  1.00  0.00    -0.174 C  
ENDROOT
BRANCH   2   4
HETATM    4  N   UNL     1      -9.158  13.627  66.393  1.00  0.00    -0.467 NA 
HETATM    5  H   UNL     1      -9.098  12.746  66.904  1.00  0.00     0.000 HD 
BRANCH   4   6
HETATM    6  C   UNL     1     -10.558  14.029  66.200  1.00  0.00    -0.290 C  
BRANCH   6   7
HETATM    7  C   UNL     1     -11.545  12.980  66.754  1.00  0.00    -0.368 C  
HETATM    8  O   UNL     1     -11.986  12.105  65.710  1.00  0.00    -0.536 OA 
HETATM    9  H   UNL     1     -12.593  11.459  66.052  1.00  0.00     0.000 HD 
BRANCH   7  10
HETATM   10  C   UNL     1     -10.869  12.170  67.880  1.00  0.00    -0.217 C  
BRANCH  10  11
HETATM   11  O   UNL     1     -11.797  11.403  68.659  1.00  0.00    -0.362 OA 
BRANCH  11  12
HETATM   12  C   UNL     1     -12.254  11.953  69.835  1.00  0.00    -0.199 A  
HETATM   13  C   UNL     1     -12.267  13.335  70.077  1.00  0.00    -0.345 A  
HETATM   14  C   UNL     1     -12.705  13.851  71.295  1.00  0.00    -0.444 A  
HETATM   15  C   UNL     1     -13.114  12.993  72.302  1.00  0.00    -0.445 A  
HETATM   16  C   UNL     1     -13.122  11.619  72.077  1.00  0.00    -0.433 A  
HETATM   17  C   UNL     1     -12.739  11.082  70.835  1.00  0.00    -0.358 A  
BRANCH  17  18
HETATM   18  O   UNL     1     -12.821   9.730  70.554  1.00  0.00    -0.129 OA 
BRANCH  18  19
HETATM   19  C   UNL     1     -11.709   8.960  71.031  1.00  0.00    -0.289 C  
BRANCH  19  20
HETATM   20  C   UNL     1     -12.153   7.941  72.036  1.00  0.00    -0.363 C  
HETATM   21  C   UNL     1     -12.369   6.652  71.732  1.00  0.00    -0.385 C  
ENDBRANCH  19  20
ENDBRANCH  18  19
ENDBRANCH  17  18
ENDBRANCH  11  12
ENDBRANCH  10  11
ENDBRANCH   7  10
ENDBRANCH   6   7
ENDBRANCH   4   6
ENDBRANCH   2   4
TORSDOF 9
ENDMDL
MODEL      151
REMARK 921   NORMALIZED FREE ENERGY PREDICTED BY IDOCK:   -3.90 KCAL/MOL
REMARK 922        TOTAL FREE ENERGY PREDICTED BY IDOCK:   -6.73 KCAL/MOL
REMARK 923 INTER-LIGAND FREE ENERGY PREDICTED BY IDOCK:   -6.00 KCAL/MOL
REMARK 924 INTRA-LIGAND FREE ENERGY PREDICTED BY IDOCK:   -0.73 KCAL/MOL
REMARK 927      BINDING AFFINITY PREDICTED BY RF-SCORE:    0.00 PKD
ROOT
HETATM    1  C   UNL     1      -8.114   8.436  70.780  1.00  0.00    -0.114 C  
HETATM    2  C   UNL     1      -8.088   9.715  69.940  1.00  0.00    -0.171 C  
HETATM    3  C   UNL     1      -6.705  10.367  70.051  1.00  0.00    -0.145 C  
ENDROOT
BRANCH   2   4
HETATM    4  N   UNL     1      -8.431   9.375  68.554  1.00  0.00    -0.118 NA 
HETATM    5  H   UNL     1      -9.432   9.204  68.457  1.00  0.00     0.000 HD 
BRANCH   4   6
HETATM    6  C   UNL     1      -7.973  10.385  67.590  1.00  0.00    -0.106 C  
BRANCH   6   7
HETATM    7  C   UNL     1      -9.143  11.213  67.018  1.00  0.00    -0.153 C  
HETATM    8  O   UNL     1      -8.911  11.522  65.639  1.00  0.00    -0.360 OA 
HETATM    9  H   UNL     1      -9.631  12.031  65.287  1.00  0.00     0.000 HD 
BRANCH   7  10
HETATM   10  C   UNL     1     -10.463  10.431  67.176  1.00  0.00    -0.256 C  
BRANCH  10  11
HETATM   11  O   UNL     1     -11.626  11.267  67.101  1.00  0.00    -0.513 OA 
BRANCH  11  12
HETATM   12  C   UNL     1     -11.791  12.223  68.078  1.00  0.00    -0.305 A  
HETATM   13  C   UNL     1     -12.026  11.906  69.425  1.00  0.00    -0.350 A  
HETATM   14  C   UNL     1     -12.223  12.904  70.378  1.00  0.00    -0.381 A  
HETATM   15  C   UNL     1     -12.213  14.234  69.997  1.00  0.00    -0.417 A  
HETATM   16  C   UNL     1     -11.968  14.571  68.668  1.00  0.00    -0.320 A  
HETATM   17  C   UNL     1     -11.709  13.582  67.703  1.00  0.00    -0.363 A  
BRANCH  17  18
HETATM   18  O   UNL     1     -11.375  13.890  66.396  1.00  0.00    -0.313 OA 
BRANCH  18  19
HETATM   19  C   UNL     1     -12.500  14.041  65.520  1.00  0.00    -0.509 C  
BRANCH  19  20
HETATM   20  C   UNL     1     -12.151  13.634  64.121  1.00  0.00    -0.484 C  
HETATM   21  C   UNL     1     -12.102  12.356  63.716  1.00  0.00    -0.618 C  
ENDBRANCH  19  20
ENDBRANCH  18  19
ENDBRANCH  17  18
ENDBRANCH  11  12
ENDBRANCH  10  11
ENDBRANCH   7  10
ENDBRANCH   6   7
ENDBRANCH   4   6
ENDBRANCH   2   4
TORSDOF 9
ENDMDL
MODEL      152
REMARK 921   NORMALIZED FREE ENERGY PREDICTED BY IDOCK:   -3.90 KCAL/MOL
REMARK 922        TOTAL FREE ENERGY PREDICTED BY IDOCK:   -6.72 KCAL/MOL
REMARK 923 INTER-LIGAND FREE ENERGY PREDICTED BY IDOCK:   -5.72 KCAL/MOL
REMARK 924 INTRA-LIGAND FREE ENERGY PREDICTED BY IDOCK:   -1.01 KCAL/MOL
REMARK 927      BINDING AFFINITY PREDICTED BY RF-SCORE:    0.00 PKD
ROOT
HETATM    1  C   UNL     1      -8.178   8.426  70.608  1.00  0.00    -0.117 C  
HETATM    2  C   UNL     1      -7.617   9.840  70.442  1.00  0.00    -0.148 C  
HETATM    3  C   UNL     1      -6.097   9.766  70.259  1.00  0.00    -0.068 C  
ENDROOT
BRANCH   2   4
HETATM    4  N   UNL     1      -8.282  10.480  69.301  1.00  0.00    -0.220 NA 
HETATM    5  H   UNL     1      -7.938  10.101  68.419  1.00  0.00     0.000 HD 
BRANCH   4   6
HETATM    6  C   UNL     1      -9.747  10.397  69.375  1.00  0.00    -0.200 C  
BRANCH   6   7
HETATM    7  C   UNL     1     -10.350   9.686  68.146  1.00  0.00    -0.209 C  
HETATM    8  O   UNL     1     -11.733  10.025  67.999  1.00  0.00    -0.645 OA 
HETATM    9  H   UNL     1     -12.105   9.586  67.242  1.00  0.00     0.000 HD 
BRANCH   7  10
HETATM   10  C   UNL     1      -9.566  10.078  66.877  1.00  0.00    -0.175 C  
BRANCH  10  11
HETATM   11  O   UNL     1      -9.608  11.485  66.600  1.00  0.00    -0.190 OA 
BRANCH  11  12
HETATM   12  C   UNL     1     -10.446  11.913  65.595  1.00  0.00    -0.262 A  
HETATM   13  C   UNL     1     -10.171  11.713  64.234  1.00  0.00    -0.357 A  
HETATM   14  C   UNL     1     -11.028  12.194  63.245  1.00  0.00    -0.398 A  
HETATM   15  C   UNL     1     -12.161  12.904  63.600  1.00  0.00    -0.581 A  
HETATM   16  C   UNL     1     -12.461  13.102  64.946  1.00  0.00    -0.490 A  
HETATM   17  C   UNL     1     -11.640  12.575  65.958  1.00  0.00    -0.406 A  
BRANCH  17  18
HETATM   18  O   UNL     1     -11.958  12.678  67.301  1.00  0.00    -0.424 OA 
BRANCH  18  19
HETATM   19  C   UNL     1     -11.925  14.017  67.813  1.00  0.00    -0.357 C  
BRANCH  19  20
HETATM   20  C   UNL     1     -10.606  14.313  68.460  1.00  0.00    -0.260 C  
HETATM   21  C   UNL     1     -10.176  15.556  68.723  1.00  0.00    -0.212 C  
ENDBRANCH  19  20
ENDBRANCH  18  19
ENDBRANCH  17  18
ENDBRANCH  11  12
ENDBRANCH  10  11
ENDBRANCH   7  10
ENDBRANCH   6   7
ENDBRANCH   4   6
ENDBRANCH   2   4
TORSDOF 9
ENDMDL
MODEL      153
REMARK 921   NORMALIZED FREE ENERGY PREDICTED BY IDOCK:   -3.88 KCAL/MOL
REMARK 922        TOTAL FREE ENERGY PREDICTED BY IDOCK:   -6.69 KCAL/MOL
REMARK 923 INTER-LIGAND FREE ENERGY PREDICTED BY IDOCK:   -5.92 KCAL/MOL
REMARK 924 INTRA-LIGAND FREE ENERGY PREDICTED BY IDOCK:   -0.77 KCAL/MOL
REMARK 927      BINDING AFFINITY PREDICTED BY RF-SCORE:    0.00 PKD
ROOT
HETATM    1  C   UNL     1     -11.048  11.025  69.752  1.00  0.00    -0.303 C  
HETATM    2  C   UNL     1     -12.246  11.947  69.986  1.00  0.00    -0.217 C  
HETATM    3  C   UNL     1     -12.553  12.013  71.487  1.00  0.00    -0.279 C  
ENDROOT
BRANCH   2   4
HETATM    4  N   UNL     1     -11.939  13.269  69.426  1.00  0.00    -0.313 NA 
HETATM    5  H   UNL     1     -11.483  13.862  70.118  1.00  0.00     0.000 HD 
BRANCH   4   6
HETATM    6  C   UNL     1     -11.146  13.194  68.191  1.00  0.00    -0.255 C  
BRANCH   6   7
HETATM    7  C   UNL     1     -11.678  14.149  67.102  1.00  0.00    -0.403 C  
HETATM    8  O   UNL     1     -10.789  15.258  66.930  1.00  0.00    -0.310 OA 
HETATM    9  H   UNL     1     -11.116  15.846  66.259  1.00  0.00     0.000 HD 
BRANCH   7  10
HETATM   10  C   UNL     1     -11.844  13.385  65.772  1.00  0.00    -0.377 C  
BRANCH  10  11
HETATM   11  O   UNL     1     -11.613  11.975  65.899  1.00  0.00    -0.362 OA 
BRANCH  11  12
HETATM   12  C   UNL     1     -10.728  11.390  65.022  1.00  0.00    -0.277 A  
HETATM   13  C   UNL     1     -10.407  11.948  63.776  1.00  0.00    -0.451 A  
HETATM   14  C   UNL     1      -9.532  11.306  62.901  1.00  0.00    -0.385 A  
HETATM   15  C   UNL     1      -8.983  10.083  63.247  1.00  0.00    -0.275 A  
HETATM   16  C   UNL     1      -9.278   9.519  64.485  1.00  0.00    -0.223 A  
HETATM   17  C   UNL     1     -10.111  10.178  65.406  1.00  0.00    -0.272 A  
BRANCH  17  18
HETATM   18  O   UNL     1     -10.351   9.685  66.676  1.00  0.00    -0.239 OA 
BRANCH  18  19
HETATM   19  C   UNL     1      -9.704   8.437  66.956  1.00  0.00    -0.206 C  
BRANCH  19  20
HETATM   20  C   UNL     1     -10.692   7.413  67.426  1.00  0.00    -0.348 C  
HETATM   21  C   UNL     1     -10.716   6.150  66.975  1.00  0.00    -0.423 C  
ENDBRANCH  19  20
ENDBRANCH  18  19
ENDBRANCH  17  18
ENDBRANCH  11  12
ENDBRANCH  10  11
ENDBRANCH   7  10
ENDBRANCH   6   7
ENDBRANCH   4   6
ENDBRANCH   2   4
TORSDOF 9
ENDMDL
MODEL      154
REMARK 921   NORMALIZED FREE ENERGY PREDICTED BY IDOCK:   -3.88 KCAL/MOL
REMARK 922        TOTAL FREE ENERGY PREDICTED BY IDOCK:   -6.69 KCAL/MOL
REMARK 923 INTER-LIGAND FREE ENERGY PREDICTED BY IDOCK:   -5.79 KCAL/MOL
REMARK 924 INTRA-LIGAND FREE ENERGY PREDICTED BY IDOCK:   -0.90 KCAL/MOL
REMARK 927      BINDING AFFINITY PREDICTED BY RF-SCORE:    0.00 PKD
ROOT
HETATM    1  C   UNL     1     -10.106   4.725  71.998  1.00  0.00    -0.258 C  
HETATM    2  C   UNL     1     -10.871   4.986  73.297  1.00  0.00    -0.295 C  
HETATM    3  C   UNL     1      -9.883   5.394  74.396  1.00  0.00    -0.223 C  
ENDROOT
BRANCH   2   4
HETATM    4  N   UNL     1     -11.882   6.020  73.049  1.00  0.00    -0.458 NA 
HETATM    5  H   UNL     1     -11.752   6.815  73.675  1.00  0.00     0.000 HD 
BRANCH   4   6
HETATM    6  C   UNL     1     -11.919   6.456  71.646  1.00  0.00    -0.291 C  
BRANCH   6   7
HETATM    7  C   UNL     1     -12.994   7.536  71.402  1.00  0.00    -0.335 C  
HETATM    8  O   UNL     1     -14.292   7.035  71.738  1.00  0.00    -0.451 OA 
HETATM    9  H   UNL     1     -14.955   7.700  71.588  1.00  0.00     0.000 HD 
BRANCH   7  10
HETATM   10  C   UNL     1     -12.672   8.792  72.237  1.00  0.00    -0.402 C  
BRANCH  10  11
HETATM   11  O   UNL     1     -11.412   9.387  71.899  1.00  0.00    -0.373 OA 
BRANCH  11  12
HETATM   12  C   UNL     1     -11.306  10.006  70.674  1.00  0.00    -0.348 A  
HETATM   13  C   UNL     1     -12.091  11.108  70.304  1.00  0.00    -0.462 A  
HETATM   14  C   UNL     1     -11.978  11.685  69.041  1.00  0.00    -0.368 A  
HETATM   15  C   UNL     1     -11.094  11.155  68.116  1.00  0.00    -0.324 A  
HETATM   16  C   UNL     1     -10.295  10.070  68.468  1.00  0.00    -0.217 A  
HETATM   17  C   UNL     1     -10.352   9.510  69.757  1.00  0.00    -0.230 A  
BRANCH  17  18
HETATM   18  O   UNL     1      -9.509   8.492  70.163  1.00  0.00    -0.161 OA 
BRANCH  18  19
HETATM   19  C   UNL     1      -8.329   8.940  70.842  1.00  0.00    -0.182 C  
BRANCH  19  20
HETATM   20  C   UNL     1      -8.036   8.079  72.034  1.00  0.00    -0.147 C  
HETATM   21  C   UNL     1      -8.508   8.337  73.263  1.00  0.00    -0.267 C  
ENDBRANCH  19  20
ENDBRANCH  18  19
ENDBRANCH  17  18
ENDBRANCH  11  12
ENDBRANCH  10  11
ENDBRANCH   7  10
ENDBRANCH   6   7
ENDBRANCH   4   6
ENDBRANCH   2   4
TORSDOF 9
ENDMDL
MODEL      155
REMARK 921   NORMALIZED FREE ENERGY PREDICTED BY IDOCK:   -3.87 KCAL/MOL
REMARK 922        TOTAL FREE ENERGY PREDICTED BY IDOCK:   -6.68 KCAL/MOL
REMARK 923 INTER-LIGAND FREE ENERGY PREDICTED BY IDOCK:   -6.03 KCAL/MOL
REMARK 924 INTRA-LIGAND FREE ENERGY PREDICTED BY IDOCK:   -0.65 KCAL/MOL
REMARK 927      BINDING AFFINITY PREDICTED BY RF-SCORE:    0.00 PKD
ROOT
HETATM    1  C   UNL     1     -11.596  15.049  68.752  1.00  0.00    -0.357 C  
HETATM    2  C   UNL     1     -11.676  14.620  70.218  1.00  0.00    -0.297 C  
HETATM    3  C   UNL     1     -12.853  15.335  70.893  1.00  0.00    -0.511 C  
ENDROOT
BRANCH   2   4
HETATM    4  N   UNL     1     -11.811  13.160  70.274  1.00  0.00    -0.525 NA 
HETATM    5  H   UNL     1     -10.899  12.713  70.371  1.00  0.00     0.000 HD 
BRANCH   4   6
HETATM    6  C   UNL     1     -12.731  12.712  71.328  1.00  0.00    -0.257 C  
BRANCH   6   7
HETATM    7  C   UNL     1     -12.579  11.207  71.631  1.00  0.00    -0.281 C  
HETATM    8  O   UNL     1     -13.781  10.688  72.210  1.00  0.00    -0.468 OA 
HETATM    9  H   UNL     1     -13.688   9.761  72.396  1.00  0.00     0.000 HD 
BRANCH   7  10
HETATM   10  C   UNL     1     -12.238  10.445  70.333  1.00  0.00    -0.303 C  
BRANCH  10  11
HETATM   11  O   UNL     1     -10.958   9.800  70.378  1.00  0.00    -0.263 OA 
BRANCH  11  12
HETATM   12  C   UNL     1     -10.870   8.518  69.883  1.00  0.00    -0.205 A  
HETATM   13  C   UNL     1     -11.501   7.421  70.488  1.00  0.00    -0.281 A  
HETATM   14  C   UNL     1     -11.358   6.133  69.976  1.00  0.00    -0.443 A  
HETATM   15  C   UNL     1     -10.563   5.916  68.864  1.00  0.00    -0.357 A  
HETATM   16  C   UNL     1      -9.939   6.993  68.240  1.00  0.00    -0.165 A  
HETATM   17  C   UNL     1     -10.117   8.307  68.706  1.00  0.00    -0.200 A  
BRANCH  17  18
HETATM   18  O   UNL     1      -9.584   9.405  68.055  1.00  0.00    -0.136 OA 
BRANCH  18  19
HETATM   19  C   UNL     1     -10.401   9.915  66.994  1.00  0.00    -0.239 C  
BRANCH  19  20
HETATM   20  C   UNL     1      -9.670   9.875  65.686  1.00  0.00    -0.346 C  
HETATM   21  C   UNL     1     -10.025  10.608  64.620  1.00  0.00    -0.401 C  
ENDBRANCH  19  20
ENDBRANCH  18  19
ENDBRANCH  17  18
ENDBRANCH  11  12
ENDBRANCH  10  11
ENDBRANCH   7  10
ENDBRANCH   6   7
ENDBRANCH   4   6
ENDBRANCH   2   4
TORSDOF 9
ENDMDL
MODEL      156
REMARK 921   NORMALIZED FREE ENERGY PREDICTED BY IDOCK:   -3.86 KCAL/MOL
REMARK 922        TOTAL FREE ENERGY PREDICTED BY IDOCK:   -6.66 KCAL/MOL
REMARK 923 INTER-LIGAND FREE ENERGY PREDICTED BY IDOCK:   -5.86 KCAL/MOL
REMARK 924 INTRA-LIGAND FREE ENERGY PREDICTED BY IDOCK:   -0.80 KCAL/MOL
REMARK 927      BINDING AFFINITY PREDICTED BY RF-SCORE:    0.00 PKD
ROOT
HETATM    1  C   UNL     1     -10.949   9.677  70.879  1.00  0.00    -0.412 C  
HETATM    2  C   UNL     1      -9.945   9.473  69.742  1.00  0.00    -0.213 C  
HETATM    3  C   UNL     1     -10.468   8.390  68.791  1.00  0.00    -0.202 C  
ENDROOT
BRANCH   2   4
HETATM    4  N   UNL     1      -9.739  10.756  69.060  1.00  0.00    -0.251 NA 
HETATM    5  H   UNL     1      -9.113  11.358  69.595  1.00  0.00     0.000 HD 
BRANCH   4   6
HETATM    6  C   UNL     1      -9.264  10.598  67.679  1.00  0.00    -0.146 C  
BRANCH   6   7
HETATM    7  C   UNL     1      -9.443  11.888  66.852  1.00  0.00    -0.199 C  
HETATM    8  O   UNL     1     -10.782  11.984  66.356  1.00  0.00    -0.242 OA 
HETATM    9  H   UNL     1     -10.892  12.779  65.846  1.00  0.00     0.000 HD 
BRANCH   7  10
HETATM   10  C   UNL     1      -9.105  13.117  67.722  1.00  0.00    -0.200 C  
BRANCH  10  11
HETATM   11  O   UNL     1     -10.268  13.810  68.195  1.00  0.00    -0.239 OA 
BRANCH  11  12
HETATM   12  C   UNL     1     -10.327  15.170  67.995  1.00  0.00    -0.240 A  
HETATM   13  C   UNL     1     -10.195  15.763  66.730  1.00  0.00    -0.284 A  
HETATM   14  C   UNL     1     -10.226  17.147  66.573  1.00  0.00    -0.322 A  
HETATM   15  C   UNL     1     -10.365  17.964  67.682  1.00  0.00    -0.387 A  
HETATM   16  C   UNL     1     -10.513  17.396  68.945  1.00  0.00    -0.312 A  
HETATM   17  C   UNL     1     -10.543  16.002  69.117  1.00  0.00    -0.260 A  
BRANCH  17  18
HETATM   18  O   UNL     1     -10.776  15.409  70.345  1.00  0.00    -0.306 OA 
BRANCH  18  19
HETATM   19  C   UNL     1     -11.850  16.001  71.089  1.00  0.00    -0.420 C  
BRANCH  19  20
HETATM   20  C   UNL     1     -11.756  15.645  72.542  1.00  0.00    -0.567 C  
HETATM   21  C   UNL     1     -12.825  15.537  73.345  1.00  0.00    -0.660 C  
ENDBRANCH  19  20
ENDBRANCH  18  19
ENDBRANCH  17  18
ENDBRANCH  11  12
ENDBRANCH  10  11
ENDBRANCH   7  10
ENDBRANCH   6   7
ENDBRANCH   4   6
ENDBRANCH   2   4
TORSDOF 9
ENDMDL
MODEL      157
REMARK 921   NORMALIZED FREE ENERGY PREDICTED BY IDOCK:   -3.84 KCAL/MOL
REMARK 922        TOTAL FREE ENERGY PREDICTED BY IDOCK:   -6.64 KCAL/MOL
REMARK 923 INTER-LIGAND FREE ENERGY PREDICTED BY IDOCK:   -5.69 KCAL/MOL
REMARK 924 INTRA-LIGAND FREE ENERGY PREDICTED BY IDOCK:   -0.95 KCAL/MOL
REMARK 927      BINDING AFFINITY PREDICTED BY RF-SCORE:    0.00 PKD
ROOT
HETATM    1  C   UNL     1      -8.727   8.972  70.770  1.00  0.00    -0.269 C  
HETATM    2  C   UNL     1      -8.773   9.808  69.490  1.00  0.00    -0.185 C  
HETATM    3  C   UNL     1      -7.495  10.649  69.386  1.00  0.00    -0.135 C  
ENDROOT
BRANCH   2   4
HETATM    4  N   UNL     1      -8.937   8.907  68.344  1.00  0.00    -0.134 NA 
HETATM    5  H   UNL     1      -9.918   8.837  68.071  1.00  0.00     0.000 HD 
BRANCH   4   6
HETATM    6  C   UNL     1      -8.098   9.282  67.198  1.00  0.00    -0.109 C  
BRANCH   6   7
HETATM    7  C   UNL     1      -8.715   8.838  65.856  1.00  0.00    -0.170 C  
HETATM    8  O   UNL     1      -9.141   7.473  65.927  1.00  0.00    -0.316 OA 
HETATM    9  H   UNL     1      -9.521   7.199  65.100  1.00  0.00     0.000 HD 
BRANCH   7  10
HETATM   10  C   UNL     1      -9.906   9.752  65.500  1.00  0.00    -0.308 C  
BRANCH  10  11
HETATM   11  O   UNL     1     -10.203  10.714  66.520  1.00  0.00    -0.219 OA 
BRANCH  11  12
HETATM   12  C   UNL     1     -10.769  11.907  66.129  1.00  0.00    -0.278 A  
HETATM   13  C   UNL     1     -10.359  12.608  64.985  1.00  0.00    -0.320 A  
HETATM   14  C   UNL     1     -10.933  13.830  64.642  1.00  0.00    -0.406 A  
HETATM   15  C   UNL     1     -11.909  14.386  65.451  1.00  0.00    -0.366 A  
HETATM   16  C   UNL     1     -12.340  13.700  66.585  1.00  0.00    -0.381 A  
HETATM   17  C   UNL     1     -11.815  12.439  66.915  1.00  0.00    -0.307 A  
BRANCH  17  18
HETATM   18  O   UNL     1     -12.286  11.695  67.983  1.00  0.00    -0.551 OA 
BRANCH  18  19
HETATM   19  C   UNL     1     -11.781  12.111  69.259  1.00  0.00    -0.328 C  
BRANCH  19  20
HETATM   20  C   UNL     1     -12.206  11.164  70.340  1.00  0.00    -0.457 C  
HETATM   21  C   UNL     1     -12.961  11.530  71.386  1.00  0.00    -0.450 C  
ENDBRANCH  19  20
ENDBRANCH  18  19
ENDBRANCH  17  18
ENDBRANCH  11  12
ENDBRANCH  10  11
ENDBRANCH   7  10
ENDBRANCH   6   7
ENDBRANCH   4   6
ENDBRANCH   2   4
TORSDOF 9
ENDMDL
MODEL      158
REMARK 921   NORMALIZED FREE ENERGY PREDICTED BY IDOCK:   -3.84 KCAL/MOL
REMARK 922        TOTAL FREE ENERGY PREDICTED BY IDOCK:   -6.63 KCAL/MOL
REMARK 923 INTER-LIGAND FREE ENERGY PREDICTED BY IDOCK:   -5.98 KCAL/MOL
REMARK 924 INTRA-LIGAND FREE ENERGY PREDICTED BY IDOCK:   -0.65 KCAL/MOL
REMARK 927      BINDING AFFINITY PREDICTED BY RF-SCORE:    0.00 PKD
ROOT
HETATM    1  C   UNL     1     -13.361  13.040  72.078  1.00  0.00    -0.588 C  
HETATM    2  C   UNL     1     -13.547  14.312  71.249  1.00  0.00    -0.288 C  
HETATM    3  C   UNL     1     -14.212  15.390  72.113  1.00  0.00    -0.660 C  
ENDROOT
BRANCH   2   4
HETATM    4  N   UNL     1     -12.237  14.740  70.742  1.00  0.00    -0.290 NA 
HETATM    5  H   UNL     1     -11.484  14.222  71.195  1.00  0.00     0.000 HD 
BRANCH   4   6
HETATM    6  C   UNL     1     -12.134  14.648  69.280  1.00  0.00    -0.272 C  
BRANCH   6   7
HETATM    7  C   UNL     1     -10.783  14.056  68.829  1.00  0.00    -0.259 C  
HETATM    8  O   UNL     1     -10.866  12.630  68.736  1.00  0.00    -0.237 OA 
HETATM    9  H   UNL     1     -10.033  12.265  68.459  1.00  0.00     0.000 HD 
BRANCH   7  10
HETATM   10  C   UNL     1     -10.376  14.658  67.468  1.00  0.00    -0.234 C  
BRANCH  10  11
HETATM   11  O   UNL     1      -9.865  15.994  67.573  1.00  0.00    -0.231 OA 
BRANCH  11  12
HETATM   12  C   UNL     1      -8.519  16.147  67.818  1.00  0.00    -0.158 A  
HETATM   13  C   UNL     1      -7.564  15.183  67.463  1.00  0.00    -0.216 A  
HETATM   14  C   UNL     1      -6.214  15.360  67.760  1.00  0.00    -0.180 A  
HETATM   15  C   UNL     1      -5.798  16.492  68.439  1.00  0.00    -0.120 A  
HETATM   16  C   UNL     1      -6.728  17.468  68.788  1.00  0.00    -0.225 A  
HETATM   17  C   UNL     1      -8.085  17.336  68.446  1.00  0.00    -0.259 A  
BRANCH  17  18
HETATM   18  O   UNL     1      -9.016  18.328  68.700  1.00  0.00    -0.319 OA 
BRANCH  18  19
HETATM   19  C   UNL     1      -8.609  19.638  68.282  1.00  0.00    -0.315 C  
BRANCH  19  20
HETATM   20  C   UNL     1      -9.559  20.195  67.264  1.00  0.00    -0.555 C  
HETATM   21  C   UNL     1     -10.783  19.692  67.046  1.00  0.00    -0.575 C  
ENDBRANCH  19  20
ENDBRANCH  18  19
ENDBRANCH  17  18
ENDBRANCH  11  12
ENDBRANCH  10  11
ENDBRANCH   7  10
ENDBRANCH   6   7
ENDBRANCH   4   6
ENDBRANCH   2   4
TORSDOF 9
ENDMDL
MODEL      159
REMARK 921   NORMALIZED FREE ENERGY PREDICTED BY IDOCK:   -3.84 KCAL/MOL
REMARK 922        TOTAL FREE ENERGY PREDICTED BY IDOCK:   -6.63 KCAL/MOL
REMARK 923 INTER-LIGAND FREE ENERGY PREDICTED BY IDOCK:   -5.92 KCAL/MOL
REMARK 924 INTRA-LIGAND FREE ENERGY PREDICTED BY IDOCK:   -0.70 KCAL/MOL
REMARK 927      BINDING AFFINITY PREDICTED BY RF-SCORE:    0.00 PKD
ROOT
HETATM    1  C   UNL     1     -10.419   3.559  63.886  1.00  0.00    -0.266 C  
HETATM    2  C   UNL     1      -9.371   3.368  64.984  1.00  0.00    -0.154 C  
HETATM    3  C   UNL     1      -8.085   4.107  64.593  1.00  0.00    -0.090 C  
ENDROOT
BRANCH   2   4
HETATM    4  N   UNL     1      -9.924   3.855  66.253  1.00  0.00    -0.408 NA 
HETATM    5  H   UNL     1      -9.929   3.116  66.956  1.00  0.00     0.000 HD 
BRANCH   4   6
HETATM    6  C   UNL     1      -9.235   5.052  66.753  1.00  0.00    -0.120 C  
BRANCH   6   7
HETATM    7  C   UNL     1     -10.157   6.290  66.763  1.00  0.00    -0.180 C  
HETATM    8  O   UNL     1     -11.466   5.943  66.298  1.00  0.00    -0.648 OA 
HETATM    9  H   UNL     1     -12.034   6.706  66.304  1.00  0.00     0.000 HD 
BRANCH   7  10
HETATM   10  C   UNL     1     -10.233   6.875  68.188  1.00  0.00    -0.176 C  
BRANCH  10  11
HETATM   11  O   UNL     1     -11.307   6.329  68.966  1.00  0.00    -0.390 OA 
BRANCH  11  12
HETATM   12  C   UNL     1     -11.001   5.805  70.201  1.00  0.00    -0.298 A  
HETATM   13  C   UNL     1     -10.049   4.791  70.385  1.00  0.00    -0.301 A  
HETATM   14  C   UNL     1      -9.793   4.261  71.649  1.00  0.00    -0.257 A  
HETATM   15  C   UNL     1     -10.501   4.719  72.746  1.00  0.00    -0.258 A  
HETATM   16  C   UNL     1     -11.440   5.736  72.587  1.00  0.00    -0.337 A  
HETATM   17  C   UNL     1     -11.672   6.323  71.331  1.00  0.00    -0.254 A  
BRANCH  17  18
HETATM   18  O   UNL     1     -12.532   7.393  71.158  1.00  0.00    -0.336 OA 
BRANCH  18  19
HETATM   19  C   UNL     1     -12.242   8.523  71.992  1.00  0.00    -0.366 C  
BRANCH  19  20
HETATM   20  C   UNL     1     -13.326   9.553  71.896  1.00  0.00    -0.518 C  
HETATM   21  C   UNL     1     -13.085  10.864  71.748  1.00  0.00    -0.564 C  
ENDBRANCH  19  20
ENDBRANCH  18  19
ENDBRANCH  17  18
ENDBRANCH  11  12
ENDBRANCH  10  11
ENDBRANCH   7  10
ENDBRANCH   6   7
ENDBRANCH   4   6
ENDBRANCH   2   4
TORSDOF 9
ENDMDL
MODEL      160
REMARK 921   NORMALIZED FREE ENERGY PREDICTED BY IDOCK:   -3.83 KCAL/MOL
REMARK 922        TOTAL FREE ENERGY PREDICTED BY IDOCK:   -6.62 KCAL/MOL
REMARK 923 INTER-LIGAND FREE ENERGY PREDICTED BY IDOCK:   -5.88 KCAL/MOL
REMARK 924 INTRA-LIGAND FREE ENERGY PREDICTED BY IDOCK:   -0.74 KCAL/MOL
REMARK 927      BINDING AFFINITY PREDICTED BY RF-SCORE:    0.00 PKD
ROOT
HETATM    1  C   UNL     1     -12.191  10.685  70.029  1.00  0.00    -0.373 C  
HETATM    2  C   UNL     1     -10.845  10.792  69.311  1.00  0.00    -0.242 C  
HETATM    3  C   UNL     1     -10.961  10.162  67.918  1.00  0.00    -0.335 C  
ENDROOT
BRANCH   2   4
HETATM    4  N   UNL     1     -10.456  12.206  69.248  1.00  0.00    -0.430 NA 
HETATM    5  H   UNL     1      -9.772  12.364  68.508  1.00  0.00     0.000 HD 
BRANCH   4   6
HETATM    6  C   UNL     1     -11.607  13.108  69.103  1.00  0.00    -0.316 C  
BRANCH   6   7
HETATM    7  C   UNL     1     -11.533  13.937  67.804  1.00  0.00    -0.323 C  
HETATM    8  O   UNL     1     -12.176  15.204  67.981  1.00  0.00    -0.502 OA 
HETATM    9  H   UNL     1     -12.131  15.715  67.181  1.00  0.00     0.000 HD 
BRANCH   7  10
HETATM   10  C   UNL     1     -10.060  14.137  67.394  1.00  0.00    -0.240 C  
BRANCH  10  11
HETATM   11  O   UNL     1      -9.608  15.489  67.553  1.00  0.00    -0.211 OA 
BRANCH  11  12
HETATM   12  C   UNL     1      -8.448  15.696  68.264  1.00  0.00    -0.156 A  
HETATM   13  C   UNL     1      -7.735  14.657  68.882  1.00  0.00    -0.141 A  
HETATM   14  C   UNL     1      -6.582  14.913  69.622  1.00  0.00    -0.162 A  
HETATM   15  C   UNL     1      -6.136  16.213  69.779  1.00  0.00    -0.181 A  
HETATM   16  C   UNL     1      -6.821  17.258  69.163  1.00  0.00    -0.234 A  
HETATM   17  C   UNL     1      -7.952  17.015  68.363  1.00  0.00    -0.239 A  
BRANCH  17  18
HETATM   18  O   UNL     1      -8.599  18.020  67.667  1.00  0.00    -0.242 OA 
BRANCH  18  19
HETATM   19  C   UNL     1      -9.201  19.020  68.501  1.00  0.00    -0.367 C  
BRANCH  19  20
HETATM   20  C   UNL     1     -10.184  19.844  67.725  1.00  0.00    -0.567 C  
HETATM   21  C   UNL     1     -10.325  19.765  66.394  1.00  0.00    -0.619 C  
ENDBRANCH  19  20
ENDBRANCH  18  19
ENDBRANCH  17  18
ENDBRANCH  11  12
ENDBRANCH  10  11
ENDBRANCH   7  10
ENDBRANCH   6   7
ENDBRANCH   4   6
ENDBRANCH   2   4
TORSDOF 9
ENDMDL
MODEL      161
REMARK 921   NORMALIZED FREE ENERGY PREDICTED BY IDOCK:   -3.83 KCAL/MOL
REMARK 922        TOTAL FREE ENERGY PREDICTED BY IDOCK:   -6.62 KCAL/MOL
REMARK 923 INTER-LIGAND FREE ENERGY PREDICTED BY IDOCK:   -5.74 KCAL/MOL
REMARK 924 INTRA-LIGAND FREE ENERGY PREDICTED BY IDOCK:   -0.88 KCAL/MOL
REMARK 927      BINDING AFFINITY PREDICTED BY RF-SCORE:    0.00 PKD
ROOT
HETATM    1  C   UNL     1      -8.192  13.717  67.346  1.00  0.00    -0.187 C  
HETATM    2  C   UNL     1      -9.534  14.357  67.704  1.00  0.00    -0.214 C  
HETATM    3  C   UNL     1      -9.496  15.849  67.351  1.00  0.00    -0.220 C  
ENDROOT
BRANCH   2   4
HETATM    4  N   UNL     1     -10.601  13.647  66.989  1.00  0.00    -0.272 NA 
HETATM    5  H   UNL     1     -10.382  12.655  66.900  1.00  0.00     0.000 HD 
BRANCH   4   6
HETATM    6  C   UNL     1     -11.923  13.842  67.599  1.00  0.00    -0.368 C  
BRANCH   6   7
HETATM    7  C   UNL     1     -11.895  13.631  69.127  1.00  0.00    -0.348 C  
HETATM    8  O   UNL     1     -12.723  14.598  69.782  1.00  0.00    -0.567 OA 
HETATM    9  H   UNL     1     -12.706  14.468  70.723  1.00  0.00     0.000 HD 
BRANCH   7  10
HETATM   10  C   UNL     1     -12.367  12.203  69.466  1.00  0.00     0.030 C  
BRANCH  10  11
HETATM   11  O   UNL     1     -11.421  11.468  70.255  1.00  0.00    -0.256 OA 
BRANCH  11  12
HETATM   12  C   UNL     1     -11.823  10.256  70.770  1.00  0.00    -0.365 A  
HETATM   13  C   UNL     1     -12.918  10.119  71.636  1.00  0.00    -0.561 A  
HETATM   14  C   UNL     1     -13.271   8.879  72.164  1.00  0.00    -0.478 A  
HETATM   15  C   UNL     1     -12.520   7.758  71.856  1.00  0.00    -0.343 A  
HETATM   16  C   UNL     1     -11.437   7.869  70.987  1.00  0.00    -0.298 A  
HETATM   17  C   UNL     1     -11.100   9.101  70.398  1.00  0.00    -0.253 A  
BRANCH  17  18
HETATM   18  O   UNL     1     -10.086   9.225  69.465  1.00  0.00    -0.183 OA 
BRANCH  18  19
HETATM   19  C   UNL     1     -10.453   8.817  68.140  1.00  0.00    -0.191 C  
BRANCH  19  20
HETATM   20  C   UNL     1     -10.483   9.989  67.206  1.00  0.00    -0.313 C  
HETATM   21  C   UNL     1     -10.011   9.944  65.951  1.00  0.00    -0.347 C  
ENDBRANCH  19  20
ENDBRANCH  18  19
ENDBRANCH  17  18
ENDBRANCH  11  12
ENDBRANCH  10  11
ENDBRANCH   7  10
ENDBRANCH   6   7
ENDBRANCH   4   6
ENDBRANCH   2   4
TORSDOF 9
ENDMDL
MODEL      162
REMARK 921   NORMALIZED FREE ENERGY PREDICTED BY IDOCK:   -3.82 KCAL/MOL
REMARK 922        TOTAL FREE ENERGY PREDICTED BY IDOCK:   -6.61 KCAL/MOL
REMARK 923 INTER-LIGAND FREE ENERGY PREDICTED BY IDOCK:   -5.87 KCAL/MOL
REMARK 924 INTRA-LIGAND FREE ENERGY PREDICTED BY IDOCK:   -0.74 KCAL/MOL
REMARK 927      BINDING AFFINITY PREDICTED BY RF-SCORE:    0.00 PKD
ROOT
HETATM    1  C   UNL     1     -10.166   8.076  72.902  1.00  0.00    -0.384 C  
HETATM    2  C   UNL     1      -9.742   8.708  71.575  1.00  0.00    -0.263 C  
HETATM    3  C   UNL     1      -9.251   7.611  70.623  1.00  0.00    -0.162 C  
ENDROOT
BRANCH   2   4
HETATM    4  N   UNL     1     -10.880   9.451  71.023  1.00  0.00    -0.308 NA 
HETATM    5  H   UNL     1     -10.959   9.304  70.017  1.00  0.00     0.000 HD 
BRANCH   4   6
HETATM    6  C   UNL     1     -12.146   9.142  71.701  1.00  0.00    -0.362 C  
BRANCH   6   7
HETATM    7  C   UNL     1     -13.238  10.190  71.399  1.00  0.00    -0.380 C  
HETATM    8  O   UNL     1     -13.460  11.025  72.540  1.00  0.00    -0.500 OA 
HETATM    9  H   UNL     1     -14.133  11.671  72.353  1.00  0.00     0.000 HD 
BRANCH   7  10
HETATM   10  C   UNL     1     -12.821  11.043  70.183  1.00  0.00    -0.047 C  
BRANCH  10  11
HETATM   11  O   UNL     1     -11.695  11.891  70.449  1.00  0.00    -0.283 OA 
BRANCH  11  12
HETATM   12  C   UNL     1     -11.770  13.202  70.034  1.00  0.00    -0.221 A  
HETATM   13  C   UNL     1     -12.376  14.211  70.798  1.00  0.00    -0.439 A  
HETATM   14  C   UNL     1     -12.462  15.520  70.327  1.00  0.00    -0.403 A  
HETATM   15  C   UNL     1     -11.967  15.837  69.074  1.00  0.00    -0.294 A  
HETATM   16  C   UNL     1     -11.350  14.853  68.306  1.00  0.00    -0.325 A  
HETATM   17  C   UNL     1     -11.200  13.541  68.787  1.00  0.00    -0.274 A  
BRANCH  17  18
HETATM   18  O   UNL     1     -10.514  12.566  68.085  1.00  0.00    -0.215 OA 
BRANCH  18  19
HETATM   19  C   UNL     1     -11.129  12.189  66.846  1.00  0.00    -0.297 C  
BRANCH  19  20
HETATM   20  C   UNL     1     -10.264  12.562  65.681  1.00  0.00    -0.287 C  
HETATM   21  C   UNL     1     -10.664  13.387  64.701  1.00  0.00    -0.425 C  
ENDBRANCH  19  20
ENDBRANCH  18  19
ENDBRANCH  17  18
ENDBRANCH  11  12
ENDBRANCH  10  11
ENDBRANCH   7  10
ENDBRANCH   6   7
ENDBRANCH   4   6
ENDBRANCH   2   4
TORSDOF 9
ENDMDL
MODEL      163
REMARK 921   NORMALIZED FREE ENERGY PREDICTED BY IDOCK:   -3.82 KCAL/MOL
REMARK 922        TOTAL FREE ENERGY PREDICTED BY IDOCK:   -6.61 KCAL/MOL
REMARK 923 INTER-LIGAND FREE ENERGY PREDICTED BY IDOCK:   -5.28 KCAL/MOL
REMARK 924 INTRA-LIGAND FREE ENERGY PREDICTED BY IDOCK:   -1.33 KCAL/MOL
REMARK 927      BINDING AFFINITY PREDICTED BY RF-SCORE:    0.00 PKD
ROOT
HETATM    1  C   UNL     1     -10.599   5.747  68.796  1.00  0.00    -0.321 C  
HETATM    2  C   UNL     1     -10.863   5.611  70.296  1.00  0.00    -0.266 C  
HETATM    3  C   UNL     1      -9.614   5.044  70.983  1.00  0.00    -0.232 C  
ENDROOT
BRANCH   2   4
HETATM    4  N   UNL     1     -11.238   6.926  70.829  1.00  0.00    -0.277 NA 
HETATM    5  H   UNL     1     -10.935   7.673  70.205  1.00  0.00     0.000 HD 
BRANCH   4   6
HETATM    6  C   UNL     1     -12.674   7.034  71.122  1.00  0.00    -0.309 C  
BRANCH   6   7
HETATM    7  C   UNL     1     -12.978   8.164  72.127  1.00  0.00    -0.261 C  
HETATM    8  O   UNL     1     -11.985   8.198  73.158  1.00  0.00    -0.600 OA 
HETATM    9  H   UNL     1     -12.172   8.894  73.777  1.00  0.00     0.000 HD 
BRANCH   7  10
HETATM   10  C   UNL     1     -13.032   9.518  71.391  1.00  0.00    -0.368 C  
BRANCH  10  11
HETATM   11  O   UNL     1     -11.737  10.092  71.170  1.00  0.00    -0.352 OA 
BRANCH  11  12
HETATM   12  C   UNL     1     -11.492  10.662  69.941  1.00  0.00    -0.317 A  
HETATM   13  C   UNL     1     -12.148  11.817  69.490  1.00  0.00    -0.314 A  
HETATM   14  C   UNL     1     -11.897  12.343  68.224  1.00  0.00    -0.364 A  
HETATM   15  C   UNL     1     -11.004  11.709  67.377  1.00  0.00    -0.313 A  
HETATM   16  C   UNL     1     -10.331  10.569  67.811  1.00  0.00    -0.248 A  
HETATM   17  C   UNL     1     -10.527  10.057  69.105  1.00  0.00    -0.219 A  
BRANCH  17  18
HETATM   18  O   UNL     1      -9.808   8.980  69.594  1.00  0.00    -0.169 OA 
BRANCH  18  19
HETATM   19  C   UNL     1      -8.525   9.325  70.134  1.00  0.00    -0.191 C  
BRANCH  19  20
HETATM   20  C   UNL     1      -7.422   8.687  69.346  1.00  0.00    -0.080 C  
HETATM   21  C   UNL     1      -7.028   9.124  68.141  1.00  0.00    -0.076 C  
ENDBRANCH  19  20
ENDBRANCH  18  19
ENDBRANCH  17  18
ENDBRANCH  11  12
ENDBRANCH  10  11
ENDBRANCH   7  10
ENDBRANCH   6   7
ENDBRANCH   4   6
ENDBRANCH   2   4
TORSDOF 9
ENDMDL
MODEL      164
REMARK 921   NORMALIZED FREE ENERGY PREDICTED BY IDOCK:   -3.82 KCAL/MOL
REMARK 922        TOTAL FREE ENERGY PREDICTED BY IDOCK:   -6.60 KCAL/MOL
REMARK 923 INTER-LIGAND FREE ENERGY PREDICTED BY IDOCK:   -5.73 KCAL/MOL
REMARK 924 INTRA-LIGAND FREE ENERGY PREDICTED BY IDOCK:   -0.87 KCAL/MOL
REMARK 927      BINDING AFFINITY PREDICTED BY RF-SCORE:    0.00 PKD
ROOT
HETATM    1  C   UNL     1     -10.000  13.347  66.935  1.00  0.00    -0.252 C  
HETATM    2  C   UNL     1     -11.424  12.800  67.056  1.00  0.00    -0.341 C  
HETATM    3  C   UNL     1     -12.370  13.653  66.202  1.00  0.00    -0.476 C  
ENDROOT
BRANCH   2   4
HETATM    4  N   UNL     1     -11.423  11.392  66.643  1.00  0.00    -0.408 NA 
HETATM    5  H   UNL     1     -12.286  11.155  66.152  1.00  0.00     0.000 HD 
BRANCH   4   6
HETATM    6  C   UNL     1     -10.246  11.033  65.841  1.00  0.00    -0.254 C  
BRANCH   6   7
HETATM    7  C   UNL     1      -9.502   9.810  66.417  1.00  0.00    -0.184 C  
HETATM    8  O   UNL     1      -8.581  10.217  67.434  1.00  0.00    -0.125 OA 
HETATM    9  H   UNL     1      -8.122   9.464  67.789  1.00  0.00     0.000 HD 
BRANCH   7  10
HETATM   10  C   UNL     1     -10.519   8.801  66.989  1.00  0.00    -0.268 C  
BRANCH  10  11
HETATM   11  O   UNL     1     -10.634   8.864  68.417  1.00  0.00    -0.206 OA 
BRANCH  11  12
HETATM   12  C   UNL     1     -10.521   7.686  69.120  1.00  0.00    -0.214 A  
HETATM   13  C   UNL     1     -10.288   6.448  68.503  1.00  0.00    -0.227 A  
HETATM   14  C   UNL     1     -10.215   5.272  69.248  1.00  0.00    -0.301 A  
HETATM   15  C   UNL     1     -10.400   5.310  70.619  1.00  0.00    -0.324 A  
HETATM   16  C   UNL     1     -10.619   6.531  71.253  1.00  0.00    -0.268 A  
HETATM   17  C   UNL     1     -10.637   7.735  70.527  1.00  0.00    -0.226 A  
BRANCH  17  18
HETATM   18  O   UNL     1     -10.764   8.969  71.139  1.00  0.00    -0.239 OA 
BRANCH  18  19
HETATM   19  C   UNL     1     -11.998   9.152  71.847  1.00  0.00    -0.373 C  
BRANCH  19  20
HETATM   20  C   UNL     1     -12.829  10.223  71.208  1.00  0.00    -0.522 C  
HETATM   21  C   UNL     1     -13.080  11.406  71.789  1.00  0.00    -0.523 C  
ENDBRANCH  19  20
ENDBRANCH  18  19
ENDBRANCH  17  18
ENDBRANCH  11  12
ENDBRANCH  10  11
ENDBRANCH   7  10
ENDBRANCH   6   7
ENDBRANCH   4   6
ENDBRANCH   2   4
TORSDOF 9
ENDMDL
MODEL      165
REMARK 921   NORMALIZED FREE ENERGY PREDICTED BY IDOCK:   -3.82 KCAL/MOL
REMARK 922        TOTAL FREE ENERGY PREDICTED BY IDOCK:   -6.59 KCAL/MOL
REMARK 923 INTER-LIGAND FREE ENERGY PREDICTED BY IDOCK:   -5.77 KCAL/MOL
REMARK 924 INTRA-LIGAND FREE ENERGY PREDICTED BY IDOCK:   -0.83 KCAL/MOL
REMARK 927      BINDING AFFINITY PREDICTED BY RF-SCORE:    0.00 PKD
ROOT
HETATM    1  C   UNL     1     -10.831   5.529  66.537  1.00  0.00    -0.237 C  
HETATM    2  C   UNL     1     -10.957   6.385  67.799  1.00  0.00    -0.332 C  
HETATM    3  C   UNL     1     -10.682   5.515  69.032  1.00  0.00    -0.231 C  
ENDROOT
BRANCH   2   4
HETATM    4  N   UNL     1     -10.024   7.512  67.698  1.00  0.00    -0.160 NA 
HETATM    5  H   UNL     1      -9.079   7.187  67.492  1.00  0.00     0.000 HD 
BRANCH   4   6
HETATM    6  C   UNL     1     -10.456   8.525  66.725  1.00  0.00    -0.238 C  
BRANCH   6   7
HETATM    7  C   UNL     1      -9.281   9.051  65.875  1.00  0.00    -0.230 C  
HETATM    8  O   UNL     1      -9.743   9.469  64.586  1.00  0.00    -0.425 OA 
HETATM    9  H   UNL     1      -9.019   9.793  64.062  1.00  0.00     0.000 HD 
BRANCH   7  10
HETATM   10  C   UNL     1      -8.592  10.223  66.603  1.00  0.00    -0.127 C  
BRANCH  10  11
HETATM   11  O   UNL     1      -9.427  10.843  67.591  1.00  0.00    -0.157 OA 
BRANCH  11  12
HETATM   12  C   UNL     1     -10.047  12.025  67.254  1.00  0.00    -0.194 A  
HETATM   13  C   UNL     1      -9.426  13.021  66.485  1.00  0.00    -0.246 A  
HETATM   14  C   UNL     1     -10.075  14.220  66.196  1.00  0.00    -0.325 A  
HETATM   15  C   UNL     1     -11.346  14.454  66.690  1.00  0.00    -0.359 A  
HETATM   16  C   UNL     1     -11.986  13.472  67.443  1.00  0.00    -0.398 A  
HETATM   17  C   UNL     1     -11.372  12.234  67.697  1.00  0.00    -0.311 A  
BRANCH  17  18
HETATM   18  O   UNL     1     -12.017  11.208  68.365  1.00  0.00    -0.561 OA 
BRANCH  18  19
HETATM   19  C   UNL     1     -11.997  11.332  69.794  1.00  0.00    -0.360 C  
BRANCH  19  20
HETATM   20  C   UNL     1     -11.402  10.112  70.430  1.00  0.00    -0.401 C  
HETATM   21  C   UNL     1     -11.925   9.516  71.512  1.00  0.00    -0.475 C  
ENDBRANCH  19  20
ENDBRANCH  18  19
ENDBRANCH  17  18
ENDBRANCH  11  12
ENDBRANCH  10  11
ENDBRANCH   7  10
ENDBRANCH   6   7
ENDBRANCH   4   6
ENDBRANCH   2   4
TORSDOF 9
ENDMDL
MODEL      166
REMARK 921   NORMALIZED FREE ENERGY PREDICTED BY IDOCK:   -3.81 KCAL/MOL
REMARK 922        TOTAL FREE ENERGY PREDICTED BY IDOCK:   -6.59 KCAL/MOL
REMARK 923 INTER-LIGAND FREE ENERGY PREDICTED BY IDOCK:   -5.85 KCAL/MOL
REMARK 924 INTRA-LIGAND FREE ENERGY PREDICTED BY IDOCK:   -0.74 KCAL/MOL
REMARK 927      BINDING AFFINITY PREDICTED BY RF-SCORE:    0.00 PKD
ROOT
HETATM    1  C   UNL     1     -10.656   8.975  69.603  1.00  0.00    -0.230 C  
HETATM    2  C   UNL     1     -10.976  10.239  68.803  1.00  0.00    -0.243 C  
HETATM    3  C   UNL     1     -10.992   9.904  67.307  1.00  0.00    -0.187 C  
ENDROOT
BRANCH   2   4
HETATM    4  N   UNL     1     -12.261  10.776  69.264  1.00  0.00    -0.651 NA 
HETATM    5  H   UNL     1     -13.001  10.081  69.172  1.00  0.00     0.000 HD 
BRANCH   4   6
HETATM    6  C   UNL     1     -12.201  11.302  70.635  1.00  0.00    -0.393 C  
BRANCH   6   7
HETATM    7  C   UNL     1     -12.872  12.686  70.755  1.00  0.00    -0.021 C  
HETATM    8  O   UNL     1     -13.343  12.901  72.090  1.00  0.00    -0.512 OA 
HETATM    9  H   UNL     1     -13.756  13.753  72.164  1.00  0.00     0.000 HD 
BRANCH   7  10
HETATM   10  C   UNL     1     -11.870  13.789  70.357  1.00  0.00    -0.253 C  
BRANCH  10  11
HETATM   11  O   UNL     1     -12.131  14.349  69.062  1.00  0.00    -0.312 OA 
BRANCH  11  12
HETATM   12  C   UNL     1     -11.067  14.492  68.201  1.00  0.00    -0.266 A  
HETATM   13  C   UNL     1     -10.514  13.420  67.485  1.00  0.00    -0.236 A  
HETATM   14  C   UNL     1      -9.414  13.600  66.649  1.00  0.00    -0.285 A  
HETATM   15  C   UNL     1      -8.831  14.850  66.534  1.00  0.00    -0.256 A  
HETATM   16  C   UNL     1      -9.373  15.931  67.226  1.00  0.00    -0.218 A  
HETATM   17  C   UNL     1     -10.518  15.782  68.028  1.00  0.00    -0.270 A  
BRANCH  17  18
HETATM   18  O   UNL     1     -11.130  16.852  68.654  1.00  0.00    -0.303 OA 
BRANCH  18  19
HETATM   19  C   UNL     1     -10.351  18.056  68.661  1.00  0.00    -0.319 C  
BRANCH  19  20
HETATM   20  C   UNL     1     -10.997  19.119  67.826  1.00  0.00    -0.297 C  
HETATM   21  C   UNL     1     -10.310  19.945  67.022  1.00  0.00    -0.592 C  
ENDBRANCH  19  20
ENDBRANCH  18  19
ENDBRANCH  17  18
ENDBRANCH  11  12
ENDBRANCH  10  11
ENDBRANCH   7  10
ENDBRANCH   6   7
ENDBRANCH   4   6
ENDBRANCH   2   4
TORSDOF 9
ENDMDL
MODEL      167
REMARK 921   NORMALIZED FREE ENERGY PREDICTED BY IDOCK:   -3.80 KCAL/MOL
REMARK 922        TOTAL FREE ENERGY PREDICTED BY IDOCK:   -6.58 KCAL/MOL
REMARK 923 INTER-LIGAND FREE ENERGY PREDICTED BY IDOCK:   -5.55 KCAL/MOL
REMARK 924 INTRA-LIGAND FREE ENERGY PREDICTED BY IDOCK:   -1.03 KCAL/MOL
REMARK 927      BINDING AFFINITY PREDICTED BY RF-SCORE:    0.00 PKD
ROOT
HETATM    1  C   UNL     1     -11.668  13.374  64.932  1.00  0.00    -0.379 C  
HETATM    2  C   UNL     1     -11.414  13.213  66.432  1.00  0.00    -0.334 C  
HETATM    3  C   UNL     1     -11.998  14.418  67.178  1.00  0.00    -0.419 C  
ENDROOT
BRANCH   2   4
HETATM    4  N   UNL     1     -12.006  11.946  66.876  1.00  0.00    -0.591 NA 
HETATM    5  H   UNL     1     -12.096  11.292  66.098  1.00  0.00     0.000 HD 
BRANCH   4   6
HETATM    6  C   UNL     1     -11.275  11.336  67.995  1.00  0.00    -0.287 C  
BRANCH   6   7
HETATM    7  C   UNL     1      -9.748  11.511  67.854  1.00  0.00    -0.183 C  
HETATM    8  O   UNL     1      -9.133  11.601  69.144  1.00  0.00    -0.384 OA 
HETATM    9  H   UNL     1      -8.193  11.709  69.057  1.00  0.00     0.000 HD 
BRANCH   7  10
HETATM   10  C   UNL     1      -9.157  10.328  67.061  1.00  0.00    -0.139 C  
BRANCH  10  11
HETATM   11  O   UNL     1      -8.630   9.292  67.901  1.00  0.00    -0.120 OA 
BRANCH  11  12
HETATM   12  C   UNL     1      -9.480   8.277  68.275  1.00  0.00    -0.138 A  
HETATM   13  C   UNL     1     -10.044   7.376  67.359  1.00  0.00    -0.274 A  
HETATM   14  C   UNL     1     -10.929   6.383  67.773  1.00  0.00    -0.425 A  
HETATM   15  C   UNL     1     -11.286   6.289  69.107  1.00  0.00    -0.439 A  
HETATM   16  C   UNL     1     -10.727   7.164  70.035  1.00  0.00    -0.268 A  
HETATM   17  C   UNL     1      -9.788   8.135  69.646  1.00  0.00    -0.184 A  
BRANCH  17  18
HETATM   18  O   UNL     1      -9.150   8.958  70.557  1.00  0.00    -0.165 OA 
BRANCH  18  19
HETATM   19  C   UNL     1      -9.621   8.823  71.904  1.00  0.00    -0.302 C  
BRANCH  19  20
HETATM   20  C   UNL     1      -8.602   8.137  72.763  1.00  0.00    -0.269 C  
HETATM   21  C   UNL     1      -8.923   7.306  73.766  1.00  0.00    -0.251 C  
ENDBRANCH  19  20
ENDBRANCH  18  19
ENDBRANCH  17  18
ENDBRANCH  11  12
ENDBRANCH  10  11
ENDBRANCH   7  10
ENDBRANCH   6   7
ENDBRANCH   4   6
ENDBRANCH   2   4
TORSDOF 9
ENDMDL
MODEL      168
REMARK 921   NORMALIZED FREE ENERGY PREDICTED BY IDOCK:   -3.80 KCAL/MOL
REMARK 922        TOTAL FREE ENERGY PREDICTED BY IDOCK:   -6.58 KCAL/MOL
REMARK 923 INTER-LIGAND FREE ENERGY PREDICTED BY IDOCK:   -5.78 KCAL/MOL
REMARK 924 INTRA-LIGAND FREE ENERGY PREDICTED BY IDOCK:   -0.80 KCAL/MOL
REMARK 927      BINDING AFFINITY PREDICTED BY RF-SCORE:    0.00 PKD
ROOT
HETATM    1  C   UNL     1      -9.960  16.676  66.222  1.00  0.00    -0.336 C  
HETATM    2  C   UNL     1     -10.227  16.620  67.728  1.00  0.00    -0.292 C  
HETATM    3  C   UNL     1     -10.370  18.047  68.271  1.00  0.00    -0.389 C  
ENDROOT
BRANCH   2   4
HETATM    4  N   UNL     1     -11.431  15.815  67.963  1.00  0.00    -0.311 NA 
HETATM    5  H   UNL     1     -11.288  14.850  67.665  1.00  0.00     0.000 HD 
BRANCH   4   6
HETATM    6  C   UNL     1     -11.892  15.873  69.357  1.00  0.00    -0.316 C  
BRANCH   6   7
HETATM    7  C   UNL     1     -12.032  14.469  69.981  1.00  0.00    -0.330 C  
HETATM    8  O   UNL     1     -13.263  14.362  70.703  1.00  0.00    -0.438 OA 
HETATM    9  H   UNL     1     -13.350  13.497  71.088  1.00  0.00     0.000 HD 
BRANCH   7  10
HETATM   10  C   UNL     1     -11.965  13.396  68.875  1.00  0.00    -0.324 C  
BRANCH  10  11
HETATM   11  O   UNL     1     -10.639  12.898  68.651  1.00  0.00    -0.248 OA 
BRANCH  11  12
HETATM   12  C   UNL     1     -10.492  11.840  67.783  1.00  0.00    -0.194 A  
HETATM   13  C   UNL     1     -10.526  11.986  66.388  1.00  0.00    -0.267 A  
HETATM   14  C   UNL     1     -10.407  10.884  65.543  1.00  0.00    -0.316 A  
HETATM   15  C   UNL     1     -10.278   9.614  66.078  1.00  0.00    -0.255 A  
HETATM   16  C   UNL     1     -10.228   9.448  67.460  1.00  0.00    -0.288 A  
HETATM   17  C   UNL     1     -10.287  10.553  68.328  1.00  0.00    -0.168 A  
BRANCH  17  18
HETATM   18  O   UNL     1     -10.150  10.428  69.699  1.00  0.00    -0.231 OA 
BRANCH  18  19
HETATM   19  C   UNL     1     -11.377  10.162  70.392  1.00  0.00    -0.326 C  
BRANCH  19  20
HETATM   20  C   UNL     1     -11.361   8.796  71.008  1.00  0.00    -0.332 C  
HETATM   21  C   UNL     1     -12.110   8.456  72.067  1.00  0.00    -0.417 C  
ENDBRANCH  19  20
ENDBRANCH  18  19
ENDBRANCH  17  18
ENDBRANCH  11  12
ENDBRANCH  10  11
ENDBRANCH   7  10
ENDBRANCH   6   7
ENDBRANCH   4   6
ENDBRANCH   2   4
TORSDOF 9
ENDMDL
MODEL      169
REMARK 921   NORMALIZED FREE ENERGY PREDICTED BY IDOCK:   -3.80 KCAL/MOL
REMARK 922        TOTAL FREE ENERGY PREDICTED BY IDOCK:   -6.57 KCAL/MOL
REMARK 923 INTER-LIGAND FREE ENERGY PREDICTED BY IDOCK:   -5.94 KCAL/MOL
REMARK 924 INTRA-LIGAND FREE ENERGY PREDICTED BY IDOCK:   -0.63 KCAL/MOL
REMARK 927      BINDING AFFINITY PREDICTED BY RF-SCORE:    0.00 PKD
ROOT
HETATM    1  C   UNL     1      -9.820   5.738  66.367  1.00  0.00    -0.174 C  
HETATM    2  C   UNL     1     -10.889   6.176  67.371  1.00  0.00    -0.343 C  
HETATM    3  C   UNL     1     -10.437   5.804  68.789  1.00  0.00    -0.312 C  
ENDROOT
BRANCH   2   4
HETATM    4  N   UNL     1     -11.111   7.619  67.222  1.00  0.00    -0.498 NA 
HETATM    5  H   UNL     1     -11.324   8.050  68.122  1.00  0.00     0.000 HD 
BRANCH   4   6
HETATM    6  C   UNL     1      -9.991   8.303  66.563  1.00  0.00    -0.250 C  
BRANCH   6   7
HETATM    7  C   UNL     1      -9.520   9.541  67.354  1.00  0.00    -0.135 C  
HETATM    8  O   UNL     1      -9.229  10.625  66.465  1.00  0.00    -0.161 OA 
HETATM    9  H   UNL     1      -8.939  11.387  66.952  1.00  0.00     0.000 HD 
BRANCH   7  10
HETATM   10  C   UNL     1     -10.606   9.958  68.368  1.00  0.00    -0.222 C  
BRANCH  10  11
HETATM   11  O   UNL     1     -10.306   9.559  69.712  1.00  0.00    -0.201 OA 
BRANCH  11  12
HETATM   12  C   UNL     1     -11.362   9.378  70.576  1.00  0.00    -0.274 A  
HETATM   13  C   UNL     1     -11.694   8.131  71.127  1.00  0.00    -0.309 A  
HETATM   14  C   UNL     1     -12.793   7.983  71.971  1.00  0.00    -0.313 A  
HETATM   15  C   UNL     1     -13.594   9.075  72.259  1.00  0.00    -0.540 A  
HETATM   16  C   UNL     1     -13.274  10.325  71.735  1.00  0.00    -0.534 A  
HETATM   17  C   UNL     1     -12.136  10.506  70.929  1.00  0.00    -0.383 A  
BRANCH  17  18
HETATM   18  O   UNL     1     -11.743  11.750  70.467  1.00  0.00    -0.272 OA 
BRANCH  18  19
HETATM   19  C   UNL     1     -12.485  12.845  71.021  1.00  0.00    -0.283 C  
BRANCH  19  20
HETATM   20  C   UNL     1     -12.113  14.136  70.357  1.00  0.00    -0.417 C  
HETATM   21  C   UNL     1     -11.385  14.204  69.233  1.00  0.00    -0.324 C  
ENDBRANCH  19  20
ENDBRANCH  18  19
ENDBRANCH  17  18
ENDBRANCH  11  12
ENDBRANCH  10  11
ENDBRANCH   7  10
ENDBRANCH   6   7
ENDBRANCH   4   6
ENDBRANCH   2   4
TORSDOF 9
ENDMDL
MODEL      170
REMARK 921   NORMALIZED FREE ENERGY PREDICTED BY IDOCK:   -3.80 KCAL/MOL
REMARK 922        TOTAL FREE ENERGY PREDICTED BY IDOCK:   -6.57 KCAL/MOL
REMARK 923 INTER-LIGAND FREE ENERGY PREDICTED BY IDOCK:   -5.02 KCAL/MOL
REMARK 924 INTRA-LIGAND FREE ENERGY PREDICTED BY IDOCK:   -1.56 KCAL/MOL
REMARK 927      BINDING AFFINITY PREDICTED BY RF-SCORE:    0.00 PKD
ROOT
HETATM    1  C   UNL     1     -10.634   6.519  67.476  1.00  0.00    -0.345 C  
HETATM    2  C   UNL     1      -9.113   6.500  67.645  1.00  0.00    -0.112 C  
HETATM    3  C   UNL     1      -8.499   7.658  66.850  1.00  0.00    -0.126 C  
ENDROOT
BRANCH   2   4
HETATM    4  N   UNL     1      -8.797   6.583  69.076  1.00  0.00    -0.131 NA 
HETATM    5  H   UNL     1      -8.541   5.669  69.447  1.00  0.00     0.000 HD 
BRANCH   4   6
HETATM    6  C   UNL     1      -7.762   7.582  69.374  1.00  0.00    -0.111 C  
BRANCH   6   7
HETATM    7  C   UNL     1      -8.082   8.386  70.652  1.00  0.00    -0.114 C  
HETATM    8  O   UNL     1      -6.876   8.845  71.271  1.00  0.00    -0.078 OA 
HETATM    9  H   UNL     1      -7.073   9.340  72.058  1.00  0.00     0.000 HD 
BRANCH   7  10
HETATM   10  C   UNL     1      -8.993   9.581  70.303  1.00  0.00    -0.248 C  
BRANCH  10  11
HETATM   11  O   UNL     1     -10.264   9.186  69.769  1.00  0.00    -0.191 OA 
BRANCH  11  12
HETATM   12  C   UNL     1     -11.371   9.339  70.572  1.00  0.00    -0.258 A  
HETATM   13  C   UNL     1     -11.963  10.584  70.828  1.00  0.00    -0.472 A  
HETATM   14  C   UNL     1     -13.062  10.701  71.677  1.00  0.00    -0.555 A  
HETATM   15  C   UNL     1     -13.574   9.578  72.303  1.00  0.00    -0.494 A  
HETATM   16  C   UNL     1     -13.010   8.329  72.052  1.00  0.00    -0.355 A  
HETATM   17  C   UNL     1     -11.937   8.183  71.154  1.00  0.00    -0.273 A  
BRANCH  17  18
HETATM   18  O   UNL     1     -11.415   6.947  70.817  1.00  0.00    -0.296 OA 
BRANCH  18  19
HETATM   19  C   UNL     1     -11.379   6.007  71.900  1.00  0.00    -0.279 C  
BRANCH  19  20
HETATM   20  C   UNL     1     -10.193   6.251  72.783  1.00  0.00    -0.202 C  
HETATM   21  C   UNL     1     -10.295   6.612  74.071  1.00  0.00    -0.377 C  
ENDBRANCH  19  20
ENDBRANCH  18  19
ENDBRANCH  17  18
ENDBRANCH  11  12
ENDBRANCH  10  11
ENDBRANCH   7  10
ENDBRANCH   6   7
ENDBRANCH   4   6
ENDBRANCH   2   4
TORSDOF 9
ENDMDL
MODEL      171
REMARK 921   NORMALIZED FREE ENERGY PREDICTED BY IDOCK:   -3.79 KCAL/MOL
REMARK 922        TOTAL FREE ENERGY PREDICTED BY IDOCK:   -6.56 KCAL/MOL
REMARK 923 INTER-LIGAND FREE ENERGY PREDICTED BY IDOCK:   -5.99 KCAL/MOL
REMARK 924 INTRA-LIGAND FREE ENERGY PREDICTED BY IDOCK:   -0.57 KCAL/MOL
REMARK 927      BINDING AFFINITY PREDICTED BY RF-SCORE:    0.00 PKD
ROOT
HETATM    1  C   UNL     1     -12.782  11.133  70.978  1.00  0.00    -0.476 C  
HETATM    2  C   UNL     1     -11.593  11.069  70.018  1.00  0.00    -0.344 C  
HETATM    3  C   UNL     1     -10.840   9.750  70.230  1.00  0.00    -0.356 C  
ENDROOT
BRANCH   2   4
HETATM    4  N   UNL     1     -12.089  11.207  68.644  1.00  0.00    -0.679 NA 
HETATM    5  H   UNL     1     -13.063  10.913  68.576  1.00  0.00     0.000 HD 
BRANCH   4   6
HETATM    6  C   UNL     1     -11.910  12.563  68.107  1.00  0.00    -0.317 C  
BRANCH   6   7
HETATM    7  C   UNL     1     -11.346  12.549  66.671  1.00  0.00    -0.334 C  
HETATM    8  O   UNL     1     -12.402  12.378  65.720  1.00  0.00    -0.644 OA 
HETATM    9  H   UNL     1     -12.055  12.370  64.835  1.00  0.00     0.000 HD 
BRANCH   7  10
HETATM   10  C   UNL     1     -10.585  13.863  66.396  1.00  0.00    -0.280 C  
BRANCH  10  11
HETATM   11  O   UNL     1      -9.849  14.337  67.531  1.00  0.00    -0.226 OA 
BRANCH  11  12
HETATM   12  C   UNL     1      -9.715  15.699  67.683  1.00  0.00    -0.225 A  
HETATM   13  C   UNL     1     -10.428  16.627  66.910  1.00  0.00    -0.271 A  
HETATM   14  C   UNL     1     -10.238  17.999  67.070  1.00  0.00    -0.367 A  
HETATM   15  C   UNL     1      -9.312  18.465  67.987  1.00  0.00    -0.304 A  
HETATM   16  C   UNL     1      -8.603  17.560  68.774  1.00  0.00    -0.209 A  
HETATM   17  C   UNL     1      -8.823  16.176  68.669  1.00  0.00    -0.218 A  
BRANCH  17  18
HETATM   18  O   UNL     1      -8.200  15.259  69.498  1.00  0.00    -0.234 OA 
BRANCH  18  19
HETATM   19  C   UNL     1      -6.770  15.240  69.384  1.00  0.00    -0.164 C  
BRANCH  19  20
HETATM   20  C   UNL     1      -6.158  14.395  70.460  1.00  0.00    -0.185 C  
HETATM   21  C   UNL     1      -5.772  13.124  70.269  1.00  0.00    -0.155 C  
ENDBRANCH  19  20
ENDBRANCH  18  19
ENDBRANCH  17  18
ENDBRANCH  11  12
ENDBRANCH  10  11
ENDBRANCH   7  10
ENDBRANCH   6   7
ENDBRANCH   4   6
ENDBRANCH   2   4
TORSDOF 9
ENDMDL
MODEL      172
REMARK 921   NORMALIZED FREE ENERGY PREDICTED BY IDOCK:   -3.79 KCAL/MOL
REMARK 922        TOTAL FREE ENERGY PREDICTED BY IDOCK:   -6.55 KCAL/MOL
REMARK 923 INTER-LIGAND FREE ENERGY PREDICTED BY IDOCK:   -6.04 KCAL/MOL
REMARK 924 INTRA-LIGAND FREE ENERGY PREDICTED BY IDOCK:   -0.51 KCAL/MOL
REMARK 927      BINDING AFFINITY PREDICTED BY RF-SCORE:    0.00 PKD
ROOT
HETATM    1  C   UNL     1      -5.890  18.345  68.489  1.00  0.00    -0.186 C  
HETATM    2  C   UNL     1      -7.296  18.858  68.172  1.00  0.00    -0.260 C  
HETATM    3  C   UNL     1      -7.219  20.337  67.773  1.00  0.00    -0.336 C  
ENDROOT
BRANCH   2   4
HETATM    4  N   UNL     1      -7.872  18.028  67.108  1.00  0.00    -0.213 NA 
HETATM    5  H   UNL     1      -7.148  17.492  66.630  1.00  0.00     0.000 HD 
BRANCH   4   6
HETATM    6  C   UNL     1      -8.945  17.148  67.590  1.00  0.00    -0.226 C  
BRANCH   6   7
HETATM    7  C   UNL     1     -10.226  17.275  66.739  1.00  0.00    -0.318 C  
HETATM    8  O   UNL     1     -10.246  18.528  66.047  1.00  0.00    -0.479 OA 
HETATM    9  H   UNL     1     -11.035  18.606  65.523  1.00  0.00     0.000 HD 
BRANCH   7  10
HETATM   10  C   UNL     1     -10.305  16.107  65.734  1.00  0.00    -0.378 C  
BRANCH  10  11
HETATM   11  O   UNL     1     -11.221  15.079  66.134  1.00  0.00    -0.342 OA 
BRANCH  11  12
HETATM   12  C   UNL     1     -11.346  13.980  65.316  1.00  0.00    -0.321 A  
HETATM   13  C   UNL     1     -12.146  13.972  64.164  1.00  0.00    -0.456 A  
HETATM   14  C   UNL     1     -12.273  12.826  63.380  1.00  0.00    -0.594 A  
HETATM   15  C   UNL     1     -11.623  11.661  63.749  1.00  0.00    -0.430 A  
HETATM   16  C   UNL     1     -10.812  11.652  64.882  1.00  0.00    -0.359 A  
HETATM   17  C   UNL     1     -10.624  12.812  65.653  1.00  0.00    -0.275 A  
BRANCH  17  18
HETATM   18  O   UNL     1      -9.757  12.857  66.730  1.00  0.00    -0.232 OA 
BRANCH  18  19
HETATM   19  C   UNL     1     -10.313  12.357  67.954  1.00  0.00    -0.210 C  
BRANCH  19  20
HETATM   20  C   UNL     1      -9.805  10.978  68.250  1.00  0.00    -0.185 C  
HETATM   21  C   UNL     1     -10.576  10.001  68.750  1.00  0.00    -0.241 C  
ENDBRANCH  19  20
ENDBRANCH  18  19
ENDBRANCH  17  18
ENDBRANCH  11  12
ENDBRANCH  10  11
ENDBRANCH   7  10
ENDBRANCH   6   7
ENDBRANCH   4   6
ENDBRANCH   2   4
TORSDOF 9
ENDMDL
MODEL      173
REMARK 921   NORMALIZED FREE ENERGY PREDICTED BY IDOCK:   -3.78 KCAL/MOL
REMARK 922        TOTAL FREE ENERGY PREDICTED BY IDOCK:   -6.54 KCAL/MOL
REMARK 923 INTER-LIGAND FREE ENERGY PREDICTED BY IDOCK:   -5.46 KCAL/MOL
REMARK 924 INTRA-LIGAND FREE ENERGY PREDICTED BY IDOCK:   -1.08 KCAL/MOL
REMARK 927      BINDING AFFINITY PREDICTED BY RF-SCORE:    0.00 PKD
ROOT
HETATM    1  C   UNL     1      -8.015  11.418  66.662  1.00  0.00    -0.148 C  
HETATM    2  C   UNL     1      -8.470  11.687  68.098  1.00  0.00    -0.156 C  
HETATM    3  C   UNL     1      -7.961  10.565  69.011  1.00  0.00    -0.136 C  
ENDROOT
BRANCH   2   4
HETATM    4  N   UNL     1      -7.971  13.005  68.511  1.00  0.00    -0.241 NA 
HETATM    5  H   UNL     1      -7.464  12.943  69.394  1.00  0.00     0.000 HD 
BRANCH   4   6
HETATM    6  C   UNL     1      -7.152  13.653  67.478  1.00  0.00    -0.152 C  
BRANCH   6   7
HETATM    7  C   UNL     1      -7.268  15.191  67.528  1.00  0.00    -0.200 C  
HETATM    8  O   UNL     1      -6.021  15.799  67.173  1.00  0.00    -0.328 OA 
HETATM    9  H   UNL     1      -6.092  16.746  67.203  1.00  0.00     0.000 HD 
BRANCH   7  10
HETATM   10  C   UNL     1      -8.384  15.663  66.573  1.00  0.00    -0.241 C  
BRANCH  10  11
HETATM   11  O   UNL     1      -9.700  15.331  67.037  1.00  0.00    -0.220 OA 
BRANCH  11  12
HETATM   12  C   UNL     1     -10.462  14.494  66.253  1.00  0.00    -0.301 A  
HETATM   13  C   UNL     1     -10.060  14.064  64.980  1.00  0.00    -0.323 A  
HETATM   14  C   UNL     1     -10.876  13.244  64.203  1.00  0.00    -0.369 A  
HETATM   15  C   UNL     1     -12.119  12.860  64.676  1.00  0.00    -0.474 A  
HETATM   16  C   UNL     1     -12.532  13.265  65.943  1.00  0.00    -0.433 A  
HETATM   17  C   UNL     1     -11.699  14.044  66.766  1.00  0.00    -0.407 A  
BRANCH  17  18
HETATM   18  O   UNL     1     -12.044  14.386  68.061  1.00  0.00    -0.320 OA 
BRANCH  18  19
HETATM   19  C   UNL     1     -11.271  13.723  69.071  1.00  0.00    -0.272 C  
BRANCH  19  20
HETATM   20  C   UNL     1     -12.033  12.577  69.665  1.00  0.00    -0.339 C  
HETATM   21  C   UNL     1     -12.030  11.341  69.144  1.00  0.00    -0.405 C  
ENDBRANCH  19  20
ENDBRANCH  18  19
ENDBRANCH  17  18
ENDBRANCH  11  12
ENDBRANCH  10  11
ENDBRANCH   7  10
ENDBRANCH   6   7
ENDBRANCH   4   6
ENDBRANCH   2   4
TORSDOF 9
ENDMDL
MODEL      174
REMARK 921   NORMALIZED FREE ENERGY PREDICTED BY IDOCK:   -3.77 KCAL/MOL
REMARK 922        TOTAL FREE ENERGY PREDICTED BY IDOCK:   -6.53 KCAL/MOL
REMARK 923 INTER-LIGAND FREE ENERGY PREDICTED BY IDOCK:   -5.96 KCAL/MOL
REMARK 924 INTRA-LIGAND FREE ENERGY PREDICTED BY IDOCK:   -0.57 KCAL/MOL
REMARK 927      BINDING AFFINITY PREDICTED BY RF-SCORE:    0.00 PKD
ROOT
HETATM    1  C   UNL     1     -12.957  10.534  71.106  1.00  0.00    -0.506 C  
HETATM    2  C   UNL     1     -11.719  11.095  70.403  1.00  0.00    -0.320 C  
HETATM    3  C   UNL     1     -10.902   9.938  69.814  1.00  0.00    -0.300 C  
ENDROOT
BRANCH   2   4
HETATM    4  N   UNL     1     -12.153  12.046  69.373  1.00  0.00    -0.246 NA 
HETATM    5  H   UNL     1     -13.126  12.318  69.514  1.00  0.00     0.000 HD 
BRANCH   4   6
HETATM    6  C   UNL     1     -11.283  13.227  69.286  1.00  0.00    -0.208 C  
BRANCH   6   7
HETATM    7  C   UNL     1     -11.858  14.429  70.064  1.00  0.00    -0.315 C  
HETATM    8  O   UNL     1     -12.045  14.091  71.442  1.00  0.00    -0.371 OA 
HETATM    9  H   UNL     1     -12.399  14.832  71.921  1.00  0.00     0.000 HD 
BRANCH   7  10
HETATM   10  C   UNL     1     -10.909  15.639  69.933  1.00  0.00    -0.318 C  
BRANCH  10  11
HETATM   11  O   UNL     1     -11.240  16.500  68.835  1.00  0.00    -0.319 OA 
BRANCH  11  12
HETATM   12  C   UNL     1     -10.201  17.052  68.120  1.00  0.00    -0.322 A  
HETATM   13  C   UNL     1      -9.368  18.057  68.636  1.00  0.00    -0.293 A  
HETATM   14  C   UNL     1      -8.349  18.615  67.867  1.00  0.00    -0.293 A  
HETATM   15  C   UNL     1      -8.161  18.197  66.561  1.00  0.00    -0.295 A  
HETATM   16  C   UNL     1      -8.968  17.192  66.034  1.00  0.00    -0.141 A  
HETATM   17  C   UNL     1      -9.963  16.575  66.812  1.00  0.00    -0.276 A  
BRANCH  17  18
HETATM   18  O   UNL     1     -10.719  15.514  66.346  1.00  0.00    -0.305 OA 
BRANCH  18  19
HETATM   19  C   UNL     1      -9.975  14.306  66.139  1.00  0.00    -0.314 C  
BRANCH  19  20
HETATM   20  C   UNL     1     -10.755  13.330  65.312  1.00  0.00    -0.322 C  
HETATM   21  C   UNL     1     -11.817  12.654  65.776  1.00  0.00    -0.497 C  
ENDBRANCH  19  20
ENDBRANCH  18  19
ENDBRANCH  17  18
ENDBRANCH  11  12
ENDBRANCH  10  11
ENDBRANCH   7  10
ENDBRANCH   6   7
ENDBRANCH   4   6
ENDBRANCH   2   4
TORSDOF 9
ENDMDL
MODEL      175
REMARK 921   NORMALIZED FREE ENERGY PREDICTED BY IDOCK:   -3.77 KCAL/MOL
REMARK 922        TOTAL FREE ENERGY PREDICTED BY IDOCK:   -6.53 KCAL/MOL
REMARK 923 INTER-LIGAND FREE ENERGY PREDICTED BY IDOCK:   -5.50 KCAL/MOL
REMARK 924 INTRA-LIGAND FREE ENERGY PREDICTED BY IDOCK:   -1.03 KCAL/MOL
REMARK 927      BINDING AFFINITY PREDICTED BY RF-SCORE:    0.00 PKD
ROOT
HETATM    1  C   UNL     1      -5.931  11.833  66.715  1.00  0.00    -0.107 C  
HETATM    2  C   UNL     1      -6.918  10.751  66.273  1.00  0.00    -0.134 C  
HETATM    3  C   UNL     1      -6.935   9.623  67.312  1.00  0.00    -0.085 C  
ENDROOT
BRANCH   2   4
HETATM    4  N   UNL     1      -8.240  11.362  66.097  1.00  0.00    -0.343 NA 
HETATM    5  H   UNL     1      -8.167  12.377  66.027  1.00  0.00     0.000 HD 
BRANCH   4   6
HETATM    6  C   UNL     1      -8.978  10.808  64.954  1.00  0.00    -0.184 C  
BRANCH   6   7
HETATM    7  C   UNL     1      -9.956  11.832  64.343  1.00  0.00    -0.251 C  
HETATM    8  O   UNL     1     -11.014  11.162  63.649  1.00  0.00    -0.554 OA 
HETATM    9  H   UNL     1     -11.617  11.793  63.272  1.00  0.00     0.000 HD 
BRANCH   7  10
HETATM   10  C   UNL     1     -10.532  12.733  65.454  1.00  0.00    -0.286 C  
BRANCH  10  11
HETATM   11  O   UNL     1     -11.343  12.019  66.397  1.00  0.00    -0.325 OA 
BRANCH  11  12
HETATM   12  C   UNL     1     -11.648  12.646  67.583  1.00  0.00    -0.357 A  
HETATM   13  C   UNL     1     -11.764  14.039  67.703  1.00  0.00    -0.412 A  
HETATM   14  C   UNL     1     -12.040  14.638  68.931  1.00  0.00    -0.251 A  
HETATM   15  C   UNL     1     -12.179  13.857  70.065  1.00  0.00    -0.408 A  
HETATM   16  C   UNL     1     -12.081  12.471  69.965  1.00  0.00    -0.337 A  
HETATM   17  C   UNL     1     -11.862  11.844  68.727  1.00  0.00    -0.313 A  
BRANCH  17  18
HETATM   18  O   UNL     1     -11.848  10.468  68.582  1.00  0.00    -0.318 OA 
BRANCH  18  19
HETATM   19  C   UNL     1     -10.686   9.830  69.129  1.00  0.00    -0.221 C  
BRANCH  19  20
HETATM   20  C   UNL     1     -10.355   8.579  68.373  1.00  0.00    -0.241 C  
HETATM   21  C   UNL     1     -10.531   8.450  67.049  1.00  0.00    -0.375 C  
ENDBRANCH  19  20
ENDBRANCH  18  19
ENDBRANCH  17  18
ENDBRANCH  11  12
ENDBRANCH  10  11
ENDBRANCH   7  10
ENDBRANCH   6   7
ENDBRANCH   4   6
ENDBRANCH   2   4
TORSDOF 9
ENDMDL
MODEL      176
REMARK 921   NORMALIZED FREE ENERGY PREDICTED BY IDOCK:   -3.76 KCAL/MOL
REMARK 922        TOTAL FREE ENERGY PREDICTED BY IDOCK:   -6.52 KCAL/MOL
REMARK 923 INTER-LIGAND FREE ENERGY PREDICTED BY IDOCK:   -5.88 KCAL/MOL
REMARK 924 INTRA-LIGAND FREE ENERGY PREDICTED BY IDOCK:   -0.64 KCAL/MOL
REMARK 927      BINDING AFFINITY PREDICTED BY RF-SCORE:    0.00 PKD
ROOT
HETATM    1  C   UNL     1     -12.273  14.187  64.419  1.00  0.00    -0.466 C  
HETATM    2  C   UNL     1     -12.534  12.697  64.647  1.00  0.00    -0.466 C  
HETATM    3  C   UNL     1     -12.651  11.989  63.291  1.00  0.00    -0.512 C  
ENDROOT
BRANCH   2   4
HETATM    4  N   UNL     1     -11.448  12.148  65.466  1.00  0.00    -0.350 NA 
HETATM    5  H   UNL     1     -10.674  11.832  64.882  1.00  0.00     0.000 HD 
BRANCH   4   6
HETATM    6  C   UNL     1     -10.982  13.085  66.497  1.00  0.00    -0.285 C  
BRANCH   6   7
HETATM    7  C   UNL     1      -9.447  13.059  66.654  1.00  0.00    -0.256 C  
HETATM    8  O   UNL     1      -8.881  14.310  66.248  1.00  0.00    -0.474 OA 
HETATM    9  H   UNL     1      -7.935  14.293  66.345  1.00  0.00     0.000 HD 
BRANCH   7  10
HETATM   10  C   UNL     1      -9.076  12.753  68.119  1.00  0.00    -0.203 C  
BRANCH  10  11
HETATM   11  O   UNL     1      -8.372  11.514  68.277  1.00  0.00    -0.140 OA 
BRANCH  11  12
HETATM   12  C   UNL     1      -8.999  10.364  67.851  1.00  0.00    -0.128 A  
HETATM   13  C   UNL     1      -8.641   9.689  66.675  1.00  0.00    -0.137 A  
HETATM   14  C   UNL     1      -9.323   8.547  66.260  1.00  0.00    -0.287 A  
HETATM   15  C   UNL     1     -10.392   8.074  67.001  1.00  0.00    -0.414 A  
HETATM   16  C   UNL     1     -10.755   8.721  68.181  1.00  0.00    -0.131 A  
HETATM   17  C   UNL     1     -10.042   9.840  68.646  1.00  0.00    -0.169 A  
BRANCH  17  18
HETATM   18  O   UNL     1     -10.323  10.448  69.857  1.00  0.00    -0.244 OA 
BRANCH  18  19
HETATM   19  C   UNL     1     -11.718  10.694  70.083  1.00  0.00    -0.332 C  
BRANCH  19  20
HETATM   20  C   UNL     1     -12.152  10.144  71.407  1.00  0.00    -0.475 C  
HETATM   21  C   UNL     1     -12.403   8.844  71.619  1.00  0.00    -0.405 C  
ENDBRANCH  19  20
ENDBRANCH  18  19
ENDBRANCH  17  18
ENDBRANCH  11  12
ENDBRANCH  10  11
ENDBRANCH   7  10
ENDBRANCH   6   7
ENDBRANCH   4   6
ENDBRANCH   2   4
TORSDOF 9
ENDMDL
MODEL      177
REMARK 921   NORMALIZED FREE ENERGY PREDICTED BY IDOCK:   -3.74 KCAL/MOL
REMARK 922        TOTAL FREE ENERGY PREDICTED BY IDOCK:   -6.49 KCAL/MOL
REMARK 923 INTER-LIGAND FREE ENERGY PREDICTED BY IDOCK:   -5.82 KCAL/MOL
REMARK 924 INTRA-LIGAND FREE ENERGY PREDICTED BY IDOCK:   -0.67 KCAL/MOL
REMARK 927      BINDING AFFINITY PREDICTED BY RF-SCORE:    0.00 PKD
ROOT
HETATM    1  C   UNL     1     -12.314  12.473  63.462  1.00  0.00    -0.623 C  
HETATM    2  C   UNL     1     -11.298  12.607  64.598  1.00  0.00    -0.318 C  
HETATM    3  C   UNL     1     -12.018  13.062  65.872  1.00  0.00    -0.491 C  
ENDROOT
BRANCH   2   4
HETATM    4  N   UNL     1     -10.618  11.319  64.776  1.00  0.00    -0.315 NA 
HETATM    5  H   UNL     1      -9.814  11.241  64.154  1.00  0.00     0.000 HD 
BRANCH   4   6
HETATM    6  C   UNL     1     -10.232  11.067  66.171  1.00  0.00    -0.247 C  
BRANCH   6   7
HETATM    7  C   UNL     1      -8.700  11.016  66.348  1.00  0.00    -0.173 C  
HETATM    8  O   UNL     1      -8.164  12.340  66.457  1.00  0.00    -0.387 OA 
HETATM    9  H   UNL     1      -7.220  12.308  66.566  1.00  0.00     0.000 HD 
BRANCH   7  10
HETATM   10  C   UNL     1      -8.345  10.190  67.602  1.00  0.00    -0.114 C  
BRANCH  10  11
HETATM   11  O   UNL     1      -9.354  10.249  68.620  1.00  0.00    -0.148 OA 
BRANCH  11  12
HETATM   12  C   UNL     1      -9.063   9.684  69.841  1.00  0.00    -0.225 A  
HETATM   13  C   UNL     1      -7.753   9.444  70.279  1.00  0.00    -0.151 A  
HETATM   14  C   UNL     1      -7.501   8.838  71.509  1.00  0.00    -0.116 A  
HETATM   15  C   UNL     1      -8.556   8.439  72.310  1.00  0.00    -0.263 A  
HETATM   16  C   UNL     1      -9.865   8.681  71.901  1.00  0.00    -0.384 A  
HETATM   17  C   UNL     1     -10.139   9.343  70.691  1.00  0.00    -0.291 A  
BRANCH  17  18
HETATM   18  O   UNL     1     -11.424   9.676  70.301  1.00  0.00    -0.254 OA 
BRANCH  18  19
HETATM   19  C   UNL     1     -12.079  10.613  71.167  1.00  0.00    -0.341 C  
BRANCH  19  20
HETATM   20  C   UNL     1     -13.352  10.041  71.713  1.00  0.00    -0.492 C  
HETATM   21  C   UNL     1     -13.406   8.897  72.411  1.00  0.00    -0.488 C  
ENDBRANCH  19  20
ENDBRANCH  18  19
ENDBRANCH  17  18
ENDBRANCH  11  12
ENDBRANCH  10  11
ENDBRANCH   7  10
ENDBRANCH   6   7
ENDBRANCH   4   6
ENDBRANCH   2   4
TORSDOF 9
ENDMDL
MODEL      178
REMARK 921   NORMALIZED FREE ENERGY PREDICTED BY IDOCK:   -3.74 KCAL/MOL
REMARK 922        TOTAL FREE ENERGY PREDICTED BY IDOCK:   -6.48 KCAL/MOL
REMARK 923 INTER-LIGAND FREE ENERGY PREDICTED BY IDOCK:   -5.08 KCAL/MOL
REMARK 924 INTRA-LIGAND FREE ENERGY PREDICTED BY IDOCK:   -1.40 KCAL/MOL
REMARK 927      BINDING AFFINITY PREDICTED BY RF-SCORE:    0.00 PKD
ROOT
HETATM    1  C   UNL     1      -8.546   8.321  70.301  1.00  0.00    -0.127 C  
HETATM    2  C   UNL     1      -8.020   9.758  70.305  1.00  0.00    -0.162 C  
HETATM    3  C   UNL     1      -6.515   9.749  70.013  1.00  0.00    -0.074 C  
ENDROOT
BRANCH   2   4
HETATM    4  N   UNL     1      -8.771  10.537  69.314  1.00  0.00    -0.281 NA 
HETATM    5  H   UNL     1      -9.404  11.194  69.770  1.00  0.00     0.000 HD 
BRANCH   4   6
HETATM    6  C   UNL     1      -7.901  11.225  68.351  1.00  0.00    -0.136 C  
BRANCH   6   7
HETATM    7  C   UNL     1      -8.351  12.679  68.098  1.00  0.00    -0.175 C  
HETATM    8  O   UNL     1      -7.825  13.157  66.855  1.00  0.00    -0.394 OA 
HETATM    9  H   UNL     1      -8.103  14.053  66.699  1.00  0.00     0.000 HD 
BRANCH   7  10
HETATM   10  C   UNL     1      -9.892  12.755  68.091  1.00  0.00    -0.226 C  
BRANCH  10  11
HETATM   11  O   UNL     1     -10.504  11.732  67.295  1.00  0.00    -0.205 OA 
BRANCH  11  12
HETATM   12  C   UNL     1     -11.018  12.095  66.070  1.00  0.00    -0.293 A  
HETATM   13  C   UNL     1     -12.159  12.898  65.929  1.00  0.00    -0.503 A  
HETATM   14  C   UNL     1     -12.668  13.215  64.670  1.00  0.00    -0.326 A  
HETATM   15  C   UNL     1     -12.059  12.714  63.533  1.00  0.00    -0.648 A  
HETATM   16  C   UNL     1     -10.916  11.927  63.651  1.00  0.00    -0.511 A  
HETATM   17  C   UNL     1     -10.353  11.644  64.908  1.00  0.00    -0.283 A  
BRANCH  17  18
HETATM   18  O   UNL     1      -9.171  10.941  65.051  1.00  0.00    -0.199 OA 
BRANCH  18  19
HETATM   19  C   UNL     1      -9.213   9.605  64.531  1.00  0.00    -0.218 C  
BRANCH  19  20
HETATM   20  C   UNL     1      -9.217   8.597  65.640  1.00  0.00    -0.204 C  
HETATM   21  C   UNL     1      -8.100   8.154  66.238  1.00  0.00    -0.107 C  
ENDBRANCH  19  20
ENDBRANCH  18  19
ENDBRANCH  17  18
ENDBRANCH  11  12
ENDBRANCH  10  11
ENDBRANCH   7  10
ENDBRANCH   6   7
ENDBRANCH   4   6
ENDBRANCH   2   4
TORSDOF 9
ENDMDL
MODEL      179
REMARK 921   NORMALIZED FREE ENERGY PREDICTED BY IDOCK:   -3.73 KCAL/MOL
REMARK 922        TOTAL FREE ENERGY PREDICTED BY IDOCK:   -6.46 KCAL/MOL
REMARK 923 INTER-LIGAND FREE ENERGY PREDICTED BY IDOCK:   -5.85 KCAL/MOL
REMARK 924 INTRA-LIGAND FREE ENERGY PREDICTED BY IDOCK:   -0.61 KCAL/MOL
REMARK 927      BINDING AFFINITY PREDICTED BY RF-SCORE:    0.00 PKD
ROOT
HETATM    1  C   UNL     1      -8.842   7.434  68.791  1.00  0.00    -0.130 C  
HETATM    2  C   UNL     1     -10.290   7.636  68.340  1.00  0.00    -0.194 C  
HETATM    3  C   UNL     1     -11.058   6.317  68.492  1.00  0.00    -0.397 C  
ENDROOT
BRANCH   2   4
HETATM    4  N   UNL     1     -10.884   8.717  69.134  1.00  0.00    -0.412 NA 
HETATM    5  H   UNL     1     -10.374   8.851  70.008  1.00  0.00     0.000 HD 
BRANCH   4   6
HETATM    6  C   UNL     1     -10.992   9.979  68.389  1.00  0.00    -0.217 C  
BRANCH   6   7
HETATM    7  C   UNL     1     -10.178  11.113  69.047  1.00  0.00    -0.176 C  
HETATM    8  O   UNL     1      -9.164  10.572  69.901  1.00  0.00    -0.398 OA 
HETATM    9  H   UNL     1      -8.663  11.270  70.306  1.00  0.00     0.000 HD 
BRANCH   7  10
HETATM   10  C   UNL     1      -9.542  12.001  67.957  1.00  0.00    -0.199 C  
BRANCH  10  11
HETATM   11  O   UNL     1     -10.189  13.273  67.818  1.00  0.00    -0.220 OA 
BRANCH  11  12
HETATM   12  C   UNL     1     -10.839  13.533  66.632  1.00  0.00    -0.283 A  
HETATM   13  C   UNL     1     -11.922  12.771  66.171  1.00  0.00    -0.476 A  
HETATM   14  C   UNL     1     -12.530  13.045  64.948  1.00  0.00    -0.512 A  
HETATM   15  C   UNL     1     -12.050  14.072  64.153  1.00  0.00    -0.456 A  
HETATM   16  C   UNL     1     -10.985  14.851  64.599  1.00  0.00    -0.323 A  
HETATM   17  C   UNL     1     -10.395  14.627  65.855  1.00  0.00    -0.319 A  
BRANCH  17  18
HETATM   18  O   UNL     1      -9.396  15.439  66.362  1.00  0.00    -0.253 OA 
BRANCH  18  19
HETATM   19  C   UNL     1      -9.717  16.836  66.364  1.00  0.00    -0.290 C  
BRANCH  19  20
HETATM   20  C   UNL     1      -9.478  17.441  67.715  1.00  0.00    -0.261 C  
HETATM   21  C   UNL     1     -10.434  17.564  68.647  1.00  0.00    -0.338 C  
ENDBRANCH  19  20
ENDBRANCH  18  19
ENDBRANCH  17  18
ENDBRANCH  11  12
ENDBRANCH  10  11
ENDBRANCH   7  10
ENDBRANCH   6   7
ENDBRANCH   4   6
ENDBRANCH   2   4
TORSDOF 9
ENDMDL
MODEL      180
REMARK 921   NORMALIZED FREE ENERGY PREDICTED BY IDOCK:   -3.73 KCAL/MOL
REMARK 922        TOTAL FREE ENERGY PREDICTED BY IDOCK:   -6.46 KCAL/MOL
REMARK 923 INTER-LIGAND FREE ENERGY PREDICTED BY IDOCK:   -5.85 KCAL/MOL
REMARK 924 INTRA-LIGAND FREE ENERGY PREDICTED BY IDOCK:   -0.61 KCAL/MOL
REMARK 927      BINDING AFFINITY PREDICTED BY RF-SCORE:    0.00 PKD
ROOT
HETATM    1  C   UNL     1     -11.189  16.061  69.837  1.00  0.00    -0.361 C  
HETATM    2  C   UNL     1     -11.556  14.686  69.277  1.00  0.00    -0.302 C  
HETATM    3  C   UNL     1     -12.331  13.896  70.338  1.00  0.00    -0.433 C  
ENDROOT
BRANCH   2   4
HETATM    4  N   UNL     1     -12.333  14.871  68.046  1.00  0.00    -0.512 NA 
HETATM    5  H   UNL     1     -13.066  15.567  68.178  1.00  0.00     0.000 HD 
BRANCH   4   6
HETATM    6  C   UNL     1     -11.494  15.203  66.886  1.00  0.00    -0.214 C  
BRANCH   6   7
HETATM    7  C   UNL     1     -11.544  14.107  65.802  1.00  0.00    -0.343 C  
HETATM    8  O   UNL     1     -11.280  14.667  64.511  1.00  0.00    -0.547 OA 
HETATM    9  H   UNL     1     -11.310  13.992  63.843  1.00  0.00     0.000 HD 
BRANCH   7  10
HETATM   10  C   UNL     1     -10.516  13.003  66.126  1.00  0.00    -0.279 C  
BRANCH  10  11
HETATM   11  O   UNL     1     -11.090  11.689  66.155  1.00  0.00    -0.301 OA 
BRANCH  11  12
HETATM   12  C   UNL     1     -10.263  10.624  65.878  1.00  0.00    -0.251 A  
HETATM   13  C   UNL     1      -9.356  10.619  64.808  1.00  0.00    -0.276 A  
HETATM   14  C   UNL     1      -8.561   9.506  64.541  1.00  0.00    -0.206 A  
HETATM   15  C   UNL     1      -8.676   8.370  65.323  1.00  0.00    -0.148 A  
HETATM   16  C   UNL     1      -9.560   8.360  66.399  1.00  0.00    -0.307 A  
HETATM   17  C   UNL     1     -10.329   9.492  66.721  1.00  0.00    -0.228 A  
BRANCH  17  18
HETATM   18  O   UNL     1     -11.148   9.541  67.835  1.00  0.00    -0.179 OA 
BRANCH  18  19
HETATM   19  C   UNL     1     -10.511  10.055  69.012  1.00  0.00    -0.214 C  
BRANCH  19  20
HETATM   20  C   UNL     1     -10.932   9.288  70.229  1.00  0.00    -0.286 C  
HETATM   21  C   UNL     1     -11.637   9.828  71.234  1.00  0.00    -0.465 C  
ENDBRANCH  19  20
ENDBRANCH  18  19
ENDBRANCH  17  18
ENDBRANCH  11  12
ENDBRANCH  10  11
ENDBRANCH   7  10
ENDBRANCH   6   7
ENDBRANCH   4   6
ENDBRANCH   2   4
TORSDOF 9
ENDMDL
MODEL      181
REMARK 921   NORMALIZED FREE ENERGY PREDICTED BY IDOCK:   -3.71 KCAL/MOL
REMARK 922        TOTAL FREE ENERGY PREDICTED BY IDOCK:   -6.43 KCAL/MOL
REMARK 923 INTER-LIGAND FREE ENERGY PREDICTED BY IDOCK:   -5.10 KCAL/MOL
REMARK 924 INTRA-LIGAND FREE ENERGY PREDICTED BY IDOCK:   -1.33 KCAL/MOL
REMARK 927      BINDING AFFINITY PREDICTED BY RF-SCORE:    0.00 PKD
ROOT
HETATM    1  C   UNL     1     -11.475  10.816  68.166  1.00  0.00    -0.346 C  
HETATM    2  C   UNL     1     -11.042  11.632  69.385  1.00  0.00    -0.206 C  
HETATM    3  C   UNL     1     -11.748  12.993  69.363  1.00  0.00    -0.386 C  
ENDROOT
BRANCH   2   4
HETATM    4  N   UNL     1     -11.352  10.867  70.598  1.00  0.00    -0.410 NA 
HETATM    5  H   UNL     1     -10.801  11.198  71.390  1.00  0.00     0.000 HD 
BRANCH   4   6
HETATM    6  C   UNL     1     -12.786  10.865  70.919  1.00  0.00    -0.370 C  
BRANCH   6   7
HETATM    7  C   UNL     1     -13.204   9.601  71.699  1.00  0.00    -0.411 C  
HETATM    8  O   UNL     1     -14.249   8.909  71.008  1.00  0.00    -0.578 OA 
HETATM    9  H   UNL     1     -14.506   8.130  71.489  1.00  0.00     0.000 HD 
BRANCH   7  10
HETATM   10  C   UNL     1     -11.984   8.677  71.890  1.00  0.00    -0.356 C  
BRANCH  10  11
HETATM   11  O   UNL     1     -11.568   8.034  70.677  1.00  0.00    -0.272 OA 
BRANCH  11  12
HETATM   12  C   UNL     1     -10.540   7.122  70.757  1.00  0.00    -0.222 A  
HETATM   13  C   UNL     1     -10.747   5.734  70.740  1.00  0.00    -0.342 A  
HETATM   14  C   UNL     1      -9.682   4.844  70.858  1.00  0.00    -0.264 A  
HETATM   15  C   UNL     1      -8.394   5.325  71.021  1.00  0.00    -0.121 A  
HETATM   16  C   UNL     1      -8.165   6.699  71.026  1.00  0.00    -0.120 A  
HETATM   17  C   UNL     1      -9.219   7.613  70.849  1.00  0.00    -0.149 A  
BRANCH  17  18
HETATM   18  O   UNL     1      -9.011   8.978  70.761  1.00  0.00    -0.195 OA 
BRANCH  18  19
HETATM   19  C   UNL     1      -7.846   9.349  70.012  1.00  0.00    -0.132 C  
BRANCH  19  20
HETATM   20  C   UNL     1      -8.172   9.509  68.558  1.00  0.00    -0.113 C  
HETATM   21  C   UNL     1      -8.119   8.500  67.676  1.00  0.00    -0.107 C  
ENDBRANCH  19  20
ENDBRANCH  18  19
ENDBRANCH  17  18
ENDBRANCH  11  12
ENDBRANCH  10  11
ENDBRANCH   7  10
ENDBRANCH   6   7
ENDBRANCH   4   6
ENDBRANCH   2   4
TORSDOF 9
ENDMDL
MODEL      182
REMARK 921   NORMALIZED FREE ENERGY PREDICTED BY IDOCK:   -3.70 KCAL/MOL
REMARK 922        TOTAL FREE ENERGY PREDICTED BY IDOCK:   -6.42 KCAL/MOL
REMARK 923 INTER-LIGAND FREE ENERGY PREDICTED BY IDOCK:   -5.57 KCAL/MOL
REMARK 924 INTRA-LIGAND FREE ENERGY PREDICTED BY IDOCK:   -0.85 KCAL/MOL
REMARK 927      BINDING AFFINITY PREDICTED BY RF-SCORE:    0.00 PKD
ROOT
HETATM    1  C   UNL     1     -10.082  10.659  63.454  1.00  0.00    -0.266 C  
HETATM    2  C   UNL     1      -9.084   9.975  64.390  1.00  0.00    -0.247 C  
HETATM    3  C   UNL     1      -8.229   8.987  63.587  1.00  0.00    -0.177 C  
ENDROOT
BRANCH   2   4
HETATM    4  N   UNL     1      -8.270  11.005  65.046  1.00  0.00    -0.376 NA 
HETATM    5  H   UNL     1      -8.787  11.881  65.128  1.00  0.00     0.000 HD 
BRANCH   4   6
HETATM    6  C   UNL     1      -7.750  10.576  66.351  1.00  0.00    -0.135 C  
BRANCH   6   7
HETATM    7  C   UNL     1      -8.843   9.932  67.228  1.00  0.00    -0.132 C  
HETATM    8  O   UNL     1      -8.359   8.725  67.827  1.00  0.00    -0.117 OA 
HETATM    9  H   UNL     1      -9.033   8.328  68.367  1.00  0.00     0.000 HD 
BRANCH   7  10
HETATM   10  C   UNL     1      -9.294  10.927  68.317  1.00  0.00    -0.168 C  
BRANCH  10  11
HETATM   11  O   UNL     1     -10.718  11.083  68.384  1.00  0.00    -0.179 OA 
BRANCH  11  12
HETATM   12  C   UNL     1     -11.286  12.100  67.651  1.00  0.00    -0.286 A  
HETATM   13  C   UNL     1     -11.626  11.967  66.296  1.00  0.00    -0.378 A  
HETATM   14  C   UNL     1     -12.167  13.033  65.579  1.00  0.00    -0.521 A  
HETATM   15  C   UNL     1     -12.353  14.257  66.197  1.00  0.00    -0.411 A  
HETATM   16  C   UNL     1     -12.035  14.406  67.545  1.00  0.00    -0.389 A  
HETATM   17  C   UNL     1     -11.543  13.328  68.301  1.00  0.00    -0.334 A  
BRANCH  17  18
HETATM   18  O   UNL     1     -11.303  13.422  69.660  1.00  0.00    -0.227 OA 
BRANCH  18  19
HETATM   19  C   UNL     1     -12.477  13.306  70.475  1.00  0.00    -0.260 C  
BRANCH  19  20
HETATM   20  C   UNL     1     -12.501  14.366  71.535  1.00  0.00    -0.430 C  
HETATM   21  C   UNL     1     -12.689  15.667  71.272  1.00  0.00    -0.537 C  
ENDBRANCH  19  20
ENDBRANCH  18  19
ENDBRANCH  17  18
ENDBRANCH  11  12
ENDBRANCH  10  11
ENDBRANCH   7  10
ENDBRANCH   6   7
ENDBRANCH   4   6
ENDBRANCH   2   4
TORSDOF 9
ENDMDL
MODEL      183
REMARK 921   NORMALIZED FREE ENERGY PREDICTED BY IDOCK:   -3.70 KCAL/MOL
REMARK 922        TOTAL FREE ENERGY PREDICTED BY IDOCK:   -6.42 KCAL/MOL
REMARK 923 INTER-LIGAND FREE ENERGY PREDICTED BY IDOCK:   -5.98 KCAL/MOL
REMARK 924 INTRA-LIGAND FREE ENERGY PREDICTED BY IDOCK:   -0.44 KCAL/MOL
REMARK 927      BINDING AFFINITY PREDICTED BY RF-SCORE:    0.00 PKD
ROOT
HETATM    1  C   UNL     1      -7.743  15.493  67.275  1.00  0.00    -0.244 C  
HETATM    2  C   UNL     1      -8.681  14.373  66.818  1.00  0.00    -0.159 C  
HETATM    3  C   UNL     1      -8.149  13.027  67.324  1.00  0.00    -0.164 C  
ENDROOT
BRANCH   2   4
HETATM    4  N   UNL     1     -10.032  14.657  67.316  1.00  0.00    -0.234 NA 
HETATM    5  H   UNL     1     -10.067  15.566  67.778  1.00  0.00     0.000 HD 
BRANCH   4   6
HETATM    6  C   UNL     1     -11.057  14.559  66.268  1.00  0.00    -0.332 C  
BRANCH   6   7
HETATM    7  C   UNL     1     -12.192  13.588  66.657  1.00  0.00    -0.358 C  
HETATM    8  O   UNL     1     -12.378  12.600  65.638  1.00  0.00    -0.581 OA 
HETATM    9  H   UNL     1     -13.076  12.002  65.877  1.00  0.00     0.000 HD 
BRANCH   7  10
HETATM   10  C   UNL     1     -11.863  12.912  68.004  1.00  0.00    -0.343 C  
BRANCH  10  11
HETATM   11  O   UNL     1     -11.874  11.479  67.934  1.00  0.00    -0.565 OA 
BRANCH  11  12
HETATM   12  C   UNL     1     -11.727  10.780  69.111  1.00  0.00    -0.296 A  
HETATM   13  C   UNL     1     -12.579  10.951  70.212  1.00  0.00    -0.342 A  
HETATM   14  C   UNL     1     -12.375  10.250  71.399  1.00  0.00    -0.502 A  
HETATM   15  C   UNL     1     -11.302   9.383  71.513  1.00  0.00    -0.464 A  
HETATM   16  C   UNL     1     -10.452   9.188  70.427  1.00  0.00    -0.268 A  
HETATM   17  C   UNL     1     -10.675   9.842  69.202  1.00  0.00    -0.224 A  
BRANCH  17  18
HETATM   18  O   UNL     1      -9.902   9.601  68.080  1.00  0.00    -0.144 OA 
BRANCH  18  19
HETATM   19  C   UNL     1     -10.583   8.889  67.038  1.00  0.00    -0.209 C  
BRANCH  19  20
HETATM   20  C   UNL     1     -10.843   7.469  67.440  1.00  0.00    -0.272 C  
HETATM   21  C   UNL     1     -10.269   6.416  66.838  1.00  0.00    -0.277 C  
ENDBRANCH  19  20
ENDBRANCH  18  19
ENDBRANCH  17  18
ENDBRANCH  11  12
ENDBRANCH  10  11
ENDBRANCH   7  10
ENDBRANCH   6   7
ENDBRANCH   4   6
ENDBRANCH   2   4
TORSDOF 9
ENDMDL
MODEL      184
REMARK 921   NORMALIZED FREE ENERGY PREDICTED BY IDOCK:   -3.68 KCAL/MOL
REMARK 922        TOTAL FREE ENERGY PREDICTED BY IDOCK:   -6.39 KCAL/MOL
REMARK 923 INTER-LIGAND FREE ENERGY PREDICTED BY IDOCK:   -6.05 KCAL/MOL
REMARK 924 INTRA-LIGAND FREE ENERGY PREDICTED BY IDOCK:   -0.34 KCAL/MOL
REMARK 927      BINDING AFFINITY PREDICTED BY RF-SCORE:    0.00 PKD
ROOT
HETATM    1  C   UNL     1     -10.595  19.006  67.886  1.00  0.00    -0.441 C  
HETATM    2  C   UNL     1     -10.456  19.251  66.383  1.00  0.00    -0.474 C  
HETATM    3  C   UNL     1      -9.441  20.375  66.142  1.00  0.00    -0.255 C  
ENDROOT
BRANCH   2   4
HETATM    4  N   UNL     1     -10.055  17.996  65.736  1.00  0.00    -0.574 NA 
HETATM    5  H   UNL     1      -9.039  17.924  65.676  1.00  0.00     0.000 HD 
BRANCH   4   6
HETATM    6  C   UNL     1     -10.628  16.810  66.388  1.00  0.00    -0.192 C  
BRANCH   6   7
HETATM    7  C   UNL     1     -11.237  15.825  65.369  1.00  0.00    -0.142 C  
HETATM    8  O   UNL     1     -11.466  16.478  64.116  1.00  0.00    -1.346 OA 
HETATM    9  H   UNL     1     -11.841  15.871  63.488  1.00  0.00     0.000 HD 
BRANCH   7  10
HETATM   10  C   UNL     1     -10.295  14.619  65.181  1.00  0.00    -0.403 C  
BRANCH  10  11
HETATM   11  O   UNL     1     -10.912  13.364  65.501  1.00  0.00    -0.280 OA 
BRANCH  11  12
HETATM   12  C   UNL     1     -10.102  12.255  65.581  1.00  0.00    -0.252 A  
HETATM   13  C   UNL     1     -10.115  11.228  64.625  1.00  0.00    -0.343 A  
HETATM   14  C   UNL     1      -9.304  10.103  64.761  1.00  0.00    -0.324 A  
HETATM   15  C   UNL     1      -8.483   9.974  65.868  1.00  0.00    -0.139 A  
HETATM   16  C   UNL     1      -8.444  10.988  66.822  1.00  0.00    -0.148 A  
HETATM   17  C   UNL     1      -9.211  12.157  66.673  1.00  0.00    -0.206 A  
BRANCH  17  18
HETATM   18  O   UNL     1      -9.126  13.218  67.556  1.00  0.00    -0.189 OA 
BRANCH  18  19
HETATM   19  C   UNL     1      -7.785  13.589  67.905  1.00  0.00    -0.153 C  
BRANCH  19  20
HETATM   20  C   UNL     1      -7.351  14.806  67.146  1.00  0.00    -0.020 C  
HETATM   21  C   UNL     1      -7.536  16.058  67.591  1.00  0.00    -0.166 C  
ENDBRANCH  19  20
ENDBRANCH  18  19
ENDBRANCH  17  18
ENDBRANCH  11  12
ENDBRANCH  10  11
ENDBRANCH   7  10
ENDBRANCH   6   7
ENDBRANCH   4   6
ENDBRANCH   2   4
TORSDOF 9
ENDMDL
MODEL      185
REMARK 921   NORMALIZED FREE ENERGY PREDICTED BY IDOCK:   -3.67 KCAL/MOL
REMARK 922        TOTAL FREE ENERGY PREDICTED BY IDOCK:   -6.37 KCAL/MOL
REMARK 923 INTER-LIGAND FREE ENERGY PREDICTED BY IDOCK:   -5.36 KCAL/MOL
REMARK 924 INTRA-LIGAND FREE ENERGY PREDICTED BY IDOCK:   -1.01 KCAL/MOL
REMARK 927      BINDING AFFINITY PREDICTED BY RF-SCORE:    0.00 PKD
ROOT
HETATM    1  C   UNL     1     -12.683  10.738  70.806  1.00  0.00    -0.451 C  
HETATM    2  C   UNL     1     -11.384   9.932  70.738  1.00  0.00    -0.353 C  
HETATM    3  C   UNL     1     -11.346   8.931  71.899  1.00  0.00    -0.446 C  
ENDROOT
BRANCH   2   4
HETATM    4  N   UNL     1     -11.308   9.269  69.432  1.00  0.00    -0.436 NA 
HETATM    5  H   UNL     1     -11.627   9.890  68.688  1.00  0.00     0.000 HD 
BRANCH   4   6
HETATM    6  C   UNL     1      -9.970   8.738  69.138  1.00  0.00    -0.191 C  
BRANCH   6   7
HETATM    7  C   UNL     1      -9.759   8.498  67.629  1.00  0.00    -0.160 C  
HETATM    8  O   UNL     1     -10.975   8.054  67.017  1.00  0.00    -0.447 OA 
HETATM    9  H   UNL     1     -10.845   7.907  66.087  1.00  0.00     0.000 HD 
BRANCH   7  10
HETATM   10  C   UNL     1      -9.265   9.796  66.957  1.00  0.00    -0.142 C  
BRANCH  10  11
HETATM   11  O   UNL     1      -9.522  10.970  67.740  1.00  0.00    -0.158 OA 
BRANCH  11  12
HETATM   12  C   UNL     1     -10.271  11.971  67.165  1.00  0.00    -0.202 A  
HETATM   13  C   UNL     1     -11.383  11.719  66.346  1.00  0.00    -0.361 A  
HETATM   14  C   UNL     1     -12.094  12.760  65.754  1.00  0.00    -0.505 A  
HETATM   15  C   UNL     1     -11.692  14.070  65.948  1.00  0.00    -0.373 A  
HETATM   16  C   UNL     1     -10.599  14.343  66.768  1.00  0.00    -0.282 A  
HETATM   17  C   UNL     1      -9.904  13.311  67.422  1.00  0.00    -0.227 A  
BRANCH  17  18
HETATM   18  O   UNL     1      -8.873  13.556  68.311  1.00  0.00    -0.180 OA 
BRANCH  18  19
HETATM   19  C   UNL     1      -7.668  14.033  67.698  1.00  0.00    -0.177 C  
BRANCH  19  20
HETATM   20  C   UNL     1      -7.123  15.219  68.435  1.00  0.00    -0.111 C  
HETATM   21  C   UNL     1      -6.530  15.132  69.635  1.00  0.00    -0.161 C  
ENDBRANCH  19  20
ENDBRANCH  18  19
ENDBRANCH  17  18
ENDBRANCH  11  12
ENDBRANCH  10  11
ENDBRANCH   7  10
ENDBRANCH   6   7
ENDBRANCH   4   6
ENDBRANCH   2   4
TORSDOF 9
ENDMDL
MODEL      186
REMARK 921   NORMALIZED FREE ENERGY PREDICTED BY IDOCK:   -3.66 KCAL/MOL
REMARK 922        TOTAL FREE ENERGY PREDICTED BY IDOCK:   -6.36 KCAL/MOL
REMARK 923 INTER-LIGAND FREE ENERGY PREDICTED BY IDOCK:   -5.84 KCAL/MOL
REMARK 924 INTRA-LIGAND FREE ENERGY PREDICTED BY IDOCK:   -0.52 KCAL/MOL
REMARK 927      BINDING AFFINITY PREDICTED BY RF-SCORE:    0.00 PKD
ROOT
HETATM    1  C   UNL     1     -10.896   8.380  72.309  1.00  0.00    -0.422 C  
HETATM    2  C   UNL     1     -11.060   7.971  70.844  1.00  0.00    -0.255 C  
HETATM    3  C   UNL     1     -12.018   6.777  70.754  1.00  0.00    -0.433 C  
ENDROOT
BRANCH   2   4
HETATM    4  N   UNL     1     -11.544   9.129  70.083  1.00  0.00    -0.458 NA 
HETATM    5  H   UNL     1     -12.468   8.947  69.692  1.00  0.00     0.000 HD 
BRANCH   4   6
HETATM    6  C   UNL     1     -11.539  10.370  70.869  1.00  0.00    -0.337 C  
BRANCH   6   7
HETATM    7  C   UNL     1     -12.275  11.517  70.146  1.00  0.00    -0.308 C  
HETATM    8  O   UNL     1     -11.972  12.774  70.762  1.00  0.00    -0.494 OA 
HETATM    9  H   UNL     1     -12.426  13.480  70.316  1.00  0.00     0.000 HD 
BRANCH   7  10
HETATM   10  C   UNL     1     -11.874  11.540  68.657  1.00  0.00    -0.318 C  
BRANCH  10  11
HETATM   11  O   UNL     1     -10.621  12.197  68.420  1.00  0.00    -0.212 OA 
BRANCH  11  12
HETATM   12  C   UNL     1     -10.632  13.331  67.640  1.00  0.00    -0.236 A  
HETATM   13  C   UNL     1     -10.810  14.619  68.166  1.00  0.00    -0.256 A  
HETATM   14  C   UNL     1     -10.849  15.738  67.337  1.00  0.00    -0.306 A  
HETATM   15  C   UNL     1     -10.736  15.587  65.966  1.00  0.00    -0.331 A  
HETATM   16  C   UNL     1     -10.544  14.319  65.424  1.00  0.00    -0.367 A  
HETATM   17  C   UNL     1     -10.443  13.183  66.247  1.00  0.00    -0.285 A  
BRANCH  17  18
HETATM   18  O   UNL     1     -10.164  11.925  65.746  1.00  0.00    -0.227 OA 
BRANCH  18  19
HETATM   19  C   UNL     1      -8.807  11.503  65.934  1.00  0.00    -0.105 C  
BRANCH  19  20
HETATM   20  C   UNL     1      -8.713  10.009  66.004  1.00  0.00    -0.152 C  
HETATM   21  C   UNL     1      -9.758   9.217  66.291  1.00  0.00    -0.340 C  
ENDBRANCH  19  20
ENDBRANCH  18  19
ENDBRANCH  17  18
ENDBRANCH  11  12
ENDBRANCH  10  11
ENDBRANCH   7  10
ENDBRANCH   6   7
ENDBRANCH   4   6
ENDBRANCH   2   4
TORSDOF 9
ENDMDL
MODEL      187
REMARK 921   NORMALIZED FREE ENERGY PREDICTED BY IDOCK:   -3.64 KCAL/MOL
REMARK 922        TOTAL FREE ENERGY PREDICTED BY IDOCK:   -6.33 KCAL/MOL
REMARK 923 INTER-LIGAND FREE ENERGY PREDICTED BY IDOCK:   -5.08 KCAL/MOL
REMARK 924 INTRA-LIGAND FREE ENERGY PREDICTED BY IDOCK:   -1.25 KCAL/MOL
REMARK 927      BINDING AFFINITY PREDICTED BY RF-SCORE:    0.00 PKD
ROOT
HETATM    1  C   UNL     1      -6.543  10.036  63.545  1.00  0.00    -0.132 C  
HETATM    2  C   UNL     1      -6.378   9.439  64.944  1.00  0.00    -0.077 C  
HETATM    3  C   UNL     1      -6.127  10.567  65.952  1.00  0.00    -0.128 C  
ENDROOT
BRANCH   2   4
HETATM    4  N   UNL     1      -7.580   8.662  65.271  1.00  0.00    -0.086 NA 
HETATM    5  H   UNL     1      -7.548   7.740  64.836  1.00  0.00     0.000 HD 
BRANCH   4   6
HETATM    6  C   UNL     1      -7.813   8.555  66.717  1.00  0.00    -0.091 C  
BRANCH   6   7
HETATM    7  C   UNL     1      -9.275   8.873  67.094  1.00  0.00    -0.139 C  
HETATM    8  O   UNL     1      -9.321   9.813  68.172  1.00  0.00    -0.129 OA 
HETATM    9  H   UNL     1     -10.222  10.009  68.404  1.00  0.00     0.000 HD 
BRANCH   7  10
HETATM   10  C   UNL     1     -10.022   9.431  65.865  1.00  0.00    -0.256 C  
BRANCH  10  11
HETATM   11  O   UNL     1      -9.664  10.784  65.553  1.00  0.00    -0.211 OA 
BRANCH  11  12
HETATM   12  C   UNL     1     -10.649  11.609  65.061  1.00  0.00    -0.289 A  
HETATM   13  C   UNL     1     -10.839  11.840  63.690  1.00  0.00    -0.508 A  
HETATM   14  C   UNL     1     -11.827  12.711  63.234  1.00  0.00    -0.504 A  
HETATM   15  C   UNL     1     -12.625  13.385  64.141  1.00  0.00    -0.205 A  
HETATM   16  C   UNL     1     -12.463  13.160  65.506  1.00  0.00    -0.516 A  
HETATM   17  C   UNL     1     -11.512  12.242  65.984  1.00  0.00    -0.381 A  
BRANCH  17  18
HETATM   18  O   UNL     1     -11.389  11.931  67.327  1.00  0.00    -0.294 OA 
BRANCH  18  19
HETATM   19  C   UNL     1     -11.423  13.068  68.200  1.00  0.00    -0.319 C  
BRANCH  19  20
HETATM   20  C   UNL     1     -11.782  12.662  69.597  1.00  0.00    -0.373 C  
HETATM   21  C   UNL     1     -12.007  11.390  69.960  1.00  0.00    -0.442 C  
ENDBRANCH  19  20
ENDBRANCH  18  19
ENDBRANCH  17  18
ENDBRANCH  11  12
ENDBRANCH  10  11
ENDBRANCH   7  10
ENDBRANCH   6   7
ENDBRANCH   4   6
ENDBRANCH   2   4
TORSDOF 9
ENDMDL
MODEL      188
REMARK 921   NORMALIZED FREE ENERGY PREDICTED BY IDOCK:   -3.64 KCAL/MOL
REMARK 922        TOTAL FREE ENERGY PREDICTED BY IDOCK:   -6.32 KCAL/MOL
REMARK 923 INTER-LIGAND FREE ENERGY PREDICTED BY IDOCK:   -5.28 KCAL/MOL
REMARK 924 INTRA-LIGAND FREE ENERGY PREDICTED BY IDOCK:   -1.04 KCAL/MOL
REMARK 927      BINDING AFFINITY PREDICTED BY RF-SCORE:    0.00 PKD
ROOT
HETATM    1  C   UNL     1     -10.974  12.900  68.488  1.00  0.00    -0.288 C  
HETATM    2  C   UNL     1     -11.707  11.792  67.730  1.00  0.00    -0.267 C  
HETATM    3  C   UNL     1     -10.753  11.158  66.709  1.00  0.00    -0.326 C  
ENDROOT
BRANCH   2   4
HETATM    4  N   UNL     1     -12.210  10.812  68.699  1.00  0.00    -0.827 NA 
HETATM    5  H   UNL     1     -11.878   9.874  68.476  1.00  0.00     0.000 HD 
BRANCH   4   6
HETATM    6  C   UNL     1     -11.890  11.168  70.088  1.00  0.00    -0.365 C  
BRANCH   6   7
HETATM    7  C   UNL     1     -12.611  10.255  71.102  1.00  0.00    -0.400 C  
HETATM    8  O   UNL     1     -13.767   9.658  70.505  1.00  0.00    -0.555 OA 
HETATM    9  H   UNL     1     -14.211   9.096  71.129  1.00  0.00     0.000 HD 
BRANCH   7  10
HETATM   10  C   UNL     1     -11.644   9.164  71.604  1.00  0.00    -0.379 C  
BRANCH  10  11
HETATM   11  O   UNL     1     -10.848   8.591  70.558  1.00  0.00    -0.220 OA 
BRANCH  11  12
HETATM   12  C   UNL     1      -9.498   8.446  70.787  1.00  0.00    -0.169 A  
HETATM   13  C   UNL     1      -8.953   8.298  72.072  1.00  0.00    -0.260 A  
HETATM   14  C   UNL     1      -7.577   8.189  72.264  1.00  0.00    -0.147 A  
HETATM   15  C   UNL     1      -6.721   8.251  71.179  1.00  0.00    -0.047 A  
HETATM   16  C   UNL     1      -7.242   8.383  69.894  1.00  0.00    -0.055 A  
HETATM   17  C   UNL     1      -8.629   8.436  69.673  1.00  0.00    -0.132 A  
BRANCH  17  18
HETATM   18  O   UNL     1      -9.179   8.478  68.404  1.00  0.00    -0.136 OA 
BRANCH  18  19
HETATM   19  C   UNL     1      -8.773   7.398  67.551  1.00  0.00    -0.124 C  
BRANCH  19  20
HETATM   20  C   UNL     1      -9.856   6.369  67.437  1.00  0.00    -0.158 C  
HETATM   21  C   UNL     1     -11.134   6.670  67.160  1.00  0.00    -0.427 C  
ENDBRANCH  19  20
ENDBRANCH  18  19
ENDBRANCH  17  18
ENDBRANCH  11  12
ENDBRANCH  10  11
ENDBRANCH   7  10
ENDBRANCH   6   7
ENDBRANCH   4   6
ENDBRANCH   2   4
TORSDOF 9
ENDMDL
MODEL      189
REMARK 921   NORMALIZED FREE ENERGY PREDICTED BY IDOCK:   -3.62 KCAL/MOL
REMARK 922        TOTAL FREE ENERGY PREDICTED BY IDOCK:   -6.30 KCAL/MOL
REMARK 923 INTER-LIGAND FREE ENERGY PREDICTED BY IDOCK:   -5.50 KCAL/MOL
REMARK 924 INTRA-LIGAND FREE ENERGY PREDICTED BY IDOCK:   -0.80 KCAL/MOL
REMARK 927      BINDING AFFINITY PREDICTED BY RF-SCORE:    0.00 PKD
ROOT
HETATM    1  C   UNL     1      -9.926  17.847  66.652  1.00  0.00    -0.355 C  
HETATM    2  C   UNL     1      -9.966  17.713  68.175  1.00  0.00    -0.330 C  
HETATM    3  C   UNL     1     -10.052  19.108  68.806  1.00  0.00    -0.445 C  
ENDROOT
BRANCH   2   4
HETATM    4  N   UNL     1     -11.108  16.868  68.544  1.00  0.00    -0.287 NA 
HETATM    5  H   UNL     1     -11.419  16.308  67.750  1.00  0.00     0.000 HD 
BRANCH   4   6
HETATM    6  C   UNL     1     -10.836  16.020  69.712  1.00  0.00    -0.337 C  
BRANCH   6   7
HETATM    7  C   UNL     1     -10.706  14.531  69.330  1.00  0.00    -0.226 C  
HETATM    8  O   UNL     1     -11.351  13.705  70.305  1.00  0.00    -0.498 OA 
HETATM    9  H   UNL     1     -11.271  12.787  70.070  1.00  0.00     0.000 HD 
BRANCH   7  10
HETATM   10  C   UNL     1     -11.321  14.293  67.935  1.00  0.00    -0.297 C  
BRANCH  10  11
HETATM   11  O   UNL     1     -10.355  14.341  66.877  1.00  0.00    -0.265 OA 
BRANCH  11  12
HETATM   12  C   UNL     1     -10.253  13.243  66.053  1.00  0.00    -0.291 A  
HETATM   13  C   UNL     1     -10.917  13.148  64.821  1.00  0.00    -0.355 A  
HETATM   14  C   UNL     1     -10.817  12.004  64.032  1.00  0.00    -0.433 A  
HETATM   15  C   UNL     1     -10.071  10.924  64.472  1.00  0.00    -0.404 A  
HETATM   16  C   UNL     1      -9.393  11.003  65.686  1.00  0.00    -0.239 A  
HETATM   17  C   UNL     1      -9.434  12.170  66.469  1.00  0.00    -0.231 A  
BRANCH  17  18
HETATM   18  O   UNL     1      -8.700  12.309  67.633  1.00  0.00    -0.158 OA 
BRANCH  18  19
HETATM   19  C   UNL     1      -7.465  13.020  67.470  1.00  0.00    -0.156 C  
BRANCH  19  20
HETATM   20  C   UNL     1      -7.211  13.930  68.634  1.00  0.00    -0.108 C  
HETATM   21  C   UNL     1      -6.325  14.936  68.603  1.00  0.00    -0.084 C  
ENDBRANCH  19  20
ENDBRANCH  18  19
ENDBRANCH  17  18
ENDBRANCH  11  12
ENDBRANCH  10  11
ENDBRANCH   7  10
ENDBRANCH   6   7
ENDBRANCH   4   6
ENDBRANCH   2   4
TORSDOF 9
ENDMDL
MODEL      190
REMARK 921   NORMALIZED FREE ENERGY PREDICTED BY IDOCK:   -3.62 KCAL/MOL
REMARK 922        TOTAL FREE ENERGY PREDICTED BY IDOCK:   -6.30 KCAL/MOL
REMARK 923 INTER-LIGAND FREE ENERGY PREDICTED BY IDOCK:   -5.77 KCAL/MOL
REMARK 924 INTRA-LIGAND FREE ENERGY PREDICTED BY IDOCK:   -0.53 KCAL/MOL
REMARK 927      BINDING AFFINITY PREDICTED BY RF-SCORE:    0.00 PKD
ROOT
HETATM    1  C   UNL     1      -6.304  17.798  68.317  1.00  0.00    -0.188 C  
HETATM    2  C   UNL     1      -7.733  18.308  68.511  1.00  0.00    -0.305 C  
HETATM    3  C   UNL     1      -7.875  19.684  67.848  1.00  0.00    -0.333 C  
ENDROOT
BRANCH   2   4
HETATM    4  N   UNL     1      -8.665  17.324  67.950  1.00  0.00    -0.227 NA 
HETATM    5  H   UNL     1      -8.161  16.552  67.513  1.00  0.00     0.000 HD 
BRANCH   4   6
HETATM    6  C   UNL     1      -9.634  16.829  68.937  1.00  0.00    -0.249 C  
BRANCH   6   7
HETATM    7  C   UNL     1     -10.722  15.947  68.290  1.00  0.00    -0.291 C  
HETATM    8  O   UNL     1     -10.575  15.934  66.866  1.00  0.00    -0.311 OA 
HETATM    9  H   UNL     1     -11.246  15.391  66.467  1.00  0.00     0.000 HD 
BRANCH   7  10
HETATM   10  C   UNL     1     -10.634  14.512  68.850  1.00  0.00    -0.249 C  
BRANCH  10  11
HETATM   11  O   UNL     1     -11.814  13.736  68.602  1.00  0.00    -0.337 OA 
BRANCH  11  12
HETATM   12  C   UNL     1     -12.243  12.889  69.599  1.00  0.00    -0.141 A  
HETATM   13  C   UNL     1     -12.642  13.339  70.866  1.00  0.00    -0.386 A  
HETATM   14  C   UNL     1     -13.036  12.445  71.859  1.00  0.00    -0.471 A  
HETATM   15  C   UNL     1     -13.015  11.084  71.612  1.00  0.00    -0.561 A  
HETATM   16  C   UNL     1     -12.636  10.616  70.355  1.00  0.00    -0.395 A  
HETATM   17  C   UNL     1     -12.291  11.504  69.322  1.00  0.00    -0.056 A  
BRANCH  17  18
HETATM   18  O   UNL     1     -11.997  11.074  68.040  1.00  0.00    -0.623 OA 
BRANCH  18  19
HETATM   19  C   UNL     1     -10.903  10.149  67.966  1.00  0.00    -0.270 C  
BRANCH  19  20
HETATM   20  C   UNL     1      -9.686  10.701  68.646  1.00  0.00    -0.178 C  
HETATM   21  C   UNL     1      -8.867   9.959  69.406  1.00  0.00    -0.195 C  
ENDBRANCH  19  20
ENDBRANCH  18  19
ENDBRANCH  17  18
ENDBRANCH  11  12
ENDBRANCH  10  11
ENDBRANCH   7  10
ENDBRANCH   6   7
ENDBRANCH   4   6
ENDBRANCH   2   4
TORSDOF 9
ENDMDL
MODEL      191
REMARK 921   NORMALIZED FREE ENERGY PREDICTED BY IDOCK:   -3.61 KCAL/MOL
REMARK 922        TOTAL FREE ENERGY PREDICTED BY IDOCK:   -6.29 KCAL/MOL
REMARK 923 INTER-LIGAND FREE ENERGY PREDICTED BY IDOCK:   -5.20 KCAL/MOL
REMARK 924 INTRA-LIGAND FREE ENERGY PREDICTED BY IDOCK:   -1.09 KCAL/MOL
REMARK 927      BINDING AFFINITY PREDICTED BY RF-SCORE:    0.00 PKD
ROOT
HETATM    1  C   UNL     1     -10.261   5.471  71.640  1.00  0.00    -0.265 C  
HETATM    2  C   UNL     1     -11.376   5.079  72.612  1.00  0.00    -0.133 C  
HETATM    3  C   UNL     1     -10.782   4.870  74.010  1.00  0.00    -0.354 C  
ENDROOT
BRANCH   2   4
HETATM    4  N   UNL     1     -12.403   6.126  72.597  1.00  0.00    -0.521 NA 
HETATM    5  H   UNL     1     -12.297   6.753  73.395  1.00  0.00     0.000 HD 
BRANCH   4   6
HETATM    6  C   UNL     1     -12.432   6.879  71.336  1.00  0.00    -0.367 C  
BRANCH   6   7
HETATM    7  C   UNL     1     -12.831   8.354  71.550  1.00  0.00    -0.303 C  
HETATM    8  O   UNL     1     -13.576   8.501  72.763  1.00  0.00    -0.648 OA 
HETATM    9  H   UNL     1     -13.822   9.410  72.894  1.00  0.00     0.000 HD 
BRANCH   7  10
HETATM   10  C   UNL     1     -11.566   9.237  71.588  1.00  0.00    -0.393 C  
BRANCH  10  11
HETATM   11  O   UNL     1     -10.920   9.354  70.313  1.00  0.00    -0.237 OA 
BRANCH  11  12
HETATM   12  C   UNL     1      -9.683   8.768  70.167  1.00  0.00    -0.172 A  
HETATM   13  C   UNL     1      -8.651   8.919  71.105  1.00  0.00    -0.263 A  
HETATM   14  C   UNL     1      -7.400   8.338  70.903  1.00  0.00    -0.059 A  
HETATM   15  C   UNL     1      -7.152   7.617  69.748  1.00  0.00    -0.067 A  
HETATM   16  C   UNL     1      -8.167   7.443  68.811  1.00  0.00    -0.129 A  
HETATM   17  C   UNL     1      -9.453   7.972  69.023  1.00  0.00    -0.151 A  
BRANCH  17  18
HETATM   18  O   UNL     1     -10.504   7.741  68.154  1.00  0.00    -0.205 OA 
BRANCH  18  19
HETATM   19  C   UNL     1     -10.907   6.367  68.069  1.00  0.00    -0.316 C  
BRANCH  19  20
HETATM   20  C   UNL     1     -10.771   5.853  66.668  1.00  0.00    -0.323 C  
HETATM   21  C   UNL     1     -10.041   4.774  66.347  1.00  0.00    -0.291 C  
ENDBRANCH  19  20
ENDBRANCH  18  19
ENDBRANCH  17  18
ENDBRANCH  11  12
ENDBRANCH  10  11
ENDBRANCH   7  10
ENDBRANCH   6   7
ENDBRANCH   4   6
ENDBRANCH   2   4
TORSDOF 9
ENDMDL
MODEL      192
REMARK 921   NORMALIZED FREE ENERGY PREDICTED BY IDOCK:   -3.61 KCAL/MOL
REMARK 922        TOTAL FREE ENERGY PREDICTED BY IDOCK:   -6.28 KCAL/MOL
REMARK 923 INTER-LIGAND FREE ENERGY PREDICTED BY IDOCK:   -5.78 KCAL/MOL
REMARK 924 INTRA-LIGAND FREE ENERGY PREDICTED BY IDOCK:   -0.49 KCAL/MOL
REMARK 927      BINDING AFFINITY PREDICTED BY RF-SCORE:    0.00 PKD
ROOT
HETATM    1  C   UNL     1     -10.378  10.920  63.996  1.00  0.00    -0.417 C  
HETATM    2  C   UNL     1     -11.087  12.007  63.187  1.00  0.00    -0.184 C  
HETATM    3  C   UNL     1     -12.579  12.013  63.541  1.00  0.00    -0.625 C  
ENDROOT
BRANCH   2   4
HETATM    4  N   UNL     1     -10.446  13.297  63.468  1.00  0.00    -0.369 NA 
HETATM    5  H   UNL     1     -10.635  13.969  62.724  1.00  0.00     0.000 HD 
BRANCH   4   6
HETATM    6  C   UNL     1     -10.819  13.845  64.779  1.00  0.00    -0.419 C  
BRANCH   6   7
HETATM    7  C   UNL     1     -10.208  15.241  65.019  1.00  0.00    -0.289 C  
HETATM    8  O   UNL     1     -10.957  16.242  64.321  1.00  0.00    -1.086 OA 
HETATM    9  H   UNL     1     -10.581  17.103  64.469  1.00  0.00     0.000 HD 
BRANCH   7  10
HETATM   10  C   UNL     1     -10.183  15.549  66.531  1.00  0.00    -0.283 C  
BRANCH  10  11
HETATM   11  O   UNL     1      -9.412  14.605  67.285  1.00  0.00    -0.209 OA 
BRANCH  11  12
HETATM   12  C   UNL     1     -10.092  13.620  67.966  1.00  0.00    -0.250 A  
HETATM   13  C   UNL     1     -11.400  13.788  68.446  1.00  0.00    -0.326 A  
HETATM   14  C   UNL     1     -12.042  12.779  69.161  1.00  0.00    -0.206 A  
HETATM   15  C   UNL     1     -11.379  11.595  69.431  1.00  0.00    -0.342 A  
HETATM   16  C   UNL     1     -10.086  11.402  68.951  1.00  0.00    -0.166 A  
HETATM   17  C   UNL     1      -9.442  12.384  68.178  1.00  0.00    -0.214 A  
BRANCH  17  18
HETATM   18  O   UNL     1      -8.195  12.186  67.614  1.00  0.00    -0.143 OA 
BRANCH  18  19
HETATM   19  C   UNL     1      -7.502  11.032  68.108  1.00  0.00    -0.092 C  
BRANCH  19  20
HETATM   20  C   UNL     1      -6.999  10.183  66.979  1.00  0.00    -0.088 C  
HETATM   21  C   UNL     1      -6.922   8.846  67.041  1.00  0.00    -0.074 C  
ENDBRANCH  19  20
ENDBRANCH  18  19
ENDBRANCH  17  18
ENDBRANCH  11  12
ENDBRANCH  10  11
ENDBRANCH   7  10
ENDBRANCH   6   7
ENDBRANCH   4   6
ENDBRANCH   2   4
TORSDOF 9
ENDMDL
MODEL      193
REMARK 921   NORMALIZED FREE ENERGY PREDICTED BY IDOCK:   -3.61 KCAL/MOL
REMARK 922        TOTAL FREE ENERGY PREDICTED BY IDOCK:   -6.28 KCAL/MOL
REMARK 923 INTER-LIGAND FREE ENERGY PREDICTED BY IDOCK:   -4.53 KCAL/MOL
REMARK 924 INTRA-LIGAND FREE ENERGY PREDICTED BY IDOCK:   -1.75 KCAL/MOL
REMARK 927      BINDING AFFINITY PREDICTED BY RF-SCORE:    0.00 PKD
ROOT
HETATM    1  C   UNL     1     -10.026  10.444  64.622  1.00  0.00    -0.408 C  
HETATM    2  C   UNL     1      -9.068   9.270  64.833  1.00  0.00    -0.170 C  
HETATM    3  C   UNL     1      -7.635   9.800  64.959  1.00  0.00    -0.127 C  
ENDROOT
BRANCH   2   4
HETATM    4  N   UNL     1      -9.490   8.527  66.026  1.00  0.00    -0.367 NA 
HETATM    5  H   UNL     1     -10.505   8.428  66.055  1.00  0.00     0.000 HD 
BRANCH   4   6
HETATM    6  C   UNL     1      -8.830   7.220  66.146  1.00  0.00    -0.158 C  
BRANCH   6   7
HETATM    7  C   UNL     1      -8.277   6.977  67.566  1.00  0.00    -0.116 C  
HETATM    8  O   UNL     1      -7.904   8.217  68.177  1.00  0.00    -0.117 OA 
HETATM    9  H   UNL     1      -7.564   8.067  69.052  1.00  0.00     0.000 HD 
BRANCH   7  10
HETATM   10  C   UNL     1      -9.336   6.254  68.423  1.00  0.00    -0.113 C  
BRANCH  10  11
HETATM   11  O   UNL     1     -10.584   6.959  68.491  1.00  0.00    -0.195 OA 
BRANCH  11  12
HETATM   12  C   UNL     1     -10.949   7.496  69.705  1.00  0.00    -0.153 A  
HETATM   13  C   UNL     1     -11.450   6.723  70.763  1.00  0.00    -0.392 A  
HETATM   14  C   UNL     1     -11.842   7.310  71.964  1.00  0.00    -0.332 A  
HETATM   15  C   UNL     1     -11.764   8.683  72.120  1.00  0.00    -0.442 A  
HETATM   16  C   UNL     1     -11.256   9.468  71.087  1.00  0.00    -0.446 A  
HETATM   17  C   UNL     1     -10.800   8.889  69.890  1.00  0.00    -0.211 A  
BRANCH  17  18
HETATM   18  O   UNL     1     -10.210   9.632  68.883  1.00  0.00    -0.186 OA 
BRANCH  18  19
HETATM   19  C   UNL     1     -10.959  10.789  68.488  1.00  0.00    -0.243 C  
BRANCH  19  20
HETATM   20  C   UNL     1     -10.058  11.846  67.926  1.00  0.00    -0.199 C  
HETATM   21  C   UNL     1      -8.740  11.673  67.748  1.00  0.00    -0.152 C  
ENDBRANCH  19  20
ENDBRANCH  18  19
ENDBRANCH  17  18
ENDBRANCH  11  12
ENDBRANCH  10  11
ENDBRANCH   7  10
ENDBRANCH   6   7
ENDBRANCH   4   6
ENDBRANCH   2   4
TORSDOF 9
ENDMDL
MODEL      194
REMARK 921   NORMALIZED FREE ENERGY PREDICTED BY IDOCK:   -3.58 KCAL/MOL
REMARK 922        TOTAL FREE ENERGY PREDICTED BY IDOCK:   -6.24 KCAL/MOL
REMARK 923 INTER-LIGAND FREE ENERGY PREDICTED BY IDOCK:   -5.40 KCAL/MOL
REMARK 924 INTRA-LIGAND FREE ENERGY PREDICTED BY IDOCK:   -0.84 KCAL/MOL
REMARK 927      BINDING AFFINITY PREDICTED BY RF-SCORE:    0.00 PKD
ROOT
HETATM    1  C   UNL     1      -6.260  18.588  68.952  1.00  0.00    -0.233 C  
HETATM    2  C   UNL     1      -7.337  17.659  68.387  1.00  0.00    -0.243 C  
HETATM    3  C   UNL     1      -7.730  16.629  69.453  1.00  0.00     0.007 C  
ENDROOT
BRANCH   2   4
HETATM    4  N   UNL     1      -8.479  18.471  67.953  1.00  0.00    -0.270 NA 
HETATM    5  H   UNL     1      -8.399  18.717  66.967  1.00  0.00     0.000 HD 
BRANCH   4   6
HETATM    6  C   UNL     1      -9.772  17.831  68.233  1.00  0.00    -0.320 C  
BRANCH   6   7
HETATM    7  C   UNL     1     -10.553  17.511  66.941  1.00  0.00    -0.219 C  
HETATM    8  O   UNL     1     -10.171  18.406  65.890  1.00  0.00    -0.544 OA 
HETATM    9  H   UNL     1     -10.652  18.208  65.095  1.00  0.00     0.000 HD 
BRANCH   7  10
HETATM   10  C   UNL     1     -10.292  16.050  66.521  1.00  0.00    -0.299 C  
BRANCH  10  11
HETATM   11  O   UNL     1     -11.089  15.104  67.247  1.00  0.00    -0.321 OA 
BRANCH  11  12
HETATM   12  C   UNL     1     -10.744  13.774  67.156  1.00  0.00    -0.281 A  
HETATM   13  C   UNL     1      -9.736  13.303  66.301  1.00  0.00    -0.274 A  
HETATM   14  C   UNL     1      -9.441  11.944  66.212  1.00  0.00    -0.238 A  
HETATM   15  C   UNL     1     -10.166  11.030  66.956  1.00  0.00    -0.250 A  
HETATM   16  C   UNL     1     -11.162  11.477  67.821  1.00  0.00    -0.343 A  
HETATM   17  C   UNL     1     -11.435  12.848  67.969  1.00  0.00    -0.319 A  
BRANCH  17  18
HETATM   18  O   UNL     1     -12.355  13.328  68.885  1.00  0.00    -0.178 OA 
BRANCH  18  19
HETATM   19  C   UNL     1     -11.916  13.267  70.248  1.00  0.00    -0.300 C  
BRANCH  19  20
HETATM   20  C   UNL     1     -11.582  14.634  70.766  1.00  0.00    -0.289 C  
HETATM   21  C   UNL     1     -12.441  15.664  70.735  1.00  0.00    -0.484 C  
ENDBRANCH  19  20
ENDBRANCH  18  19
ENDBRANCH  17  18
ENDBRANCH  11  12
ENDBRANCH  10  11
ENDBRANCH   7  10
ENDBRANCH   6   7
ENDBRANCH   4   6
ENDBRANCH   2   4
TORSDOF 9
ENDMDL
MODEL      195
REMARK 921   NORMALIZED FREE ENERGY PREDICTED BY IDOCK:   -3.57 KCAL/MOL
REMARK 922        TOTAL FREE ENERGY PREDICTED BY IDOCK:   -6.22 KCAL/MOL
REMARK 923 INTER-LIGAND FREE ENERGY PREDICTED BY IDOCK:   -5.33 KCAL/MOL
REMARK 924 INTRA-LIGAND FREE ENERGY PREDICTED BY IDOCK:   -0.89 KCAL/MOL
REMARK 927      BINDING AFFINITY PREDICTED BY RF-SCORE:    0.00 PKD
ROOT
HETATM    1  C   UNL     1      -5.593  15.738  69.064  1.00  0.00    -0.104 C  
HETATM    2  C   UNL     1      -6.168  14.489  69.736  1.00  0.00    -0.140 C  
HETATM    3  C   UNL     1      -5.341  14.157  70.984  1.00  0.00    -0.153 C  
ENDROOT
BRANCH   2   4
HETATM    4  N   UNL     1      -7.579  14.734  70.057  1.00  0.00    -0.362 NA 
HETATM    5  H   UNL     1      -7.668  15.335  70.876  1.00  0.00     0.000 HD 
BRANCH   4   6
HETATM    6  C   UNL     1      -8.336  15.275  68.920  1.00  0.00    -0.196 C  
BRANCH   6   7
HETATM    7  C   UNL     1      -8.971  14.161  68.062  1.00  0.00    -0.183 C  
HETATM    8  O   UNL     1      -9.414  13.081  68.891  1.00  0.00    -0.399 OA 
HETATM    9  H   UNL     1      -9.805  12.395  68.362  1.00  0.00     0.000 HD 
BRANCH   7  10
HETATM   10  C   UNL     1     -10.152  14.734  67.252  1.00  0.00    -0.236 C  
BRANCH  10  11
HETATM   11  O   UNL     1     -11.237  13.808  67.105  1.00  0.00    -0.295 OA 
BRANCH  11  12
HETATM   12  C   UNL     1     -11.450  13.265  65.858  1.00  0.00    -0.332 A  
HETATM   13  C   UNL     1     -12.116  13.950  64.831  1.00  0.00    -0.434 A  
HETATM   14  C   UNL     1     -12.343  13.352  63.593  1.00  0.00    -0.422 A  
HETATM   15  C   UNL     1     -11.931  12.049  63.369  1.00  0.00    -0.571 A  
HETATM   16  C   UNL     1     -11.256  11.356  64.371  1.00  0.00    -0.277 A  
HETATM   17  C   UNL     1     -10.966  11.962  65.606  1.00  0.00    -0.304 A  
BRANCH  17  18
HETATM   18  O   UNL     1     -10.221  11.331  66.586  1.00  0.00    -0.214 OA 
BRANCH  18  19
HETATM   19  C   UNL     1      -9.930   9.954  66.310  1.00  0.00    -0.256 C  
BRANCH  19  20
HETATM   20  C   UNL     1     -10.683   9.050  67.238  1.00  0.00    -0.222 C  
HETATM   21  C   UNL     1     -10.478   9.017  68.563  1.00  0.00    -0.232 C  
ENDBRANCH  19  20
ENDBRANCH  18  19
ENDBRANCH  17  18
ENDBRANCH  11  12
ENDBRANCH  10  11
ENDBRANCH   7  10
ENDBRANCH   6   7
ENDBRANCH   4   6
ENDBRANCH   2   4
TORSDOF 9
ENDMDL
MODEL      196
REMARK 921   NORMALIZED FREE ENERGY PREDICTED BY IDOCK:   -3.57 KCAL/MOL
REMARK 922        TOTAL FREE ENERGY PREDICTED BY IDOCK:   -6.22 KCAL/MOL
REMARK 923 INTER-LIGAND FREE ENERGY PREDICTED BY IDOCK:   -5.44 KCAL/MOL
REMARK 924 INTRA-LIGAND FREE ENERGY PREDICTED BY IDOCK:   -0.78 KCAL/MOL
REMARK 927      BINDING AFFINITY PREDICTED BY RF-SCORE:    0.00 PKD
ROOT
HETATM    1  C   UNL     1      -8.573  11.888  66.877  1.00  0.00    -0.185 C  
HETATM    2  C   UNL     1      -9.627  12.855  67.420  1.00  0.00    -0.203 C  
HETATM    3  C   UNL     1      -9.335  14.268  66.902  1.00  0.00    -0.268 C  
ENDROOT
BRANCH   2   4
HETATM    4  N   UNL     1     -10.955  12.380  67.015  1.00  0.00    -0.250 NA 
HETATM    5  H   UNL     1     -10.904  11.435  66.634  1.00  0.00     0.000 HD 
BRANCH   4   6
HETATM    6  C   UNL     1     -11.944  12.458  68.099  1.00  0.00    -0.214 C  
BRANCH   6   7
HETATM    7  C   UNL     1     -11.320  12.154  69.477  1.00  0.00    -0.207 C  
HETATM    8  O   UNL     1     -11.627  13.196  70.408  1.00  0.00    -0.526 OA 
HETATM    9  H   UNL     1     -11.243  13.009  71.257  1.00  0.00     0.000 HD 
BRANCH   7  10
HETATM   10  C   UNL     1     -11.841  10.799  69.999  1.00  0.00    -0.344 C  
BRANCH  10  11
HETATM   11  O   UNL     1     -10.802   9.828  70.185  1.00  0.00    -0.247 OA 
BRANCH  11  12
HETATM   12  C   UNL     1     -10.782   8.742  69.340  1.00  0.00    -0.169 A  
HETATM   13  C   UNL     1     -10.445   8.836  67.982  1.00  0.00    -0.260 A  
HETATM   14  C   UNL     1     -10.471   7.718  67.151  1.00  0.00    -0.413 A  
HETATM   15  C   UNL     1     -10.859   6.490  67.658  1.00  0.00    -0.419 A  
HETATM   16  C   UNL     1     -11.185   6.371  69.007  1.00  0.00    -0.402 A  
HETATM   17  C   UNL     1     -11.108   7.475  69.874  1.00  0.00    -0.171 A  
BRANCH  17  18
HETATM   18  O   UNL     1     -11.339   7.369  71.234  1.00  0.00    -0.254 OA 
BRANCH  18  19
HETATM   19  C   UNL     1     -10.161   7.125  72.014  1.00  0.00    -0.190 C  
BRANCH  19  20
HETATM   20  C   UNL     1     -10.489   7.055  73.475  1.00  0.00    -0.413 C  
HETATM   21  C   UNL     1     -10.037   6.086  74.286  1.00  0.00    -0.307 C  
ENDBRANCH  19  20
ENDBRANCH  18  19
ENDBRANCH  17  18
ENDBRANCH  11  12
ENDBRANCH  10  11
ENDBRANCH   7  10
ENDBRANCH   6   7
ENDBRANCH   4   6
ENDBRANCH   2   4
TORSDOF 9
ENDMDL
MODEL      197
REMARK 921   NORMALIZED FREE ENERGY PREDICTED BY IDOCK:   -3.56 KCAL/MOL
REMARK 922        TOTAL FREE ENERGY PREDICTED BY IDOCK:   -6.21 KCAL/MOL
REMARK 923 INTER-LIGAND FREE ENERGY PREDICTED BY IDOCK:   -5.19 KCAL/MOL
REMARK 924 INTRA-LIGAND FREE ENERGY PREDICTED BY IDOCK:   -1.01 KCAL/MOL
REMARK 927      BINDING AFFINITY PREDICTED BY RF-SCORE:    0.00 PKD
ROOT
HETATM    1  C   UNL     1     -10.074  13.499  68.354  1.00  0.00    -0.240 C  
HETATM    2  C   UNL     1     -10.391  12.027  68.081  1.00  0.00    -0.198 C  
HETATM    3  C   UNL     1     -11.375  11.928  66.909  1.00  0.00    -0.392 C  
ENDROOT
BRANCH   2   4
HETATM    4  N   UNL     1      -9.136  11.316  67.811  1.00  0.00    -0.149 NA 
HETATM    5  H   UNL     1      -9.012  11.162  66.810  1.00  0.00     0.000 HD 
BRANCH   4   6
HETATM    6  C   UNL     1      -7.965  11.989  68.389  1.00  0.00    -0.152 C  
BRANCH   6   7
HETATM    7  C   UNL     1      -6.998  10.992  69.063  1.00  0.00    -0.097 C  
HETATM    8  O   UNL     1      -6.739  11.382  70.416  1.00  0.00    -0.497 OA 
HETATM    9  H   UNL     1      -6.144  10.769  70.831  1.00  0.00     0.000 HD 
BRANCH   7  10
HETATM   10  C   UNL     1      -7.598   9.572  69.021  1.00  0.00    -0.075 C  
BRANCH  10  11
HETATM   11  O   UNL     1      -8.676   9.387  69.949  1.00  0.00    -0.160 OA 
BRANCH  11  12
HETATM   12  C   UNL     1      -9.427   8.239  69.836  1.00  0.00    -0.167 A  
HETATM   13  C   UNL     1      -8.985   7.102  69.144  1.00  0.00    -0.138 A  
HETATM   14  C   UNL     1      -9.791   5.971  69.022  1.00  0.00    -0.182 A  
HETATM   15  C   UNL     1     -11.062   5.967  69.569  1.00  0.00    -0.468 A  
HETATM   16  C   UNL     1     -11.515   7.081  70.272  1.00  0.00    -0.333 A  
HETATM   17  C   UNL     1     -10.696   8.208  70.456  1.00  0.00    -0.225 A  
BRANCH  17  18
HETATM   18  O   UNL     1     -11.085   9.292  71.224  1.00  0.00    -0.297 OA 
BRANCH  18  19
HETATM   19  C   UNL     1     -12.301   9.088  71.957  1.00  0.00    -0.384 C  
BRANCH  19  20
HETATM   20  C   UNL     1     -13.201  10.281  71.845  1.00  0.00    -0.550 C  
HETATM   21  C   UNL     1     -12.797  11.467  71.367  1.00  0.00    -0.489 C  
ENDBRANCH  19  20
ENDBRANCH  18  19
ENDBRANCH  17  18
ENDBRANCH  11  12
ENDBRANCH  10  11
ENDBRANCH   7  10
ENDBRANCH   6   7
ENDBRANCH   4   6
ENDBRANCH   2   4
TORSDOF 9
ENDMDL
MODEL      198
REMARK 921   NORMALIZED FREE ENERGY PREDICTED BY IDOCK:   -3.56 KCAL/MOL
REMARK 922        TOTAL FREE ENERGY PREDICTED BY IDOCK:   -6.21 KCAL/MOL
REMARK 923 INTER-LIGAND FREE ENERGY PREDICTED BY IDOCK:   -5.22 KCAL/MOL
REMARK 924 INTRA-LIGAND FREE ENERGY PREDICTED BY IDOCK:   -0.98 KCAL/MOL
REMARK 927      BINDING AFFINITY PREDICTED BY RF-SCORE:    0.00 PKD
ROOT
HETATM    1  C   UNL     1      -5.950  13.715  68.233  1.00  0.00    -0.106 C  
HETATM    2  C   UNL     1      -6.317  12.424  68.967  1.00  0.00    -0.092 C  
HETATM    3  C   UNL     1      -5.665  12.426  70.355  1.00  0.00    -0.168 C  
ENDROOT
BRANCH   2   4
HETATM    4  N   UNL     1      -7.779  12.325  69.042  1.00  0.00    -0.331 NA 
HETATM    5  H   UNL     1      -8.216  13.233  68.882  1.00  0.00     0.000 HD 
BRANCH   4   6
HETATM    6  C   UNL     1      -8.330  11.310  68.135  1.00  0.00    -0.143 C  
BRANCH   6   7
HETATM    7  C   UNL     1      -9.865  11.206  68.242  1.00  0.00    -0.189 C  
HETATM    8  O   UNL     1     -10.260  10.999  69.603  1.00  0.00    -0.435 OA 
HETATM    9  H   UNL     1     -11.206  10.935  69.669  1.00  0.00     0.000 HD 
BRANCH   7  10
HETATM   10  C   UNL     1     -10.516  12.489  67.686  1.00  0.00    -0.217 C  
BRANCH  10  11
HETATM   11  O   UNL     1     -10.640  13.529  68.666  1.00  0.00    -0.244 OA 
BRANCH  11  12
HETATM   12  C   UNL     1     -10.356  14.817  68.271  1.00  0.00    -0.238 A  
HETATM   13  C   UNL     1      -9.263  15.142  67.454  1.00  0.00    -0.199 A  
HETATM   14  C   UNL     1      -8.988  16.463  67.105  1.00  0.00    -0.218 A  
HETATM   15  C   UNL     1      -9.787  17.485  67.588  1.00  0.00    -0.291 A  
HETATM   16  C   UNL     1     -10.886  17.183  68.389  1.00  0.00    -0.309 A  
HETATM   17  C   UNL     1     -11.213  15.853  68.704  1.00  0.00    -0.360 A  
BRANCH  17  18
HETATM   18  O   UNL     1     -12.347  15.517  69.423  1.00  0.00    -0.266 OA 
BRANCH  18  19
HETATM   19  C   UNL     1     -12.204  15.649  70.844  1.00  0.00    -0.419 C  
BRANCH  19  20
HETATM   20  C   UNL     1     -12.722  14.433  71.551  1.00  0.00    -0.417 C  
HETATM   21  C   UNL     1     -13.675  14.479  72.494  1.00  0.00    -0.580 C  
ENDBRANCH  19  20
ENDBRANCH  18  19
ENDBRANCH  17  18
ENDBRANCH  11  12
ENDBRANCH  10  11
ENDBRANCH   7  10
ENDBRANCH   6   7
ENDBRANCH   4   6
ENDBRANCH   2   4
TORSDOF 9
ENDMDL
MODEL      199
REMARK 921   NORMALIZED FREE ENERGY PREDICTED BY IDOCK:   -3.55 KCAL/MOL
REMARK 922        TOTAL FREE ENERGY PREDICTED BY IDOCK:   -6.20 KCAL/MOL
REMARK 923 INTER-LIGAND FREE ENERGY PREDICTED BY IDOCK:   -5.01 KCAL/MOL
REMARK 924 INTRA-LIGAND FREE ENERGY PREDICTED BY IDOCK:   -1.18 KCAL/MOL
REMARK 927      BINDING AFFINITY PREDICTED BY RF-SCORE:    0.00 PKD
ROOT
HETATM    1  C   UNL     1     -10.512   5.206  66.457  1.00  0.00    -0.346 C  
HETATM    2  C   UNL     1      -9.719   4.506  67.563  1.00  0.00    -0.169 C  
HETATM    3  C   UNL     1      -8.488   3.825  66.952  1.00  0.00    -0.105 C  
ENDROOT
BRANCH   2   4
HETATM    4  N   UNL     1      -9.355   5.498  68.582  1.00  0.00    -0.122 NA 
HETATM    5  H   UNL     1     -10.160   6.067  68.841  1.00  0.00     0.000 HD 
BRANCH   4   6
HETATM    6  C   UNL     1      -8.732   4.894  69.768  1.00  0.00    -0.086 C  
BRANCH   6   7
HETATM    7  C   UNL     1      -9.238   5.535  71.077  1.00  0.00    -0.148 C  
HETATM    8  O   UNL     1      -8.760   6.879  71.194  1.00  0.00    -0.134 OA 
HETATM    9  H   UNL     1      -9.071   7.274  72.001  1.00  0.00     0.000 HD 
BRANCH   7  10
HETATM   10  C   UNL     1     -10.780   5.510  71.111  1.00  0.00    -0.210 C  
BRANCH  10  11
HETATM   11  O   UNL     1     -11.379   6.499  70.262  1.00  0.00    -0.336 OA 
BRANCH  11  12
HETATM   12  C   UNL     1     -12.118   7.492  70.862  1.00  0.00    -0.226 A  
HETATM   13  C   UNL     1     -13.297   7.240  71.580  1.00  0.00    -0.435 A  
HETATM   14  C   UNL     1     -14.037   8.278  72.142  1.00  0.00    -0.418 A  
HETATM   15  C   UNL     1     -13.624   9.589  71.977  1.00  0.00    -0.492 A  
HETATM   16  C   UNL     1     -12.449   9.861  71.280  1.00  0.00    -0.479 A  
HETATM   17  C   UNL     1     -11.658   8.824  70.755  1.00  0.00    -0.251 A  
BRANCH  17  18
HETATM   18  O   UNL     1     -10.443   9.057  70.136  1.00  0.00    -0.197 OA 
BRANCH  18  19
HETATM   19  C   UNL     1     -10.302  10.376  69.593  1.00  0.00    -0.226 C  
BRANCH  19  20
HETATM   20  C   UNL     1     -10.846  10.443  68.198  1.00  0.00    -0.311 C  
HETATM   21  C   UNL     1     -11.623  11.444  67.757  1.00  0.00    -0.325 C  
ENDBRANCH  19  20
ENDBRANCH  18  19
ENDBRANCH  17  18
ENDBRANCH  11  12
ENDBRANCH  10  11
ENDBRANCH   7  10
ENDBRANCH   6   7
ENDBRANCH   4   6
ENDBRANCH   2   4
TORSDOF 9
ENDMDL
MODEL      200
REMARK 921   NORMALIZED FREE ENERGY PREDICTED BY IDOCK:   -3.54 KCAL/MOL
REMARK 922        TOTAL FREE ENERGY PREDICTED BY IDOCK:   -6.18 KCAL/MOL
REMARK 923 INTER-LIGAND FREE ENERGY PREDICTED BY IDOCK:   -5.49 KCAL/MOL
REMARK 924 INTRA-LIGAND FREE ENERGY PREDICTED BY IDOCK:   -0.69 KCAL/MOL
REMARK 927      BINDING AFFINITY PREDICTED BY RF-SCORE:    0.00 PKD
ROOT
HETATM    1  C   UNL     1     -13.280  10.094  71.948  1.00  0.00    -0.557 C  
HETATM    2  C   UNL     1     -12.174  10.925  71.294  1.00  0.00    -0.290 C  
HETATM    3  C   UNL     1     -11.426  10.062  70.272  1.00  0.00    -0.372 C  
ENDROOT
BRANCH   2   4
HETATM    4  N   UNL     1     -12.779  12.112  70.679  1.00  0.00    -0.137 NA 
HETATM    5  H   UNL     1     -13.720  11.909  70.341  1.00  0.00     0.000 HD 
BRANCH   4   6
HETATM    6  C   UNL     1     -12.781  13.279  71.572  1.00  0.00    -0.281 C  
BRANCH   6   7
HETATM    7  C   UNL     1     -12.390  14.576  70.832  1.00  0.00    -0.345 C  
HETATM    8  O   UNL     1     -11.124  15.056  71.297  1.00  0.00    -0.536 OA 
HETATM    9  H   UNL     1     -10.883  15.855  70.842  1.00  0.00     0.000 HD 
BRANCH   7  10
HETATM   10  C   UNL     1     -12.339  14.316  69.313  1.00  0.00    -0.162 C  
BRANCH  10  11
HETATM   11  O   UNL     1     -11.364  15.121  68.635  1.00  0.00    -0.277 OA 
BRANCH  11  12
HETATM   12  C   UNL     1     -10.197  14.510  68.235  1.00  0.00    -0.234 A  
HETATM   13  C   UNL     1      -9.970  13.133  68.372  1.00  0.00    -0.223 A  
HETATM   14  C   UNL     1      -8.760  12.558  67.987  1.00  0.00    -0.186 A  
HETATM   15  C   UNL     1      -7.748  13.354  67.480  1.00  0.00    -0.182 A  
HETATM   16  C   UNL     1      -7.958  14.722  67.322  1.00  0.00    -0.232 A  
HETATM   17  C   UNL     1      -9.191  15.312  67.651  1.00  0.00    -0.187 A  
BRANCH  17  18
HETATM   18  O   UNL     1      -9.459  16.650  67.422  1.00  0.00    -0.228 OA 
BRANCH  18  19
HETATM   19  C   UNL     1      -8.367  17.529  67.724  1.00  0.00    -0.220 C  
BRANCH  19  20
HETATM   20  C   UNL     1      -8.851  18.930  67.943  1.00  0.00    -0.326 C  
HETATM   21  C   UNL     1      -9.901  19.235  68.720  1.00  0.00    -0.514 C  
ENDBRANCH  19  20
ENDBRANCH  18  19
ENDBRANCH  17  18
ENDBRANCH  11  12
ENDBRANCH  10  11
ENDBRANCH   7  10
ENDBRANCH   6   7
ENDBRANCH   4   6
ENDBRANCH   2   4
TORSDOF 9
ENDMDL
MODEL      201
REMARK 921   NORMALIZED FREE ENERGY PREDICTED BY IDOCK:   -3.54 KCAL/MOL
REMARK 922        TOTAL FREE ENERGY PREDICTED BY IDOCK:   -6.17 KCAL/MOL
REMARK 923 INTER-LIGAND FREE ENERGY PREDICTED BY IDOCK:   -5.69 KCAL/MOL
REMARK 924 INTRA-LIGAND FREE ENERGY PREDICTED BY IDOCK:   -0.48 KCAL/MOL
REMARK 927      BINDING AFFINITY PREDICTED BY RF-SCORE:    0.00 PKD
ROOT
HETATM    1  C   UNL     1     -10.490  18.745  67.687  1.00  0.00    -0.495 C  
HETATM    2  C   UNL     1     -10.097  17.339  68.143  1.00  0.00    -0.325 C  
HETATM    3  C   UNL     1      -8.645  17.352  68.637  1.00  0.00    -0.259 C  
ENDROOT
BRANCH   2   4
HETATM    4  N   UNL     1     -11.033  16.904  69.186  1.00  0.00    -0.296 NA 
HETATM    5  H   UNL     1     -11.976  17.241  68.994  1.00  0.00     0.000 HD 
BRANCH   4   6
HETATM    6  C   UNL     1     -11.025  15.449  69.389  1.00  0.00    -0.276 C  
BRANCH   6   7
HETATM    7  C   UNL     1     -11.535  15.055  70.791  1.00  0.00    -0.292 C  
HETATM    8  O   UNL     1     -12.242  16.146  71.391  1.00  0.00    -0.566 OA 
HETATM    9  H   UNL     1     -12.556  15.903  72.255  1.00  0.00     0.000 HD 
BRANCH   7  10
HETATM   10  C   UNL     1     -12.449  13.817  70.686  1.00  0.00    -0.359 C  
BRANCH  10  11
HETATM   11  O   UNL     1     -11.740  12.620  70.340  1.00  0.00    -0.216 OA 
BRANCH  11  12
HETATM   12  C   UNL     1     -12.207  11.430  70.852  1.00  0.00    -0.344 A  
HETATM   13  C   UNL     1     -13.359  11.340  71.646  1.00  0.00    -0.300 A  
HETATM   14  C   UNL     1     -13.779  10.120  72.175  1.00  0.00    -0.185 A  
HETATM   15  C   UNL     1     -13.039   8.974  71.939  1.00  0.00    -0.459 A  
HETATM   16  C   UNL     1     -11.899   9.039  71.142  1.00  0.00    -0.362 A  
HETATM   17  C   UNL     1     -11.492  10.248  70.551  1.00  0.00    -0.343 A  
BRANCH  17  18
HETATM   18  O   UNL     1     -10.417  10.327  69.684  1.00  0.00    -0.226 OA 
BRANCH  18  19
HETATM   19  C   UNL     1      -9.842   9.058  69.343  1.00  0.00    -0.183 C  
BRANCH  19  20
HETATM   20  C   UNL     1      -8.600   9.235  68.522  1.00  0.00    -0.128 C  
HETATM   21  C   UNL     1      -7.493   9.837  68.981  1.00  0.00    -0.080 C  
ENDBRANCH  19  20
ENDBRANCH  18  19
ENDBRANCH  17  18
ENDBRANCH  11  12
ENDBRANCH  10  11
ENDBRANCH   7  10
ENDBRANCH   6   7
ENDBRANCH   4   6
ENDBRANCH   2   4
TORSDOF 9
ENDMDL
MODEL      202
REMARK 921   NORMALIZED FREE ENERGY PREDICTED BY IDOCK:   -3.53 KCAL/MOL
REMARK 922        TOTAL FREE ENERGY PREDICTED BY IDOCK:   -6.16 KCAL/MOL
REMARK 923 INTER-LIGAND FREE ENERGY PREDICTED BY IDOCK:   -5.72 KCAL/MOL
REMARK 924 INTRA-LIGAND FREE ENERGY PREDICTED BY IDOCK:   -0.44 KCAL/MOL
REMARK 927      BINDING AFFINITY PREDICTED BY RF-SCORE:    0.00 PKD
ROOT
HETATM    1  C   UNL     1     -12.710  11.933  63.579  1.00  0.00    -0.530 C  
HETATM    2  C   UNL     1     -11.429  12.419  64.262  1.00  0.00    -0.363 C  
HETATM    3  C   UNL     1     -10.223  11.691  63.656  1.00  0.00    -0.451 C  
ENDROOT
BRANCH   2   4
HETATM    4  N   UNL     1     -11.334  13.875  64.104  1.00  0.00    -0.600 NA 
HETATM    5  H   UNL     1     -12.091  14.229  63.519  1.00  0.00     0.000 HD 
BRANCH   4   6
HETATM    6  C   UNL     1     -11.285  14.585  65.389  1.00  0.00    -0.342 C  
BRANCH   6   7
HETATM    7  C   UNL     1     -10.876  13.656  66.550  1.00  0.00    -0.283 C  
HETATM    8  O   UNL     1      -9.694  14.147  67.192  1.00  0.00    -0.236 OA 
HETATM    9  H   UNL     1      -9.441  13.575  67.907  1.00  0.00     0.000 HD 
BRANCH   7  10
HETATM   10  C   UNL     1     -12.031  13.549  67.567  1.00  0.00    -0.346 C  
BRANCH  10  11
HETATM   11  O   UNL     1     -11.619  13.797  68.918  1.00  0.00    -0.272 OA 
BRANCH  11  12
HETATM   12  C   UNL     1     -11.979  12.876  69.875  1.00  0.00    -0.307 A  
HETATM   13  C   UNL     1     -12.968  13.123  70.839  1.00  0.00    -0.141 A  
HETATM   14  C   UNL     1     -13.278  12.177  71.814  1.00  0.00    -0.423 A  
HETATM   15  C   UNL     1     -12.588  10.978  71.858  1.00  0.00    -0.189 A  
HETATM   16  C   UNL     1     -11.612  10.708  70.902  1.00  0.00    -0.311 A  
HETATM   17  C   UNL     1     -11.324  11.624  69.876  1.00  0.00    -0.150 A  
BRANCH  17  18
HETATM   18  O   UNL     1     -10.425  11.346  68.862  1.00  0.00    -0.200 OA 
BRANCH  18  19
HETATM   19  C   UNL     1      -9.581  10.215  69.116  1.00  0.00    -0.212 C  
BRANCH  19  20
HETATM   20  C   UNL     1      -9.727   9.183  68.039  1.00  0.00    -0.177 C  
HETATM   21  C   UNL     1     -10.652   8.212  68.068  1.00  0.00    -0.188 C  
ENDBRANCH  19  20
ENDBRANCH  18  19
ENDBRANCH  17  18
ENDBRANCH  11  12
ENDBRANCH  10  11
ENDBRANCH   7  10
ENDBRANCH   6   7
ENDBRANCH   4   6
ENDBRANCH   2   4
TORSDOF 9
ENDMDL
MODEL      203
REMARK 921   NORMALIZED FREE ENERGY PREDICTED BY IDOCK:   -3.51 KCAL/MOL
REMARK 922        TOTAL FREE ENERGY PREDICTED BY IDOCK:   -6.13 KCAL/MOL
REMARK 923 INTER-LIGAND FREE ENERGY PREDICTED BY IDOCK:   -5.39 KCAL/MOL
REMARK 924 INTRA-LIGAND FREE ENERGY PREDICTED BY IDOCK:   -0.74 KCAL/MOL
REMARK 927      BINDING AFFINITY PREDICTED BY RF-SCORE:    0.00 PKD
ROOT
HETATM    1  C   UNL     1     -10.744  11.387  64.395  1.00  0.00    -0.405 C  
HETATM    2  C   UNL     1      -9.540  10.457  64.550  1.00  0.00    -0.309 C  
HETATM    3  C   UNL     1      -9.118   9.938  63.170  1.00  0.00    -0.290 C  
ENDROOT
BRANCH   2   4
HETATM    4  N   UNL     1      -8.460  11.193  65.218  1.00  0.00    -0.382 NA 
HETATM    5  H   UNL     1      -8.823  12.012  65.705  1.00  0.00     0.000 HD 
BRANCH   4   6
HETATM    6  C   UNL     1      -7.671  10.348  66.125  1.00  0.00    -0.129 C  
BRANCH   6   7
HETATM    7  C   UNL     1      -8.548   9.320  66.870  1.00  0.00    -0.127 C  
HETATM    8  O   UNL     1      -7.774   8.174  67.239  1.00  0.00    -0.095 OA 
HETATM    9  H   UNL     1      -8.314   7.541  67.697  1.00  0.00     0.000 HD 
BRANCH   7  10
HETATM   10  C   UNL     1      -9.169   9.972  68.123  1.00  0.00    -0.128 C  
BRANCH  10  11
HETATM   11  O   UNL     1     -10.560   9.668  68.287  1.00  0.00    -0.212 OA 
BRANCH  11  12
HETATM   12  C   UNL     1     -11.255  10.355  69.256  1.00  0.00    -0.248 A  
HETATM   13  C   UNL     1     -11.558  11.721  69.156  1.00  0.00    -0.372 A  
HETATM   14  C   UNL     1     -12.234  12.388  70.176  1.00  0.00    -0.303 A  
HETATM   15  C   UNL     1     -12.596  11.707  71.325  1.00  0.00    -0.425 A  
HETATM   16  C   UNL     1     -12.317  10.347  71.439  1.00  0.00    -0.500 A  
HETATM   17  C   UNL     1     -11.689   9.643  70.397  1.00  0.00    -0.202 A  
BRANCH  17  18
HETATM   18  O   UNL     1     -11.480   8.276  70.445  1.00  0.00    -0.232 OA 
BRANCH  18  19
HETATM   19  C   UNL     1     -12.375   7.573  71.317  1.00  0.00    -0.327 C  
BRANCH  19  20
HETATM   20  C   UNL     1     -11.618   6.791  72.347  1.00  0.00    -0.284 C  
HETATM   21  C   UNL     1     -10.881   7.363  73.312  1.00  0.00    -0.417 C  
ENDBRANCH  19  20
ENDBRANCH  18  19
ENDBRANCH  17  18
ENDBRANCH  11  12
ENDBRANCH  10  11
ENDBRANCH   7  10
ENDBRANCH   6   7
ENDBRANCH   4   6
ENDBRANCH   2   4
TORSDOF 9
ENDMDL
MODEL      204
REMARK 921   NORMALIZED FREE ENERGY PREDICTED BY IDOCK:   -3.50 KCAL/MOL
REMARK 922        TOTAL FREE ENERGY PREDICTED BY IDOCK:   -6.11 KCAL/MOL
REMARK 923 INTER-LIGAND FREE ENERGY PREDICTED BY IDOCK:   -5.49 KCAL/MOL
REMARK 924 INTRA-LIGAND FREE ENERGY PREDICTED BY IDOCK:   -0.63 KCAL/MOL
REMARK 927      BINDING AFFINITY PREDICTED BY RF-SCORE:    0.00 PKD
ROOT
HETATM    1  C   UNL     1     -11.976  15.386  71.451  1.00  0.00    -0.440 C  
HETATM    2  C   UNL     1     -12.116  13.947  70.950  1.00  0.00    -0.313 C  
HETATM    3  C   UNL     1     -13.297  13.275  71.661  1.00  0.00    -0.406 C  
ENDROOT
BRANCH   2   4
HETATM    4  N   UNL     1     -12.288  13.970  69.493  1.00  0.00    -0.426 NA 
HETATM    5  H   UNL     1     -13.174  14.405  69.236  1.00  0.00     0.000 HD 
BRANCH   4   6
HETATM    6  C   UNL     1     -11.165  14.612  68.797  1.00  0.00    -0.267 C  
BRANCH   6   7
HETATM    7  C   UNL     1     -11.244  14.422  67.268  1.00  0.00    -0.323 C  
HETATM    8  O   UNL     1     -12.469  13.773  66.907  1.00  0.00    -0.411 OA 
HETATM    9  H   UNL     1     -12.518  13.656  65.965  1.00  0.00     0.000 HD 
BRANCH   7  10
HETATM   10  C   UNL     1     -11.136  15.790  66.564  1.00  0.00    -0.079 C  
BRANCH  10  11
HETATM   11  O   UNL     1     -11.023  16.888  67.479  1.00  0.00    -0.254 OA 
BRANCH  11  12
HETATM   12  C   UNL     1     -10.129  17.888  67.171  1.00  0.00    -0.340 A  
HETATM   13  C   UNL     1     -10.501  19.069  66.511  1.00  0.00    -0.522 A  
HETATM   14  C   UNL     1      -9.558  20.042  66.186  1.00  0.00    -0.476 A  
HETATM   15  C   UNL     1      -8.223  19.841  66.493  1.00  0.00    -0.363 A  
HETATM   16  C   UNL     1      -7.835  18.682  67.161  1.00  0.00    -0.241 A  
HETATM   17  C   UNL     1      -8.778  17.715  67.549  1.00  0.00    -0.234 A  
BRANCH  17  18
HETATM   18  O   UNL     1      -8.436  16.599  68.290  1.00  0.00    -0.189 OA 
BRANCH  18  19
HETATM   19  C   UNL     1      -7.507  16.859  69.352  1.00  0.00    -0.000 C  
BRANCH  19  20
HETATM   20  C   UNL     1      -6.922  15.583  69.878  1.00  0.00    -0.073 C  
HETATM   21  C   UNL     1      -7.028  14.406  69.243  1.00  0.00    -0.129 C  
ENDBRANCH  19  20
ENDBRANCH  18  19
ENDBRANCH  17  18
ENDBRANCH  11  12
ENDBRANCH  10  11
ENDBRANCH   7  10
ENDBRANCH   6   7
ENDBRANCH   4   6
ENDBRANCH   2   4
TORSDOF 9
ENDMDL
MODEL      205
REMARK 921   NORMALIZED FREE ENERGY PREDICTED BY IDOCK:   -3.49 KCAL/MOL
REMARK 922        TOTAL FREE ENERGY PREDICTED BY IDOCK:   -6.11 KCAL/MOL
REMARK 923 INTER-LIGAND FREE ENERGY PREDICTED BY IDOCK:   -5.57 KCAL/MOL
REMARK 924 INTRA-LIGAND FREE ENERGY PREDICTED BY IDOCK:   -0.54 KCAL/MOL
REMARK 927      BINDING AFFINITY PREDICTED BY RF-SCORE:    0.00 PKD
ROOT
HETATM    1  C   UNL     1     -10.062   3.604  64.211  1.00  0.00    -0.212 C  
HETATM    2  C   UNL     1      -9.309   3.569  65.542  1.00  0.00    -0.158 C  
HETATM    3  C   UNL     1      -8.038   4.419  65.429  1.00  0.00    -0.102 C  
ENDROOT
BRANCH   2   4
HETATM    4  N   UNL     1     -10.203   4.048  66.602  1.00  0.00    -0.292 NA 
HETATM    5  H   UNL     1     -10.574   3.270  67.147  1.00  0.00     0.000 HD 
BRANCH   4   6
HETATM    6  C   UNL     1      -9.568   5.046  67.475  1.00  0.00    -0.145 C  
BRANCH   6   7
HETATM    7  C   UNL     1     -10.359   6.371  67.511  1.00  0.00    -0.196 C  
HETATM    8  O   UNL     1     -11.486   6.306  66.631  1.00  0.00    -0.693 OA 
HETATM    9  H   UNL     1     -11.973   7.122  66.654  1.00  0.00     0.000 HD 
BRANCH   7  10
HETATM   10  C   UNL     1     -10.821   6.664  68.953  1.00  0.00    -0.277 C  
BRANCH  10  11
HETATM   11  O   UNL     1     -10.443   7.969  69.413  1.00  0.00    -0.219 OA 
BRANCH  11  12
HETATM   12  C   UNL     1     -11.280   8.600  70.305  1.00  0.00    -0.184 A  
HETATM   13  C   UNL     1     -11.913   7.931  71.363  1.00  0.00    -0.331 A  
HETATM   14  C   UNL     1     -12.781   8.600  72.224  1.00  0.00    -0.450 A  
HETATM   15  C   UNL     1     -13.051   9.943  72.027  1.00  0.00    -0.545 A  
HETATM   16  C   UNL     1     -12.422  10.629  70.991  1.00  0.00    -0.515 A  
HETATM   17  C   UNL     1     -11.499   9.987  70.147  1.00  0.00    -0.277 A  
BRANCH  17  18
HETATM   18  O   UNL     1     -10.793  10.662  69.168  1.00  0.00    -0.205 OA 
BRANCH  18  19
HETATM   19  C   UNL     1     -11.608  11.185  68.109  1.00  0.00    -0.280 C  
BRANCH  19  20
HETATM   20  C   UNL     1     -10.799  12.041  67.182  1.00  0.00    -0.297 C  
HETATM   21  C   UNL     1      -9.467  11.940  67.058  1.00  0.00    -0.192 C  
ENDBRANCH  19  20
ENDBRANCH  18  19
ENDBRANCH  17  18
ENDBRANCH  11  12
ENDBRANCH  10  11
ENDBRANCH   7  10
ENDBRANCH   6   7
ENDBRANCH   4   6
ENDBRANCH   2   4
TORSDOF 9
ENDMDL
MODEL      206
REMARK 921   NORMALIZED FREE ENERGY PREDICTED BY IDOCK:   -3.49 KCAL/MOL
REMARK 922        TOTAL FREE ENERGY PREDICTED BY IDOCK:   -6.10 KCAL/MOL
REMARK 923 INTER-LIGAND FREE ENERGY PREDICTED BY IDOCK:   -5.51 KCAL/MOL
REMARK 924 INTRA-LIGAND FREE ENERGY PREDICTED BY IDOCK:   -0.59 KCAL/MOL
REMARK 927      BINDING AFFINITY PREDICTED BY RF-SCORE:    0.00 PKD
ROOT
HETATM    1  C   UNL     1     -10.940  15.820  64.937  1.00  0.00    -0.443 C  
HETATM    2  C   UNL     1      -9.774  15.863  65.926  1.00  0.00    -0.351 C  
HETATM    3  C   UNL     1      -9.479  17.320  66.301  1.00  0.00    -0.256 C  
ENDROOT
BRANCH   2   4
HETATM    4  N   UNL     1     -10.120  15.049  67.097  1.00  0.00    -0.238 NA 
HETATM    5  H   UNL     1     -10.908  14.433  66.894  1.00  0.00     0.000 HD 
BRANCH   4   6
HETATM    6  C   UNL     1      -8.978  14.287  67.620  1.00  0.00    -0.194 C  
BRANCH   6   7
HETATM    7  C   UNL     1      -9.036  12.800  67.212  1.00  0.00    -0.200 C  
HETATM    8  O   UNL     1      -7.848  12.427  66.506  1.00  0.00    -0.385 OA 
HETATM    9  H   UNL     1      -7.885  11.511  66.255  1.00  0.00     0.000 HD 
BRANCH   7  10
HETATM   10  C   UNL     1      -9.212  11.921  68.468  1.00  0.00    -0.134 C  
BRANCH  10  11
HETATM   11  O   UNL     1     -10.149  10.851  68.281  1.00  0.00    -0.164 OA 
BRANCH  11  12
HETATM   12  C   UNL     1     -10.818  10.386  69.390  1.00  0.00    -0.248 A  
HETATM   13  C   UNL     1     -11.976  10.996  69.895  1.00  0.00    -0.427 A  
HETATM   14  C   UNL     1     -12.604  10.514  71.042  1.00  0.00    -0.499 A  
HETATM   15  C   UNL     1     -12.071   9.431  71.719  1.00  0.00    -0.454 A  
HETATM   16  C   UNL     1     -10.930   8.802  71.226  1.00  0.00    -0.345 A  
HETATM   17  C   UNL     1     -10.315   9.236  70.039  1.00  0.00    -0.217 A  
BRANCH  17  18
HETATM   18  O   UNL     1      -9.235   8.578  69.478  1.00  0.00    -0.149 OA 
BRANCH  18  19
HETATM   19  C   UNL     1      -9.528   7.252  69.016  1.00  0.00    -0.147 C  
BRANCH  19  20
HETATM   20  C   UNL     1      -9.856   7.253  67.554  1.00  0.00    -0.198 C  
HETATM   21  C   UNL     1     -10.795   6.466  67.008  1.00  0.00    -0.464 C  
ENDBRANCH  19  20
ENDBRANCH  18  19
ENDBRANCH  17  18
ENDBRANCH  11  12
ENDBRANCH  10  11
ENDBRANCH   7  10
ENDBRANCH   6   7
ENDBRANCH   4   6
ENDBRANCH   2   4
TORSDOF 9
ENDMDL
MODEL      207
REMARK 921   NORMALIZED FREE ENERGY PREDICTED BY IDOCK:   -3.49 KCAL/MOL
REMARK 922        TOTAL FREE ENERGY PREDICTED BY IDOCK:   -6.09 KCAL/MOL
REMARK 923 INTER-LIGAND FREE ENERGY PREDICTED BY IDOCK:   -4.93 KCAL/MOL
REMARK 924 INTRA-LIGAND FREE ENERGY PREDICTED BY IDOCK:   -1.16 KCAL/MOL
REMARK 927      BINDING AFFINITY PREDICTED BY RF-SCORE:    0.00 PKD
ROOT
HETATM    1  C   UNL     1     -10.643  16.759  65.643  1.00  0.00    -0.258 C  
HETATM    2  C   UNL     1      -9.853  17.899  66.288  1.00  0.00    -0.301 C  
HETATM    3  C   UNL     1     -10.487  19.240  65.899  1.00  0.00    -0.534 C  
ENDROOT
BRANCH   2   4
HETATM    4  N   UNL     1      -9.835  17.696  67.741  1.00  0.00    -0.282 NA 
HETATM    5  H   UNL     1      -9.907  18.585  68.235  1.00  0.00     0.000 HD 
BRANCH   4   6
HETATM    6  C   UNL     1     -10.866  16.755  68.198  1.00  0.00    -0.353 C  
BRANCH   6   7
HETATM    7  C   UNL     1     -10.439  16.001  69.475  1.00  0.00    -0.286 C  
HETATM    8  O   UNL     1     -11.555  15.309  70.046  1.00  0.00    -0.260 OA 
HETATM    9  H   UNL     1     -11.292  14.845  70.832  1.00  0.00     0.000 HD 
BRANCH   7  10
HETATM   10  C   UNL     1      -9.308  15.007  69.141  1.00  0.00    -0.189 C  
BRANCH  10  11
HETATM   11  O   UNL     1      -9.203  14.721  67.739  1.00  0.00    -0.188 OA 
BRANCH  11  12
HETATM   12  C   UNL     1      -8.673  13.504  67.373  1.00  0.00    -0.220 A  
HETATM   13  C   UNL     1      -7.402  13.071  67.779  1.00  0.00    -0.139 A  
HETATM   14  C   UNL     1      -6.887  11.847  67.357  1.00  0.00    -0.130 A  
HETATM   15  C   UNL     1      -7.623  11.046  66.502  1.00  0.00    -0.146 A  
HETATM   16  C   UNL     1      -8.893  11.451  66.097  1.00  0.00    -0.186 A  
HETATM   17  C   UNL     1      -9.454  12.654  66.558  1.00  0.00    -0.247 A  
BRANCH  17  18
HETATM   18  O   UNL     1     -10.745  13.039  66.245  1.00  0.00    -0.272 OA 
BRANCH  18  19
HETATM   19  C   UNL     1     -11.761  12.175  66.772  1.00  0.00    -0.305 C  
BRANCH  19  20
HETATM   20  C   UNL     1     -12.005  12.456  68.224  1.00  0.00    -0.270 C  
HETATM   21  C   UNL     1     -11.510  11.698  69.214  1.00  0.00    -0.364 C  
ENDBRANCH  19  20
ENDBRANCH  18  19
ENDBRANCH  17  18
ENDBRANCH  11  12
ENDBRANCH  10  11
ENDBRANCH   7  10
ENDBRANCH   6   7
ENDBRANCH   4   6
ENDBRANCH   2   4
TORSDOF 9
ENDMDL
MODEL      208
REMARK 921   NORMALIZED FREE ENERGY PREDICTED BY IDOCK:   -3.48 KCAL/MOL
REMARK 922        TOTAL FREE ENERGY PREDICTED BY IDOCK:   -6.08 KCAL/MOL
REMARK 923 INTER-LIGAND FREE ENERGY PREDICTED BY IDOCK:   -5.48 KCAL/MOL
REMARK 924 INTRA-LIGAND FREE ENERGY PREDICTED BY IDOCK:   -0.60 KCAL/MOL
REMARK 927      BINDING AFFINITY PREDICTED BY RF-SCORE:    0.00 PKD
ROOT
HETATM    1  C   UNL     1     -11.050   5.880  70.672  1.00  0.00    -0.335 C  
HETATM    2  C   UNL     1     -11.730   5.485  71.985  1.00  0.00     0.103 C  
HETATM    3  C   UNL     1     -10.670   5.342  73.083  1.00  0.00    -0.309 C  
ENDROOT
BRANCH   2   4
HETATM    4  N   UNL     1     -12.737   6.499  72.316  1.00  0.00    -0.553 NA 
HETATM    5  H   UNL     1     -12.497   6.983  73.181  1.00  0.00     0.000 HD 
BRANCH   4   6
HETATM    6  C   UNL     1     -12.965   7.455  71.224  1.00  0.00    -0.310 C  
BRANCH   6   7
HETATM    7  C   UNL     1     -13.580   8.777  71.729  1.00  0.00    -0.410 C  
HETATM    8  O   UNL     1     -13.978   8.654  73.098  1.00  0.00    -0.988 OA 
HETATM    9  H   UNL     1     -14.357   9.469  73.409  1.00  0.00     0.000 HD 
BRANCH   7  10
HETATM   10  C   UNL     1     -12.559   9.923  71.569  1.00  0.00    -0.416 C  
BRANCH  10  11
HETATM   11  O   UNL     1     -11.631   9.706  70.497  1.00  0.00    -0.264 OA 
BRANCH  11  12
HETATM   12  C   UNL     1     -10.341   9.359  70.829  1.00  0.00    -0.298 A  
HETATM   13  C   UNL     1      -9.981   8.882  72.099  1.00  0.00    -0.274 A  
HETATM   14  C   UNL     1      -8.657   8.575  72.406  1.00  0.00    -0.222 A  
HETATM   15  C   UNL     1      -7.666   8.763  71.458  1.00  0.00    -0.139 A  
HETATM   16  C   UNL     1      -8.004   9.222  70.187  1.00  0.00    -0.143 A  
HETATM   17  C   UNL     1      -9.341   9.482  69.839  1.00  0.00    -0.223 A  
BRANCH  17  18
HETATM   18  O   UNL     1      -9.717   9.853  68.560  1.00  0.00    -0.149 OA 
BRANCH  18  19
HETATM   19  C   UNL     1      -8.619  10.101  67.672  1.00  0.00    -0.118 C  
BRANCH  19  20
HETATM   20  C   UNL     1      -9.077  10.124  66.245  1.00  0.00    -0.180 C  
HETATM   21  C   UNL     1      -9.422  11.249  65.600  1.00  0.00    -0.254 C  
ENDBRANCH  19  20
ENDBRANCH  18  19
ENDBRANCH  17  18
ENDBRANCH  11  12
ENDBRANCH  10  11
ENDBRANCH   7  10
ENDBRANCH   6   7
ENDBRANCH   4   6
ENDBRANCH   2   4
TORSDOF 9
ENDMDL
MODEL      209
REMARK 921   NORMALIZED FREE ENERGY PREDICTED BY IDOCK:   -3.48 KCAL/MOL
REMARK 922        TOTAL FREE ENERGY PREDICTED BY IDOCK:   -6.08 KCAL/MOL
REMARK 923 INTER-LIGAND FREE ENERGY PREDICTED BY IDOCK:   -5.24 KCAL/MOL
REMARK 924 INTRA-LIGAND FREE ENERGY PREDICTED BY IDOCK:   -0.84 KCAL/MOL
REMARK 927      BINDING AFFINITY PREDICTED BY RF-SCORE:    0.00 PKD
ROOT
HETATM    1  C   UNL     1      -8.815   7.320  68.996  1.00  0.00    -0.132 C  
HETATM    2  C   UNL     1     -10.144   6.998  69.683  1.00  0.00    -0.186 C  
HETATM    3  C   UNL     1      -9.918   6.874  71.194  1.00  0.00    -0.187 C  
ENDROOT
BRANCH   2   4
HETATM    4  N   UNL     1     -11.112   8.051  69.353  1.00  0.00    -0.439 NA 
HETATM    5  H   UNL     1     -11.401   8.556  70.190  1.00  0.00     0.000 HD 
BRANCH   4   6
HETATM    6  C   UNL     1     -10.619   8.976  68.323  1.00  0.00    -0.163 C  
BRANCH   6   7
HETATM    7  C   UNL     1     -10.882  10.450  68.694  1.00  0.00    -0.232 C  
HETATM    8  O   UNL     1     -10.411  10.726  70.018  1.00  0.00    -0.447 OA 
HETATM    9  H   UNL     1     -10.573  11.634  70.246  1.00  0.00     0.000 HD 
BRANCH   7  10
HETATM   10  C   UNL     1     -10.189  11.378  67.675  1.00  0.00    -0.180 C  
BRANCH  10  11
HETATM   11  O   UNL     1     -10.466  12.767  67.897  1.00  0.00    -0.211 OA 
BRANCH  11  12
HETATM   12  C   UNL     1      -9.456  13.668  67.647  1.00  0.00    -0.221 A  
HETATM   13  C   UNL     1      -8.172  13.548  68.198  1.00  0.00    -0.162 A  
HETATM   14  C   UNL     1      -7.186  14.502  67.949  1.00  0.00    -0.169 A  
HETATM   15  C   UNL     1      -7.475  15.604  67.164  1.00  0.00    -0.253 A  
HETATM   16  C   UNL     1      -8.740  15.735  66.595  1.00  0.00    -0.323 A  
HETATM   17  C   UNL     1      -9.729  14.756  66.787  1.00  0.00    -0.254 A  
BRANCH  17  18
HETATM   18  O   UNL     1     -10.963  14.814  66.164  1.00  0.00    -0.320 OA 
BRANCH  18  19
HETATM   19  C   UNL     1     -10.920  14.583  64.750  1.00  0.00    -0.391 C  
BRANCH  19  20
HETATM   20  C   UNL     1     -11.464  13.228  64.410  1.00  0.00    -0.416 C  
HETATM   21  C   UNL     1     -12.530  12.687  65.019  1.00  0.00    -0.556 C  
ENDBRANCH  19  20
ENDBRANCH  18  19
ENDBRANCH  17  18
ENDBRANCH  11  12
ENDBRANCH  10  11
ENDBRANCH   7  10
ENDBRANCH   6   7
ENDBRANCH   4   6
ENDBRANCH   2   4
TORSDOF 9
ENDMDL
MODEL      210
REMARK 921   NORMALIZED FREE ENERGY PREDICTED BY IDOCK:   -3.48 KCAL/MOL
REMARK 922        TOTAL FREE ENERGY PREDICTED BY IDOCK:   -6.08 KCAL/MOL
REMARK 923 INTER-LIGAND FREE ENERGY PREDICTED BY IDOCK:   -5.28 KCAL/MOL
REMARK 924 INTRA-LIGAND FREE ENERGY PREDICTED BY IDOCK:   -0.79 KCAL/MOL
REMARK 927      BINDING AFFINITY PREDICTED BY RF-SCORE:    0.00 PKD
ROOT
HETATM    1  C   UNL     1     -12.024  13.728  68.442  1.00  0.00    -0.395 C  
HETATM    2  C   UNL     1     -11.784  13.639  69.950  1.00  0.00    -0.276 C  
HETATM    3  C   UNL     1     -12.866  14.438  70.685  1.00  0.00    -0.390 C  
ENDROOT
BRANCH   2   4
HETATM    4  N   UNL     1     -11.777  12.225  70.343  1.00  0.00    -0.534 NA 
HETATM    5  H   UNL     1     -10.875  11.960  70.738  1.00  0.00     0.000 HD 
BRANCH   4   6
HETATM    6  C   UNL     1     -12.874  11.883  71.259  1.00  0.00    -0.290 C  
BRANCH   6   7
HETATM    7  C   UNL     1     -12.682  10.493  71.899  1.00  0.00    -0.332 C  
HETATM    8  O   UNL     1     -13.903  10.045  72.499  1.00  0.00    -0.596 OA 
HETATM    9  H   UNL     1     -13.785   9.188  72.894  1.00  0.00     0.000 HD 
BRANCH   7  10
HETATM   10  C   UNL     1     -12.210   9.485  70.831  1.00  0.00    -0.254 C  
BRANCH  10  11
HETATM   11  O   UNL     1     -10.901   8.960  71.091  1.00  0.00    -0.240 OA 
BRANCH  11  12
HETATM   12  C   UNL     1     -10.802   7.631  71.437  1.00  0.00    -0.225 A  
HETATM   13  C   UNL     1     -11.430   7.088  72.568  1.00  0.00    -0.275 A  
HETATM   14  C   UNL     1     -11.277   5.744  72.904  1.00  0.00    -0.319 A  
HETATM   15  C   UNL     1     -10.473   4.926  72.129  1.00  0.00    -0.257 A  
HETATM   16  C   UNL     1      -9.852   5.442  70.994  1.00  0.00    -0.246 A  
HETATM   17  C   UNL     1     -10.041   6.779  70.606  1.00  0.00    -0.187 A  
BRANCH  17  18
HETATM   18  O   UNL     1      -9.510   7.296  69.437  1.00  0.00    -0.155 OA 
BRANCH  18  19
HETATM   19  C   UNL     1      -8.100   7.085  69.287  1.00  0.00    -0.120 C  
BRANCH  19  20
HETATM   20  C   UNL     1      -7.319   8.108  70.055  1.00  0.00    -0.061 C  
HETATM   21  C   UNL     1      -7.652   9.407  70.100  1.00  0.00    -0.132 C  
ENDBRANCH  19  20
ENDBRANCH  18  19
ENDBRANCH  17  18
ENDBRANCH  11  12
ENDBRANCH  10  11
ENDBRANCH   7  10
ENDBRANCH   6   7
ENDBRANCH   4   6
ENDBRANCH   2   4
TORSDOF 9
ENDMDL
MODEL      211
REMARK 921   NORMALIZED FREE ENERGY PREDICTED BY IDOCK:   -3.48 KCAL/MOL
REMARK 922        TOTAL FREE ENERGY PREDICTED BY IDOCK:   -6.08 KCAL/MOL
REMARK 923 INTER-LIGAND FREE ENERGY PREDICTED BY IDOCK:   -5.87 KCAL/MOL
REMARK 924 INTRA-LIGAND FREE ENERGY PREDICTED BY IDOCK:   -0.21 KCAL/MOL
REMARK 927      BINDING AFFINITY PREDICTED BY RF-SCORE:    0.00 PKD
ROOT
HETATM    1  C   UNL     1      -8.432  16.561  68.234  1.00  0.00    -0.199 C  
HETATM    2  C   UNL     1      -8.676  15.550  67.111  1.00  0.00    -0.211 C  
HETATM    3  C   UNL     1      -7.689  14.385  67.253  1.00  0.00    -0.164 C  
ENDROOT
BRANCH   2   4
HETATM    4  N   UNL     1     -10.073  15.104  67.175  1.00  0.00    -0.238 NA 
HETATM    5  H   UNL     1     -10.558  15.536  67.961  1.00  0.00     0.000 HD 
BRANCH   4   6
HETATM    6  C   UNL     1     -10.800  15.327  65.919  1.00  0.00    -0.342 C  
BRANCH   6   7
HETATM    7  C   UNL     1     -10.877  14.049  65.058  1.00  0.00    -0.392 C  
HETATM    8  O   UNL     1      -9.573  13.669  64.607  1.00  0.00    -0.447 OA 
HETATM    9  H   UNL     1      -9.621  12.882  64.077  1.00  0.00     0.000 HD 
BRANCH   7  10
HETATM   10  C   UNL     1     -11.516  12.907  65.874  1.00  0.00    -0.346 C  
BRANCH  10  11
HETATM   11  O   UNL     1     -11.509  13.151  67.287  1.00  0.00    -0.296 OA 
BRANCH  11  12
HETATM   12  C   UNL     1     -11.505  12.058  68.125  1.00  0.00    -0.322 A  
HETATM   13  C   UNL     1     -11.118  10.776  67.707  1.00  0.00    -0.381 A  
HETATM   14  C   UNL     1     -11.161   9.689  68.577  1.00  0.00    -0.091 A  
HETATM   15  C   UNL     1     -11.616   9.858  69.872  1.00  0.00    -0.184 A  
HETATM   16  C   UNL     1     -11.992  11.125  70.312  1.00  0.00    -0.460 A  
HETATM   17  C   UNL     1     -11.901  12.246  69.468  1.00  0.00    -0.315 A  
BRANCH  17  18
HETATM   18  O   UNL     1     -12.182  13.529  69.903  1.00  0.00    -0.322 OA 
BRANCH  18  19
HETATM   19  C   UNL     1     -12.388  13.639  71.318  1.00  0.00    -0.271 C  
BRANCH  19  20
HETATM   20  C   UNL     1     -13.140  14.891  71.655  1.00  0.00    -0.424 C  
HETATM   21  C   UNL     1     -12.543  16.026  72.046  1.00  0.00    -0.463 C  
ENDBRANCH  19  20
ENDBRANCH  18  19
ENDBRANCH  17  18
ENDBRANCH  11  12
ENDBRANCH  10  11
ENDBRANCH   7  10
ENDBRANCH   6   7
ENDBRANCH   4   6
ENDBRANCH   2   4
TORSDOF 9
ENDMDL
MODEL      212
REMARK 921   NORMALIZED FREE ENERGY PREDICTED BY IDOCK:   -3.47 KCAL/MOL
REMARK 922        TOTAL FREE ENERGY PREDICTED BY IDOCK:   -6.07 KCAL/MOL
REMARK 923 INTER-LIGAND FREE ENERGY PREDICTED BY IDOCK:   -5.80 KCAL/MOL
REMARK 924 INTRA-LIGAND FREE ENERGY PREDICTED BY IDOCK:   -0.27 KCAL/MOL
REMARK 927      BINDING AFFINITY PREDICTED BY RF-SCORE:    0.00 PKD
ROOT
HETATM    1  C   UNL     1      -9.095   7.404  66.833  1.00  0.00    -0.164 C  
HETATM    2  C   UNL     1     -10.589   7.558  67.120  1.00  0.00    -0.345 C  
HETATM    3  C   UNL     1     -11.083   6.343  67.914  1.00  0.00    -0.370 C  
ENDROOT
BRANCH   2   4
HETATM    4  N   UNL     1     -10.802   8.817  67.845  1.00  0.00    -0.488 NA 
HETATM    5  H   UNL     1     -11.719   9.209  67.634  1.00  0.00     0.000 HD 
BRANCH   4   6
HETATM    6  C   UNL     1     -10.610   8.678  69.295  1.00  0.00    -0.192 C  
BRANCH   6   7
HETATM    7  C   UNL     1      -9.888   9.899  69.904  1.00  0.00    -0.245 C  
HETATM    8  O   UNL     1      -8.640   9.505  70.484  1.00  0.00    -0.213 OA 
HETATM    9  H   UNL     1      -8.195  10.256  70.859  1.00  0.00     0.000 HD 
BRANCH   7  10
HETATM   10  C   UNL     1      -9.658  10.967  68.815  1.00  0.00    -0.189 C  
BRANCH  10  11
HETATM   11  O   UNL     1     -10.868  11.609  68.390  1.00  0.00    -0.196 OA 
BRANCH  11  12
HETATM   12  C   UNL     1     -11.353  12.638  69.166  1.00  0.00    -0.282 A  
HETATM   13  C   UNL     1     -12.182  12.430  70.278  1.00  0.00    -0.345 A  
HETATM   14  C   UNL     1     -12.681  13.501  71.018  1.00  0.00    -0.399 A  
HETATM   15  C   UNL     1     -12.379  14.799  70.643  1.00  0.00    -0.401 A  
HETATM   16  C   UNL     1     -11.545  15.026  69.551  1.00  0.00    -0.337 A  
HETATM   17  C   UNL     1     -10.985  13.959  68.828  1.00  0.00    -0.263 A  
BRANCH  17  18
HETATM   18  O   UNL     1     -10.085  14.153  67.795  1.00  0.00    -0.233 OA 
BRANCH  18  19
HETATM   19  C   UNL     1     -10.545  13.691  66.518  1.00  0.00    -0.282 C  
BRANCH  19  20
HETATM   20  C   UNL     1     -11.854  14.327  66.157  1.00  0.00    -0.413 C  
HETATM   21  C   UNL     1     -12.834  13.679  65.509  1.00  0.00    -0.443 C  
ENDBRANCH  19  20
ENDBRANCH  18  19
ENDBRANCH  17  18
ENDBRANCH  11  12
ENDBRANCH  10  11
ENDBRANCH   7  10
ENDBRANCH   6   7
ENDBRANCH   4   6
ENDBRANCH   2   4
TORSDOF 9
ENDMDL
MODEL      213
REMARK 921   NORMALIZED FREE ENERGY PREDICTED BY IDOCK:   -3.47 KCAL/MOL
REMARK 922        TOTAL FREE ENERGY PREDICTED BY IDOCK:   -6.07 KCAL/MOL
REMARK 923 INTER-LIGAND FREE ENERGY PREDICTED BY IDOCK:   -5.23 KCAL/MOL
REMARK 924 INTRA-LIGAND FREE ENERGY PREDICTED BY IDOCK:   -0.83 KCAL/MOL
REMARK 927      BINDING AFFINITY PREDICTED BY RF-SCORE:    0.00 PKD
ROOT
HETATM    1  C   UNL     1     -12.165  14.301  64.798  1.00  0.00    -0.456 C  
HETATM    2  C   UNL     1     -12.603  12.839  64.904  1.00  0.00    -0.470 C  
HETATM    3  C   UNL     1     -12.298  12.120  63.585  1.00  0.00    -0.673 C  
ENDROOT
BRANCH   2   4
HETATM    4  N   UNL     1     -11.913  12.222  66.043  1.00  0.00    -0.609 NA 
HETATM    5  H   UNL     1     -10.988  11.888  65.772  1.00  0.00     0.000 HD 
BRANCH   4   6
HETATM    6  C   UNL     1     -11.831  13.111  67.210  1.00  0.00    -0.367 C  
BRANCH   6   7
HETATM    7  C   UNL     1     -10.596  12.809  68.084  1.00  0.00    -0.229 C  
HETATM    8  O   UNL     1     -10.226  13.964  68.845  1.00  0.00    -0.335 OA 
HETATM    9  H   UNL     1      -9.465  13.777  69.383  1.00  0.00     0.000 HD 
BRANCH   7  10
HETATM   10  C   UNL     1     -10.898  11.623  69.024  1.00  0.00    -0.203 C  
BRANCH  10  11
HETATM   11  O   UNL     1      -9.789  10.727  69.175  1.00  0.00    -0.209 OA 
BRANCH  11  12
HETATM   12  C   UNL     1      -9.546   9.832  68.157  1.00  0.00    -0.143 A  
HETATM   13  C   UNL     1     -10.507   8.920  67.696  1.00  0.00    -0.320 A  
HETATM   14  C   UNL     1     -10.210   8.007  66.687  1.00  0.00    -0.315 A  
HETATM   15  C   UNL     1      -8.940   7.972  66.138  1.00  0.00    -0.215 A  
HETATM   16  C   UNL     1      -7.975   8.878  66.572  1.00  0.00    -0.103 A  
HETATM   17  C   UNL     1      -8.271   9.845  67.548  1.00  0.00    -0.114 A  
BRANCH  17  18
HETATM   18  O   UNL     1      -7.362  10.814  67.934  1.00  0.00    -0.086 OA 
BRANCH  18  19
HETATM   19  C   UNL     1      -7.315  11.956  67.068  1.00  0.00    -0.118 C  
BRANCH  19  20
HETATM   20  C   UNL     1      -6.518  13.065  67.686  1.00  0.00    -0.162 C  
HETATM   21  C   UNL     1      -6.675  13.467  68.956  1.00  0.00    -0.108 C  
ENDBRANCH  19  20
ENDBRANCH  18  19
ENDBRANCH  17  18
ENDBRANCH  11  12
ENDBRANCH  10  11
ENDBRANCH   7  10
ENDBRANCH   6   7
ENDBRANCH   4   6
ENDBRANCH   2   4
TORSDOF 9
ENDMDL
MODEL      214
REMARK 921   NORMALIZED FREE ENERGY PREDICTED BY IDOCK:   -3.46 KCAL/MOL
REMARK 922        TOTAL FREE ENERGY PREDICTED BY IDOCK:   -6.06 KCAL/MOL
REMARK 923 INTER-LIGAND FREE ENERGY PREDICTED BY IDOCK:   -6.08 KCAL/MOL
REMARK 924 INTRA-LIGAND FREE ENERGY PREDICTED BY IDOCK:    0.02 KCAL/MOL
REMARK 927      BINDING AFFINITY PREDICTED BY RF-SCORE:    0.00 PKD
ROOT
HETATM    1  C   UNL     1     -10.463  19.961  67.443  1.00  0.00    -0.542 C  
HETATM    2  C   UNL     1      -9.695  18.725  67.914  1.00  0.00    -0.329 C  
HETATM    3  C   UNL     1      -8.363  19.161  68.536  1.00  0.00    -0.399 C  
ENDROOT
BRANCH   2   4
HETATM    4  N   UNL     1     -10.533  17.983  68.864  1.00  0.00    -0.404 NA 
HETATM    5  H   UNL     1     -11.520  18.063  68.620  1.00  0.00     0.000 HD 
BRANCH   4   6
HETATM    6  C   UNL     1     -10.135  16.575  68.996  1.00  0.00    -0.279 C  
BRANCH   6   7
HETATM    7  C   UNL     1     -10.668  15.711  67.834  1.00  0.00    -0.294 C  
HETATM    8  O   UNL     1     -10.597  16.431  66.600  1.00  0.00    -0.302 OA 
HETATM    9  H   UNL     1     -10.925  15.899  65.884  1.00  0.00     0.000 HD 
BRANCH   7  10
HETATM   10  C   UNL     1      -9.854  14.404  67.739  1.00  0.00    -0.221 C  
BRANCH  10  11
HETATM   11  O   UNL     1     -10.419  13.330  68.505  1.00  0.00    -0.247 OA 
BRANCH  11  12
HETATM   12  C   UNL     1     -10.267  12.051  68.021  1.00  0.00    -0.198 A  
HETATM   13  C   UNL     1      -9.320  11.711  67.043  1.00  0.00    -0.186 A  
HETATM   14  C   UNL     1      -9.222  10.410  66.553  1.00  0.00    -0.184 A  
HETATM   15  C   UNL     1     -10.084   9.431  67.016  1.00  0.00    -0.304 A  
HETATM   16  C   UNL     1     -11.021   9.744  67.998  1.00  0.00    -0.236 A  
HETATM   17  C   UNL     1     -11.098  11.036  68.546  1.00  0.00    -0.243 A  
BRANCH  17  18
HETATM   18  O   UNL     1     -11.957  11.353  69.583  1.00  0.00    -0.308 OA 
BRANCH  18  19
HETATM   19  C   UNL     1     -12.076  10.331  70.582  1.00  0.00    -0.338 C  
BRANCH  19  20
HETATM   20  C   UNL     1     -13.026  10.747  71.665  1.00  0.00    -0.581 C  
HETATM   21  C   UNL     1     -13.273  12.028  71.976  1.00  0.00    -0.481 C  
ENDBRANCH  19  20
ENDBRANCH  18  19
ENDBRANCH  17  18
ENDBRANCH  11  12
ENDBRANCH  10  11
ENDBRANCH   7  10
ENDBRANCH   6   7
ENDBRANCH   4   6
ENDBRANCH   2   4
TORSDOF 9
ENDMDL
MODEL      215
REMARK 921   NORMALIZED FREE ENERGY PREDICTED BY IDOCK:   -3.46 KCAL/MOL
REMARK 922        TOTAL FREE ENERGY PREDICTED BY IDOCK:   -6.05 KCAL/MOL
REMARK 923 INTER-LIGAND FREE ENERGY PREDICTED BY IDOCK:   -5.09 KCAL/MOL
REMARK 924 INTRA-LIGAND FREE ENERGY PREDICTED BY IDOCK:   -0.96 KCAL/MOL
REMARK 927      BINDING AFFINITY PREDICTED BY RF-SCORE:    0.00 PKD
ROOT
HETATM    1  C   UNL     1     -10.260   5.704  71.501  1.00  0.00    -0.263 C  
HETATM    2  C   UNL     1     -11.390   5.184  72.392  1.00  0.00    -0.058 C  
HETATM    3  C   UNL     1     -10.847   4.925  73.802  1.00  0.00    -0.376 C  
ENDROOT
BRANCH   2   4
HETATM    4  N   UNL     1     -12.481   6.166  72.391  1.00  0.00    -0.524 NA 
HETATM    5  H   UNL     1     -12.465   6.730  73.240  1.00  0.00     0.000 HD 
BRANCH   4   6
HETATM    6  C   UNL     1     -12.480   7.016  71.193  1.00  0.00    -0.362 C  
BRANCH   6   7
HETATM    7  C   UNL     1     -12.740   8.498  71.534  1.00  0.00    -0.313 C  
HETATM    8  O   UNL     1     -13.674   8.608  72.613  1.00  0.00    -0.636 OA 
HETATM    9  H   UNL     1     -13.834   9.521  72.823  1.00  0.00     0.000 HD 
BRANCH   7  10
HETATM   10  C   UNL     1     -11.412   9.191  71.902  1.00  0.00    -0.353 C  
BRANCH  10  11
HETATM   11  O   UNL     1     -10.857   9.956  70.823  1.00  0.00    -0.309 OA 
BRANCH  11  12
HETATM   12  C   UNL     1     -10.101   9.288  69.888  1.00  0.00    -0.209 A  
HETATM   13  C   UNL     1     -10.571   8.981  68.602  1.00  0.00    -0.194 A  
HETATM   14  C   UNL     1      -9.786   8.271  67.696  1.00  0.00    -0.218 A  
HETATM   15  C   UNL     1      -8.527   7.834  68.067  1.00  0.00    -0.123 A  
HETATM   16  C   UNL     1      -8.035   8.140  69.334  1.00  0.00    -0.114 A  
HETATM   17  C   UNL     1      -8.788   8.904  70.242  1.00  0.00    -0.175 A  
BRANCH  17  18
HETATM   18  O   UNL     1      -8.291   9.299  71.471  1.00  0.00    -0.323 OA 
BRANCH  18  19
HETATM   19  C   UNL     1      -7.420   8.342  72.089  1.00  0.00    -0.118 C  
BRANCH  19  20
HETATM   20  C   UNL     1      -7.530   8.400  73.582  1.00  0.00    -0.140 C  
HETATM   21  C   UNL     1      -8.337   7.598  74.293  1.00  0.00    -0.278 C  
ENDBRANCH  19  20
ENDBRANCH  18  19
ENDBRANCH  17  18
ENDBRANCH  11  12
ENDBRANCH  10  11
ENDBRANCH   7  10
ENDBRANCH   6   7
ENDBRANCH   4   6
ENDBRANCH   2   4
TORSDOF 9
ENDMDL
MODEL      216
REMARK 921   NORMALIZED FREE ENERGY PREDICTED BY IDOCK:   -3.45 KCAL/MOL
REMARK 922        TOTAL FREE ENERGY PREDICTED BY IDOCK:   -6.04 KCAL/MOL
REMARK 923 INTER-LIGAND FREE ENERGY PREDICTED BY IDOCK:   -5.29 KCAL/MOL
REMARK 924 INTRA-LIGAND FREE ENERGY PREDICTED BY IDOCK:   -0.75 KCAL/MOL
REMARK 927      BINDING AFFINITY PREDICTED BY RF-SCORE:    0.00 PKD
ROOT
HETATM    1  C   UNL     1      -8.242   9.881  64.486  1.00  0.00    -0.162 C  
HETATM    2  C   UNL     1      -8.163   9.908  66.014  1.00  0.00    -0.119 C  
HETATM    3  C   UNL     1      -7.741  11.307  66.477  1.00  0.00    -0.125 C  
ENDROOT
BRANCH   2   4
HETATM    4  N   UNL     1      -9.468   9.514  66.559  1.00  0.00    -0.169 NA 
HETATM    5  H   UNL     1      -9.556   8.499  66.599  1.00  0.00     0.000 HD 
BRANCH   4   6
HETATM    6  C   UNL     1      -9.743  10.118  67.869  1.00  0.00    -0.146 C  
BRANCH   6   7
HETATM    7  C   UNL     1     -11.103   9.667  68.442  1.00  0.00    -0.037 C  
HETATM    8  O   UNL     1     -10.956   8.454  69.188  1.00  0.00    -0.423 OA 
HETATM    9  H   UNL     1     -11.794   8.176  69.540  1.00  0.00     0.000 HD 
BRANCH   7  10
HETATM   10  C   UNL     1     -11.688  10.779  69.338  1.00  0.00    -0.306 C  
BRANCH  10  11
HETATM   11  O   UNL     1     -12.086  11.944  68.604  1.00  0.00    -0.365 OA 
BRANCH  11  12
HETATM   12  C   UNL     1     -12.032  13.158  69.251  1.00  0.00    -0.292 A  
HETATM   13  C   UNL     1     -12.128  13.285  70.645  1.00  0.00    -0.361 A  
HETATM   14  C   UNL     1     -12.103  14.535  71.260  1.00  0.00    -0.419 A  
HETATM   15  C   UNL     1     -12.007  15.681  70.490  1.00  0.00    -0.417 A  
HETATM   16  C   UNL     1     -11.896  15.577  69.106  1.00  0.00    -0.373 A  
HETATM   17  C   UNL     1     -11.860  14.323  68.471  1.00  0.00    -0.347 A  
BRANCH  17  18
HETATM   18  O   UNL     1     -11.662  14.186  67.109  1.00  0.00    -0.361 OA 
BRANCH  18  19
HETATM   19  C   UNL     1     -10.693  15.090  66.561  1.00  0.00    -0.312 C  
BRANCH  19  20
HETATM   20  C   UNL     1      -9.299  14.605  66.819  1.00  0.00    -0.275 C  
HETATM   21  C   UNL     1      -8.229  15.414  66.842  1.00  0.00    -0.281 C  
ENDBRANCH  19  20
ENDBRANCH  18  19
ENDBRANCH  17  18
ENDBRANCH  11  12
ENDBRANCH  10  11
ENDBRANCH   7  10
ENDBRANCH   6   7
ENDBRANCH   4   6
ENDBRANCH   2   4
TORSDOF 9
ENDMDL
MODEL      217
REMARK 921   NORMALIZED FREE ENERGY PREDICTED BY IDOCK:   -3.45 KCAL/MOL
REMARK 922        TOTAL FREE ENERGY PREDICTED BY IDOCK:   -6.03 KCAL/MOL
REMARK 923 INTER-LIGAND FREE ENERGY PREDICTED BY IDOCK:   -5.18 KCAL/MOL
REMARK 924 INTRA-LIGAND FREE ENERGY PREDICTED BY IDOCK:   -0.85 KCAL/MOL
REMARK 927      BINDING AFFINITY PREDICTED BY RF-SCORE:    0.00 PKD
ROOT
HETATM    1  C   UNL     1      -8.692  17.951  67.459  1.00  0.00    -0.243 C  
HETATM    2  C   UNL     1      -9.970  17.642  66.677  1.00  0.00    -0.328 C  
HETATM    3  C   UNL     1     -10.487  18.927  66.020  1.00  0.00    -0.507 C  
ENDROOT
BRANCH   2   4
HETATM    4  N   UNL     1      -9.677  16.595  65.691  1.00  0.00    -0.548 NA 
HETATM    5  H   UNL     1      -9.150  15.832  66.115  1.00  0.00     0.000 HD 
BRANCH   4   6
HETATM    6  C   UNL     1     -10.883  16.092  65.019  1.00  0.00    -0.363 C  
BRANCH   6   7
HETATM    7  C   UNL     1     -11.606  15.015  65.854  1.00  0.00    -0.165 C  
HETATM    8  O   UNL     1     -12.800  14.584  65.191  1.00  0.00    -0.519 OA 
HETATM    9  H   UNL     1     -13.245  13.920  65.705  1.00  0.00     0.000 HD 
BRANCH   7  10
HETATM   10  C   UNL     1     -10.663  13.816  66.090  1.00  0.00    -0.283 C  
BRANCH  10  11
HETATM   11  O   UNL     1     -10.111  13.785  67.413  1.00  0.00    -0.240 OA 
BRANCH  11  12
HETATM   12  C   UNL     1     -10.262  12.627  68.141  1.00  0.00    -0.240 A  
HETATM   13  C   UNL     1     -11.464  12.272  68.772  1.00  0.00    -0.360 A  
HETATM   14  C   UNL     1     -11.566  11.107  69.530  1.00  0.00    -0.392 A  
HETATM   15  C   UNL     1     -10.461  10.289  69.692  1.00  0.00    -0.286 A  
HETATM   16  C   UNL     1      -9.262  10.616  69.063  1.00  0.00    -0.177 A  
HETATM   17  C   UNL     1      -9.155  11.755  68.246  1.00  0.00    -0.187 A  
BRANCH  17  18
HETATM   18  O   UNL     1      -8.005  12.057  67.539  1.00  0.00    -0.140 OA 
BRANCH  18  19
HETATM   19  C   UNL     1      -7.325  10.913  67.005  1.00  0.00    -0.118 C  
BRANCH  19  20
HETATM   20  C   UNL     1      -5.914  10.845  67.505  1.00  0.00    -0.045 C  
HETATM   21  C   UNL     1      -5.557  11.184  68.753  1.00  0.00    -0.039 C  
ENDBRANCH  19  20
ENDBRANCH  18  19
ENDBRANCH  17  18
ENDBRANCH  11  12
ENDBRANCH  10  11
ENDBRANCH   7  10
ENDBRANCH   6   7
ENDBRANCH   4   6
ENDBRANCH   2   4
TORSDOF 9
ENDMDL
MODEL      218
REMARK 921   NORMALIZED FREE ENERGY PREDICTED BY IDOCK:   -3.44 KCAL/MOL
REMARK 922        TOTAL FREE ENERGY PREDICTED BY IDOCK:   -6.03 KCAL/MOL
REMARK 923 INTER-LIGAND FREE ENERGY PREDICTED BY IDOCK:   -5.45 KCAL/MOL
REMARK 924 INTRA-LIGAND FREE ENERGY PREDICTED BY IDOCK:   -0.57 KCAL/MOL
REMARK 927      BINDING AFFINITY PREDICTED BY RF-SCORE:    0.00 PKD
ROOT
HETATM    1  C   UNL     1      -7.067   6.957  72.492  1.00  0.00    -0.070 C  
HETATM    2  C   UNL     1      -8.514   7.171  72.045  1.00  0.00    -0.107 C  
HETATM    3  C   UNL     1      -9.247   8.024  73.088  1.00  0.00    -0.347 C  
ENDROOT
BRANCH   2   4
HETATM    4  N   UNL     1      -8.509   7.801  70.720  1.00  0.00    -0.120 NA 
HETATM    5  H   UNL     1      -8.603   7.102  69.983  1.00  0.00     0.000 HD 
BRANCH   4   6
HETATM    6  C   UNL     1      -9.529   8.850  70.583  1.00  0.00    -0.214 C  
BRANCH   6   7
HETATM    7  C   UNL     1      -9.247   9.781  69.386  1.00  0.00    -0.205 C  
HETATM    8  O   UNL     1      -8.560   9.071  68.349  1.00  0.00    -0.128 OA 
HETATM    9  H   UNL     1      -8.386   9.645  67.612  1.00  0.00     0.000 HD 
BRANCH   7  10
HETATM   10  C   UNL     1     -10.573  10.360  68.850  1.00  0.00    -0.216 C  
BRANCH  10  11
HETATM   11  O   UNL     1     -10.408  11.131  67.652  1.00  0.00    -0.182 OA 
BRANCH  11  12
HETATM   12  C   UNL     1     -10.699  12.475  67.712  1.00  0.00    -0.219 A  
HETATM   13  C   UNL     1     -10.065  13.355  68.602  1.00  0.00    -0.162 A  
HETATM   14  C   UNL     1     -10.413  14.704  68.656  1.00  0.00    -0.244 A  
HETATM   15  C   UNL     1     -11.419  15.191  67.839  1.00  0.00    -0.344 A  
HETATM   16  C   UNL     1     -12.052  14.337  66.939  1.00  0.00    -0.440 A  
HETATM   17  C   UNL     1     -11.675  12.987  66.828  1.00  0.00    -0.382 A  
BRANCH  17  18
HETATM   18  O   UNL     1     -12.223  12.138  65.883  1.00  0.00    -0.604 OA 
BRANCH  18  19
HETATM   19  C   UNL     1     -12.604  12.785  64.661  1.00  0.00    -0.419 C  
BRANCH  19  20
HETATM   20  C   UNL     1     -11.677  12.410  63.544  1.00  0.00    -0.592 C  
HETATM   21  C   UNL     1     -10.817  11.383  63.613  1.00  0.00    -0.459 C  
ENDBRANCH  19  20
ENDBRANCH  18  19
ENDBRANCH  17  18
ENDBRANCH  11  12
ENDBRANCH  10  11
ENDBRANCH   7  10
ENDBRANCH   6   7
ENDBRANCH   4   6
ENDBRANCH   2   4
TORSDOF 9
ENDMDL
MODEL      219
REMARK 921   NORMALIZED FREE ENERGY PREDICTED BY IDOCK:   -3.44 KCAL/MOL
REMARK 922        TOTAL FREE ENERGY PREDICTED BY IDOCK:   -6.02 KCAL/MOL
REMARK 923 INTER-LIGAND FREE ENERGY PREDICTED BY IDOCK:   -5.50 KCAL/MOL
REMARK 924 INTRA-LIGAND FREE ENERGY PREDICTED BY IDOCK:   -0.52 KCAL/MOL
REMARK 927      BINDING AFFINITY PREDICTED BY RF-SCORE:    0.00 PKD
ROOT
HETATM    1  C   UNL     1     -10.382  11.541  68.478  1.00  0.00    -0.224 C  
HETATM    2  C   UNL     1     -10.708  12.269  67.172  1.00  0.00    -0.233 C  
HETATM    3  C   UNL     1     -10.899  11.241  66.051  1.00  0.00    -0.273 C  
ENDROOT
BRANCH   2   4
HETATM    4  N   UNL     1     -11.906  13.092  67.378  1.00  0.00    -0.367 NA 
HETATM    5  H   UNL     1     -11.805  13.683  68.203  1.00  0.00     0.000 HD 
BRANCH   4   6
HETATM    6  C   UNL     1     -12.258  13.891  66.197  1.00  0.00    -0.464 C  
BRANCH   6   7
HETATM    7  C   UNL     1     -11.029  14.592  65.583  1.00  0.00    -0.335 C  
HETATM    8  O   UNL     1     -11.223  14.809  64.181  1.00  0.00    -0.601 OA 
HETATM    9  H   UNL     1     -10.466  15.241  63.803  1.00  0.00     0.000 HD 
BRANCH   7  10
HETATM   10  C   UNL     1     -10.778  15.933  66.302  1.00  0.00    -0.261 C  
BRANCH  10  11
HETATM   11  O   UNL     1      -9.392  16.170  66.588  1.00  0.00    -0.213 OA 
BRANCH  11  12
HETATM   12  C   UNL     1      -8.926  17.460  66.471  1.00  0.00    -0.260 A  
HETATM   13  C   UNL     1      -9.774  18.576  66.411  1.00  0.00    -0.347 A  
HETATM   14  C   UNL     1      -9.264  19.863  66.257  1.00  0.00    -0.457 A  
HETATM   15  C   UNL     1      -7.898  20.055  66.135  1.00  0.00    -0.316 A  
HETATM   16  C   UNL     1      -7.038  18.962  66.206  1.00  0.00    -0.268 A  
HETATM   17  C   UNL     1      -7.529  17.662  66.420  1.00  0.00    -0.288 A  
BRANCH  17  18
HETATM   18  O   UNL     1      -6.695  16.571  66.584  1.00  0.00    -0.200 OA 
BRANCH  18  19
HETATM   19  C   UNL     1      -5.963  16.569  67.817  1.00  0.00    -0.129 C  
BRANCH  19  20
HETATM   20  C   UNL     1      -5.466  15.193  68.145  1.00  0.00    -0.129 C  
HETATM   21  C   UNL     1      -6.259  14.112  68.175  1.00  0.00    -0.133 C  
ENDBRANCH  19  20
ENDBRANCH  18  19
ENDBRANCH  17  18
ENDBRANCH  11  12
ENDBRANCH  10  11
ENDBRANCH   7  10
ENDBRANCH   6   7
ENDBRANCH   4   6
ENDBRANCH   2   4
TORSDOF 9
ENDMDL
MODEL      220
REMARK 921   NORMALIZED FREE ENERGY PREDICTED BY IDOCK:   -3.44 KCAL/MOL
REMARK 922        TOTAL FREE ENERGY PREDICTED BY IDOCK:   -6.02 KCAL/MOL
REMARK 923 INTER-LIGAND FREE ENERGY PREDICTED BY IDOCK:   -5.38 KCAL/MOL
REMARK 924 INTRA-LIGAND FREE ENERGY PREDICTED BY IDOCK:   -0.64 KCAL/MOL
REMARK 927      BINDING AFFINITY PREDICTED BY RF-SCORE:    0.00 PKD
ROOT
HETATM    1  C   UNL     1     -13.388  13.712  72.251  1.00  0.00    -0.622 C  
HETATM    2  C   UNL     1     -12.781  14.296  70.974  1.00  0.00    -0.359 C  
HETATM    3  C   UNL     1     -11.899  15.498  71.334  1.00  0.00    -0.461 C  
ENDROOT
BRANCH   2   4
HETATM    4  N   UNL     1     -12.026  13.242  70.287  1.00  0.00    -0.471 NA 
HETATM    5  H   UNL     1     -12.238  12.325  70.681  1.00  0.00     0.000 HD 
BRANCH   4   6
HETATM    6  C   UNL     1     -12.229  13.250  68.832  1.00  0.00    -0.098 C  
BRANCH   6   7
HETATM    7  C   UNL     1     -11.545  12.051  68.144  1.00  0.00    -0.340 C  
HETATM    8  O   UNL     1     -12.285  10.848  68.380  1.00  0.00    -0.813 OA 
HETATM    9  H   UNL     1     -11.863  10.110  67.956  1.00  0.00     0.000 HD 
BRANCH   7  10
HETATM   10  C   UNL     1     -11.425  12.316  66.629  1.00  0.00    -0.373 C  
BRANCH  10  11
HETATM   11  O   UNL     1     -10.068  12.349  66.167  1.00  0.00    -0.237 OA 
BRANCH  11  12
HETATM   12  C   UNL     1      -9.367  11.164  66.159  1.00  0.00    -0.206 A  
HETATM   13  C   UNL     1      -9.868   9.984  65.588  1.00  0.00    -0.363 A  
HETATM   14  C   UNL     1      -9.141   8.796  65.631  1.00  0.00    -0.247 A  
HETATM   15  C   UNL     1      -7.913   8.760  66.267  1.00  0.00    -0.106 A  
HETATM   16  C   UNL     1      -7.391   9.923  66.827  1.00  0.00    -0.095 A  
HETATM   17  C   UNL     1      -8.081  11.145  66.744  1.00  0.00    -0.155 A  
BRANCH  17  18
HETATM   18  O   UNL     1      -7.549  12.333  67.212  1.00  0.00    -0.148 OA 
BRANCH  18  19
HETATM   19  C   UNL     1      -7.550  12.455  68.641  1.00  0.00    -0.082 C  
BRANCH  19  20
HETATM   20  C   UNL     1      -6.602  13.527  69.089  1.00  0.00    -0.109 C  
HETATM   21  C   UNL     1      -6.518  14.729  68.500  1.00  0.00    -0.092 C  
ENDBRANCH  19  20
ENDBRANCH  18  19
ENDBRANCH  17  18
ENDBRANCH  11  12
ENDBRANCH  10  11
ENDBRANCH   7  10
ENDBRANCH   6   7
ENDBRANCH   4   6
ENDBRANCH   2   4
TORSDOF 9
ENDMDL
MODEL      221
REMARK 921   NORMALIZED FREE ENERGY PREDICTED BY IDOCK:   -3.44 KCAL/MOL
REMARK 922        TOTAL FREE ENERGY PREDICTED BY IDOCK:   -6.02 KCAL/MOL
REMARK 923 INTER-LIGAND FREE ENERGY PREDICTED BY IDOCK:   -5.16 KCAL/MOL
REMARK 924 INTRA-LIGAND FREE ENERGY PREDICTED BY IDOCK:   -0.85 KCAL/MOL
REMARK 927      BINDING AFFINITY PREDICTED BY RF-SCORE:    0.00 PKD
ROOT
HETATM    1  C   UNL     1     -11.592   6.633  69.975  1.00  0.00    -0.423 C  
HETATM    2  C   UNL     1     -11.444   7.608  71.144  1.00  0.00    -0.275 C  
HETATM    3  C   UNL     1      -9.984   8.067  71.241  1.00  0.00    -0.211 C  
ENDROOT
BRANCH   2   4
HETATM    4  N   UNL     1     -12.364   8.732  70.940  1.00  0.00    -0.486 NA 
HETATM    5  H   UNL     1     -13.189   8.641  71.533  1.00  0.00     0.000 HD 
BRANCH   4   6
HETATM    6  C   UNL     1     -11.720  10.039  71.131  1.00  0.00    -0.387 C  
BRANCH   6   7
HETATM    7  C   UNL     1     -12.315  11.120  70.205  1.00  0.00    -0.315 C  
HETATM    8  O   UNL     1     -11.991  12.428  70.689  1.00  0.00    -0.498 OA 
HETATM    9  H   UNL     1     -12.357  13.094  70.119  1.00  0.00     0.000 HD 
BRANCH   7  10
HETATM   10  C   UNL     1     -11.780  10.932  68.770  1.00  0.00    -0.286 C  
BRANCH  10  11
HETATM   11  O   UNL     1     -11.190  12.121  68.228  1.00  0.00    -0.228 OA 
BRANCH  11  12
HETATM   12  C   UNL     1      -9.832  12.115  68.003  1.00  0.00    -0.202 A  
HETATM   13  C   UNL     1      -9.040  10.966  68.140  1.00  0.00    -0.155 A  
HETATM   14  C   UNL     1      -7.662  11.009  67.937  1.00  0.00    -0.104 A  
HETATM   15  C   UNL     1      -7.048  12.208  67.618  1.00  0.00    -0.124 A  
HETATM   16  C   UNL     1      -7.818  13.358  67.463  1.00  0.00    -0.181 A  
HETATM   17  C   UNL     1      -9.216  13.323  67.607  1.00  0.00    -0.209 A  
BRANCH  17  18
HETATM   18  O   UNL     1     -10.014  14.429  67.372  1.00  0.00    -0.238 OA 
BRANCH  18  19
HETATM   19  C   UNL     1      -9.657  15.586  68.139  1.00  0.00    -0.199 C  
BRANCH  19  20
HETATM   20  C   UNL     1     -10.002  15.399  69.586  1.00  0.00    -0.270 C  
HETATM   21  C   UNL     1     -11.048  15.994  70.178  1.00  0.00    -0.372 C  
ENDBRANCH  19  20
ENDBRANCH  18  19
ENDBRANCH  17  18
ENDBRANCH  11  12
ENDBRANCH  10  11
ENDBRANCH   7  10
ENDBRANCH   6   7
ENDBRANCH   4   6
ENDBRANCH   2   4
TORSDOF 9
ENDMDL
MODEL      222
REMARK 921   NORMALIZED FREE ENERGY PREDICTED BY IDOCK:   -3.44 KCAL/MOL
REMARK 922        TOTAL FREE ENERGY PREDICTED BY IDOCK:   -6.02 KCAL/MOL
REMARK 923 INTER-LIGAND FREE ENERGY PREDICTED BY IDOCK:   -5.36 KCAL/MOL
REMARK 924 INTRA-LIGAND FREE ENERGY PREDICTED BY IDOCK:   -0.65 KCAL/MOL
REMARK 927      BINDING AFFINITY PREDICTED BY RF-SCORE:    0.00 PKD
ROOT
HETATM    1  C   UNL     1      -5.399  15.802  69.045  1.00  0.00    -0.103 C  
HETATM    2  C   UNL     1      -6.311  14.636  69.433  1.00  0.00    -0.125 C  
HETATM    3  C   UNL     1      -6.265  14.440  70.953  1.00  0.00    -0.070 C  
ENDROOT
BRANCH   2   4
HETATM    4  N   UNL     1      -7.668  14.919  68.953  1.00  0.00    -0.138 NA 
HETATM    5  H   UNL     1      -8.346  14.850  69.712  1.00  0.00     0.000 HD 
BRANCH   4   6
HETATM    6  C   UNL     1      -7.772  16.216  68.270  1.00  0.00    -0.148 C  
BRANCH   6   7
HETATM    7  C   UNL     1      -7.887  16.059  66.740  1.00  0.00    -0.253 C  
HETATM    8  O   UNL     1      -8.040  14.679  66.388  1.00  0.00    -0.231 OA 
HETATM    9  H   UNL     1      -8.110  14.582  65.445  1.00  0.00     0.000 HD 
BRANCH   7  10
HETATM   10  C   UNL     1      -9.085  16.879  66.218  1.00  0.00    -0.267 C  
BRANCH  10  11
HETATM   11  O   UNL     1     -10.331  16.504  66.820  1.00  0.00    -0.292 OA 
BRANCH  11  12
HETATM   12  C   UNL     1     -11.002  15.428  66.285  1.00  0.00    -0.278 A  
HETATM   13  C   UNL     1     -11.337  15.336  64.926  1.00  0.00    -0.387 A  
HETATM   14  C   UNL     1     -12.048  14.245  64.429  1.00  0.00    -0.490 A  
HETATM   15  C   UNL     1     -12.458  13.239  65.287  1.00  0.00    -0.543 A  
HETATM   16  C   UNL     1     -12.123  13.304  66.638  1.00  0.00    -0.421 A  
HETATM   17  C   UNL     1     -11.357  14.367  67.148  1.00  0.00    -0.343 A  
BRANCH  17  18
HETATM   18  O   UNL     1     -10.934  14.413  68.464  1.00  0.00    -0.235 OA 
BRANCH  18  19
HETATM   19  C   UNL     1     -11.447  13.355  69.285  1.00  0.00    -0.290 C  
BRANCH  19  20
HETATM   20  C   UNL     1     -12.342  13.894  70.360  1.00  0.00    -0.433 C  
HETATM   21  C   UNL     1     -11.886  14.540  71.443  1.00  0.00    -0.316 C  
ENDBRANCH  19  20
ENDBRANCH  18  19
ENDBRANCH  17  18
ENDBRANCH  11  12
ENDBRANCH  10  11
ENDBRANCH   7  10
ENDBRANCH   6   7
ENDBRANCH   4   6
ENDBRANCH   2   4
TORSDOF 9
ENDMDL
MODEL      223
REMARK 921   NORMALIZED FREE ENERGY PREDICTED BY IDOCK:   -3.42 KCAL/MOL
REMARK 922        TOTAL FREE ENERGY PREDICTED BY IDOCK:   -6.00 KCAL/MOL
REMARK 923 INTER-LIGAND FREE ENERGY PREDICTED BY IDOCK:   -5.19 KCAL/MOL
REMARK 924 INTRA-LIGAND FREE ENERGY PREDICTED BY IDOCK:   -0.81 KCAL/MOL
REMARK 927      BINDING AFFINITY PREDICTED BY RF-SCORE:    0.00 PKD
ROOT
HETATM    1  C   UNL     1      -7.082   9.868  63.530  1.00  0.00    -0.120 C  
HETATM    2  C   UNL     1      -7.322   9.101  64.832  1.00  0.00    -0.101 C  
HETATM    3  C   UNL     1      -6.224   9.457  65.841  1.00  0.00    -0.063 C  
ENDROOT
BRANCH   2   4
HETATM    4  N   UNL     1      -8.662   9.430  65.332  1.00  0.00    -0.154 NA 
HETATM    5  H   UNL     1      -9.372   9.247  64.623  1.00  0.00     0.000 HD 
BRANCH   4   6
HETATM    6  C   UNL     1      -8.985   8.743  66.590  1.00  0.00    -0.139 C  
BRANCH   6   7
HETATM    7  C   UNL     1     -10.482   8.858  66.946  1.00  0.00    -0.234 C  
HETATM    8  O   UNL     1     -10.953   7.639  67.530  1.00  0.00    -0.507 OA 
HETATM    9  H   UNL     1     -11.875   7.709  67.749  1.00  0.00     0.000 HD 
BRANCH   7  10
HETATM   10  C   UNL     1     -10.699  10.036  67.918  1.00  0.00    -0.272 C  
BRANCH  10  11
HETATM   11  O   UNL     1     -10.404   9.704  69.282  1.00  0.00    -0.190 OA 
BRANCH  11  12
HETATM   12  C   UNL     1     -11.406   9.869  70.211  1.00  0.00    -0.291 A  
HETATM   13  C   UNL     1     -11.925  11.124  70.560  1.00  0.00    -0.475 A  
HETATM   14  C   UNL     1     -12.916  11.252  71.532  1.00  0.00    -0.520 A  
HETATM   15  C   UNL     1     -13.387  10.129  72.190  1.00  0.00    -0.431 A  
HETATM   16  C   UNL     1     -12.895   8.871  71.848  1.00  0.00    -0.437 A  
HETATM   17  C   UNL     1     -11.938   8.716  70.830  1.00  0.00    -0.191 A  
BRANCH  17  18
HETATM   18  O   UNL     1     -11.497   7.474  70.409  1.00  0.00    -0.269 OA 
BRANCH  18  19
HETATM   19  C   UNL     1     -10.587   6.834  71.314  1.00  0.00    -0.219 C  
BRANCH  19  20
HETATM   20  C   UNL     1     -10.385   5.396  70.943  1.00  0.00    -0.312 C  
HETATM   21  C   UNL     1      -9.938   4.469  71.804  1.00  0.00    -0.264 C  
ENDBRANCH  19  20
ENDBRANCH  18  19
ENDBRANCH  17  18
ENDBRANCH  11  12
ENDBRANCH  10  11
ENDBRANCH   7  10
ENDBRANCH   6   7
ENDBRANCH   4   6
ENDBRANCH   2   4
TORSDOF 9
ENDMDL
MODEL      224
REMARK 921   NORMALIZED FREE ENERGY PREDICTED BY IDOCK:   -3.42 KCAL/MOL
REMARK 922        TOTAL FREE ENERGY PREDICTED BY IDOCK:   -6.00 KCAL/MOL
REMARK 923 INTER-LIGAND FREE ENERGY PREDICTED BY IDOCK:   -5.79 KCAL/MOL
REMARK 924 INTRA-LIGAND FREE ENERGY PREDICTED BY IDOCK:   -0.21 KCAL/MOL
REMARK 927      BINDING AFFINITY PREDICTED BY RF-SCORE:    0.00 PKD
ROOT
HETATM    1  C   UNL     1     -12.867  10.412  71.445  1.00  0.00    -0.556 C  
HETATM    2  C   UNL     1     -11.672   9.495  71.716  1.00  0.00    -0.341 C  
HETATM    3  C   UNL     1     -12.074   8.041  71.441  1.00  0.00    -0.332 C  
ENDROOT
BRANCH   2   4
HETATM    4  N   UNL     1     -10.548   9.926  70.876  1.00  0.00    -0.350 NA 
HETATM    5  H   UNL     1      -9.681   9.474  71.166  1.00  0.00     0.000 HD 
BRANCH   4   6
HETATM    6  C   UNL     1     -10.795   9.721  69.443  1.00  0.00    -0.232 C  
BRANCH   6   7
HETATM    7  C   UNL     1     -10.551  11.004  68.622  1.00  0.00    -0.196 C  
HETATM    8  O   UNL     1      -9.558  10.775  67.616  1.00  0.00    -0.157 OA 
HETATM    9  H   UNL     1      -9.408  11.565  67.111  1.00  0.00     0.000 HD 
BRANCH   7  10
HETATM   10  C   UNL     1     -11.871  11.470  67.975  1.00  0.00    -0.217 C  
BRANCH  10  11
HETATM   11  O   UNL     1     -11.800  12.801  67.444  1.00  0.00    -0.361 OA 
BRANCH  11  12
HETATM   12  C   UNL     1     -11.686  13.841  68.338  1.00  0.00    -0.358 A  
HETATM   13  C   UNL     1     -12.094  13.746  69.677  1.00  0.00    -0.392 A  
HETATM   14  C   UNL     1     -11.994  14.833  70.542  1.00  0.00    -0.373 A  
HETATM   15  C   UNL     1     -11.508  16.043  70.078  1.00  0.00    -0.334 A  
HETATM   16  C   UNL     1     -11.084  16.155  68.756  1.00  0.00    -0.354 A  
HETATM   17  C   UNL     1     -11.122  15.054  67.883  1.00  0.00    -0.307 A  
BRANCH  17  18
HETATM   18  O   UNL     1     -10.626  15.111  66.593  1.00  0.00    -0.292 OA 
BRANCH  18  19
HETATM   19  C   UNL     1      -9.355  14.470  66.422  1.00  0.00    -0.273 C  
BRANCH  19  20
HETATM   20  C   UNL     1      -8.521  14.592  67.661  1.00  0.00    -0.187 C  
HETATM   21  C   UNL     1      -7.399  15.324  67.725  1.00  0.00    -0.181 C  
ENDBRANCH  19  20
ENDBRANCH  18  19
ENDBRANCH  17  18
ENDBRANCH  11  12
ENDBRANCH  10  11
ENDBRANCH   7  10
ENDBRANCH   6   7
ENDBRANCH   4   6
ENDBRANCH   2   4
TORSDOF 9
ENDMDL
MODEL      225
REMARK 921   NORMALIZED FREE ENERGY PREDICTED BY IDOCK:   -3.42 KCAL/MOL
REMARK 922        TOTAL FREE ENERGY PREDICTED BY IDOCK:   -6.00 KCAL/MOL
REMARK 923 INTER-LIGAND FREE ENERGY PREDICTED BY IDOCK:   -5.05 KCAL/MOL
REMARK 924 INTRA-LIGAND FREE ENERGY PREDICTED BY IDOCK:   -0.94 KCAL/MOL
REMARK 927      BINDING AFFINITY PREDICTED BY RF-SCORE:    0.00 PKD
ROOT
HETATM    1  C   UNL     1      -8.475  16.463  68.165  1.00  0.00    -0.188 C  
HETATM    2  C   UNL     1      -9.188  15.379  67.355  1.00  0.00    -0.197 C  
HETATM    3  C   UNL     1      -8.404  14.065  67.464  1.00  0.00    -0.200 C  
ENDROOT
BRANCH   2   4
HETATM    4  N   UNL     1     -10.562  15.246  67.852  1.00  0.00    -0.254 NA 
HETATM    5  H   UNL     1     -10.840  16.072  68.382  1.00  0.00     0.000 HD 
BRANCH   4   6
HETATM    6  C   UNL     1     -11.529  14.955  66.784  1.00  0.00    -0.301 C  
BRANCH   6   7
HETATM    7  C   UNL     1     -12.011  13.490  66.822  1.00  0.00    -0.404 C  
HETATM    8  O   UNL     1     -11.216  12.678  65.950  1.00  0.00    -0.292 OA 
HETATM    9  H   UNL     1     -11.513  11.776  65.973  1.00  0.00     0.000 HD 
BRANCH   7  10
HETATM   10  C   UNL     1     -11.939  12.952  68.266  1.00  0.00    -0.254 C  
BRANCH  10  11
HETATM   11  O   UNL     1     -11.128  11.777  68.391  1.00  0.00    -0.204 OA 
BRANCH  11  12
HETATM   12  C   UNL     1     -11.335  10.970  69.487  1.00  0.00    -0.287 A  
HETATM   13  C   UNL     1     -12.407  11.148  70.374  1.00  0.00    -0.430 A  
HETATM   14  C   UNL     1     -12.562  10.331  71.493  1.00  0.00    -0.544 A  
HETATM   15  C   UNL     1     -11.635   9.339  71.757  1.00  0.00    -0.458 A  
HETATM   16  C   UNL     1     -10.570   9.136  70.882  1.00  0.00    -0.341 A  
HETATM   17  C   UNL     1     -10.429   9.911  69.717  1.00  0.00    -0.261 A  
BRANCH  17  18
HETATM   18  O   UNL     1      -9.434   9.676  68.785  1.00  0.00    -0.144 OA 
BRANCH  18  19
HETATM   19  C   UNL     1      -8.140   9.432  69.352  1.00  0.00    -0.105 C  
BRANCH  19  20
HETATM   20  C   UNL     1      -7.307  10.678  69.345  1.00  0.00    -0.133 C  
HETATM   21  C   UNL     1      -6.459  10.992  68.354  1.00  0.00    -0.057 C  
ENDBRANCH  19  20
ENDBRANCH  18  19
ENDBRANCH  17  18
ENDBRANCH  11  12
ENDBRANCH  10  11
ENDBRANCH   7  10
ENDBRANCH   6   7
ENDBRANCH   4   6
ENDBRANCH   2   4
TORSDOF 9
ENDMDL
MODEL      226
REMARK 921   NORMALIZED FREE ENERGY PREDICTED BY IDOCK:   -3.41 KCAL/MOL
REMARK 922        TOTAL FREE ENERGY PREDICTED BY IDOCK:   -5.97 KCAL/MOL
REMARK 923 INTER-LIGAND FREE ENERGY PREDICTED BY IDOCK:   -5.12 KCAL/MOL
REMARK 924 INTRA-LIGAND FREE ENERGY PREDICTED BY IDOCK:   -0.85 KCAL/MOL
REMARK 927      BINDING AFFINITY PREDICTED BY RF-SCORE:    0.00 PKD
ROOT
HETATM    1  C   UNL     1      -9.322   6.545  69.153  1.00  0.00    -0.133 C  
HETATM    2  C   UNL     1     -10.810   6.838  69.349  1.00  0.00    -0.271 C  
HETATM    3  C   UNL     1     -11.330   6.044  70.553  1.00  0.00    -0.310 C  
ENDROOT
BRANCH   2   4
HETATM    4  N   UNL     1     -10.987   8.285  69.522  1.00  0.00    -0.424 NA 
HETATM    5  H   UNL     1     -10.544   8.606  70.382  1.00  0.00     0.000 HD 
BRANCH   4   6
HETATM    6  C   UNL     1     -10.516   9.059  68.365  1.00  0.00    -0.192 C  
BRANCH   6   7
HETATM    7  C   UNL     1      -9.569  10.204  68.781  1.00  0.00    -0.170 C  
HETATM    8  O   UNL     1      -9.171  10.054  70.148  1.00  0.00    -0.363 OA 
HETATM    9  H   UNL     1      -8.587  10.760  70.403  1.00  0.00     0.000 HD 
BRANCH   7  10
HETATM   10  C   UNL     1      -8.330  10.217  67.861  1.00  0.00    -0.117 C  
BRANCH  10  11
HETATM   11  O   UNL     1      -8.333  11.304  66.926  1.00  0.00    -0.142 OA 
BRANCH  11  12
HETATM   12  C   UNL     1      -8.871  11.074  65.680  1.00  0.00    -0.178 A  
HETATM   13  C   UNL     1      -8.591   9.922  64.928  1.00  0.00    -0.183 A  
HETATM   14  C   UNL     1      -9.128   9.743  63.655  1.00  0.00    -0.269 A  
HETATM   15  C   UNL     1      -9.934  10.722  63.100  1.00  0.00    -0.341 A  
HETATM   16  C   UNL     1     -10.235  11.867  63.835  1.00  0.00    -0.420 A  
HETATM   17  C   UNL     1      -9.751  12.040  65.144  1.00  0.00    -0.144 A  
BRANCH  17  18
HETATM   18  O   UNL     1     -10.105  13.122  65.930  1.00  0.00    -0.283 OA 
BRANCH  18  19
HETATM   19  C   UNL     1     -11.262  12.902  66.748  1.00  0.00    -0.298 C  
BRANCH  19  20
HETATM   20  C   UNL     1     -12.336  13.900  66.440  1.00  0.00    -0.468 C  
HETATM   21  C   UNL     1     -12.910  14.016  65.233  1.00  0.00    -0.418 C  
ENDBRANCH  19  20
ENDBRANCH  18  19
ENDBRANCH  17  18
ENDBRANCH  11  12
ENDBRANCH  10  11
ENDBRANCH   7  10
ENDBRANCH   6   7
ENDBRANCH   4   6
ENDBRANCH   2   4
TORSDOF 9
ENDMDL
MODEL      227
REMARK 921   NORMALIZED FREE ENERGY PREDICTED BY IDOCK:   -3.40 KCAL/MOL
REMARK 922        TOTAL FREE ENERGY PREDICTED BY IDOCK:   -5.96 KCAL/MOL
REMARK 923 INTER-LIGAND FREE ENERGY PREDICTED BY IDOCK:   -5.16 KCAL/MOL
REMARK 924 INTRA-LIGAND FREE ENERGY PREDICTED BY IDOCK:   -0.80 KCAL/MOL
REMARK 927      BINDING AFFINITY PREDICTED BY RF-SCORE:    0.00 PKD
ROOT
HETATM    1  C   UNL     1     -10.530   4.057  64.212  1.00  0.00    -0.207 C  
HETATM    2  C   UNL     1      -9.533   3.847  65.353  1.00  0.00    -0.170 C  
HETATM    3  C   UNL     1      -8.294   4.718  65.112  1.00  0.00    -0.129 C  
ENDROOT
BRANCH   2   4
HETATM    4  N   UNL     1     -10.195   4.166  66.623  1.00  0.00    -0.318 NA 
HETATM    5  H   UNL     1     -10.325   3.327  67.188  1.00  0.00     0.000 HD 
BRANCH   4   6
HETATM    6  C   UNL     1      -9.495   5.210  67.384  1.00  0.00    -0.132 C  
BRANCH   6   7
HETATM    7  C   UNL     1     -10.422   6.392  67.736  1.00  0.00    -0.226 C  
HETATM    8  O   UNL     1     -11.396   6.590  66.705  1.00  0.00    -0.699 OA 
HETATM    9  H   UNL     1     -11.967   7.318  66.922  1.00  0.00     0.000 HD 
BRANCH   7  10
HETATM   10  C   UNL     1     -11.120   6.126  69.086  1.00  0.00    -0.378 C  
BRANCH  10  11
HETATM   11  O   UNL     1     -10.230   6.214  70.208  1.00  0.00    -0.184 OA 
BRANCH  11  12
HETATM   12  C   UNL     1     -10.227   5.171  71.105  1.00  0.00    -0.221 A  
HETATM   13  C   UNL     1      -9.683   3.912  70.811  1.00  0.00    -0.255 A  
HETATM   14  C   UNL     1      -9.731   2.870  71.736  1.00  0.00    -0.224 A  
HETATM   15  C   UNL     1     -10.346   3.062  72.961  1.00  0.00    -0.244 A  
HETATM   16  C   UNL     1     -10.880   4.308  73.278  1.00  0.00    -0.323 A  
HETATM   17  C   UNL     1     -10.790   5.388  72.383  1.00  0.00    -0.241 A  
BRANCH  17  18
HETATM   18  O   UNL     1     -11.232   6.659  72.705  1.00  0.00    -0.261 OA 
BRANCH  18  19
HETATM   19  C   UNL     1     -10.516   7.275  73.784  1.00  0.00    -0.288 C  
BRANCH  19  20
HETATM   20  C   UNL     1      -9.215   7.848  73.309  1.00  0.00    -0.346 C  
HETATM   21  C   UNL     1      -8.172   8.079  74.119  1.00  0.00    -0.318 C  
ENDBRANCH  19  20
ENDBRANCH  18  19
ENDBRANCH  17  18
ENDBRANCH  11  12
ENDBRANCH  10  11
ENDBRANCH   7  10
ENDBRANCH   6   7
ENDBRANCH   4   6
ENDBRANCH   2   4
TORSDOF 9
ENDMDL
MODEL      228
REMARK 921   NORMALIZED FREE ENERGY PREDICTED BY IDOCK:   -3.40 KCAL/MOL
REMARK 922        TOTAL FREE ENERGY PREDICTED BY IDOCK:   -5.95 KCAL/MOL
REMARK 923 INTER-LIGAND FREE ENERGY PREDICTED BY IDOCK:   -5.28 KCAL/MOL
REMARK 924 INTRA-LIGAND FREE ENERGY PREDICTED BY IDOCK:   -0.67 KCAL/MOL
REMARK 927      BINDING AFFINITY PREDICTED BY RF-SCORE:    0.00 PKD
ROOT
HETATM    1  C   UNL     1      -9.007  15.920  66.540  1.00  0.00    -0.331 C  
HETATM    2  C   UNL     1      -8.748  14.643  67.342  1.00  0.00    -0.197 C  
HETATM    3  C   UNL     1      -9.652  14.629  68.581  1.00  0.00    -0.219 C  
ENDROOT
BRANCH   2   4
HETATM    4  N   UNL     1      -8.982  13.485  66.472  1.00  0.00    -0.447 NA 
HETATM    5  H   UNL     1      -8.556  12.644  66.861  1.00  0.00     0.000 HD 
BRANCH   4   6
HETATM    6  C   UNL     1     -10.407  13.269  66.183  1.00  0.00    -0.290 C  
BRANCH   6   7
HETATM    7  C   UNL     1     -10.827  11.801  66.408  1.00  0.00    -0.282 C  
HETATM    8  O   UNL     1     -10.617  11.032  65.219  1.00  0.00    -0.268 OA 
HETATM    9  H   UNL     1     -10.876  10.128  65.357  1.00  0.00     0.000 HD 
BRANCH   7  10
HETATM   10  C   UNL     1     -10.027  11.201  67.582  1.00  0.00    -0.174 C  
BRANCH  10  11
HETATM   11  O   UNL     1     -10.584   9.977  68.078  1.00  0.00    -0.203 OA 
BRANCH  11  12
HETATM   12  C   UNL     1     -11.264  10.022  69.274  1.00  0.00    -0.166 A  
HETATM   13  C   UNL     1     -12.005  11.138  69.690  1.00  0.00    -0.429 A  
HETATM   14  C   UNL     1     -12.651  11.157  70.924  1.00  0.00    -0.483 A  
HETATM   15  C   UNL     1     -12.547  10.071  71.775  1.00  0.00    -0.504 A  
HETATM   16  C   UNL     1     -11.828   8.947  71.376  1.00  0.00    -0.383 A  
HETATM   17  C   UNL     1     -11.218   8.884  70.111  1.00  0.00    -0.160 A  
BRANCH  17  18
HETATM   18  O   UNL     1     -10.574   7.750  69.652  1.00  0.00    -0.239 OA 
BRANCH  18  19
HETATM   19  C   UNL     1      -9.704   7.137  70.613  1.00  0.00    -0.175 C  
BRANCH  19  20
HETATM   20  C   UNL     1      -8.522   8.012  70.903  1.00  0.00    -0.126 C  
HETATM   21  C   UNL     1      -8.193   8.421  72.137  1.00  0.00    -0.207 C  
ENDBRANCH  19  20
ENDBRANCH  18  19
ENDBRANCH  17  18
ENDBRANCH  11  12
ENDBRANCH  10  11
ENDBRANCH   7  10
ENDBRANCH   6   7
ENDBRANCH   4   6
ENDBRANCH   2   4
TORSDOF 9
ENDMDL
MODEL      229
REMARK 921   NORMALIZED FREE ENERGY PREDICTED BY IDOCK:   -3.39 KCAL/MOL
REMARK 922        TOTAL FREE ENERGY PREDICTED BY IDOCK:   -5.94 KCAL/MOL
REMARK 923 INTER-LIGAND FREE ENERGY PREDICTED BY IDOCK:   -4.82 KCAL/MOL
REMARK 924 INTRA-LIGAND FREE ENERGY PREDICTED BY IDOCK:   -1.12 KCAL/MOL
REMARK 927      BINDING AFFINITY PREDICTED BY RF-SCORE:    0.00 PKD
ROOT
HETATM    1  C   UNL     1     -12.250  13.821  63.948  1.00  0.00    -0.402 C  
HETATM    2  C   UNL     1     -11.546  13.527  65.274  1.00  0.00    -0.311 C  
HETATM    3  C   UNL     1     -12.448  13.962  66.436  1.00  0.00    -0.414 C  
ENDROOT
BRANCH   2   4
HETATM    4  N   UNL     1     -11.225  12.096  65.329  1.00  0.00    -0.324 NA 
HETATM    5  H   UNL     1     -10.490  11.861  64.662  1.00  0.00     0.000 HD 
BRANCH   4   6
HETATM    6  C   UNL     1     -10.873  11.642  66.681  1.00  0.00    -0.283 C  
BRANCH   6   7
HETATM    7  C   UNL     1      -9.369  11.325  66.814  1.00  0.00    -0.177 C  
HETATM    8  O   UNL     1      -8.692  11.581  65.579  1.00  0.00    -0.392 OA 
HETATM    9  H   UNL     1      -7.766  11.385  65.660  1.00  0.00     0.000 HD 
BRANCH   7  10
HETATM   10  C   UNL     1      -8.753  12.172  67.947  1.00  0.00    -0.176 C  
BRANCH  10  11
HETATM   11  O   UNL     1      -8.960  13.581  67.774  1.00  0.00    -0.180 OA 
BRANCH  11  12
HETATM   12  C   UNL     1      -7.850  14.395  67.782  1.00  0.00    -0.160 A  
HETATM   13  C   UNL     1      -6.749  14.178  68.624  1.00  0.00    -0.094 A  
HETATM   14  C   UNL     1      -5.659  15.047  68.626  1.00  0.00    -0.092 A  
HETATM   15  C   UNL     1      -5.662  16.161  67.806  1.00  0.00    -0.160 A  
HETATM   16  C   UNL     1      -6.739  16.387  66.952  1.00  0.00    -0.205 A  
HETATM   17  C   UNL     1      -7.821  15.492  66.892  1.00  0.00    -0.194 A  
BRANCH  17  18
HETATM   18  O   UNL     1      -8.861  15.643  65.992  1.00  0.00    -0.318 OA 
BRANCH  18  19
HETATM   19  C   UNL     1      -9.556  16.892  66.099  1.00  0.00    -0.254 C  
BRANCH  19  20
HETATM   20  C   UNL     1     -10.458  16.905  67.296  1.00  0.00    -0.301 C  
HETATM   21  C   UNL     1     -10.281  17.723  68.343  1.00  0.00    -0.384 C  
ENDBRANCH  19  20
ENDBRANCH  18  19
ENDBRANCH  17  18
ENDBRANCH  11  12
ENDBRANCH  10  11
ENDBRANCH   7  10
ENDBRANCH   6   7
ENDBRANCH   4   6
ENDBRANCH   2   4
TORSDOF 9
ENDMDL
MODEL      230
REMARK 921   NORMALIZED FREE ENERGY PREDICTED BY IDOCK:   -3.39 KCAL/MOL
REMARK 922        TOTAL FREE ENERGY PREDICTED BY IDOCK:   -5.94 KCAL/MOL
REMARK 923 INTER-LIGAND FREE ENERGY PREDICTED BY IDOCK:   -5.06 KCAL/MOL
REMARK 924 INTRA-LIGAND FREE ENERGY PREDICTED BY IDOCK:   -0.88 KCAL/MOL
REMARK 927      BINDING AFFINITY PREDICTED BY RF-SCORE:    0.00 PKD
ROOT
HETATM    1  C   UNL     1      -7.563   8.442  71.575  1.00  0.00    -0.118 C  
HETATM    2  C   UNL     1      -7.533   9.636  70.619  1.00  0.00    -0.085 C  
HETATM    3  C   UNL     1      -6.092  10.144  70.486  1.00  0.00    -0.108 C  
ENDROOT
BRANCH   2   4
HETATM    4  N   UNL     1      -8.095   9.220  69.328  1.00  0.00    -0.102 NA 
HETATM    5  H   UNL     1      -8.367   8.238  69.348  1.00  0.00     0.000 HD 
BRANCH   4   6
HETATM    6  C   UNL     1      -9.213  10.068  68.894  1.00  0.00    -0.169 C  
BRANCH   6   7
HETATM    7  C   UNL     1     -10.568   9.339  68.997  1.00  0.00    -0.205 C  
HETATM    8  O   UNL     1     -11.393   9.651  67.869  1.00  0.00    -0.507 OA 
HETATM    9  H   UNL     1     -12.228   9.201  67.932  1.00  0.00     0.000 HD 
BRANCH   7  10
HETATM   10  C   UNL     1     -10.337   7.816  69.085  1.00  0.00    -0.215 C  
BRANCH  10  11
HETATM   11  O   UNL     1     -11.314   7.143  69.891  1.00  0.00    -0.239 OA 
BRANCH  11  12
HETATM   12  C   UNL     1     -10.901   6.627  71.099  1.00  0.00    -0.241 A  
HETATM   13  C   UNL     1     -10.300   5.366  71.226  1.00  0.00    -0.296 A  
HETATM   14  C   UNL     1      -9.928   4.865  72.472  1.00  0.00    -0.221 A  
HETATM   15  C   UNL     1     -10.173   5.605  73.615  1.00  0.00    -0.232 A  
HETATM   16  C   UNL     1     -10.757   6.866  73.510  1.00  0.00    -0.342 A  
HETATM   17  C   UNL     1     -11.086   7.414  72.258  1.00  0.00    -0.266 A  
BRANCH  17  18
HETATM   18  O   UNL     1     -11.583   8.697  72.116  1.00  0.00    -0.342 OA 
BRANCH  18  19
HETATM   19  C   UNL     1     -13.006   8.796  72.261  1.00  0.00    -0.408 C  
BRANCH  19  20
HETATM   20  C   UNL     1     -13.491  10.163  71.883  1.00  0.00    -0.426 C  
HETATM   21  C   UNL     1     -12.714  11.082  71.289  1.00  0.00    -0.537 C  
ENDBRANCH  19  20
ENDBRANCH  18  19
ENDBRANCH  17  18
ENDBRANCH  11  12
ENDBRANCH  10  11
ENDBRANCH   7  10
ENDBRANCH   6   7
ENDBRANCH   4   6
ENDBRANCH   2   4
TORSDOF 9
ENDMDL
MODEL      231
REMARK 921   NORMALIZED FREE ENERGY PREDICTED BY IDOCK:   -3.39 KCAL/MOL
REMARK 922        TOTAL FREE ENERGY PREDICTED BY IDOCK:   -5.94 KCAL/MOL
REMARK 923 INTER-LIGAND FREE ENERGY PREDICTED BY IDOCK:   -5.02 KCAL/MOL
REMARK 924 INTRA-LIGAND FREE ENERGY PREDICTED BY IDOCK:   -0.92 KCAL/MOL
REMARK 927      BINDING AFFINITY PREDICTED BY RF-SCORE:    0.00 PKD
ROOT
HETATM    1  C   UNL     1      -8.144  11.446  66.885  1.00  0.00    -0.158 C  
HETATM    2  C   UNL     1      -9.458  11.526  66.106  1.00  0.00    -0.220 C  
HETATM    3  C   UNL     1      -9.831  10.129  65.594  1.00  0.00    -0.347 C  
ENDROOT
BRANCH   2   4
HETATM    4  N   UNL     1     -10.492  12.089  66.982  1.00  0.00    -0.218 NA 
HETATM    5  H   UNL     1     -11.021  12.816  66.501  1.00  0.00     0.000 HD 
BRANCH   4   6
HETATM    6  C   UNL     1     -11.387  11.065  67.538  1.00  0.00    -0.257 C  
BRANCH   6   7
HETATM    7  C   UNL     1     -11.473  11.143  69.076  1.00  0.00    -0.296 C  
HETATM    8  O   UNL     1     -12.791  10.805  69.522  1.00  0.00    -0.549 OA 
HETATM    9  H   UNL     1     -12.844  10.853  70.470  1.00  0.00     0.000 HD 
BRANCH   7  10
HETATM   10  C   UNL     1     -10.434  10.194  69.707  1.00  0.00    -0.263 C  
BRANCH  10  11
HETATM   11  O   UNL     1     -10.918   8.853  69.864  1.00  0.00    -0.235 OA 
BRANCH  11  12
HETATM   12  C   UNL     1     -10.435   8.119  70.924  1.00  0.00    -0.202 A  
HETATM   13  C   UNL     1     -10.945   8.230  72.226  1.00  0.00    -0.418 A  
HETATM   14  C   UNL     1     -10.404   7.494  73.279  1.00  0.00    -0.412 A  
HETATM   15  C   UNL     1      -9.328   6.654  73.053  1.00  0.00    -0.149 A  
HETATM   16  C   UNL     1      -8.816   6.518  71.766  1.00  0.00    -0.138 A  
HETATM   17  C   UNL     1      -9.384   7.206  70.680  1.00  0.00    -0.158 A  
BRANCH  17  18
HETATM   18  O   UNL     1      -8.954   7.024  69.377  1.00  0.00    -0.139 OA 
BRANCH  18  19
HETATM   19  C   UNL     1      -9.251   5.730  68.835  1.00  0.00    -0.115 C  
BRANCH  19  20
HETATM   20  C   UNL     1     -10.558   5.743  68.101  1.00  0.00    -0.286 C  
HETATM   21  C   UNL     1     -10.810   6.546  67.056  1.00  0.00    -0.465 C  
ENDBRANCH  19  20
ENDBRANCH  18  19
ENDBRANCH  17  18
ENDBRANCH  11  12
ENDBRANCH  10  11
ENDBRANCH   7  10
ENDBRANCH   6   7
ENDBRANCH   4   6
ENDBRANCH   2   4
TORSDOF 9
ENDMDL
MODEL      232
REMARK 921   NORMALIZED FREE ENERGY PREDICTED BY IDOCK:   -3.38 KCAL/MOL
REMARK 922        TOTAL FREE ENERGY PREDICTED BY IDOCK:   -5.92 KCAL/MOL
REMARK 923 INTER-LIGAND FREE ENERGY PREDICTED BY IDOCK:   -4.79 KCAL/MOL
REMARK 924 INTRA-LIGAND FREE ENERGY PREDICTED BY IDOCK:   -1.14 KCAL/MOL
REMARK 927      BINDING AFFINITY PREDICTED BY RF-SCORE:    0.00 PKD
ROOT
HETATM    1  C   UNL     1     -10.096  15.801  65.560  1.00  0.00    -0.383 C  
HETATM    2  C   UNL     1     -10.173  14.341  66.013  1.00  0.00    -0.315 C  
HETATM    3  C   UNL     1     -11.370  14.164  66.955  1.00  0.00    -0.346 C  
ENDROOT
BRANCH   2   4
HETATM    4  N   UNL     1     -10.273  13.485  64.825  1.00  0.00    -0.574 NA 
HETATM    5  H   UNL     1      -9.444  12.899  64.726  1.00  0.00     0.000 HD 
BRANCH   4   6
HETATM    6  C   UNL     1     -11.497  12.673  64.809  1.00  0.00    -0.321 C  
BRANCH   6   7
HETATM    7  C   UNL     1     -11.218  11.210  64.404  1.00  0.00     0.006 C  
HETATM    8  O   UNL     1     -11.060  11.105  62.985  1.00  0.00    -0.822 OA 
HETATM    9  H   UNL     1     -10.888  10.204  62.735  1.00  0.00     0.000 HD 
BRANCH   7  10
HETATM   10  C   UNL     1      -9.951  10.701  65.122  1.00  0.00    -0.303 C  
BRANCH  10  11
HETATM   11  O   UNL     1     -10.067  10.721  66.552  1.00  0.00    -0.212 OA 
BRANCH  11  12
HETATM   12  C   UNL     1      -8.904  10.780  67.287  1.00  0.00    -0.133 A  
HETATM   13  C   UNL     1      -7.908  11.743  67.065  1.00  0.00    -0.161 A  
HETATM   14  C   UNL     1      -6.730  11.747  67.808  1.00  0.00    -0.082 A  
HETATM   15  C   UNL     1      -6.515  10.775  68.769  1.00  0.00    -0.048 A  
HETATM   16  C   UNL     1      -7.497   9.818  69.015  1.00  0.00    -0.080 A  
HETATM   17  C   UNL     1      -8.717   9.832  68.317  1.00  0.00    -0.119 A  
BRANCH  17  18
HETATM   18  O   UNL     1      -9.745   8.950  68.601  1.00  0.00    -0.156 OA 
BRANCH  18  19
HETATM   19  C   UNL     1      -9.363   7.569  68.566  1.00  0.00    -0.142 C  
BRANCH  19  20
HETATM   20  C   UNL     1      -9.801   6.923  67.287  1.00  0.00    -0.196 C  
HETATM   21  C   UNL     1     -11.077   6.606  67.020  1.00  0.00    -0.395 C  
ENDBRANCH  19  20
ENDBRANCH  18  19
ENDBRANCH  17  18
ENDBRANCH  11  12
ENDBRANCH  10  11
ENDBRANCH   7  10
ENDBRANCH   6   7
ENDBRANCH   4   6
ENDBRANCH   2   4
TORSDOF 9
ENDMDL
MODEL      233
REMARK 921   NORMALIZED FREE ENERGY PREDICTED BY IDOCK:   -3.37 KCAL/MOL
REMARK 922        TOTAL FREE ENERGY PREDICTED BY IDOCK:   -5.91 KCAL/MOL
REMARK 923 INTER-LIGAND FREE ENERGY PREDICTED BY IDOCK:   -5.03 KCAL/MOL
REMARK 924 INTRA-LIGAND FREE ENERGY PREDICTED BY IDOCK:   -0.88 KCAL/MOL
REMARK 927      BINDING AFFINITY PREDICTED BY RF-SCORE:    0.00 PKD
ROOT
HETATM    1  C   UNL     1     -10.205   8.459  72.146  1.00  0.00    -0.390 C  
HETATM    2  C   UNL     1     -11.262   7.768  71.284  1.00  0.00    -0.255 C  
HETATM    3  C   UNL     1     -11.959   6.679  72.109  1.00  0.00    -0.320 C  
ENDROOT
BRANCH   2   4
HETATM    4  N   UNL     1     -12.206   8.780  70.795  1.00  0.00    -0.483 NA 
HETATM    5  H   UNL     1     -13.167   8.519  71.015  1.00  0.00     0.000 HD 
BRANCH   4   6
HETATM    6  C   UNL     1     -11.900  10.130  71.287  1.00  0.00    -0.360 C  
BRANCH   6   7
HETATM    7  C   UNL     1     -12.619  11.222  70.468  1.00  0.00    -0.246 C  
HETATM    8  O   UNL     1     -12.132  12.520  70.828  1.00  0.00    -0.465 OA 
HETATM    9  H   UNL     1     -12.575  13.193  70.324  1.00  0.00     0.000 HD 
BRANCH   7  10
HETATM   10  C   UNL     1     -12.407  10.971  68.961  1.00  0.00     0.076 C  
BRANCH  10  11
HETATM   11  O   UNL     1     -11.024  10.896  68.590  1.00  0.00    -0.193 OA 
BRANCH  11  12
HETATM   12  C   UNL     1     -10.724  10.837  67.248  1.00  0.00    -0.274 A  
HETATM   13  C   UNL     1     -11.173  11.791  66.323  1.00  0.00    -0.370 A  
HETATM   14  C   UNL     1     -10.876  11.677  64.966  1.00  0.00    -0.346 A  
HETATM   15  C   UNL     1     -10.147  10.594  64.507  1.00  0.00    -0.421 A  
HETATM   16  C   UNL     1      -9.680   9.643  65.411  1.00  0.00    -0.365 A  
HETATM   17  C   UNL     1      -9.919   9.771  66.790  1.00  0.00    -0.218 A  
BRANCH  17  18
HETATM   18  O   UNL     1      -9.393   8.891  67.720  1.00  0.00    -0.139 OA 
BRANCH  18  19
HETATM   19  C   UNL     1      -8.449   7.957  67.179  1.00  0.00    -0.117 C  
BRANCH  19  20
HETATM   20  C   UNL     1      -7.156   7.999  67.936  1.00  0.00    -0.086 C  
HETATM   21  C   UNL     1      -6.886   8.912  68.881  1.00  0.00    -0.061 C  
ENDBRANCH  19  20
ENDBRANCH  18  19
ENDBRANCH  17  18
ENDBRANCH  11  12
ENDBRANCH  10  11
ENDBRANCH   7  10
ENDBRANCH   6   7
ENDBRANCH   4   6
ENDBRANCH   2   4
TORSDOF 9
ENDMDL
MODEL      234
REMARK 921   NORMALIZED FREE ENERGY PREDICTED BY IDOCK:   -3.36 KCAL/MOL
REMARK 922        TOTAL FREE ENERGY PREDICTED BY IDOCK:   -5.90 KCAL/MOL
REMARK 923 INTER-LIGAND FREE ENERGY PREDICTED BY IDOCK:   -4.99 KCAL/MOL
REMARK 924 INTRA-LIGAND FREE ENERGY PREDICTED BY IDOCK:   -0.91 KCAL/MOL
REMARK 927      BINDING AFFINITY PREDICTED BY RF-SCORE:    0.00 PKD
ROOT
HETATM    1  C   UNL     1      -7.346  14.569  67.525  1.00  0.00    -0.212 C  
HETATM    2  C   UNL     1      -8.376  13.439  67.563  1.00  0.00    -0.190 C  
HETATM    3  C   UNL     1      -7.675  12.124  67.923  1.00  0.00    -0.134 C  
ENDROOT
BRANCH   2   4
HETATM    4  N   UNL     1      -9.424  13.790  68.530  1.00  0.00    -0.308 NA 
HETATM    5  H   UNL     1      -9.045  14.355  69.290  1.00  0.00     0.000 HD 
BRANCH   4   6
HETATM    6  C   UNL     1     -10.576  14.453  67.905  1.00  0.00    -0.240 C  
BRANCH   6   7
HETATM    7  C   UNL     1     -11.811  13.530  67.839  1.00  0.00    -0.362 C  
HETATM    8  O   UNL     1     -12.221  13.337  66.481  1.00  0.00    -0.387 OA 
HETATM    9  H   UNL     1     -12.981  12.768  66.441  1.00  0.00     0.000 HD 
BRANCH   7  10
HETATM   10  C   UNL     1     -11.486  12.173  68.498  1.00  0.00    -0.300 C  
BRANCH  10  11
HETATM   11  O   UNL     1     -11.856  11.049  67.688  1.00  0.00    -0.599 OA 
BRANCH  11  12
HETATM   12  C   UNL     1     -10.844  10.277  67.165  1.00  0.00    -0.212 A  
HETATM   13  C   UNL     1     -10.191  10.586  65.963  1.00  0.00    -0.310 A  
HETATM   14  C   UNL     1      -9.194   9.759  65.448  1.00  0.00    -0.282 A  
HETATM   15  C   UNL     1      -8.850   8.595  66.114  1.00  0.00    -0.204 A  
HETATM   16  C   UNL     1      -9.477   8.277  67.317  1.00  0.00    -0.193 A  
HETATM   17  C   UNL     1     -10.443   9.128  67.882  1.00  0.00    -0.237 A  
BRANCH  17  18
HETATM   18  O   UNL     1     -11.017   8.883  69.117  1.00  0.00    -0.124 OA 
BRANCH  18  19
HETATM   19  C   UNL     1     -10.072   8.721  70.184  1.00  0.00    -0.187 C  
BRANCH  19  20
HETATM   20  C   UNL     1     -10.622   9.250  71.474  1.00  0.00    -0.405 C  
HETATM   21  C   UNL     1     -10.473   8.623  72.650  1.00  0.00    -0.105 C  
ENDBRANCH  19  20
ENDBRANCH  18  19
ENDBRANCH  17  18
ENDBRANCH  11  12
ENDBRANCH  10  11
ENDBRANCH   7  10
ENDBRANCH   6   7
ENDBRANCH   4   6
ENDBRANCH   2   4
TORSDOF 9
ENDMDL
MODEL      235
REMARK 921   NORMALIZED FREE ENERGY PREDICTED BY IDOCK:   -3.36 KCAL/MOL
REMARK 922        TOTAL FREE ENERGY PREDICTED BY IDOCK:   -5.90 KCAL/MOL
REMARK 923 INTER-LIGAND FREE ENERGY PREDICTED BY IDOCK:   -4.89 KCAL/MOL
REMARK 924 INTRA-LIGAND FREE ENERGY PREDICTED BY IDOCK:   -1.00 KCAL/MOL
REMARK 927      BINDING AFFINITY PREDICTED BY RF-SCORE:    0.00 PKD
ROOT
HETATM    1  C   UNL     1     -12.418  11.273  70.467  1.00  0.00    -0.398 C  
HETATM    2  C   UNL     1     -11.541  11.047  69.235  1.00  0.00    -0.314 C  
HETATM    3  C   UNL     1     -11.941  12.040  68.137  1.00  0.00    -0.231 C  
ENDROOT
BRANCH   2   4
HETATM    4  N   UNL     1     -10.134  11.191  69.625  1.00  0.00    -0.401 NA 
HETATM    5  H   UNL     1      -9.972  10.807  70.556  1.00  0.00     0.000 HD 
BRANCH   4   6
HETATM    6  C   UNL     1      -9.207  10.606  68.647  1.00  0.00    -0.181 C  
BRANCH   6   7
HETATM    7  C   UNL     1      -7.808  10.359  69.248  1.00  0.00    -0.147 C  
HETATM    8  O   UNL     1      -7.151  11.602  69.516  1.00  0.00    -0.294 OA 
HETATM    9  H   UNL     1      -6.289  11.449  69.886  1.00  0.00     0.000 HD 
BRANCH   7  10
HETATM   10  C   UNL     1      -7.934   9.530  70.543  1.00  0.00    -0.159 C  
BRANCH  10  11
HETATM   11  O   UNL     1      -8.267   8.155  70.303  1.00  0.00    -0.116 OA 
BRANCH  11  12
HETATM   12  C   UNL     1      -9.376   7.645  70.939  1.00  0.00    -0.157 A  
HETATM   13  C   UNL     1     -10.198   8.415  71.775  1.00  0.00    -0.323 A  
HETATM   14  C   UNL     1     -11.292   7.852  72.429  1.00  0.00    -0.427 A  
HETATM   15  C   UNL     1     -11.569   6.505  72.278  1.00  0.00    -0.330 A  
HETATM   16  C   UNL     1     -10.774   5.726  71.440  1.00  0.00    -0.319 A  
HETATM   17  C   UNL     1      -9.701   6.287  70.726  1.00  0.00    -0.180 A  
BRANCH  17  18
HETATM   18  O   UNL     1      -8.950   5.560  69.821  1.00  0.00    -0.122 OA 
BRANCH  18  19
HETATM   19  C   UNL     1      -9.728   4.800  68.885  1.00  0.00    -0.174 C  
BRANCH  19  20
HETATM   20  C   UNL     1      -9.877   5.536  67.588  1.00  0.00    -0.166 C  
HETATM   21  C   UNL     1     -10.977   6.228  67.255  1.00  0.00    -0.455 C  
ENDBRANCH  19  20
ENDBRANCH  18  19
ENDBRANCH  17  18
ENDBRANCH  11  12
ENDBRANCH  10  11
ENDBRANCH   7  10
ENDBRANCH   6   7
ENDBRANCH   4   6
ENDBRANCH   2   4
TORSDOF 9
ENDMDL
MODEL      236
REMARK 921   NORMALIZED FREE ENERGY PREDICTED BY IDOCK:   -3.36 KCAL/MOL
REMARK 922        TOTAL FREE ENERGY PREDICTED BY IDOCK:   -5.89 KCAL/MOL
REMARK 923 INTER-LIGAND FREE ENERGY PREDICTED BY IDOCK:   -5.36 KCAL/MOL
REMARK 924 INTRA-LIGAND FREE ENERGY PREDICTED BY IDOCK:   -0.53 KCAL/MOL
REMARK 927      BINDING AFFINITY PREDICTED BY RF-SCORE:    0.00 PKD
ROOT
HETATM    1  C   UNL     1     -10.374  15.964  65.776  1.00  0.00    -0.396 C  
HETATM    2  C   UNL     1     -11.085  14.610  65.772  1.00  0.00    -0.331 C  
HETATM    3  C   UNL     1     -10.653  13.813  64.535  1.00  0.00    -0.405 C  
ENDROOT
BRANCH   2   4
HETATM    4  N   UNL     1     -10.768  13.907  67.020  1.00  0.00    -0.282 NA 
HETATM    5  H   UNL     1     -11.618  13.672  67.533  1.00  0.00     0.000 HD 
BRANCH   4   6
HETATM    6  C   UNL     1      -9.934  12.716  66.809  1.00  0.00    -0.234 C  
BRANCH   6   7
HETATM    7  C   UNL     1     -10.625  11.429  67.304  1.00  0.00    -0.227 C  
HETATM    8  O   UNL     1     -12.046  11.604  67.339  1.00  0.00    -0.605 OA 
HETATM    9  H   UNL     1     -12.471  10.811  67.644  1.00  0.00     0.000 HD 
BRANCH   7  10
HETATM   10  C   UNL     1     -10.254  10.249  66.382  1.00  0.00    -0.225 C  
BRANCH  10  11
HETATM   11  O   UNL     1     -10.581   8.970  66.943  1.00  0.00    -0.248 OA 
BRANCH  11  12
HETATM   12  C   UNL     1      -9.854   7.881  66.519  1.00  0.00    -0.202 A  
HETATM   13  C   UNL     1      -8.752   7.986  65.656  1.00  0.00    -0.156 A  
HETATM   14  C   UNL     1      -8.064   6.856  65.222  1.00  0.00    -0.134 A  
HETATM   15  C   UNL     1      -8.479   5.598  65.623  1.00  0.00    -0.147 A  
HETATM   16  C   UNL     1      -9.561   5.471  66.491  1.00  0.00    -0.169 A  
HETATM   17  C   UNL     1     -10.233   6.602  66.986  1.00  0.00    -0.223 A  
BRANCH  17  18
HETATM   18  O   UNL     1     -11.252   6.513  67.917  1.00  0.00    -0.292 OA 
BRANCH  18  19
HETATM   19  C   UNL     1     -10.824   6.098  69.221  1.00  0.00    -0.351 C  
BRANCH  19  20
HETATM   20  C   UNL     1     -11.597   6.808  70.291  1.00  0.00    -0.417 C  
HETATM   21  C   UNL     1     -11.317   6.699  71.599  1.00  0.00    -0.319 C  
ENDBRANCH  19  20
ENDBRANCH  18  19
ENDBRANCH  17  18
ENDBRANCH  11  12
ENDBRANCH  10  11
ENDBRANCH   7  10
ENDBRANCH   6   7
ENDBRANCH   4   6
ENDBRANCH   2   4
TORSDOF 9
ENDMDL
MODEL      237
REMARK 921   NORMALIZED FREE ENERGY PREDICTED BY IDOCK:   -3.34 KCAL/MOL
REMARK 922        TOTAL FREE ENERGY PREDICTED BY IDOCK:   -5.87 KCAL/MOL
REMARK 923 INTER-LIGAND FREE ENERGY PREDICTED BY IDOCK:   -5.04 KCAL/MOL
REMARK 924 INTRA-LIGAND FREE ENERGY PREDICTED BY IDOCK:   -0.83 KCAL/MOL
REMARK 927      BINDING AFFINITY PREDICTED BY RF-SCORE:    0.00 PKD
ROOT
HETATM    1  C   UNL     1     -10.427   6.485  68.393  1.00  0.00    -0.258 C  
HETATM    2  C   UNL     1      -9.494   7.577  68.919  1.00  0.00    -0.145 C  
HETATM    3  C   UNL     1      -8.085   7.356  68.355  1.00  0.00    -0.125 C  
ENDROOT
BRANCH   2   4
HETATM    4  N   UNL     1     -10.041   8.885  68.545  1.00  0.00    -0.183 NA 
HETATM    5  H   UNL     1      -9.355   9.625  68.695  1.00  0.00     0.000 HD 
BRANCH   4   6
HETATM    6  C   UNL     1     -10.554   8.916  67.168  1.00  0.00    -0.231 C  
BRANCH   6   7
HETATM    7  C   UNL     1     -10.020  10.127  66.376  1.00  0.00    -0.234 C  
HETATM    8  O   UNL     1      -9.995   9.838  64.974  1.00  0.00    -0.403 OA 
HETATM    9  H   UNL     1      -9.666  10.584  64.487  1.00  0.00     0.000 HD 
BRANCH   7  10
HETATM   10  C   UNL     1     -10.902  11.362  66.652  1.00  0.00    -0.289 C  
BRANCH  10  11
HETATM   11  O   UNL     1     -10.857  11.794  68.019  1.00  0.00    -0.195 OA 
BRANCH  11  12
HETATM   12  C   UNL     1     -10.222  12.984  68.294  1.00  0.00    -0.246 A  
HETATM   13  C   UNL     1      -8.909  13.260  67.885  1.00  0.00    -0.192 A  
HETATM   14  C   UNL     1      -8.288  14.464  68.214  1.00  0.00    -0.158 A  
HETATM   15  C   UNL     1      -8.961  15.402  68.978  1.00  0.00    -0.230 A  
HETATM   16  C   UNL     1     -10.271  15.153  69.382  1.00  0.00    -0.244 A  
HETATM   17  C   UNL     1     -10.934  13.970  69.011  1.00  0.00    -0.259 A  
BRANCH  17  18
HETATM   18  O   UNL     1     -12.262  13.735  69.322  1.00  0.00    -0.337 OA 
BRANCH  18  19
HETATM   19  C   UNL     1     -12.496  13.408  70.698  1.00  0.00    -0.311 C  
BRANCH  19  20
HETATM   20  C   UNL     1     -13.240  14.508  71.393  1.00  0.00    -0.424 C  
HETATM   21  C   UNL     1     -13.173  14.722  72.715  1.00  0.00    -0.581 C  
ENDBRANCH  19  20
ENDBRANCH  18  19
ENDBRANCH  17  18
ENDBRANCH  11  12
ENDBRANCH  10  11
ENDBRANCH   7  10
ENDBRANCH   6   7
ENDBRANCH   4   6
ENDBRANCH   2   4
TORSDOF 9
ENDMDL
MODEL      238
REMARK 921   NORMALIZED FREE ENERGY PREDICTED BY IDOCK:   -3.33 KCAL/MOL
REMARK 922        TOTAL FREE ENERGY PREDICTED BY IDOCK:   -5.85 KCAL/MOL
REMARK 923 INTER-LIGAND FREE ENERGY PREDICTED BY IDOCK:   -4.90 KCAL/MOL
REMARK 924 INTRA-LIGAND FREE ENERGY PREDICTED BY IDOCK:   -0.95 KCAL/MOL
REMARK 927      BINDING AFFINITY PREDICTED BY RF-SCORE:    0.00 PKD
ROOT
HETATM    1  C   UNL     1     -12.220  10.347  69.542  1.00  0.00    -0.068 C  
HETATM    2  C   UNL     1     -11.877  10.534  71.022  1.00  0.00    -0.340 C  
HETATM    3  C   UNL     1     -13.170  10.734  71.821  1.00  0.00    -0.523 C  
ENDROOT
BRANCH   2   4
HETATM    4  N   UNL     1     -11.118   9.365  71.480  1.00  0.00    -0.376 NA 
HETATM    5  H   UNL     1     -10.435   9.628  72.190  1.00  0.00     0.000 HD 
BRANCH   4   6
HETATM    6  C   UNL     1     -11.982   8.277  71.960  1.00  0.00    -0.348 C  
BRANCH   6   7
HETATM    7  C   UNL     1     -11.337   6.890  71.752  1.00  0.00    -0.261 C  
HETATM    8  O   UNL     1     -11.939   5.923  72.619  1.00  0.00    -0.509 OA 
HETATM    9  H   UNL     1     -11.542   5.069  72.491  1.00  0.00     0.000 HD 
BRANCH   7  10
HETATM   10  C   UNL     1     -11.491   6.457  70.279  1.00  0.00    -0.402 C  
BRANCH  10  11
HETATM   11  O   UNL     1     -10.959   7.413  69.352  1.00  0.00    -0.205 OA 
BRANCH  11  12
HETATM   12  C   UNL     1     -10.283   6.931  68.254  1.00  0.00    -0.180 A  
HETATM   13  C   UNL     1     -10.562   5.686  67.671  1.00  0.00    -0.279 A  
HETATM   14  C   UNL     1      -9.831   5.218  66.581  1.00  0.00    -0.198 A  
HETATM   15  C   UNL     1      -8.791   5.975  66.071  1.00  0.00    -0.159 A  
HETATM   16  C   UNL     1      -8.506   7.221  66.626  1.00  0.00    -0.124 A  
HETATM   17  C   UNL     1      -9.269   7.736  67.688  1.00  0.00    -0.136 A  
BRANCH  17  18
HETATM   18  O   UNL     1      -9.067   9.005  68.201  1.00  0.00    -0.133 OA 
BRANCH  18  19
HETATM   19  C   UNL     1      -8.826  10.010  67.207  1.00  0.00    -0.135 C  
BRANCH  19  20
HETATM   20  C   UNL     1     -10.114  10.588  66.703  1.00  0.00    -0.275 C  
HETATM   21  C   UNL     1     -10.428  11.888  66.804  1.00  0.00    -0.253 C  
ENDBRANCH  19  20
ENDBRANCH  18  19
ENDBRANCH  17  18
ENDBRANCH  11  12
ENDBRANCH  10  11
ENDBRANCH   7  10
ENDBRANCH   6   7
ENDBRANCH   4   6
ENDBRANCH   2   4
TORSDOF 9
ENDMDL
MODEL      239
REMARK 921   NORMALIZED FREE ENERGY PREDICTED BY IDOCK:   -3.31 KCAL/MOL
REMARK 922        TOTAL FREE ENERGY PREDICTED BY IDOCK:   -5.82 KCAL/MOL
REMARK 923 INTER-LIGAND FREE ENERGY PREDICTED BY IDOCK:   -5.13 KCAL/MOL
REMARK 924 INTRA-LIGAND FREE ENERGY PREDICTED BY IDOCK:   -0.69 KCAL/MOL
REMARK 927      BINDING AFFINITY PREDICTED BY RF-SCORE:    0.00 PKD
ROOT
HETATM    1  C   UNL     1     -12.346  10.838  69.500  1.00  0.00    -0.208 C  
HETATM    2  C   UNL     1     -12.049  11.104  70.977  1.00  0.00    -0.275 C  
HETATM    3  C   UNL     1     -13.151  11.994  71.565  1.00  0.00    -0.362 C  
ENDROOT
BRANCH   2   4
HETATM    4  N   UNL     1     -11.945   9.818  71.676  1.00  0.00    -0.396 NA 
HETATM    5  H   UNL     1     -11.489   9.930  72.581  1.00  0.00     0.000 HD 
BRANCH   4   6
HETATM    6  C   UNL     1     -13.241   9.140  71.818  1.00  0.00    -0.396 C  
BRANCH   6   7
HETATM    7  C   UNL     1     -13.079   7.626  72.068  1.00  0.00    -0.183 C  
HETATM    8  O   UNL     1     -14.358   6.986  72.109  1.00  0.00    -0.613 OA 
HETATM    9  H   UNL     1     -14.259   6.053  72.263  1.00  0.00     0.000 HD 
BRANCH   7  10
HETATM   10  C   UNL     1     -12.204   7.004  70.961  1.00  0.00    -0.374 C  
BRANCH  10  11
HETATM   11  O   UNL     1     -10.877   6.687  71.402  1.00  0.00    -0.231 OA 
BRANCH  11  12
HETATM   12  C   UNL     1     -10.649   5.416  71.881  1.00  0.00    -0.226 A  
HETATM   13  C   UNL     1     -11.305   4.895  73.006  1.00  0.00    -0.354 A  
HETATM   14  C   UNL     1     -11.021   3.616  73.481  1.00  0.00    -0.333 A  
HETATM   15  C   UNL     1     -10.057   2.846  72.854  1.00  0.00    -0.218 A  
HETATM   16  C   UNL     1      -9.403   3.339  71.727  1.00  0.00    -0.201 A  
HETATM   17  C   UNL     1      -9.717   4.603  71.198  1.00  0.00    -0.181 A  
BRANCH  17  18
HETATM   18  O   UNL     1      -9.150   5.081  70.031  1.00  0.00    -0.115 OA 
BRANCH  18  19
HETATM   19  C   UNL     1      -9.154   4.144  68.946  1.00  0.00    -0.129 C  
BRANCH  19  20
HETATM   20  C   UNL     1      -9.487   4.822  67.652  1.00  0.00    -0.176 C  
HETATM   21  C   UNL     1     -10.694   5.342  67.381  1.00  0.00    -0.161 C  
ENDBRANCH  19  20
ENDBRANCH  18  19
ENDBRANCH  17  18
ENDBRANCH  11  12
ENDBRANCH  10  11
ENDBRANCH   7  10
ENDBRANCH   6   7
ENDBRANCH   4   6
ENDBRANCH   2   4
TORSDOF 9
ENDMDL
MODEL      240
REMARK 921   NORMALIZED FREE ENERGY PREDICTED BY IDOCK:   -3.29 KCAL/MOL
REMARK 922        TOTAL FREE ENERGY PREDICTED BY IDOCK:   -5.80 KCAL/MOL
REMARK 923 INTER-LIGAND FREE ENERGY PREDICTED BY IDOCK:   -4.83 KCAL/MOL
REMARK 924 INTRA-LIGAND FREE ENERGY PREDICTED BY IDOCK:   -0.96 KCAL/MOL
REMARK 927      BINDING AFFINITY PREDICTED BY RF-SCORE:    0.00 PKD
ROOT
HETATM    1  C   UNL     1     -12.321  10.718  69.674  1.00  0.00    -0.262 C  
HETATM    2  C   UNL     1     -11.995  10.941  71.152  1.00  0.00    -0.212 C  
HETATM    3  C   UNL     1     -13.060  11.849  71.776  1.00  0.00    -0.465 C  
ENDROOT
BRANCH   2   4
HETATM    4  N   UNL     1     -11.920   9.636  71.820  1.00  0.00    -0.381 NA 
HETATM    5  H   UNL     1     -11.516   9.726  72.752  1.00  0.00     0.000 HD 
BRANCH   4   6
HETATM    6  C   UNL     1     -13.216   8.947  71.872  1.00  0.00    -0.393 C  
BRANCH   6   7
HETATM    7  C   UNL     1     -13.057   7.413  71.900  1.00  0.00    -0.245 C  
HETATM    8  O   UNL     1     -14.327   6.781  72.097  1.00  0.00    -0.604 OA 
HETATM    9  H   UNL     1     -14.228   5.835  72.114  1.00  0.00     0.000 HD 
BRANCH   7  10
HETATM   10  C   UNL     1     -12.418   6.929  70.582  1.00  0.00    -0.123 C  
BRANCH  10  11
HETATM   11  O   UNL     1     -11.087   7.426  70.385  1.00  0.00    -0.258 OA 
BRANCH  11  12
HETATM   12  C   UNL     1     -10.547   7.323  69.123  1.00  0.00    -0.208 A  
HETATM   13  C   UNL     1     -10.958   6.358  68.192  1.00  0.00    -0.393 A  
HETATM   14  C   UNL     1     -10.361   6.265  66.936  1.00  0.00    -0.306 A  
HETATM   15  C   UNL     1      -9.325   7.119  66.598  1.00  0.00    -0.207 A  
HETATM   16  C   UNL     1      -8.911   8.094  67.503  1.00  0.00    -0.143 A  
HETATM   17  C   UNL     1      -9.539   8.242  68.752  1.00  0.00    -0.150 A  
BRANCH  17  18
HETATM   18  O   UNL     1      -9.210   9.256  69.633  1.00  0.00    -0.156 OA 
BRANCH  18  19
HETATM   19  C   UNL     1      -8.303   8.863  70.671  1.00  0.00    -0.166 C  
BRANCH  19  20
HETATM   20  C   UNL     1      -6.911   9.336  70.376  1.00  0.00    -0.085 C  
HETATM   21  C   UNL     1      -6.541  10.623  70.443  1.00  0.00    -0.075 C  
ENDBRANCH  19  20
ENDBRANCH  18  19
ENDBRANCH  17  18
ENDBRANCH  11  12
ENDBRANCH  10  11
ENDBRANCH   7  10
ENDBRANCH   6   7
ENDBRANCH   4   6
ENDBRANCH   2   4
TORSDOF 9
ENDMDL
MODEL      241
REMARK 921   NORMALIZED FREE ENERGY PREDICTED BY IDOCK:   -3.29 KCAL/MOL
REMARK 922        TOTAL FREE ENERGY PREDICTED BY IDOCK:   -5.79 KCAL/MOL
REMARK 923 INTER-LIGAND FREE ENERGY PREDICTED BY IDOCK:   -5.08 KCAL/MOL
REMARK 924 INTRA-LIGAND FREE ENERGY PREDICTED BY IDOCK:   -0.71 KCAL/MOL
REMARK 927      BINDING AFFINITY PREDICTED BY RF-SCORE:    0.00 PKD
ROOT
HETATM    1  C   UNL     1      -7.689  12.807  68.141  1.00  0.00    -0.137 C  
HETATM    2  C   UNL     1      -6.705  12.039  69.026  1.00  0.00    -0.100 C  
HETATM    3  C   UNL     1      -5.992  13.022  69.963  1.00  0.00    -0.140 C  
ENDROOT
BRANCH   2   4
HETATM    4  N   UNL     1      -7.442  11.006  69.764  1.00  0.00    -0.359 NA 
HETATM    5  H   UNL     1      -8.444  11.193  69.750  1.00  0.00     0.000 HD 
BRANCH   4   6
HETATM    6  C   UNL     1      -7.152   9.648  69.285  1.00  0.00    -0.063 C  
BRANCH   6   7
HETATM    7  C   UNL     1      -8.372   9.005  68.592  1.00  0.00    -0.123 C  
HETATM    8  O   UNL     1      -8.109   7.630  68.291  1.00  0.00    -0.121 OA 
HETATM    9  H   UNL     1      -8.861   7.234  67.865  1.00  0.00     0.000 HD 
BRANCH   7  10
HETATM   10  C   UNL     1      -9.613   9.126  69.500  1.00  0.00    -0.168 C  
BRANCH  10  11
HETATM   11  O   UNL     1     -10.828   9.342  68.770  1.00  0.00    -0.187 OA 
BRANCH  11  12
HETATM   12  C   UNL     1     -11.183  10.641  68.488  1.00  0.00    -0.282 A  
HETATM   13  C   UNL     1     -11.241  11.151  67.182  1.00  0.00    -0.320 A  
HETATM   14  C   UNL     1     -11.571  12.483  66.941  1.00  0.00    -0.436 A  
HETATM   15  C   UNL     1     -11.823  13.336  68.001  1.00  0.00    -0.392 A  
HETATM   16  C   UNL     1     -11.785  12.846  69.305  1.00  0.00    -0.378 A  
HETATM   17  C   UNL     1     -11.511  11.492  69.566  1.00  0.00    -0.311 A  
BRANCH  17  18
HETATM   18  O   UNL     1     -11.554  10.959  70.842  1.00  0.00    -0.271 OA 
BRANCH  18  19
HETATM   19  C   UNL     1     -12.866  10.911  71.418  1.00  0.00    -0.449 C  
BRANCH  19  20
HETATM   20  C   UNL     1     -13.405   9.512  71.411  1.00  0.00    -0.435 C  
HETATM   21  C   UNL     1     -13.509   8.757  72.515  1.00  0.00    -0.406 C  
ENDBRANCH  19  20
ENDBRANCH  18  19
ENDBRANCH  17  18
ENDBRANCH  11  12
ENDBRANCH  10  11
ENDBRANCH   7  10
ENDBRANCH   6   7
ENDBRANCH   4   6
ENDBRANCH   2   4
TORSDOF 9
ENDMDL
MODEL      242
REMARK 921   NORMALIZED FREE ENERGY PREDICTED BY IDOCK:   -3.27 KCAL/MOL
REMARK 922        TOTAL FREE ENERGY PREDICTED BY IDOCK:   -5.77 KCAL/MOL
REMARK 923 INTER-LIGAND FREE ENERGY PREDICTED BY IDOCK:   -5.05 KCAL/MOL
REMARK 924 INTRA-LIGAND FREE ENERGY PREDICTED BY IDOCK:   -0.72 KCAL/MOL
REMARK 927      BINDING AFFINITY PREDICTED BY RF-SCORE:    0.00 PKD
ROOT
HETATM    1  C   UNL     1     -10.179   7.607  67.949  1.00  0.00    -0.250 C  
HETATM    2  C   UNL     1      -8.734   7.173  67.695  1.00  0.00    -0.121 C  
HETATM    3  C   UNL     1      -7.865   8.413  67.458  1.00  0.00    -0.099 C  
ENDROOT
BRANCH   2   4
HETATM    4  N   UNL     1      -8.271   6.383  68.842  1.00  0.00    -0.117 NA 
HETATM    5  H   UNL     1      -7.829   5.518  68.535  1.00  0.00     0.000 HD 
BRANCH   4   6
HETATM    6  C   UNL     1      -7.383   7.141  69.734  1.00  0.00    -0.085 C  
BRANCH   6   7
HETATM    7  C   UNL     1      -7.961   7.266  71.159  1.00  0.00    -0.101 C  
HETATM    8  O   UNL     1      -7.018   6.790  72.125  1.00  0.00    -0.066 OA 
HETATM    9  H   UNL     1      -7.374   6.867  73.003  1.00  0.00     0.000 HD 
BRANCH   7  10
HETATM   10  C   UNL     1      -8.327   8.737  71.448  1.00  0.00    -0.168 C  
BRANCH  10  11
HETATM   11  O   UNL     1      -9.296   9.267  70.533  1.00  0.00    -0.225 OA 
BRANCH  11  12
HETATM   12  C   UNL     1     -10.590   9.404  70.982  1.00  0.00    -0.330 A  
HETATM   13  C   UNL     1     -11.114   8.654  72.045  1.00  0.00    -0.437 A  
HETATM   14  C   UNL     1     -12.441   8.797  72.446  1.00  0.00    -0.421 A  
HETATM   15  C   UNL     1     -13.274   9.675  71.775  1.00  0.00    -0.520 A  
HETATM   16  C   UNL     1     -12.770  10.440  70.725  1.00  0.00    -0.460 A  
HETATM   17  C   UNL     1     -11.420  10.353  70.344  1.00  0.00    -0.337 A  
BRANCH  17  18
HETATM   18  O   UNL     1     -10.871  11.163  69.366  1.00  0.00    -0.237 OA 
BRANCH  18  19
HETATM   19  C   UNL     1     -11.836  11.887  68.591  1.00  0.00    -0.308 C  
BRANCH  19  20
HETATM   20  C   UNL     1     -11.485  13.343  68.522  1.00  0.00    -0.345 C  
HETATM   21  C   UNL     1     -11.738  14.112  67.452  1.00  0.00    -0.422 C  
ENDBRANCH  19  20
ENDBRANCH  18  19
ENDBRANCH  17  18
ENDBRANCH  11  12
ENDBRANCH  10  11
ENDBRANCH   7  10
ENDBRANCH   6   7
ENDBRANCH   4   6
ENDBRANCH   2   4
TORSDOF 9
ENDMDL
MODEL      243
REMARK 921   NORMALIZED FREE ENERGY PREDICTED BY IDOCK:   -3.25 KCAL/MOL
REMARK 922        TOTAL FREE ENERGY PREDICTED BY IDOCK:   -5.74 KCAL/MOL
REMARK 923 INTER-LIGAND FREE ENERGY PREDICTED BY IDOCK:   -4.81 KCAL/MOL
REMARK 924 INTRA-LIGAND FREE ENERGY PREDICTED BY IDOCK:   -0.93 KCAL/MOL
REMARK 927      BINDING AFFINITY PREDICTED BY RF-SCORE:    0.00 PKD
ROOT
HETATM    1  C   UNL     1      -9.402  15.921  65.708  1.00  0.00    -0.280 C  
HETATM    2  C   UNL     1      -9.908  16.599  66.984  1.00  0.00    -0.260 C  
HETATM    3  C   UNL     1     -10.089  18.099  66.724  1.00  0.00    -0.367 C  
ENDROOT
BRANCH   2   4
HETATM    4  N   UNL     1     -11.159  15.953  67.396  1.00  0.00    -0.262 NA 
HETATM    5  H   UNL     1     -11.197  14.987  67.069  1.00  0.00     0.000 HD 
BRANCH   4   6
HETATM    6  C   UNL     1     -11.389  16.027  68.845  1.00  0.00    -0.370 C  
BRANCH   6   7
HETATM    7  C   UNL     1     -10.739  14.847  69.596  1.00  0.00    -0.229 C  
HETATM    8  O   UNL     1     -11.309  14.710  70.902  1.00  0.00    -0.478 OA 
HETATM    9  H   UNL     1     -10.909  13.983  71.365  1.00  0.00     0.000 HD 
BRANCH   7  10
HETATM   10  C   UNL     1     -10.928  13.546  68.790  1.00  0.00    -0.261 C  
BRANCH  10  11
HETATM   11  O   UNL     1      -9.757  13.161  68.057  1.00  0.00    -0.211 OA 
BRANCH  11  12
HETATM   12  C   UNL     1      -9.842  12.044  67.257  1.00  0.00    -0.192 A  
HETATM   13  C   UNL     1     -10.049  12.111  65.871  1.00  0.00    -0.270 A  
HETATM   14  C   UNL     1     -10.164  10.956  65.101  1.00  0.00    -0.360 A  
HETATM   15  C   UNL     1     -10.099   9.713  65.706  1.00  0.00    -0.274 A  
HETATM   16  C   UNL     1      -9.879   9.624  67.079  1.00  0.00    -0.249 A  
HETATM   17  C   UNL     1      -9.702  10.776  67.864  1.00  0.00    -0.167 A  
BRANCH  17  18
HETATM   18  O   UNL     1      -9.394  10.717  69.212  1.00  0.00    -0.187 OA 
BRANCH  18  19
HETATM   19  C   UNL     1      -8.547   9.619  69.574  1.00  0.00    -0.172 C  
BRANCH  19  20
HETATM   20  C   UNL     1      -7.103   9.963  69.367  1.00  0.00    -0.067 C  
HETATM   21  C   UNL     1      -6.478  10.949  70.029  1.00  0.00    -0.151 C  
ENDBRANCH  19  20
ENDBRANCH  18  19
ENDBRANCH  17  18
ENDBRANCH  11  12
ENDBRANCH  10  11
ENDBRANCH   7  10
ENDBRANCH   6   7
ENDBRANCH   4   6
ENDBRANCH   2   4
TORSDOF 9
ENDMDL
MODEL      244
REMARK 921   NORMALIZED FREE ENERGY PREDICTED BY IDOCK:   -3.25 KCAL/MOL
REMARK 922        TOTAL FREE ENERGY PREDICTED BY IDOCK:   -5.73 KCAL/MOL
REMARK 923 INTER-LIGAND FREE ENERGY PREDICTED BY IDOCK:   -4.75 KCAL/MOL
REMARK 924 INTRA-LIGAND FREE ENERGY PREDICTED BY IDOCK:   -0.98 KCAL/MOL
REMARK 927      BINDING AFFINITY PREDICTED BY RF-SCORE:    0.00 PKD
ROOT
HETATM    1  C   UNL     1     -10.008   9.555  65.745  1.00  0.00    -0.316 C  
HETATM    2  C   UNL     1      -8.536   9.797  66.085  1.00  0.00    -0.124 C  
HETATM    3  C   UNL     1      -7.751  10.051  64.792  1.00  0.00    -0.142 C  
ENDROOT
BRANCH   2   4
HETATM    4  N   UNL     1      -8.447  10.928  67.017  1.00  0.00    -0.132 NA 
HETATM    5  H   UNL     1      -9.317  11.042  67.536  1.00  0.00     0.000 HD 
BRANCH   4   6
HETATM    6  C   UNL     1      -7.299  10.826  67.928  1.00  0.00    -0.088 C  
BRANCH   6   7
HETATM    7  C   UNL     1      -7.290   9.492  68.704  1.00  0.00    -0.075 C  
HETATM    8  O   UNL     1      -5.997   9.250  69.269  1.00  0.00    -0.038 OA 
HETATM    9  H   UNL     1      -5.992   8.428  69.747  1.00  0.00     0.000 HD 
BRANCH   7  10
HETATM   10  C   UNL     1      -8.362   9.526  69.813  1.00  0.00    -0.164 C  
BRANCH  10  11
HETATM   11  O   UNL     1      -9.677   9.211  69.337  1.00  0.00    -0.163 OA 
BRANCH  11  12
HETATM   12  C   UNL     1     -10.746   9.809  69.966  1.00  0.00    -0.283 A  
HETATM   13  C   UNL     1     -11.251  11.062  69.589  1.00  0.00    -0.345 A  
HETATM   14  C   UNL     1     -12.312  11.649  70.275  1.00  0.00    -0.339 A  
HETATM   15  C   UNL     1     -12.871  11.005  71.365  1.00  0.00    -0.548 A  
HETATM   16  C   UNL     1     -12.394   9.753  71.747  1.00  0.00    -0.470 A  
HETATM   17  C   UNL     1     -11.363   9.118  71.033  1.00  0.00    -0.309 A  
BRANCH  17  18
HETATM   18  O   UNL     1     -10.929   7.839  71.334  1.00  0.00    -0.232 OA 
BRANCH  18  19
HETATM   19  C   UNL     1     -11.511   7.284  72.521  1.00  0.00    -0.281 C  
BRANCH  19  20
HETATM   20  C   UNL     1     -10.787   6.042  72.944  1.00  0.00    -0.291 C  
HETATM   21  C   UNL     1     -11.408   4.886  73.225  1.00  0.00    -0.408 C  
ENDBRANCH  19  20
ENDBRANCH  18  19
ENDBRANCH  17  18
ENDBRANCH  11  12
ENDBRANCH  10  11
ENDBRANCH   7  10
ENDBRANCH   6   7
ENDBRANCH   4   6
ENDBRANCH   2   4
TORSDOF 9
ENDMDL
MODEL      245
REMARK 921   NORMALIZED FREE ENERGY PREDICTED BY IDOCK:   -3.25 KCAL/MOL
REMARK 922        TOTAL FREE ENERGY PREDICTED BY IDOCK:   -5.73 KCAL/MOL
REMARK 923 INTER-LIGAND FREE ENERGY PREDICTED BY IDOCK:   -4.68 KCAL/MOL
REMARK 924 INTRA-LIGAND FREE ENERGY PREDICTED BY IDOCK:   -1.05 KCAL/MOL
REMARK 927      BINDING AFFINITY PREDICTED BY RF-SCORE:    0.00 PKD
ROOT
HETATM    1  C   UNL     1      -6.250  10.189  70.397  1.00  0.00    -0.112 C  
HETATM    2  C   UNL     1      -6.319   9.504  69.031  1.00  0.00    -0.042 C  
HETATM    3  C   UNL     1      -5.317   8.344  68.994  1.00  0.00    -0.035 C  
ENDROOT
BRANCH   2   4
HETATM    4  N   UNL     1      -7.696   9.054  68.798  1.00  0.00    -0.094 NA 
HETATM    5  H   UNL     1      -8.120   9.563  68.022  1.00  0.00     0.000 HD 
BRANCH   4   6
HETATM    6  C   UNL     1      -7.794   7.603  68.592  1.00  0.00    -0.121 C  
BRANCH   6   7
HETATM    7  C   UNL     1      -8.700   6.927  69.643  1.00  0.00    -0.141 C  
HETATM    8  O   UNL     1      -8.366   7.382  70.959  1.00  0.00    -0.112 OA 
HETATM    9  H   UNL     1      -8.924   6.966  71.606  1.00  0.00     0.000 HD 
BRANCH   7  10
HETATM   10  C   UNL     1     -10.180   7.233  69.332  1.00  0.00    -0.192 C  
BRANCH  10  11
HETATM   11  O   UNL     1     -10.448   8.634  69.184  1.00  0.00    -0.220 OA 
BRANCH  11  12
HETATM   12  C   UNL     1     -11.289   9.223  70.101  1.00  0.00    -0.164 A  
HETATM   13  C   UNL     1     -11.833   8.532  71.194  1.00  0.00    -0.322 A  
HETATM   14  C   UNL     1     -12.709   9.157  72.080  1.00  0.00    -0.473 A  
HETATM   15  C   UNL     1     -13.076  10.475  71.874  1.00  0.00    -0.567 A  
HETATM   16  C   UNL     1     -12.536  11.184  70.803  1.00  0.00    -0.445 A  
HETATM   17  C   UNL     1     -11.606  10.590  69.932  1.00  0.00    -0.307 A  
BRANCH  17  18
HETATM   18  O   UNL     1     -10.987  11.293  68.915  1.00  0.00    -0.195 OA 
BRANCH  18  19
HETATM   19  C   UNL     1     -11.345  12.681  68.855  1.00  0.00    -0.297 C  
BRANCH  19  20
HETATM   20  C   UNL     1     -11.910  13.032  67.512  1.00  0.00    -0.408 C  
HETATM   21  C   UNL     1     -11.698  12.299  66.409  1.00  0.00    -0.431 C  
ENDBRANCH  19  20
ENDBRANCH  18  19
ENDBRANCH  17  18
ENDBRANCH  11  12
ENDBRANCH  10  11
ENDBRANCH   7  10
ENDBRANCH   6   7
ENDBRANCH   4   6
ENDBRANCH   2   4
TORSDOF 9
ENDMDL
MODEL      246
REMARK 921   NORMALIZED FREE ENERGY PREDICTED BY IDOCK:   -3.23 KCAL/MOL
REMARK 922        TOTAL FREE ENERGY PREDICTED BY IDOCK:   -5.70 KCAL/MOL
REMARK 923 INTER-LIGAND FREE ENERGY PREDICTED BY IDOCK:   -4.73 KCAL/MOL
REMARK 924 INTRA-LIGAND FREE ENERGY PREDICTED BY IDOCK:   -0.98 KCAL/MOL
REMARK 927      BINDING AFFINITY PREDICTED BY RF-SCORE:    0.00 PKD
ROOT
HETATM    1  C   UNL     1     -10.308   4.959  71.853  1.00  0.00    -0.259 C  
HETATM    2  C   UNL     1     -11.090   5.166  73.151  1.00  0.00    -0.326 C  
HETATM    3  C   UNL     1     -10.126   5.606  74.260  1.00  0.00    -0.276 C  
ENDROOT
BRANCH   2   4
HETATM    4  N   UNL     1     -12.147   6.156  72.912  1.00  0.00    -0.382 NA 
HETATM    5  H   UNL     1     -12.114   6.900  73.608  1.00  0.00     0.000 HD 
BRANCH   4   6
HETATM    6  C   UNL     1     -12.115   6.705  71.550  1.00  0.00    -0.355 C  
BRANCH   6   7
HETATM    7  C   UNL     1     -12.084   8.248  71.547  1.00  0.00    -0.299 C  
HETATM    8  O   UNL     1     -12.905   8.767  72.599  1.00  0.00    -0.518 OA 
HETATM    9  H   UNL     1     -12.886   9.717  72.598  1.00  0.00     0.000 HD 
BRANCH   7  10
HETATM   10  C   UNL     1     -10.632   8.743  71.708  1.00  0.00    -0.347 C  
BRANCH  10  11
HETATM   11  O   UNL     1      -9.783   8.363  70.617  1.00  0.00    -0.172 OA 
BRANCH  11  12
HETATM   12  C   UNL     1     -10.103   8.833  69.363  1.00  0.00    -0.203 A  
HETATM   13  C   UNL     1     -10.482  10.162  69.120  1.00  0.00    -0.242 A  
HETATM   14  C   UNL     1     -10.833  10.590  67.841  1.00  0.00    -0.333 A  
HETATM   15  C   UNL     1     -10.836   9.692  66.788  1.00  0.00    -0.051 A  
HETATM   16  C   UNL     1     -10.450   8.371  67.006  1.00  0.00    -0.375 A  
HETATM   17  C   UNL     1     -10.037   7.934  68.276  1.00  0.00    -0.194 A  
BRANCH  17  18
HETATM   18  O   UNL     1      -9.564   6.653  68.503  1.00  0.00    -0.127 OA 
BRANCH  18  19
HETATM   19  C   UNL     1      -8.474   6.268  67.655  1.00  0.00    -0.116 C  
BRANCH  19  20
HETATM   20  C   UNL     1      -7.192   6.197  68.427  1.00  0.00    -0.084 C  
HETATM   21  C   UNL     1      -7.138   5.956  69.745  1.00  0.00    -0.068 C  
ENDBRANCH  19  20
ENDBRANCH  18  19
ENDBRANCH  17  18
ENDBRANCH  11  12
ENDBRANCH  10  11
ENDBRANCH   7  10
ENDBRANCH   6   7
ENDBRANCH   4   6
ENDBRANCH   2   4
TORSDOF 9
ENDMDL
MODEL      247
REMARK 921   NORMALIZED FREE ENERGY PREDICTED BY IDOCK:   -3.23 KCAL/MOL
REMARK 922        TOTAL FREE ENERGY PREDICTED BY IDOCK:   -5.70 KCAL/MOL
REMARK 923 INTER-LIGAND FREE ENERGY PREDICTED BY IDOCK:   -5.09 KCAL/MOL
REMARK 924 INTRA-LIGAND FREE ENERGY PREDICTED BY IDOCK:   -0.61 KCAL/MOL
REMARK 927      BINDING AFFINITY PREDICTED BY RF-SCORE:    0.00 PKD
ROOT
HETATM    1  C   UNL     1      -7.757  12.573  68.248  1.00  0.00    -0.141 C  
HETATM    2  C   UNL     1      -6.518  12.460  69.138  1.00  0.00    -0.100 C  
HETATM    3  C   UNL     1      -6.165  13.845  69.696  1.00  0.00    -0.124 C  
ENDROOT
BRANCH   2   4
HETATM    4  N   UNL     1      -6.790  11.488  70.203  1.00  0.00    -0.456 NA 
HETATM    5  H   UNL     1      -7.781  11.475  70.442  1.00  0.00     0.000 HD 
BRANCH   4   6
HETATM    6  C   UNL     1      -6.309  10.138  69.878  1.00  0.00    -0.074 C  
BRANCH   6   7
HETATM    7  C   UNL     1      -7.462   9.190  69.487  1.00  0.00    -0.077 C  
HETATM    8  O   UNL     1      -6.990   7.843  69.383  1.00  0.00    -0.056 OA 
HETATM    9  H   UNL     1      -7.701   7.259  69.142  1.00  0.00     0.000 HD 
BRANCH   7  10
HETATM   10  C   UNL     1      -8.592   9.282  70.533  1.00  0.00    -0.233 C  
BRANCH  10  11
HETATM   11  O   UNL     1      -9.883   8.953  70.000  1.00  0.00    -0.166 OA 
BRANCH  11  12
HETATM   12  C   UNL     1     -10.977   9.596  70.532  1.00  0.00    -0.313 A  
HETATM   13  C   UNL     1     -11.423  10.847  70.080  1.00  0.00    -0.411 A  
HETATM   14  C   UNL     1     -12.515  11.481  70.669  1.00  0.00    -0.405 A  
HETATM   15  C   UNL     1     -13.165  10.887  71.737  1.00  0.00    -0.513 A  
HETATM   16  C   UNL     1     -12.748   9.639  72.192  1.00  0.00    -0.427 A  
HETATM   17  C   UNL     1     -11.686   8.956  71.574  1.00  0.00    -0.324 A  
BRANCH  17  18
HETATM   18  O   UNL     1     -11.307   7.679  71.946  1.00  0.00    -0.250 OA 
BRANCH  18  19
HETATM   19  C   UNL     1     -11.925   6.635  71.182  1.00  0.00    -0.357 C  
BRANCH  19  20
HETATM   20  C   UNL     1     -10.897   5.703  70.616  1.00  0.00    -0.304 C  
HETATM   21  C   UNL     1     -10.562   5.676  69.318  1.00  0.00    -0.359 C  
ENDBRANCH  19  20
ENDBRANCH  18  19
ENDBRANCH  17  18
ENDBRANCH  11  12
ENDBRANCH  10  11
ENDBRANCH   7  10
ENDBRANCH   6   7
ENDBRANCH   4   6
ENDBRANCH   2   4
TORSDOF 9
ENDMDL
MODEL      248
REMARK 921   NORMALIZED FREE ENERGY PREDICTED BY IDOCK:   -3.23 KCAL/MOL
REMARK 922        TOTAL FREE ENERGY PREDICTED BY IDOCK:   -5.70 KCAL/MOL
REMARK 923 INTER-LIGAND FREE ENERGY PREDICTED BY IDOCK:   -4.73 KCAL/MOL
REMARK 924 INTRA-LIGAND FREE ENERGY PREDICTED BY IDOCK:   -0.96 KCAL/MOL
REMARK 927      BINDING AFFINITY PREDICTED BY RF-SCORE:    0.00 PKD
ROOT
HETATM    1  C   UNL     1      -7.895   6.701  69.264  1.00  0.00    -0.110 C  
HETATM    2  C   UNL     1      -7.083   7.250  68.089  1.00  0.00    -0.081 C  
HETATM    3  C   UNL     1      -6.423   6.087  67.340  1.00  0.00    -0.047 C  
ENDROOT
BRANCH   2   4
HETATM    4  N   UNL     1      -7.975   8.031  67.224  1.00  0.00    -0.119 NA 
HETATM    5  H   UNL     1      -8.434   8.775  67.749  1.00  0.00     0.000 HD 
BRANCH   4   6
HETATM    6  C   UNL     1      -7.293   8.567  66.038  1.00  0.00    -0.081 C  
BRANCH   6   7
HETATM    7  C   UNL     1      -8.195   9.526  65.235  1.00  0.00    -0.130 C  
HETATM    8  O   UNL     1      -9.382   8.853  64.801  1.00  0.00    -0.422 OA 
HETATM    9  H   UNL     1      -9.938   9.445  64.306  1.00  0.00     0.000 HD 
BRANCH   7  10
HETATM   10  C   UNL     1      -8.560  10.750  66.101  1.00  0.00    -0.168 C  
BRANCH  10  11
HETATM   11  O   UNL     1      -9.853  10.643  66.712  1.00  0.00    -0.186 OA 
BRANCH  11  12
HETATM   12  C   UNL     1     -10.778  11.622  66.428  1.00  0.00    -0.272 A  
HETATM   13  C   UNL     1     -11.330  11.805  65.151  1.00  0.00    -0.281 A  
HETATM   14  C   UNL     1     -12.237  12.831  64.896  1.00  0.00    -0.519 A  
HETATM   15  C   UNL     1     -12.589  13.709  65.907  1.00  0.00    -0.478 A  
HETATM   16  C   UNL     1     -12.064  13.537  67.186  1.00  0.00    -0.386 A  
HETATM   17  C   UNL     1     -11.193  12.473  67.477  1.00  0.00    -0.291 A  
BRANCH  17  18
HETATM   18  O   UNL     1     -10.726  12.224  68.756  1.00  0.00    -0.228 OA 
BRANCH  18  19
HETATM   19  C   UNL     1     -11.666  11.556  69.607  1.00  0.00    -0.351 C  
BRANCH  19  20
HETATM   20  C   UNL     1     -11.063  10.324  70.212  1.00  0.00    -0.388 C  
HETATM   21  C   UNL     1     -10.888   9.180  69.533  1.00  0.00    -0.194 C  
ENDBRANCH  19  20
ENDBRANCH  18  19
ENDBRANCH  17  18
ENDBRANCH  11  12
ENDBRANCH  10  11
ENDBRANCH   7  10
ENDBRANCH   6   7
ENDBRANCH   4   6
ENDBRANCH   2   4
TORSDOF 9
ENDMDL
MODEL      249
REMARK 921   NORMALIZED FREE ENERGY PREDICTED BY IDOCK:   -3.21 KCAL/MOL
REMARK 922        TOTAL FREE ENERGY PREDICTED BY IDOCK:   -5.67 KCAL/MOL
REMARK 923 INTER-LIGAND FREE ENERGY PREDICTED BY IDOCK:   -5.23 KCAL/MOL
REMARK 924 INTRA-LIGAND FREE ENERGY PREDICTED BY IDOCK:   -0.44 KCAL/MOL
REMARK 927      BINDING AFFINITY PREDICTED BY RF-SCORE:    0.00 PKD
ROOT
HETATM    1  C   UNL     1     -10.647  15.568  65.119  1.00  0.00    -0.455 C  
HETATM    2  C   UNL     1     -11.130  14.176  65.531  1.00  0.00    -0.310 C  
HETATM    3  C   UNL     1     -12.378  13.810  64.719  1.00  0.00    -0.420 C  
ENDROOT
BRANCH   2   4
HETATM    4  N   UNL     1     -10.037  13.219  65.328  1.00  0.00    -0.448 NA 
HETATM    5  H   UNL     1      -9.420  13.190  66.140  1.00  0.00     0.000 HD 
BRANCH   4   6
HETATM    6  C   UNL     1     -10.514  11.873  64.982  1.00  0.00    -0.289 C  
BRANCH   6   7
HETATM    7  C   UNL     1     -10.095  10.822  66.030  1.00  0.00    -0.249 C  
HETATM    8  O   UNL     1     -10.155   9.505  65.471  1.00  0.00    -0.366 OA 
HETATM    9  H   UNL     1      -9.897   8.857  66.117  1.00  0.00     0.000 HD 
BRANCH   7  10
HETATM   10  C   UNL     1      -8.668  11.125  66.533  1.00  0.00    -0.174 C  
BRANCH  10  11
HETATM   11  O   UNL     1      -8.636  11.595  67.887  1.00  0.00    -0.137 OA 
BRANCH  11  12
HETATM   12  C   UNL     1      -9.750  11.380  68.666  1.00  0.00    -0.176 A  
HETATM   13  C   UNL     1     -10.861  12.236  68.663  1.00  0.00    -0.268 A  
HETATM   14  C   UNL     1     -11.956  12.002  69.493  1.00  0.00    -0.346 A  
HETATM   15  C   UNL     1     -11.948  10.922  70.359  1.00  0.00    -0.453 A  
HETATM   16  C   UNL     1     -10.860  10.052  70.368  1.00  0.00    -0.380 A  
HETATM   17  C   UNL     1      -9.772  10.238  69.497  1.00  0.00    -0.211 A  
BRANCH  17  18
HETATM   18  O   UNL     1      -8.721   9.342  69.421  1.00  0.00    -0.135 OA 
BRANCH  18  19
HETATM   19  C   UNL     1      -9.103   7.969  69.581  1.00  0.00    -0.152 C  
BRANCH  19  20
HETATM   20  C   UNL     1      -8.538   7.397  70.845  1.00  0.00    -0.135 C  
HETATM   21  C   UNL     1      -8.547   6.087  71.130  1.00  0.00    -0.129 C  
ENDBRANCH  19  20
ENDBRANCH  18  19
ENDBRANCH  17  18
ENDBRANCH  11  12
ENDBRANCH  10  11
ENDBRANCH   7  10
ENDBRANCH   6   7
ENDBRANCH   4   6
ENDBRANCH   2   4
TORSDOF 9
ENDMDL
MODEL      250
REMARK 921   NORMALIZED FREE ENERGY PREDICTED BY IDOCK:   -3.21 KCAL/MOL
REMARK 922        TOTAL FREE ENERGY PREDICTED BY IDOCK:   -5.67 KCAL/MOL
REMARK 923 INTER-LIGAND FREE ENERGY PREDICTED BY IDOCK:   -5.11 KCAL/MOL
REMARK 924 INTRA-LIGAND FREE ENERGY PREDICTED BY IDOCK:   -0.56 KCAL/MOL
REMARK 927      BINDING AFFINITY PREDICTED BY RF-SCORE:    0.00 PKD
ROOT
HETATM    1  C   UNL     1      -5.370  14.346  68.434  1.00  0.00    -0.108 C  
HETATM    2  C   UNL     1      -5.703  12.856  68.343  1.00  0.00    -0.068 C  
HETATM    3  C   UNL     1      -6.087  12.335  69.733  1.00  0.00    -0.141 C  
ENDROOT
BRANCH   2   4
HETATM    4  N   UNL     1      -6.782  12.673  67.365  1.00  0.00    -0.201 NA 
HETATM    5  H   UNL     1      -6.576  11.898  66.734  1.00  0.00     0.000 HD 
BRANCH   4   6
HETATM    6  C   UNL     1      -8.098  12.502  67.995  1.00  0.00    -0.164 C  
BRANCH   6   7
HETATM    7  C   UNL     1      -8.945  13.790  67.927  1.00  0.00    -0.193 C  
HETATM    8  O   UNL     1      -8.810  14.411  66.644  1.00  0.00    -0.366 OA 
HETATM    9  H   UNL     1      -9.332  15.204  66.602  1.00  0.00     0.000 HD 
BRANCH   7  10
HETATM   10  C   UNL     1     -10.425  13.457  68.208  1.00  0.00    -0.250 C  
BRANCH  10  11
HETATM   11  O   UNL     1     -10.932  12.399  67.383  1.00  0.00    -0.236 OA 
BRANCH  11  12
HETATM   12  C   UNL     1     -11.314  12.715  66.099  1.00  0.00    -0.330 A  
HETATM   13  C   UNL     1     -11.960  13.916  65.768  1.00  0.00    -0.419 A  
HETATM   14  C   UNL     1     -12.361  14.184  64.461  1.00  0.00    -0.419 A  
HETATM   15  C   UNL     1     -12.147  13.245  63.466  1.00  0.00    -0.550 A  
HETATM   16  C   UNL     1     -11.495  12.053  63.771  1.00  0.00    -0.547 A  
HETATM   17  C   UNL     1     -11.030  11.789  65.071  1.00  0.00    -0.300 A  
BRANCH  17  18
HETATM   18  O   UNL     1     -10.302  10.655  65.384  1.00  0.00    -0.272 OA 
BRANCH  18  19
HETATM   19  C   UNL     1      -8.956  10.664  64.890  1.00  0.00    -0.199 C  
BRANCH  19  20
HETATM   20  C   UNL     1      -8.683   9.453  64.050  1.00  0.00    -0.225 C  
HETATM   21  C   UNL     1      -7.544   8.747  64.123  1.00  0.00    -0.122 C  
ENDBRANCH  19  20
ENDBRANCH  18  19
ENDBRANCH  17  18
ENDBRANCH  11  12
ENDBRANCH  10  11
ENDBRANCH   7  10
ENDBRANCH   6   7
ENDBRANCH   4   6
ENDBRANCH   2   4
TORSDOF 9
ENDMDL
MODEL      251
REMARK 921   NORMALIZED FREE ENERGY PREDICTED BY IDOCK:   -3.21 KCAL/MOL
REMARK 922        TOTAL FREE ENERGY PREDICTED BY IDOCK:   -5.66 KCAL/MOL
REMARK 923 INTER-LIGAND FREE ENERGY PREDICTED BY IDOCK:   -4.84 KCAL/MOL
REMARK 924 INTRA-LIGAND FREE ENERGY PREDICTED BY IDOCK:   -0.83 KCAL/MOL
REMARK 927      BINDING AFFINITY PREDICTED BY RF-SCORE:    0.00 PKD
ROOT
HETATM    1  C   UNL     1     -11.830  12.515  67.531  1.00  0.00    -0.389 C  
HETATM    2  C   UNL     1     -10.991  12.891  68.753  1.00  0.00    -0.254 C  
HETATM    3  C   UNL     1     -10.999  14.414  68.926  1.00  0.00    -0.269 C  
ENDROOT
BRANCH   2   4
HETATM    4  N   UNL     1     -11.533  12.198  69.928  1.00  0.00    -0.506 NA 
HETATM    5  H   UNL     1     -12.479  12.518  70.136  1.00  0.00     0.000 HD 
BRANCH   4   6
HETATM    6  C   UNL     1     -11.488  10.735  69.799  1.00  0.00    -0.311 C  
BRANCH   6   7
HETATM    7  C   UNL     1     -10.086  10.232  69.396  1.00  0.00    -0.235 C  
HETATM    8  O   UNL     1      -9.379   9.749  70.544  1.00  0.00    -0.330 OA 
HETATM    9  H   UNL     1      -8.515   9.439  70.296  1.00  0.00     0.000 HD 
BRANCH   7  10
HETATM   10  C   UNL     1     -10.215   9.116  68.339  1.00  0.00    -0.200 C  
BRANCH  10  11
HETATM   11  O   UNL     1      -9.097   8.217  68.328  1.00  0.00    -0.136 OA 
BRANCH  11  12
HETATM   12  C   UNL     1      -9.316   6.930  67.892  1.00  0.00    -0.118 A  
HETATM   13  C   UNL     1      -9.298   6.569  66.536  1.00  0.00    -0.188 A  
HETATM   14  C   UNL     1      -9.560   5.261  66.133  1.00  0.00    -0.176 A  
HETATM   15  C   UNL     1      -9.868   4.296  67.076  1.00  0.00    -0.216 A  
HETATM   16  C   UNL     1      -9.877   4.630  68.428  1.00  0.00    -0.169 A  
HETATM   17  C   UNL     1      -9.559   5.930  68.859  1.00  0.00    -0.132 A  
BRANCH  17  18
HETATM   18  O   UNL     1      -9.473   6.268  70.198  1.00  0.00    -0.158 OA 
BRANCH  18  19
HETATM   19  C   UNL     1     -10.573   5.807  70.994  1.00  0.00    -0.253 C  
BRANCH  19  20
HETATM   20  C   UNL     1     -11.806   6.617  70.727  1.00  0.00    -0.441 C  
HETATM   21  C   UNL     1     -12.254   7.572  71.555  1.00  0.00    -0.359 C  
ENDBRANCH  19  20
ENDBRANCH  18  19
ENDBRANCH  17  18
ENDBRANCH  11  12
ENDBRANCH  10  11
ENDBRANCH   7  10
ENDBRANCH   6   7
ENDBRANCH   4   6
ENDBRANCH   2   4
TORSDOF 9
ENDMDL
MODEL      252
REMARK 921   NORMALIZED FREE ENERGY PREDICTED BY IDOCK:   -3.20 KCAL/MOL
REMARK 922        TOTAL FREE ENERGY PREDICTED BY IDOCK:   -5.66 KCAL/MOL
REMARK 923 INTER-LIGAND FREE ENERGY PREDICTED BY IDOCK:   -4.90 KCAL/MOL
REMARK 924 INTRA-LIGAND FREE ENERGY PREDICTED BY IDOCK:   -0.75 KCAL/MOL
REMARK 927      BINDING AFFINITY PREDICTED BY RF-SCORE:    0.00 PKD
ROOT
HETATM    1  C   UNL     1      -7.734   7.102  69.770  1.00  0.00    -0.108 C  
HETATM    2  C   UNL     1      -6.854   7.506  68.585  1.00  0.00    -0.066 C  
HETATM    3  C   UNL     1      -6.688   6.306  67.644  1.00  0.00    -0.061 C  
ENDROOT
BRANCH   2   4
HETATM    4  N   UNL     1      -7.470   8.655  67.911  1.00  0.00    -0.095 NA 
HETATM    5  H   UNL     1      -7.787   8.403  66.976  1.00  0.00     0.000 HD 
BRANCH   4   6
HETATM    6  C   UNL     1      -8.558   9.258  68.693  1.00  0.00    -0.127 C  
BRANCH   6   7
HETATM    7  C   UNL     1      -9.369  10.278  67.867  1.00  0.00    -0.138 C  
HETATM    8  O   UNL     1      -8.880  10.337  66.523  1.00  0.00    -0.135 OA 
HETATM    9  H   UNL     1      -9.379  10.966  66.014  1.00  0.00     0.000 HD 
BRANCH   7  10
HETATM   10  C   UNL     1     -10.862   9.892  67.878  1.00  0.00    -0.258 C  
BRANCH  10  11
HETATM   11  O   UNL     1     -11.734  11.001  67.620  1.00  0.00    -0.576 OA 
BRANCH  11  12
HETATM   12  C   UNL     1     -11.886  11.939  68.616  1.00  0.00    -0.308 A  
HETATM   13  C   UNL     1     -12.060  11.599  69.966  1.00  0.00    -0.395 A  
HETATM   14  C   UNL     1     -12.246  12.578  70.940  1.00  0.00    -0.277 A  
HETATM   15  C   UNL     1     -12.286  13.913  70.578  1.00  0.00    -0.439 A  
HETATM   16  C   UNL     1     -12.102  14.273  69.245  1.00  0.00    -0.351 A  
HETATM   17  C   UNL     1     -11.855  13.305  68.257  1.00  0.00    -0.354 A  
BRANCH  17  18
HETATM   18  O   UNL     1     -11.580  13.638  66.942  1.00  0.00    -0.332 OA 
BRANCH  18  19
HETATM   19  C   UNL     1     -10.239  14.093  66.718  1.00  0.00    -0.262 C  
BRANCH  19  20
HETATM   20  C   UNL     1     -10.229  15.489  66.173  1.00  0.00    -0.322 C  
HETATM   21  C   UNL     1     -10.318  16.582  66.945  1.00  0.00    -0.300 C  
ENDBRANCH  19  20
ENDBRANCH  18  19
ENDBRANCH  17  18
ENDBRANCH  11  12
ENDBRANCH  10  11
ENDBRANCH   7  10
ENDBRANCH   6   7
ENDBRANCH   4   6
ENDBRANCH   2   4
TORSDOF 9
ENDMDL
MODEL      253
REMARK 921   NORMALIZED FREE ENERGY PREDICTED BY IDOCK:   -3.19 KCAL/MOL
REMARK 922        TOTAL FREE ENERGY PREDICTED BY IDOCK:   -5.64 KCAL/MOL
REMARK 923 INTER-LIGAND FREE ENERGY PREDICTED BY IDOCK:   -4.74 KCAL/MOL
REMARK 924 INTRA-LIGAND FREE ENERGY PREDICTED BY IDOCK:   -0.90 KCAL/MOL
REMARK 927      BINDING AFFINITY PREDICTED BY RF-SCORE:    0.00 PKD
ROOT
HETATM    1  C   UNL     1     -12.194  12.858  63.346  1.00  0.00    -0.574 C  
HETATM    2  C   UNL     1     -11.164  12.570  64.440  1.00  0.00    -0.339 C  
HETATM    3  C   UNL     1     -11.824  12.728  65.815  1.00  0.00    -0.484 C  
ENDROOT
BRANCH   2   4
HETATM    4  N   UNL     1     -10.626  11.220  64.236  1.00  0.00    -0.342 NA 
HETATM    5  H   UNL     1      -9.926  11.213  63.494  1.00  0.00     0.000 HD 
BRANCH   4   6
HETATM    6  C   UNL     1     -10.091  10.628  65.470  1.00  0.00    -0.280 C  
BRANCH   6   7
HETATM    7  C   UNL     1      -8.587  10.301  65.352  1.00  0.00    -0.159 C  
HETATM    8  O   UNL     1      -8.099  10.650  64.052  1.00  0.00    -0.326 OA 
HETATM    9  H   UNL     1      -7.173  10.449  63.980  1.00  0.00     0.000 HD 
BRANCH   7  10
HETATM   10  C   UNL     1      -7.801  11.059  66.441  1.00  0.00    -0.150 C  
BRANCH  10  11
HETATM   11  O   UNL     1      -8.587  12.048  67.119  1.00  0.00    -0.168 OA 
BRANCH  11  12
HETATM   12  C   UNL     1      -7.919  13.074  67.750  1.00  0.00    -0.164 A  
HETATM   13  C   UNL     1      -6.531  13.254  67.655  1.00  0.00    -0.167 A  
HETATM   14  C   UNL     1      -5.888  14.285  68.337  1.00  0.00    -0.105 A  
HETATM   15  C   UNL     1      -6.618  15.138  69.146  1.00  0.00    -0.128 A  
HETATM   16  C   UNL     1      -7.999  14.986  69.243  1.00  0.00    -0.190 A  
HETATM   17  C   UNL     1      -8.674  13.989  68.518  1.00  0.00    -0.156 A  
BRANCH  17  18
HETATM   18  O   UNL     1     -10.052  13.869  68.524  1.00  0.00    -0.232 OA 
BRANCH  18  19
HETATM   19  C   UNL     1     -10.729  14.902  69.254  1.00  0.00    -0.249 C  
BRANCH  19  20
HETATM   20  C   UNL     1     -11.443  15.836  68.324  1.00  0.00    -0.338 C  
HETATM   21  C   UNL     1     -10.901  16.302  67.188  1.00  0.00    -0.190 C  
ENDBRANCH  19  20
ENDBRANCH  18  19
ENDBRANCH  17  18
ENDBRANCH  11  12
ENDBRANCH  10  11
ENDBRANCH   7  10
ENDBRANCH   6   7
ENDBRANCH   4   6
ENDBRANCH   2   4
TORSDOF 9
ENDMDL
MODEL      254
REMARK 921   NORMALIZED FREE ENERGY PREDICTED BY IDOCK:   -3.18 KCAL/MOL
REMARK 922        TOTAL FREE ENERGY PREDICTED BY IDOCK:   -5.63 KCAL/MOL
REMARK 923 INTER-LIGAND FREE ENERGY PREDICTED BY IDOCK:   -4.98 KCAL/MOL
REMARK 924 INTRA-LIGAND FREE ENERGY PREDICTED BY IDOCK:   -0.65 KCAL/MOL
REMARK 927      BINDING AFFINITY PREDICTED BY RF-SCORE:    0.00 PKD
ROOT
HETATM    1  C   UNL     1      -8.815   5.380  70.821  1.00  0.00    -0.145 C  
HETATM    2  C   UNL     1     -10.126   6.154  70.679  1.00  0.00    -0.193 C  
HETATM    3  C   UNL     1     -10.796   6.274  72.053  1.00  0.00    -0.286 C  
ENDROOT
BRANCH   2   4
HETATM    4  N   UNL     1      -9.837   7.466  70.089  1.00  0.00    -0.180 NA 
HETATM    5  H   UNL     1      -8.841   7.570  69.899  1.00  0.00     0.000 HD 
BRANCH   4   6
HETATM    6  C   UNL     1     -10.634   7.737  68.884  1.00  0.00    -0.150 C  
BRANCH   6   7
HETATM    7  C   UNL     1      -9.785   8.356  67.755  1.00  0.00    -0.162 C  
HETATM    8  O   UNL     1      -9.605   7.416  66.690  1.00  0.00    -0.183 OA 
HETATM    9  H   UNL     1      -9.083   7.798  65.994  1.00  0.00     0.000 HD 
BRANCH   7  10
HETATM   10  C   UNL     1     -10.468   9.636  67.229  1.00  0.00    -0.258 C  
BRANCH  10  11
HETATM   11  O   UNL     1      -9.840  10.840  67.690  1.00  0.00    -0.167 OA 
BRANCH  11  12
HETATM   12  C   UNL     1     -10.542  12.017  67.562  1.00  0.00    -0.221 A  
HETATM   13  C   UNL     1     -10.542  12.782  66.385  1.00  0.00    -0.273 A  
HETATM   14  C   UNL     1     -11.238  13.987  66.307  1.00  0.00    -0.320 A  
HETATM   15  C   UNL     1     -11.926  14.460  67.410  1.00  0.00    -0.407 A  
HETATM   16  C   UNL     1     -11.950  13.710  68.583  1.00  0.00    -0.395 A  
HETATM   17  C   UNL     1     -11.303  12.464  68.664  1.00  0.00    -0.288 A  
BRANCH  17  18
HETATM   18  O   UNL     1     -11.385  11.657  69.785  1.00  0.00    -0.258 OA 
BRANCH  18  19
HETATM   19  C   UNL     1     -12.562  10.840  69.838  1.00  0.00    -0.132 C  
BRANCH  19  20
HETATM   20  C   UNL     1     -12.861  10.419  71.245  1.00  0.00    -0.533 C  
HETATM   21  C   UNL     1     -13.071   9.144  71.604  1.00  0.00    -0.431 C  
ENDBRANCH  19  20
ENDBRANCH  18  19
ENDBRANCH  17  18
ENDBRANCH  11  12
ENDBRANCH  10  11
ENDBRANCH   7  10
ENDBRANCH   6   7
ENDBRANCH   4   6
ENDBRANCH   2   4
TORSDOF 9
ENDMDL
MODEL      255
REMARK 921   NORMALIZED FREE ENERGY PREDICTED BY IDOCK:   -3.18 KCAL/MOL
REMARK 922        TOTAL FREE ENERGY PREDICTED BY IDOCK:   -5.63 KCAL/MOL
REMARK 923 INTER-LIGAND FREE ENERGY PREDICTED BY IDOCK:   -4.64 KCAL/MOL
REMARK 924 INTRA-LIGAND FREE ENERGY PREDICTED BY IDOCK:   -0.99 KCAL/MOL
REMARK 927      BINDING AFFINITY PREDICTED BY RF-SCORE:    0.00 PKD
ROOT
HETATM    1  C   UNL     1      -7.926   5.877  68.422  1.00  0.00    -0.105 C  
HETATM    2  C   UNL     1      -9.214   5.654  69.217  1.00  0.00    -0.116 C  
HETATM    3  C   UNL     1      -8.862   5.353  70.679  1.00  0.00    -0.145 C  
ENDROOT
BRANCH   2   4
HETATM    4  N   UNL     1     -10.060   6.845  69.086  1.00  0.00    -0.169 NA 
HETATM    5  H   UNL     1     -10.846   6.668  68.460  1.00  0.00     0.000 HD 
BRANCH   4   6
HETATM    6  C   UNL     1     -10.525   7.360  70.381  1.00  0.00    -0.221 C  
BRANCH   6   7
HETATM    7  C   UNL     1     -11.111   8.783  70.264  1.00  0.00    -0.222 C  
HETATM    8  O   UNL     1     -11.135   9.422  71.545  1.00  0.00    -0.355 OA 
HETATM    9  H   UNL     1     -11.496  10.298  71.472  1.00  0.00     0.000 HD 
BRANCH   7  10
HETATM   10  C   UNL     1     -10.275   9.612  69.268  1.00  0.00    -0.205 C  
BRANCH  10  11
HETATM   11  O   UNL     1     -10.847   9.659  67.953  1.00  0.00    -0.259 OA 
BRANCH  11  12
HETATM   12  C   UNL     1     -11.103  10.899  67.412  1.00  0.00    -0.307 A  
HETATM   13  C   UNL     1     -11.611  11.970  68.162  1.00  0.00    -0.403 A  
HETATM   14  C   UNL     1     -11.891  13.199  67.569  1.00  0.00    -0.409 A  
HETATM   15  C   UNL     1     -11.691  13.372  66.210  1.00  0.00    -0.405 A  
HETATM   16  C   UNL     1     -11.174  12.325  65.450  1.00  0.00    -0.372 A  
HETATM   17  C   UNL     1     -10.831  11.097  66.040  1.00  0.00    -0.166 A  
BRANCH  17  18
HETATM   18  O   UNL     1     -10.234  10.071  65.328  1.00  0.00    -0.296 OA 
BRANCH  18  19
HETATM   19  C   UNL     1      -9.013  10.441  64.674  1.00  0.00    -0.209 C  
BRANCH  19  20
HETATM   20  C   UNL     1      -7.823  10.010  65.477  1.00  0.00    -0.134 C  
HETATM   21  C   UNL     1      -7.193  10.811  66.350  1.00  0.00    -0.138 C  
ENDBRANCH  19  20
ENDBRANCH  18  19
ENDBRANCH  17  18
ENDBRANCH  11  12
ENDBRANCH  10  11
ENDBRANCH   7  10
ENDBRANCH   6   7
ENDBRANCH   4   6
ENDBRANCH   2   4
TORSDOF 9
ENDMDL
MODEL      256
REMARK 921   NORMALIZED FREE ENERGY PREDICTED BY IDOCK:   -3.18 KCAL/MOL
REMARK 922        TOTAL FREE ENERGY PREDICTED BY IDOCK:   -5.63 KCAL/MOL
REMARK 923 INTER-LIGAND FREE ENERGY PREDICTED BY IDOCK:   -4.94 KCAL/MOL
REMARK 924 INTRA-LIGAND FREE ENERGY PREDICTED BY IDOCK:   -0.68 KCAL/MOL
REMARK 927      BINDING AFFINITY PREDICTED BY RF-SCORE:    0.00 PKD
ROOT
HETATM    1  C   UNL     1     -13.146  10.043  71.967  1.00  0.00    -0.541 C  
HETATM    2  C   UNL     1     -12.748   8.601  72.284  1.00  0.00    -0.391 C  
HETATM    3  C   UNL     1     -13.328   7.667  71.215  1.00  0.00    -0.276 C  
ENDROOT
BRANCH   2   4
HETATM    4  N   UNL     1     -11.284   8.520  72.354  1.00  0.00    -0.360 NA 
HETATM    5  H   UNL     1     -10.987   7.937  73.136  1.00  0.00     0.000 HD 
BRANCH   4   6
HETATM    6  C   UNL     1     -10.678   8.063  71.096  1.00  0.00    -0.220 C  
BRANCH   6   7
HETATM    7  C   UNL     1      -9.852   9.172  70.413  1.00  0.00    -0.218 C  
HETATM    8  O   UNL     1      -8.537   8.699  70.102  1.00  0.00    -0.126 OA 
HETATM    9  H   UNL     1      -8.028   9.383  69.682  1.00  0.00     0.000 HD 
BRANCH   7  10
HETATM   10  C   UNL     1     -10.568   9.643  69.130  1.00  0.00    -0.220 C  
BRANCH  10  11
HETATM   11  O   UNL     1      -9.684  10.261  68.185  1.00  0.00    -0.141 OA 
BRANCH  11  12
HETATM   12  C   UNL     1     -10.248  10.881  67.093  1.00  0.00    -0.210 A  
HETATM   13  C   UNL     1     -11.290  11.814  67.198  1.00  0.00    -0.387 A  
HETATM   14  C   UNL     1     -11.858  12.394  66.065  1.00  0.00    -0.459 A  
HETATM   15  C   UNL     1     -11.411  12.032  64.806  1.00  0.00    -0.369 A  
HETATM   16  C   UNL     1     -10.367  11.118  64.680  1.00  0.00    -0.393 A  
HETATM   17  C   UNL     1      -9.742  10.566  65.812  1.00  0.00    -0.223 A  
BRANCH  17  18
HETATM   18  O   UNL     1      -8.647   9.726  65.720  1.00  0.00    -0.129 OA 
BRANCH  18  19
HETATM   19  C   UNL     1      -8.898   8.507  65.006  1.00  0.00    -0.029 C  
BRANCH  19  20
HETATM   20  C   UNL     1      -7.972   8.369  63.836  1.00  0.00    -0.158 C  
HETATM   21  C   UNL     1      -7.930   7.281  63.053  1.00  0.00    -0.097 C  
ENDBRANCH  19  20
ENDBRANCH  18  19
ENDBRANCH  17  18
ENDBRANCH  11  12
ENDBRANCH  10  11
ENDBRANCH   7  10
ENDBRANCH   6   7
ENDBRANCH   4   6
ENDBRANCH   2   4
TORSDOF 9
ENDMDL
MODEL      257
REMARK 921   NORMALIZED FREE ENERGY PREDICTED BY IDOCK:   -3.18 KCAL/MOL
REMARK 922        TOTAL FREE ENERGY PREDICTED BY IDOCK:   -5.62 KCAL/MOL
REMARK 923 INTER-LIGAND FREE ENERGY PREDICTED BY IDOCK:   -4.92 KCAL/MOL
REMARK 924 INTRA-LIGAND FREE ENERGY PREDICTED BY IDOCK:   -0.70 KCAL/MOL
REMARK 927      BINDING AFFINITY PREDICTED BY RF-SCORE:    0.00 PKD
ROOT
HETATM    1  C   UNL     1      -6.514  10.826  69.583  1.00  0.00    -0.103 C  
HETATM    2  C   UNL     1      -6.675  10.026  68.289  1.00  0.00    -0.055 C  
HETATM    3  C   UNL     1      -5.828   8.751  68.370  1.00  0.00    -0.042 C  
ENDROOT
BRANCH   2   4
HETATM    4  N   UNL     1      -8.100   9.732  68.092  1.00  0.00    -0.108 NA 
HETATM    5  H   UNL     1      -8.557  10.478  67.567  1.00  0.00     0.000 HD 
BRANCH   4   6
HETATM    6  C   UNL     1      -8.330   8.426  67.460  1.00  0.00    -0.129 C  
BRANCH   6   7
HETATM    7  C   UNL     1      -9.252   7.526  68.308  1.00  0.00    -0.138 C  
HETATM    8  O   UNL     1      -8.706   7.341  69.618  1.00  0.00    -0.140 OA 
HETATM    9  H   UNL     1      -9.274   6.787  70.140  1.00  0.00     0.000 HD 
BRANCH   7  10
HETATM   10  C   UNL     1     -10.658   8.155  68.398  1.00  0.00    -0.099 C  
BRANCH  10  11
HETATM   11  O   UNL     1     -10.876   9.191  67.431  1.00  0.00    -0.243 OA 
BRANCH  11  12
HETATM   12  C   UNL     1     -11.152  10.455  67.899  1.00  0.00    -0.299 A  
HETATM   13  C   UNL     1     -11.384  10.734  69.255  1.00  0.00    -0.352 A  
HETATM   14  C   UNL     1     -11.695  12.023  69.684  1.00  0.00    -0.405 A  
HETATM   15  C   UNL     1     -11.806  13.050  68.763  1.00  0.00    -0.355 A  
HETATM   16  C   UNL     1     -11.566  12.798  67.415  1.00  0.00    -0.415 A  
HETATM   17  C   UNL     1     -11.193  11.518  66.969  1.00  0.00    -0.300 A  
BRANCH  17  18
HETATM   18  O   UNL     1     -10.863  11.257  65.651  1.00  0.00    -0.250 OA 
BRANCH  18  19
HETATM   19  C   UNL     1     -10.398  12.402  64.923  1.00  0.00    -0.293 C  
BRANCH  19  20
HETATM   20  C   UNL     1     -11.228  12.632  63.696  1.00  0.00    -0.525 C  
HETATM   21  C   UNL     1     -12.462  12.131  63.537  1.00  0.00    -0.666 C  
ENDBRANCH  19  20
ENDBRANCH  18  19
ENDBRANCH  17  18
ENDBRANCH  11  12
ENDBRANCH  10  11
ENDBRANCH   7  10
ENDBRANCH   6   7
ENDBRANCH   4   6
ENDBRANCH   2   4
TORSDOF 9
ENDMDL
MODEL      258
REMARK 921   NORMALIZED FREE ENERGY PREDICTED BY IDOCK:   -3.17 KCAL/MOL
REMARK 922        TOTAL FREE ENERGY PREDICTED BY IDOCK:   -5.61 KCAL/MOL
REMARK 923 INTER-LIGAND FREE ENERGY PREDICTED BY IDOCK:   -5.02 KCAL/MOL
REMARK 924 INTRA-LIGAND FREE ENERGY PREDICTED BY IDOCK:   -0.59 KCAL/MOL
REMARK 927      BINDING AFFINITY PREDICTED BY RF-SCORE:    0.00 PKD
ROOT
HETATM    1  C   UNL     1      -8.493  15.616  69.208  1.00  0.00    -0.265 C  
HETATM    2  C   UNL     1      -8.915  14.577  68.167  1.00  0.00    -0.182 C  
HETATM    3  C   UNL     1      -7.711  13.696  67.811  1.00  0.00    -0.166 C  
ENDROOT
BRANCH   2   4
HETATM    4  N   UNL     1     -10.031  13.794  68.710  1.00  0.00    -0.382 NA 
HETATM    5  H   UNL     1     -10.926  14.230  68.487  1.00  0.00     0.000 HD 
BRANCH   4   6
HETATM    6  C   UNL     1     -10.008  12.390  68.275  1.00  0.00    -0.224 C  
BRANCH   6   7
HETATM    7  C   UNL     1     -11.376  11.702  68.461  1.00  0.00    -0.274 C  
HETATM    8  O   UNL     1     -12.150  11.793  67.260  1.00  0.00    -0.595 OA 
HETATM    9  H   UNL     1     -12.993  11.369  67.374  1.00  0.00     0.000 HD 
BRANCH   7  10
HETATM   10  C   UNL     1     -11.170  10.225  68.855  1.00  0.00    -0.207 C  
BRANCH  10  11
HETATM   11  O   UNL     1     -10.229  10.053  69.924  1.00  0.00    -0.239 OA 
BRANCH  11  12
HETATM   12  C   UNL     1     -10.574   9.199  70.947  1.00  0.00    -0.273 A  
HETATM   13  C   UNL     1     -11.883   8.734  71.146  1.00  0.00    -0.345 A  
HETATM   14  C   UNL     1     -12.198   7.898  72.215  1.00  0.00    -0.333 A  
HETATM   15  C   UNL     1     -11.215   7.533  73.120  1.00  0.00    -0.318 A  
HETATM   16  C   UNL     1      -9.907   7.973  72.933  1.00  0.00    -0.357 A  
HETATM   17  C   UNL     1      -9.557   8.768  71.828  1.00  0.00    -0.301 A  
BRANCH  17  18
HETATM   18  O   UNL     1      -8.252   9.146  71.568  1.00  0.00    -0.334 OA 
BRANCH  18  19
HETATM   19  C   UNL     1      -7.301   8.076  71.655  1.00  0.00    -0.076 C  
BRANCH  19  20
HETATM   20  C   UNL     1      -6.241   8.380  72.670  1.00  0.00    -0.080 C  
HETATM   21  C   UNL     1      -5.295   9.314  72.490  1.00  0.00    -0.074 C  
ENDBRANCH  19  20
ENDBRANCH  18  19
ENDBRANCH  17  18
ENDBRANCH  11  12
ENDBRANCH  10  11
ENDBRANCH   7  10
ENDBRANCH   6   7
ENDBRANCH   4   6
ENDBRANCH   2   4
TORSDOF 9
ENDMDL
MODEL      259
REMARK 921   NORMALIZED FREE ENERGY PREDICTED BY IDOCK:   -3.14 KCAL/MOL
REMARK 922        TOTAL FREE ENERGY PREDICTED BY IDOCK:   -5.57 KCAL/MOL
REMARK 923 INTER-LIGAND FREE ENERGY PREDICTED BY IDOCK:   -5.33 KCAL/MOL
REMARK 924 INTRA-LIGAND FREE ENERGY PREDICTED BY IDOCK:   -0.24 KCAL/MOL
REMARK 927      BINDING AFFINITY PREDICTED BY RF-SCORE:    0.00 PKD
ROOT
HETATM    1  C   UNL     1     -10.337  10.349  66.547  1.00  0.00    -0.287 C  
HETATM    2  C   UNL     1     -10.720  11.797  66.233  1.00  0.00    -0.270 C  
HETATM    3  C   UNL     1     -11.031  11.926  64.737  1.00  0.00    -0.366 C  
ENDROOT
BRANCH   2   4
HETATM    4  N   UNL     1     -11.864  12.174  67.071  1.00  0.00    -0.594 NA 
HETATM    5  H   UNL     1     -12.056  11.457  67.771  1.00  0.00     0.000 HD 
BRANCH   4   6
HETATM    6  C   UNL     1     -11.701  13.492  67.698  1.00  0.00    -0.363 C  
BRANCH   6   7
HETATM    7  C   UNL     1     -11.946  13.445  69.221  1.00  0.00    -0.317 C  
HETATM    8  O   UNL     1     -11.511  12.192  69.760  1.00  0.00    -0.426 OA 
HETATM    9  H   UNL     1     -11.662  12.163  70.698  1.00  0.00     0.000 HD 
BRANCH   7  10
HETATM   10  C   UNL     1     -11.203  14.610  69.907  1.00  0.00    -0.231 C  
BRANCH  10  11
HETATM   11  O   UNL     1     -10.896  15.688  69.012  1.00  0.00    -0.228 OA 
BRANCH  11  12
HETATM   12  C   UNL     1      -9.586  16.104  68.939  1.00  0.00    -0.245 A  
HETATM   13  C   UNL     1      -8.515  15.350  69.442  1.00  0.00    -0.253 A  
HETATM   14  C   UNL     1      -7.206  15.823  69.380  1.00  0.00    -0.217 A  
HETATM   15  C   UNL     1      -6.946  17.068  68.836  1.00  0.00    -0.219 A  
HETATM   16  C   UNL     1      -7.993  17.827  68.317  1.00  0.00    -0.282 A  
HETATM   17  C   UNL     1      -9.313  17.343  68.318  1.00  0.00    -0.278 A  
BRANCH  17  18
HETATM   18  O   UNL     1     -10.358  18.035  67.731  1.00  0.00    -0.358 OA 
BRANCH  18  19
HETATM   19  C   UNL     1     -10.958  17.360  66.617  1.00  0.00     0.201 C  
BRANCH  19  20
HETATM   20  C   UNL     1      -9.916  16.718  65.753  1.00  0.00    -0.242 C  
HETATM   21  C   UNL     1      -9.967  15.433  65.368  1.00  0.00    -0.356 C  
ENDBRANCH  19  20
ENDBRANCH  18  19
ENDBRANCH  17  18
ENDBRANCH  11  12
ENDBRANCH  10  11
ENDBRANCH   7  10
ENDBRANCH   6   7
ENDBRANCH   4   6
ENDBRANCH   2   4
TORSDOF 9
ENDMDL
MODEL      260
REMARK 921   NORMALIZED FREE ENERGY PREDICTED BY IDOCK:   -3.13 KCAL/MOL
REMARK 922        TOTAL FREE ENERGY PREDICTED BY IDOCK:   -5.56 KCAL/MOL
REMARK 923 INTER-LIGAND FREE ENERGY PREDICTED BY IDOCK:   -4.92 KCAL/MOL
REMARK 924 INTRA-LIGAND FREE ENERGY PREDICTED BY IDOCK:   -0.64 KCAL/MOL
REMARK 927      BINDING AFFINITY PREDICTED BY RF-SCORE:    0.00 PKD
ROOT
HETATM    1  C   UNL     1     -12.108  13.907  68.306  1.00  0.00    -0.322 C  
HETATM    2  C   UNL     1     -11.515  13.211  67.079  1.00  0.00    -0.336 C  
HETATM    3  C   UNL     1     -10.195  13.891  66.698  1.00  0.00    -0.276 C  
ENDROOT
BRANCH   2   4
HETATM    4  N   UNL     1     -11.336  11.787  67.386  1.00  0.00    -0.322 NA 
HETATM    5  H   UNL     1     -11.095  11.260  66.547  1.00  0.00     0.000 HD 
BRANCH   4   6
HETATM    6  C   UNL     1     -10.355  11.554  68.455  1.00  0.00    -0.202 C  
BRANCH   6   7
HETATM    7  C   UNL     1     -10.929  10.679  69.589  1.00  0.00    -0.278 C  
HETATM    8  O   UNL     1     -12.247  10.229  69.256  1.00  0.00    -0.562 OA 
HETATM    9  H   UNL     1     -12.601   9.691  69.955  1.00  0.00     0.000 HD 
BRANCH   7  10
HETATM   10  C   UNL     1     -10.000   9.474  69.841  1.00  0.00    -0.230 C  
BRANCH  10  11
HETATM   11  O   UNL     1     -10.684   8.214  69.791  1.00  0.00    -0.245 OA 
BRANCH  11  12
HETATM   12  C   UNL     1     -10.403   7.376  68.737  1.00  0.00    -0.199 A  
HETATM   13  C   UNL     1      -9.812   7.819  67.544  1.00  0.00    -0.221 A  
HETATM   14  C   UNL     1      -9.577   6.945  66.485  1.00  0.00    -0.197 A  
HETATM   15  C   UNL     1      -9.950   5.616  66.591  1.00  0.00    -0.211 A  
HETATM   16  C   UNL     1     -10.525   5.152  67.771  1.00  0.00    -0.112 A  
HETATM   17  C   UNL     1     -10.718   6.005  68.872  1.00  0.00    -0.317 A  
BRANCH  17  18
HETATM   18  O   UNL     1     -11.204   5.553  70.086  1.00  0.00    -0.168 OA 
BRANCH  18  19
HETATM   19  C   UNL     1     -10.250   4.819  70.865  1.00  0.00    -0.177 C  
BRANCH  19  20
HETATM   20  C   UNL     1     -10.383   5.144  72.322  1.00  0.00    -0.267 C  
HETATM   21  C   UNL     1     -10.645   4.224  73.262  1.00  0.00    -0.279 C  
ENDBRANCH  19  20
ENDBRANCH  18  19
ENDBRANCH  17  18
ENDBRANCH  11  12
ENDBRANCH  10  11
ENDBRANCH   7  10
ENDBRANCH   6   7
ENDBRANCH   4   6
ENDBRANCH   2   4
TORSDOF 9
ENDMDL
MODEL      261
REMARK 921   NORMALIZED FREE ENERGY PREDICTED BY IDOCK:   -3.12 KCAL/MOL
REMARK 922        TOTAL FREE ENERGY PREDICTED BY IDOCK:   -5.53 KCAL/MOL
REMARK 923 INTER-LIGAND FREE ENERGY PREDICTED BY IDOCK:   -4.49 KCAL/MOL
REMARK 924 INTRA-LIGAND FREE ENERGY PREDICTED BY IDOCK:   -1.04 KCAL/MOL
REMARK 927      BINDING AFFINITY PREDICTED BY RF-SCORE:    0.00 PKD
ROOT
HETATM    1  C   UNL     1      -7.812  15.546  67.825  1.00  0.00    -0.158 C  
HETATM    2  C   UNL     1      -8.395  14.172  67.490  1.00  0.00    -0.185 C  
HETATM    3  C   UNL     1      -7.601  13.088  68.229  1.00  0.00    -0.135 C  
ENDROOT
BRANCH   2   4
HETATM    4  N   UNL     1      -9.816  14.162  67.854  1.00  0.00    -0.219 NA 
HETATM    5  H   UNL     1     -10.065  15.001  68.378  1.00  0.00     0.000 HD 
BRANCH   4   6
HETATM    6  C   UNL     1     -10.701  13.983  66.695  1.00  0.00    -0.281 C  
BRANCH   6   7
HETATM    7  C   UNL     1     -11.900  13.066  67.016  1.00  0.00    -0.377 C  
HETATM    8  O   UNL     1     -12.345  12.391  65.835  1.00  0.00    -0.638 OA 
HETATM    9  H   UNL     1     -13.084  11.827  66.033  1.00  0.00     0.000 HD 
BRANCH   7  10
HETATM   10  C   UNL     1     -11.501  12.043  68.099  1.00  0.00    -0.322 C  
BRANCH  10  11
HETATM   11  O   UNL     1     -11.623  10.683  67.662  1.00  0.00    -0.492 OA 
BRANCH  11  12
HETATM   12  C   UNL     1     -10.505   9.883  67.743  1.00  0.00    -0.242 A  
HETATM   13  C   UNL     1     -10.288   8.977  68.791  1.00  0.00    -0.236 A  
HETATM   14  C   UNL     1      -9.126   8.210  68.855  1.00  0.00    -0.147 A  
HETATM   15  C   UNL     1      -8.150   8.353  67.884  1.00  0.00    -0.123 A  
HETATM   16  C   UNL     1      -8.352   9.237  66.826  1.00  0.00    -0.123 A  
HETATM   17  C   UNL     1      -9.542   9.976  66.713  1.00  0.00    -0.181 A  
BRANCH  17  18
HETATM   18  O   UNL     1      -9.809  10.793  65.629  1.00  0.00    -0.219 OA 
BRANCH  18  19
HETATM   19  C   UNL     1      -9.435  10.233  64.363  1.00  0.00    -0.302 C  
BRANCH  19  20
HETATM   20  C   UNL     1      -9.234  11.308  63.338  1.00  0.00    -0.189 C  
HETATM   21  C   UNL     1      -8.164  11.365  62.531  1.00  0.00     0.075 C  
ENDBRANCH  19  20
ENDBRANCH  18  19
ENDBRANCH  17  18
ENDBRANCH  11  12
ENDBRANCH  10  11
ENDBRANCH   7  10
ENDBRANCH   6   7
ENDBRANCH   4   6
ENDBRANCH   2   4
TORSDOF 9
ENDMDL
MODEL      262
REMARK 921   NORMALIZED FREE ENERGY PREDICTED BY IDOCK:   -3.11 KCAL/MOL
REMARK 922        TOTAL FREE ENERGY PREDICTED BY IDOCK:   -5.52 KCAL/MOL
REMARK 923 INTER-LIGAND FREE ENERGY PREDICTED BY IDOCK:   -5.12 KCAL/MOL
REMARK 924 INTRA-LIGAND FREE ENERGY PREDICTED BY IDOCK:   -0.41 KCAL/MOL
REMARK 927      BINDING AFFINITY PREDICTED BY RF-SCORE:    0.00 PKD
ROOT
HETATM    1  C   UNL     1      -5.538  14.147  71.184  1.00  0.00    -0.209 C  
HETATM    2  C   UNL     1      -5.647  13.164  70.016  1.00  0.00    -0.120 C  
HETATM    3  C   UNL     1      -5.223  11.767  70.486  1.00  0.00    -0.123 C  
ENDROOT
BRANCH   2   4
HETATM    4  N   UNL     1      -7.025  13.183  69.511  1.00  0.00    -0.328 NA 
HETATM    5  H   UNL     1      -7.205  14.031  68.973  1.00  0.00     0.000 HD 
BRANCH   4   6
HETATM    6  C   UNL     1      -7.364  11.984  68.733  1.00  0.00    -0.098 C  
BRANCH   6   7
HETATM    7  C   UNL     1      -7.056  12.160  67.232  1.00  0.00    -0.144 C  
HETATM    8  O   UNL     1      -6.055  11.227  66.812  1.00  0.00    -0.102 OA 
HETATM    9  H   UNL     1      -5.865  11.336  65.887  1.00  0.00     0.000 HD 
BRANCH   7  10
HETATM   10  C   UNL     1      -8.346  11.968  66.407  1.00  0.00     0.054 C  
BRANCH  10  11
HETATM   11  O   UNL     1      -9.505  12.535  67.033  1.00  0.00    -0.204 OA 
BRANCH  11  12
HETATM   12  C   UNL     1     -10.433  13.149  66.222  1.00  0.00    -0.285 A  
HETATM   13  C   UNL     1     -10.083  14.049  65.205  1.00  0.00    -0.343 A  
HETATM   14  C   UNL     1     -11.055  14.676  64.429  1.00  0.00    -0.153 A  
HETATM   15  C   UNL     1     -12.396  14.434  64.673  1.00  0.00    -0.435 A  
HETATM   16  C   UNL     1     -12.765  13.533  65.669  1.00  0.00    -0.478 A  
HETATM   17  C   UNL     1     -11.798  12.846  66.423  1.00  0.00    -0.415 A  
BRANCH  17  18
HETATM   18  O   UNL     1     -12.133  11.881  67.357  1.00  0.00    -0.577 OA 
BRANCH  18  19
HETATM   19  C   UNL     1     -12.032  12.319  68.719  1.00  0.00    -0.231 C  
BRANCH  19  20
HETATM   20  C   UNL     1     -11.844  11.156  69.645  1.00  0.00    -0.419 C  
HETATM   21  C   UNL     1     -12.433  11.068  70.847  1.00  0.00    -0.509 C  
ENDBRANCH  19  20
ENDBRANCH  18  19
ENDBRANCH  17  18
ENDBRANCH  11  12
ENDBRANCH  10  11
ENDBRANCH   7  10
ENDBRANCH   6   7
ENDBRANCH   4   6
ENDBRANCH   2   4
TORSDOF 9
ENDMDL
MODEL      263
REMARK 921   NORMALIZED FREE ENERGY PREDICTED BY IDOCK:   -3.09 KCAL/MOL
REMARK 922        TOTAL FREE ENERGY PREDICTED BY IDOCK:   -5.49 KCAL/MOL
REMARK 923 INTER-LIGAND FREE ENERGY PREDICTED BY IDOCK:   -5.11 KCAL/MOL
REMARK 924 INTRA-LIGAND FREE ENERGY PREDICTED BY IDOCK:   -0.38 KCAL/MOL
REMARK 927      BINDING AFFINITY PREDICTED BY RF-SCORE:    0.00 PKD
ROOT
HETATM    1  C   UNL     1      -7.262   9.692  63.708  1.00  0.00    -0.114 C  
HETATM    2  C   UNL     1      -7.529   8.645  64.791  1.00  0.00    -0.097 C  
HETATM    3  C   UNL     1      -6.583   8.885  65.974  1.00  0.00    -0.065 C  
ENDROOT
BRANCH   2   4
HETATM    4  N   UNL     1      -8.940   8.725  65.186  1.00  0.00    -0.384 NA 
HETATM    5  H   UNL     1      -9.550   8.428  64.424  1.00  0.00     0.000 HD 
BRANCH   4   6
HETATM    6  C   UNL     1      -9.231   7.975  66.416  1.00  0.00    -0.194 C  
BRANCH   6   7
HETATM    7  C   UNL     1     -10.676   8.204  66.906  1.00  0.00    -0.116 C  
HETATM    8  O   UNL     1     -11.160   7.047  67.596  1.00  0.00    -0.502 OA 
HETATM    9  H   UNL     1     -12.050   7.188  67.898  1.00  0.00     0.000 HD 
BRANCH   7  10
HETATM   10  C   UNL     1     -10.725   9.438  67.831  1.00  0.00    -0.210 C  
BRANCH  10  11
HETATM   11  O   UNL     1     -11.459  10.535  67.270  1.00  0.00    -0.366 OA 
BRANCH  11  12
HETATM   12  C   UNL     1     -10.954  11.802  67.455  1.00  0.00    -0.262 A  
HETATM   13  C   UNL     1     -11.299  12.610  68.549  1.00  0.00    -0.333 A  
HETATM   14  C   UNL     1     -10.793  13.902  68.681  1.00  0.00    -0.278 A  
HETATM   15  C   UNL     1      -9.954  14.418  67.709  1.00  0.00    -0.226 A  
HETATM   16  C   UNL     1      -9.589  13.628  66.622  1.00  0.00    -0.289 A  
HETATM   17  C   UNL     1     -10.041  12.302  66.500  1.00  0.00    -0.215 A  
BRANCH  17  18
HETATM   18  O   UNL     1      -9.624  11.466  65.480  1.00  0.00    -0.218 OA 
BRANCH  18  19
HETATM   19  C   UNL     1     -10.490  11.455  64.337  1.00  0.00    -0.330 C  
BRANCH  19  20
HETATM   20  C   UNL     1     -11.105  12.804  64.115  1.00  0.00    -0.432 C  
HETATM   21  C   UNL     1     -12.395  12.982  63.794  1.00  0.00    -0.477 C  
ENDBRANCH  19  20
ENDBRANCH  18  19
ENDBRANCH  17  18
ENDBRANCH  11  12
ENDBRANCH  10  11
ENDBRANCH   7  10
ENDBRANCH   6   7
ENDBRANCH   4   6
ENDBRANCH   2   4
TORSDOF 9
ENDMDL
MODEL      264
REMARK 921   NORMALIZED FREE ENERGY PREDICTED BY IDOCK:   -3.08 KCAL/MOL
REMARK 922        TOTAL FREE ENERGY PREDICTED BY IDOCK:   -5.47 KCAL/MOL
REMARK 923 INTER-LIGAND FREE ENERGY PREDICTED BY IDOCK:   -4.31 KCAL/MOL
REMARK 924 INTRA-LIGAND FREE ENERGY PREDICTED BY IDOCK:   -1.17 KCAL/MOL
REMARK 927      BINDING AFFINITY PREDICTED BY RF-SCORE:    0.00 PKD
ROOT
HETATM    1  C   UNL     1      -9.018   7.881  70.475  1.00  0.00    -0.145 C  
HETATM    2  C   UNL     1      -8.448   9.298  70.556  1.00  0.00    -0.216 C  
HETATM    3  C   UNL     1      -6.951   9.264  70.228  1.00  0.00    -0.076 C  
ENDROOT
BRANCH   2   4
HETATM    4  N   UNL     1      -9.196  10.160  69.633  1.00  0.00    -0.321 NA 
HETATM    5  H   UNL     1      -9.118   9.822  68.674  1.00  0.00     0.000 HD 
BRANCH   4   6
HETATM    6  C   UNL     1     -10.604  10.323  70.021  1.00  0.00    -0.269 C  
BRANCH   6   7
HETATM    7  C   UNL     1     -11.545  10.339  68.798  1.00  0.00    -0.050 C  
HETATM    8  O   UNL     1     -12.059  11.657  68.578  1.00  0.00    -0.491 OA 
HETATM    9  H   UNL     1     -12.638  11.666  67.824  1.00  0.00     0.000 HD 
BRANCH   7  10
HETATM   10  C   UNL     1     -10.786   9.845  67.549  1.00  0.00    -0.243 C  
BRANCH  10  11
HETATM   11  O   UNL     1      -9.888  10.824  67.009  1.00  0.00    -0.179 OA 
BRANCH  11  12
HETATM   12  C   UNL     1      -9.833  10.957  65.640  1.00  0.00    -0.241 A  
HETATM   13  C   UNL     1     -10.674  11.821  64.922  1.00  0.00    -0.347 A  
HETATM   14  C   UNL     1     -10.610  11.900  63.533  1.00  0.00    -0.507 A  
HETATM   15  C   UNL     1      -9.724  11.099  62.834  1.00  0.00    -0.349 A  
HETATM   16  C   UNL     1      -8.870  10.245  63.529  1.00  0.00    -0.232 A  
HETATM   17  C   UNL     1      -8.878  10.193  64.934  1.00  0.00    -0.190 A  
BRANCH  17  18
HETATM   18  O   UNL     1      -7.983   9.421  65.653  1.00  0.00    -0.101 OA 
BRANCH  18  19
HETATM   19  C   UNL     1      -8.077   8.014  65.394  1.00  0.00    -0.135 C  
BRANCH  19  20
HETATM   20  C   UNL     1      -8.316   7.249  66.661  1.00  0.00    -0.121 C  
HETATM   21  C   UNL     1      -7.329   6.726  67.404  1.00  0.00    -0.095 C  
ENDBRANCH  19  20
ENDBRANCH  18  19
ENDBRANCH  17  18
ENDBRANCH  11  12
ENDBRANCH  10  11
ENDBRANCH   7  10
ENDBRANCH   6   7
ENDBRANCH   4   6
ENDBRANCH   2   4
TORSDOF 9
ENDMDL
MODEL      265
REMARK 921   NORMALIZED FREE ENERGY PREDICTED BY IDOCK:   -3.08 KCAL/MOL
REMARK 922        TOTAL FREE ENERGY PREDICTED BY IDOCK:   -5.47 KCAL/MOL
REMARK 923 INTER-LIGAND FREE ENERGY PREDICTED BY IDOCK:   -4.73 KCAL/MOL
REMARK 924 INTRA-LIGAND FREE ENERGY PREDICTED BY IDOCK:   -0.74 KCAL/MOL
REMARK 927      BINDING AFFINITY PREDICTED BY RF-SCORE:    0.00 PKD
ROOT
HETATM    1  C   UNL     1      -8.770   5.297  69.529  1.00  0.00    -0.114 C  
HETATM    2  C   UNL     1     -10.071   4.836  70.189  1.00  0.00    -0.240 C  
HETATM    3  C   UNL     1      -9.782   3.631  71.093  1.00  0.00    -0.245 C  
ENDROOT
BRANCH   2   4
HETATM    4  N   UNL     1     -10.646   5.961  70.935  1.00  0.00    -0.243 NA 
HETATM    5  H   UNL     1      -9.959   6.704  71.062  1.00  0.00     0.000 HD 
BRANCH   4   6
HETATM    6  C   UNL     1     -11.876   6.481  70.322  1.00  0.00    -0.295 C  
BRANCH   6   7
HETATM    7  C   UNL     1     -12.929   6.874  71.379  1.00  0.00    -0.280 C  
HETATM    8  O   UNL     1     -12.648   6.234  72.628  1.00  0.00    -0.485 OA 
HETATM    9  H   UNL     1     -13.297   6.476  73.279  1.00  0.00     0.000 HD 
BRANCH   7  10
HETATM   10  C   UNL     1     -12.947   8.407  71.555  1.00  0.00    -0.301 C  
BRANCH  10  11
HETATM   11  O   UNL     1     -11.754   8.919  72.163  1.00  0.00    -0.363 OA 
BRANCH  11  12
HETATM   12  C   UNL     1     -10.741   9.337  71.330  1.00  0.00    -0.362 A  
HETATM   13  C   UNL     1     -10.971  10.042  70.140  1.00  0.00    -0.368 A  
HETATM   14  C   UNL     1      -9.919  10.417  69.307  1.00  0.00    -0.246 A  
HETATM   15  C   UNL     1      -8.620  10.071  69.636  1.00  0.00    -0.198 A  
HETATM   16  C   UNL     1      -8.368   9.383  70.820  1.00  0.00    -0.180 A  
HETATM   17  C   UNL     1      -9.409   9.047  71.703  1.00  0.00    -0.183 A  
BRANCH  17  18
HETATM   18  O   UNL     1      -9.180   8.443  72.927  1.00  0.00    -0.261 OA 
BRANCH  18  19
HETATM   19  C   UNL     1      -8.164   7.431  72.903  1.00  0.00    -0.112 C  
BRANCH  19  20
HETATM   20  C   UNL     1      -8.271   6.535  74.100  1.00  0.00    -0.132 C  
HETATM   21  C   UNL     1      -8.929   5.366  74.089  1.00  0.00    -0.118 C  
ENDBRANCH  19  20
ENDBRANCH  18  19
ENDBRANCH  17  18
ENDBRANCH  11  12
ENDBRANCH  10  11
ENDBRANCH   7  10
ENDBRANCH   6   7
ENDBRANCH   4   6
ENDBRANCH   2   4
TORSDOF 9
ENDMDL
MODEL      266
REMARK 921   NORMALIZED FREE ENERGY PREDICTED BY IDOCK:   -3.07 KCAL/MOL
REMARK 922        TOTAL FREE ENERGY PREDICTED BY IDOCK:   -5.45 KCAL/MOL
REMARK 923 INTER-LIGAND FREE ENERGY PREDICTED BY IDOCK:   -4.90 KCAL/MOL
REMARK 924 INTRA-LIGAND FREE ENERGY PREDICTED BY IDOCK:   -0.55 KCAL/MOL
REMARK 927      BINDING AFFINITY PREDICTED BY RF-SCORE:    0.00 PKD
ROOT
HETATM    1  C   UNL     1     -13.267  15.283  70.847  1.00  0.00    -0.506 C  
HETATM    2  C   UNL     1     -12.732  14.234  71.824  1.00  0.00    -0.347 C  
HETATM    3  C   UNL     1     -13.910  13.514  72.491  1.00  0.00    -0.624 C  
ENDROOT
BRANCH   2   4
HETATM    4  N   UNL     1     -11.862  13.308  71.090  1.00  0.00    -0.216 NA 
HETATM    5  H   UNL     1     -12.065  12.340  71.340  1.00  0.00     0.000 HD 
BRANCH   4   6
HETATM    6  C   UNL     1     -11.923  13.500  69.635  1.00  0.00    -0.337 C  
BRANCH   6   7
HETATM    7  C   UNL     1     -11.135  12.415  68.872  1.00  0.00    -0.258 C  
HETATM    8  O   UNL     1      -9.727  12.588  69.067  1.00  0.00    -0.403 OA 
HETATM    9  H   UNL     1      -9.242  11.919  68.597  1.00  0.00     0.000 HD 
BRANCH   7  10
HETATM   10  C   UNL     1     -11.574  11.016  69.352  1.00  0.00    -0.312 C  
BRANCH  10  11
HETATM   11  O   UNL     1     -10.478  10.201  69.792  1.00  0.00    -0.232 OA 
BRANCH  11  12
HETATM   12  C   UNL     1     -10.120   9.131  69.003  1.00  0.00    -0.191 A  
HETATM   13  C   UNL     1     -10.574   8.968  67.686  1.00  0.00    -0.298 A  
HETATM   14  C   UNL     1     -10.216   7.852  66.932  1.00  0.00    -0.380 A  
HETATM   15  C   UNL     1      -9.419   6.868  67.490  1.00  0.00    -0.143 A  
HETATM   16  C   UNL     1      -8.946   7.017  68.792  1.00  0.00    -0.131 A  
HETATM   17  C   UNL     1      -9.248   8.163  69.548  1.00  0.00    -0.158 A  
BRANCH  17  18
HETATM   18  O   UNL     1      -8.721   8.380  70.809  1.00  0.00    -0.133 OA 
BRANCH  18  19
HETATM   19  C   UNL     1      -7.608   7.538  71.136  1.00  0.00    -0.081 C  
BRANCH  19  20
HETATM   20  C   UNL     1      -6.881   8.051  72.341  1.00  0.00    -0.085 C  
HETATM   21  C   UNL     1      -6.499   7.268  73.361  1.00  0.00    -0.064 C  
ENDBRANCH  19  20
ENDBRANCH  18  19
ENDBRANCH  17  18
ENDBRANCH  11  12
ENDBRANCH  10  11
ENDBRANCH   7  10
ENDBRANCH   6   7
ENDBRANCH   4   6
ENDBRANCH   2   4
TORSDOF 9
ENDMDL
MODEL      267
REMARK 921   NORMALIZED FREE ENERGY PREDICTED BY IDOCK:   -3.06 KCAL/MOL
REMARK 922        TOTAL FREE ENERGY PREDICTED BY IDOCK:   -5.44 KCAL/MOL
REMARK 923 INTER-LIGAND FREE ENERGY PREDICTED BY IDOCK:   -4.75 KCAL/MOL
REMARK 924 INTRA-LIGAND FREE ENERGY PREDICTED BY IDOCK:   -0.70 KCAL/MOL
REMARK 927      BINDING AFFINITY PREDICTED BY RF-SCORE:    0.00 PKD
ROOT
HETATM    1  C   UNL     1     -10.754   7.327  67.105  1.00  0.00    -0.413 C  
HETATM    2  C   UNL     1      -9.252   7.039  67.128  1.00  0.00    -0.137 C  
HETATM    3  C   UNL     1      -8.616   7.555  65.832  1.00  0.00    -0.165 C  
ENDROOT
BRANCH   2   4
HETATM    4  N   UNL     1      -8.670   7.669  68.319  1.00  0.00    -0.124 NA 
HETATM    5  H   UNL     1      -9.383   7.835  69.029  1.00  0.00     0.000 HD 
BRANCH   4   6
HETATM    6  C   UNL     1      -7.542   6.908  68.873  1.00  0.00    -0.105 C  
BRANCH   6   7
HETATM    7  C   UNL     1      -7.260   7.277  70.344  1.00  0.00    -0.069 C  
HETATM    8  O   UNL     1      -6.036   6.679  70.785  1.00  0.00    -0.027 OA 
HETATM    9  H   UNL     1      -5.863   6.907  71.691  1.00  0.00     0.000 HD 
BRANCH   7  10
HETATM   10  C   UNL     1      -7.191   8.811  70.494  1.00  0.00    -0.059 C  
BRANCH  10  11
HETATM   11  O   UNL     1      -8.392   9.381  71.032  1.00  0.00    -0.294 OA 
BRANCH  11  12
HETATM   12  C   UNL     1      -9.158   8.593  71.861  1.00  0.00    -0.256 A  
HETATM   13  C   UNL     1      -8.704   8.124  73.103  1.00  0.00    -0.307 A  
HETATM   14  C   UNL     1      -9.497   7.299  73.898  1.00  0.00    -0.316 A  
HETATM   15  C   UNL     1     -10.748   6.908  73.454  1.00  0.00    -0.352 A  
HETATM   16  C   UNL     1     -11.224   7.373  72.230  1.00  0.00    -0.314 A  
HETATM   17  C   UNL     1     -10.463   8.252  71.440  1.00  0.00    -0.219 A  
BRANCH  17  18
HETATM   18  O   UNL     1     -10.944   8.800  70.265  1.00  0.00    -0.237 OA 
BRANCH  18  19
HETATM   19  C   UNL     1     -11.384  10.160  70.385  1.00  0.00    -0.326 C  
BRANCH  19  20
HETATM   20  C   UNL     1     -12.669  10.242  71.152  1.00  0.00    -0.502 C  
HETATM   21  C   UNL     1     -13.083  11.353  71.780  1.00  0.00    -0.523 C  
ENDBRANCH  19  20
ENDBRANCH  18  19
ENDBRANCH  17  18
ENDBRANCH  11  12
ENDBRANCH  10  11
ENDBRANCH   7  10
ENDBRANCH   6   7
ENDBRANCH   4   6
ENDBRANCH   2   4
TORSDOF 9
ENDMDL
MODEL      268
REMARK 921   NORMALIZED FREE ENERGY PREDICTED BY IDOCK:   -3.06 KCAL/MOL
REMARK 922        TOTAL FREE ENERGY PREDICTED BY IDOCK:   -5.44 KCAL/MOL
REMARK 923 INTER-LIGAND FREE ENERGY PREDICTED BY IDOCK:   -4.20 KCAL/MOL
REMARK 924 INTRA-LIGAND FREE ENERGY PREDICTED BY IDOCK:   -1.24 KCAL/MOL
REMARK 927      BINDING AFFINITY PREDICTED BY RF-SCORE:    0.00 PKD
ROOT
HETATM    1  C   UNL     1     -10.521   7.450  66.839  1.00  0.00    -0.379 C  
HETATM    2  C   UNL     1      -9.371   6.506  67.195  1.00  0.00    -0.126 C  
HETATM    3  C   UNL     1      -8.194   6.760  66.246  1.00  0.00    -0.120 C  
ENDROOT
BRANCH   2   4
HETATM    4  N   UNL     1      -9.005   6.718  68.600  1.00  0.00    -0.126 NA 
HETATM    5  H   UNL     1      -9.071   7.705  68.850  1.00  0.00     0.000 HD 
BRANCH   4   6
HETATM    6  C   UNL     1      -9.789   5.888  69.525  1.00  0.00    -0.169 C  
BRANCH   6   7
HETATM    7  C   UNL     1     -10.735   6.733  70.403  1.00  0.00    -0.241 C  
HETATM    8  O   UNL     1     -11.605   5.886  71.161  1.00  0.00    -0.196 OA 
HETATM    9  H   UNL     1     -12.188   6.407  71.702  1.00  0.00     0.000 HD 
BRANCH   7  10
HETATM   10  C   UNL     1      -9.909   7.632  71.346  1.00  0.00    -0.174 C  
BRANCH  10  11
HETATM   11  O   UNL     1      -9.352   8.779  70.688  1.00  0.00    -0.167 OA 
BRANCH  11  12
HETATM   12  C   UNL     1     -10.226   9.727  70.208  1.00  0.00    -0.289 A  
HETATM   13  C   UNL     1     -11.332  10.187  70.938  1.00  0.00    -0.420 A  
HETATM   14  C   UNL     1     -12.214  11.123  70.401  1.00  0.00    -0.457 A  
HETATM   15  C   UNL     1     -12.019  11.598  69.116  1.00  0.00    -0.378 A  
HETATM   16  C   UNL     1     -10.919  11.166  68.379  1.00  0.00    -0.277 A  
HETATM   17  C   UNL     1      -9.986  10.266  68.924  1.00  0.00    -0.201 A  
BRANCH  17  18
HETATM   18  O   UNL     1      -8.838   9.888  68.250  1.00  0.00    -0.118 OA 
BRANCH  18  19
HETATM   19  C   UNL     1      -7.919  10.961  68.004  1.00  0.00    -0.109 C  
BRANCH  19  20
HETATM   20  C   UNL     1      -7.159  11.313  69.246  1.00  0.00    -0.112 C  
HETATM   21  C   UNL     1      -6.540  10.404  70.014  1.00  0.00    -0.137 C  
ENDBRANCH  19  20
ENDBRANCH  18  19
ENDBRANCH  17  18
ENDBRANCH  11  12
ENDBRANCH  10  11
ENDBRANCH   7  10
ENDBRANCH   6   7
ENDBRANCH   4   6
ENDBRANCH   2   4
TORSDOF 9
ENDMDL
MODEL      269
REMARK 921   NORMALIZED FREE ENERGY PREDICTED BY IDOCK:   -3.05 KCAL/MOL
REMARK 922        TOTAL FREE ENERGY PREDICTED BY IDOCK:   -5.43 KCAL/MOL
REMARK 923 INTER-LIGAND FREE ENERGY PREDICTED BY IDOCK:   -4.70 KCAL/MOL
REMARK 924 INTRA-LIGAND FREE ENERGY PREDICTED BY IDOCK:   -0.73 KCAL/MOL
REMARK 927      BINDING AFFINITY PREDICTED BY RF-SCORE:    0.00 PKD
ROOT
HETATM    1  C   UNL     1     -11.756  14.537  65.824  1.00  0.00    -0.344 C  
HETATM    2  C   UNL     1     -12.564  13.344  65.310  1.00  0.00    -0.464 C  
HETATM    3  C   UNL     1     -12.353  13.200  63.799  1.00  0.00    -0.459 C  
ENDROOT
BRANCH   2   4
HETATM    4  N   UNL     1     -12.149  12.143  66.044  1.00  0.00    -0.586 NA 
HETATM    5  H   UNL     1     -12.732  11.344  65.796  1.00  0.00     0.000 HD 
BRANCH   4   6
HETATM    6  C   UNL     1     -10.724  11.831  65.866  1.00  0.00    -0.282 C  
BRANCH   6   7
HETATM    7  C   UNL     1     -10.032  11.497  67.204  1.00  0.00    -0.199 C  
HETATM    8  O   UNL     1     -10.926  11.717  68.300  1.00  0.00    -0.199 OA 
HETATM    9  H   UNL     1     -10.500  11.511  69.124  1.00  0.00     0.000 HD 
BRANCH   7  10
HETATM   10  C   UNL     1      -9.550  10.032  67.192  1.00  0.00    -0.165 C  
BRANCH  10  11
HETATM   11  O   UNL     1     -10.581   9.095  67.532  1.00  0.00    -0.267 OA 
BRANCH  11  12
HETATM   12  C   UNL     1     -10.338   8.225  68.571  1.00  0.00    -0.199 A  
HETATM   13  C   UNL     1     -10.630   8.532  69.908  1.00  0.00    -0.228 A  
HETATM   14  C   UNL     1     -10.336   7.637  70.935  1.00  0.00    -0.204 A  
HETATM   15  C   UNL     1      -9.722   6.431  70.646  1.00  0.00    -0.197 A  
HETATM   16  C   UNL     1      -9.436   6.101  69.323  1.00  0.00    -0.147 A  
HETATM   17  C   UNL     1      -9.778   6.964  68.268  1.00  0.00    -0.132 A  
BRANCH  17  18
HETATM   18  O   UNL     1      -9.588   6.626  66.940  1.00  0.00    -0.146 OA 
BRANCH  18  19
HETATM   19  C   UNL     1     -10.250   5.418  66.539  1.00  0.00    -0.245 C  
BRANCH  19  20
HETATM   20  C   UNL     1      -9.282   4.454  65.924  1.00  0.00    -0.140 C  
HETATM   21  C   UNL     1      -7.993   4.371  66.287  1.00  0.00    -0.099 C  
ENDBRANCH  19  20
ENDBRANCH  18  19
ENDBRANCH  17  18
ENDBRANCH  11  12
ENDBRANCH  10  11
ENDBRANCH   7  10
ENDBRANCH   6   7
ENDBRANCH   4   6
ENDBRANCH   2   4
TORSDOF 9
ENDMDL
MODEL      270
REMARK 921   NORMALIZED FREE ENERGY PREDICTED BY IDOCK:   -3.05 KCAL/MOL
REMARK 922        TOTAL FREE ENERGY PREDICTED BY IDOCK:   -5.43 KCAL/MOL
REMARK 923 INTER-LIGAND FREE ENERGY PREDICTED BY IDOCK:   -4.78 KCAL/MOL
REMARK 924 INTRA-LIGAND FREE ENERGY PREDICTED BY IDOCK:   -0.65 KCAL/MOL
REMARK 927      BINDING AFFINITY PREDICTED BY RF-SCORE:    0.00 PKD
ROOT
HETATM    1  C   UNL     1     -10.749  19.712  67.113  1.00  0.00    -0.587 C  
HETATM    2  C   UNL     1      -9.519  19.023  66.518  1.00  0.00    -0.345 C  
HETATM    3  C   UNL     1      -8.260  19.519  67.239  1.00  0.00    -0.321 C  
ENDROOT
BRANCH   2   4
HETATM    4  N   UNL     1      -9.689  17.570  66.636  1.00  0.00    -0.286 NA 
HETATM    5  H   UNL     1      -9.666  17.124  65.719  1.00  0.00     0.000 HD 
BRANCH   4   6
HETATM    6  C   UNL     1      -8.713  16.955  67.546  1.00  0.00    -0.208 C  
BRANCH   6   7
HETATM    7  C   UNL     1      -7.850  15.890  66.837  1.00  0.00    -0.247 C  
HETATM    8  O   UNL     1      -6.476  16.291  66.818  1.00  0.00    -0.280 OA 
HETATM    9  H   UNL     1      -5.944  15.635  66.381  1.00  0.00     0.000 HD 
BRANCH   7  10
HETATM   10  C   UNL     1      -8.002  14.533  67.554  1.00  0.00    -0.191 C  
BRANCH  10  11
HETATM   11  O   UNL     1      -8.606  13.525  66.731  1.00  0.00    -0.151 OA 
BRANCH  11  12
HETATM   12  C   UNL     1      -9.567  12.724  67.305  1.00  0.00    -0.208 A  
HETATM   13  C   UNL     1      -9.862  12.746  68.676  1.00  0.00    -0.071 A  
HETATM   14  C   UNL     1     -10.818  11.893  69.224  1.00  0.00    -0.157 A  
HETATM   15  C   UNL     1     -11.480  10.986  68.414  1.00  0.00    -0.378 A  
HETATM   16  C   UNL     1     -11.212  10.957  67.047  1.00  0.00    -0.211 A  
HETATM   17  C   UNL     1     -10.294  11.849  66.466  1.00  0.00    -0.216 A  
BRANCH  17  18
HETATM   18  O   UNL     1     -10.074  11.904  65.101  1.00  0.00    -0.250 OA 
BRANCH  18  19
HETATM   19  C   UNL     1     -10.191  10.640  64.434  1.00  0.00    -0.330 C  
BRANCH  19  20
HETATM   20  C   UNL     1      -8.850   9.989  64.278  1.00  0.00    -0.245 C  
HETATM   21  C   UNL     1      -8.622   8.695  64.550  1.00  0.00    -0.097 C  
ENDBRANCH  19  20
ENDBRANCH  18  19
ENDBRANCH  17  18
ENDBRANCH  11  12
ENDBRANCH  10  11
ENDBRANCH   7  10
ENDBRANCH   6   7
ENDBRANCH   4   6
ENDBRANCH   2   4
TORSDOF 9
ENDMDL
MODEL      271
REMARK 921   NORMALIZED FREE ENERGY PREDICTED BY IDOCK:   -3.05 KCAL/MOL
REMARK 922        TOTAL FREE ENERGY PREDICTED BY IDOCK:   -5.42 KCAL/MOL
REMARK 923 INTER-LIGAND FREE ENERGY PREDICTED BY IDOCK:   -4.46 KCAL/MOL
REMARK 924 INTRA-LIGAND FREE ENERGY PREDICTED BY IDOCK:   -0.97 KCAL/MOL
REMARK 927      BINDING AFFINITY PREDICTED BY RF-SCORE:    0.00 PKD
ROOT
HETATM    1  C   UNL     1      -8.899   7.837  70.468  1.00  0.00    -0.145 C  
HETATM    2  C   UNL     1      -8.476   9.293  70.676  1.00  0.00    -0.217 C  
HETATM    3  C   UNL     1      -6.988   9.443  70.337  1.00  0.00    -0.100 C  
ENDROOT
BRANCH   2   4
HETATM    4  N   UNL     1      -9.324  10.154  69.844  1.00  0.00    -0.391 NA 
HETATM    5  H   UNL     1      -9.087  10.055  68.857  1.00  0.00     0.000 HD 
BRANCH   4   6
HETATM    6  C   UNL     1     -10.758   9.927  70.065  1.00  0.00    -0.292 C  
BRANCH   6   7
HETATM    7  C   UNL     1     -11.560   9.950  68.747  1.00  0.00     0.209 C  
HETATM    8  O   UNL     1     -12.627  10.900  68.826  1.00  0.00    -0.699 OA 
HETATM    9  H   UNL     1     -13.121  10.914  68.014  1.00  0.00     0.000 HD 
BRANCH   7  10
HETATM   10  C   UNL     1     -10.623  10.294  67.571  1.00  0.00    -0.268 C  
BRANCH  10  11
HETATM   11  O   UNL     1     -10.489   9.224  66.625  1.00  0.00    -0.237 OA 
BRANCH  11  12
HETATM   12  C   UNL     1      -9.258   9.040  66.038  1.00  0.00    -0.226 A  
HETATM   13  C   UNL     1      -8.232   8.291  66.634  1.00  0.00    -0.106 A  
HETATM   14  C   UNL     1      -6.987   8.157  66.023  1.00  0.00    -0.058 A  
HETATM   15  C   UNL     1      -6.737   8.791  64.818  1.00  0.00    -0.069 A  
HETATM   16  C   UNL     1      -7.746   9.527  64.202  1.00  0.00    -0.124 A  
HETATM   17  C   UNL     1      -9.027   9.626  64.773  1.00  0.00    -0.225 A  
BRANCH  17  18
HETATM   18  O   UNL     1     -10.073  10.276  64.143  1.00  0.00    -0.287 OA 
BRANCH  18  19
HETATM   19  C   UNL     1      -9.842  11.671  63.904  1.00  0.00    -0.281 C  
BRANCH  19  20
HETATM   20  C   UNL     1     -10.941  12.505  64.489  1.00  0.00    -0.359 C  
HETATM   21  C   UNL     1     -12.017  12.901  63.792  1.00  0.00    -0.582 C  
ENDBRANCH  19  20
ENDBRANCH  18  19
ENDBRANCH  17  18
ENDBRANCH  11  12
ENDBRANCH  10  11
ENDBRANCH   7  10
ENDBRANCH   6   7
ENDBRANCH   4   6
ENDBRANCH   2   4
TORSDOF 9
ENDMDL
MODEL      272
REMARK 921   NORMALIZED FREE ENERGY PREDICTED BY IDOCK:   -3.03 KCAL/MOL
REMARK 922        TOTAL FREE ENERGY PREDICTED BY IDOCK:   -5.40 KCAL/MOL
REMARK 923 INTER-LIGAND FREE ENERGY PREDICTED BY IDOCK:   -4.37 KCAL/MOL
REMARK 924 INTRA-LIGAND FREE ENERGY PREDICTED BY IDOCK:   -1.02 KCAL/MOL
REMARK 927      BINDING AFFINITY PREDICTED BY RF-SCORE:    0.00 PKD
ROOT
HETATM    1  C   UNL     1     -10.592  17.090  65.442  1.00  0.00    -0.147 C  
HETATM    2  C   UNL     1      -9.934  18.119  66.362  1.00  0.00    -0.376 C  
HETATM    3  C   UNL     1     -10.248  19.531  65.853  1.00  0.00    -0.508 C  
ENDROOT
BRANCH   2   4
HETATM    4  N   UNL     1     -10.417  17.905  67.731  1.00  0.00    -0.388 NA 
HETATM    5  H   UNL     1     -10.928  18.720  68.070  1.00  0.00     0.000 HD 
BRANCH   4   6
HETATM    6  C   UNL     1     -11.224  16.684  67.865  1.00  0.00    -0.114 C  
BRANCH   6   7
HETATM    7  C   UNL     1     -11.221  16.143  69.310  1.00  0.00    -0.337 C  
HETATM    8  O   UNL     1     -12.050  14.980  69.411  1.00  0.00    -0.401 OA 
HETATM    9  H   UNL     1     -12.048  14.647  70.302  1.00  0.00     0.000 HD 
BRANCH   7  10
HETATM   10  C   UNL     1      -9.778  15.811  69.742  1.00  0.00    -0.187 C  
BRANCH  10  11
HETATM   11  O   UNL     1      -8.864  15.729  68.639  1.00  0.00    -0.179 OA 
BRANCH  11  12
HETATM   12  C   UNL     1      -7.881  14.767  68.695  1.00  0.00    -0.140 A  
HETATM   13  C   UNL     1      -6.883  14.751  69.680  1.00  0.00    -0.173 A  
HETATM   14  C   UNL     1      -5.883  13.780  69.681  1.00  0.00    -0.106 A  
HETATM   15  C   UNL     1      -5.850  12.823  68.682  1.00  0.00    -0.064 A  
HETATM   16  C   UNL     1      -6.839  12.813  67.702  1.00  0.00    -0.147 A  
HETATM   17  C   UNL     1      -7.889  13.748  67.717  1.00  0.00    -0.172 A  
BRANCH  17  18
HETATM   18  O   UNL     1      -8.933  13.707  66.810  1.00  0.00    -0.237 OA 
BRANCH  18  19
HETATM   19  C   UNL     1      -9.942  12.736  67.117  1.00  0.00    -0.218 C  
BRANCH  19  20
HETATM   20  C   UNL     1      -9.939  11.623  66.113  1.00  0.00    -0.252 C  
HETATM   21  C   UNL     1     -10.525  10.436  66.327  1.00  0.00    -0.229 C  
ENDBRANCH  19  20
ENDBRANCH  18  19
ENDBRANCH  17  18
ENDBRANCH  11  12
ENDBRANCH  10  11
ENDBRANCH   7  10
ENDBRANCH   6   7
ENDBRANCH   4   6
ENDBRANCH   2   4
TORSDOF 9
ENDMDL
MODEL      273
REMARK 921   NORMALIZED FREE ENERGY PREDICTED BY IDOCK:   -3.01 KCAL/MOL
REMARK 922        TOTAL FREE ENERGY PREDICTED BY IDOCK:   -5.37 KCAL/MOL
REMARK 923 INTER-LIGAND FREE ENERGY PREDICTED BY IDOCK:   -4.64 KCAL/MOL
REMARK 924 INTRA-LIGAND FREE ENERGY PREDICTED BY IDOCK:   -0.73 KCAL/MOL
REMARK 927      BINDING AFFINITY PREDICTED BY RF-SCORE:    0.00 PKD
ROOT
HETATM    1  C   UNL     1     -10.463  16.797  67.071  1.00  0.00    -0.285 C  
HETATM    2  C   UNL     1     -10.733  15.323  66.764  1.00  0.00    -0.313 C  
HETATM    3  C   UNL     1      -9.399  14.584  66.606  1.00  0.00    -0.301 C  
ENDROOT
BRANCH   2   4
HETATM    4  N   UNL     1     -11.553  14.760  67.844  1.00  0.00    -0.341 NA 
HETATM    5  H   UNL     1     -12.504  14.579  67.524  1.00  0.00     0.000 HD 
BRANCH   4   6
HETATM    6  C   UNL     1     -10.959  13.557  68.442  1.00  0.00    -0.266 C  
BRANCH   6   7
HETATM    7  C   UNL     1     -11.909  12.342  68.365  1.00  0.00    -0.309 C  
HETATM    8  O   UNL     1     -11.988  11.853  67.022  1.00  0.00    -0.615 OA 
HETATM    9  H   UNL     1     -12.573  11.105  66.974  1.00  0.00     0.000 HD 
BRANCH   7  10
HETATM   10  C   UNL     1     -11.412  11.230  69.311  1.00  0.00    -0.301 C  
BRANCH  10  11
HETATM   11  O   UNL     1     -10.693  10.191  68.633  1.00  0.00    -0.202 OA 
BRANCH  11  12
HETATM   12  C   UNL     1      -9.381   9.982  68.993  1.00  0.00    -0.181 A  
HETATM   13  C   UNL     1      -8.337  10.834  68.604  1.00  0.00    -0.141 A  
HETATM   14  C   UNL     1      -7.016  10.568  68.960  1.00  0.00    -0.076 A  
HETATM   15  C   UNL     1      -6.713   9.432  69.690  1.00  0.00    -0.048 A  
HETATM   16  C   UNL     1      -7.737   8.580  70.099  1.00  0.00    -0.086 A  
HETATM   17  C   UNL     1      -9.081   8.862  69.800  1.00  0.00    -0.150 A  
BRANCH  17  18
HETATM   18  O   UNL     1     -10.125   8.083  70.268  1.00  0.00    -0.189 OA 
BRANCH  18  19
HETATM   19  C   UNL     1      -9.758   7.173  71.314  1.00  0.00    -0.170 C  
BRANCH  19  20
HETATM   20  C   UNL     1     -10.816   7.119  72.374  1.00  0.00    -0.280 C  
HETATM   21  C   UNL     1     -10.543   7.085  73.687  1.00  0.00    -0.383 C  
ENDBRANCH  19  20
ENDBRANCH  18  19
ENDBRANCH  17  18
ENDBRANCH  11  12
ENDBRANCH  10  11
ENDBRANCH   7  10
ENDBRANCH   6   7
ENDBRANCH   4   6
ENDBRANCH   2   4
TORSDOF 9
ENDMDL
MODEL      274
REMARK 921   NORMALIZED FREE ENERGY PREDICTED BY IDOCK:   -3.01 KCAL/MOL
REMARK 922        TOTAL FREE ENERGY PREDICTED BY IDOCK:   -5.36 KCAL/MOL
REMARK 923 INTER-LIGAND FREE ENERGY PREDICTED BY IDOCK:   -4.60 KCAL/MOL
REMARK 924 INTRA-LIGAND FREE ENERGY PREDICTED BY IDOCK:   -0.76 KCAL/MOL
REMARK 927      BINDING AFFINITY PREDICTED BY RF-SCORE:    0.00 PKD
ROOT
HETATM    1  C   UNL     1      -7.267   9.810  69.133  1.00  0.00    -0.073 C  
HETATM    2  C   UNL     1      -7.962   8.613  68.482  1.00  0.00    -0.116 C  
HETATM    3  C   UNL     1      -7.151   7.342  68.760  1.00  0.00    -0.084 C  
ENDROOT
BRANCH   2   4
HETATM    4  N   UNL     1      -9.330   8.522  69.005  1.00  0.00    -0.146 NA 
HETATM    5  H   UNL     1      -9.514   7.594  69.387  1.00  0.00     0.000 HD 
BRANCH   4   6
HETATM    6  C   UNL     1      -9.635   9.568  69.991  1.00  0.00    -0.238 C  
BRANCH   6   7
HETATM    7  C   UNL     1     -11.149   9.845  70.094  1.00  0.00    -0.296 C  
HETATM    8  O   UNL     1     -11.553   9.919  71.465  1.00  0.00    -0.373 OA 
HETATM    9  H   UNL     1     -12.486  10.090  71.528  1.00  0.00     0.000 HD 
BRANCH   7  10
HETATM   10  C   UNL     1     -11.491  11.160  69.363  1.00  0.00    -0.298 C  
BRANCH  10  11
HETATM   11  O   UNL     1     -10.558  11.487  68.324  1.00  0.00    -0.184 OA 
BRANCH  11  12
HETATM   12  C   UNL     1     -10.714  12.695  67.682  1.00  0.00    -0.218 A  
HETATM   13  C   UNL     1     -11.419  13.771  68.240  1.00  0.00    -0.348 A  
HETATM   14  C   UNL     1     -11.583  14.966  67.543  1.00  0.00    -0.355 A  
HETATM   15  C   UNL     1     -11.068  15.097  66.265  1.00  0.00    -0.309 A  
HETATM   16  C   UNL     1     -10.352  14.045  65.698  1.00  0.00    -0.342 A  
HETATM   17  C   UNL     1     -10.125  12.853  66.408  1.00  0.00    -0.269 A  
BRANCH  17  18
HETATM   18  O   UNL     1      -9.344  11.827  65.906  1.00  0.00    -0.227 OA 
BRANCH  18  19
HETATM   19  C   UNL     1     -10.090  10.745  65.333  1.00  0.00    -0.285 C  
BRANCH  19  20
HETATM   20  C   UNL     1      -9.194   9.590  65.003  1.00  0.00    -0.297 C  
HETATM   21  C   UNL     1      -7.933   9.736  64.570  1.00  0.00    -0.144 C  
ENDBRANCH  19  20
ENDBRANCH  18  19
ENDBRANCH  17  18
ENDBRANCH  11  12
ENDBRANCH  10  11
ENDBRANCH   7  10
ENDBRANCH   6   7
ENDBRANCH   4   6
ENDBRANCH   2   4
TORSDOF 9
ENDMDL
MODEL      275
REMARK 921   NORMALIZED FREE ENERGY PREDICTED BY IDOCK:   -2.99 KCAL/MOL
REMARK 922        TOTAL FREE ENERGY PREDICTED BY IDOCK:   -5.34 KCAL/MOL
REMARK 923 INTER-LIGAND FREE ENERGY PREDICTED BY IDOCK:   -4.53 KCAL/MOL
REMARK 924 INTRA-LIGAND FREE ENERGY PREDICTED BY IDOCK:   -0.81 KCAL/MOL
REMARK 927      BINDING AFFINITY PREDICTED BY RF-SCORE:    0.00 PKD
ROOT
HETATM    1  C   UNL     1     -13.298  12.099  71.907  1.00  0.00    -0.421 C  
HETATM    2  C   UNL     1     -13.024  11.927  70.412  1.00  0.00     0.337 C  
HETATM    3  C   UNL     1     -11.848  12.823  70.004  1.00  0.00    -0.352 C  
ENDROOT
BRANCH   2   4
HETATM    4  N   UNL     1     -12.758  10.509  70.141  1.00  0.00    -0.508 NA 
HETATM    5  H   UNL     1     -12.160  10.399  69.323  1.00  0.00     0.000 HD 
BRANCH   4   6
HETATM    6  C   UNL     1     -12.199   9.803  71.302  1.00  0.00    -0.374 C  
BRANCH   6   7
HETATM    7  C   UNL     1     -11.028   8.878  70.909  1.00  0.00    -0.266 C  
HETATM    8  O   UNL     1     -11.515   7.583  70.540  1.00  0.00    -0.300 OA 
HETATM    9  H   UNL     1     -10.795   7.013  70.298  1.00  0.00     0.000 HD 
BRANCH   7  10
HETATM   10  C   UNL     1     -10.236   9.503  69.742  1.00  0.00    -0.228 C  
BRANCH  10  11
HETATM   11  O   UNL     1     -10.492   8.869  68.482  1.00  0.00    -0.205 OA 
BRANCH  11  12
HETATM   12  C   UNL     1     -10.360   9.631  67.343  1.00  0.00    -0.247 A  
HETATM   13  C   UNL     1     -10.681  10.996  67.297  1.00  0.00    -0.312 A  
HETATM   14  C   UNL     1     -10.567  11.725  66.115  1.00  0.00    -0.301 A  
HETATM   15  C   UNL     1     -10.155  11.097  64.953  1.00  0.00    -0.345 A  
HETATM   16  C   UNL     1      -9.818   9.746  64.980  1.00  0.00    -0.243 A  
HETATM   17  C   UNL     1      -9.870   9.007  66.175  1.00  0.00    -0.278 A  
BRANCH  17  18
HETATM   18  O   UNL     1      -9.457   7.688  66.251  1.00  0.00    -0.176 OA 
BRANCH  18  19
HETATM   19  C   UNL     1      -8.131   7.516  66.769  1.00  0.00    -0.123 C  
BRANCH  19  20
HETATM   20  C   UNL     1      -8.039   6.278  67.609  1.00  0.00    -0.117 C  
HETATM   21  C   UNL     1      -6.887   5.817  68.119  1.00  0.00    -0.067 C  
ENDBRANCH  19  20
ENDBRANCH  18  19
ENDBRANCH  17  18
ENDBRANCH  11  12
ENDBRANCH  10  11
ENDBRANCH   7  10
ENDBRANCH   6   7
ENDBRANCH   4   6
ENDBRANCH   2   4
TORSDOF 9
ENDMDL
MODEL      276
REMARK 921   NORMALIZED FREE ENERGY PREDICTED BY IDOCK:   -2.99 KCAL/MOL
REMARK 922        TOTAL FREE ENERGY PREDICTED BY IDOCK:   -5.33 KCAL/MOL
REMARK 923 INTER-LIGAND FREE ENERGY PREDICTED BY IDOCK:   -4.23 KCAL/MOL
REMARK 924 INTRA-LIGAND FREE ENERGY PREDICTED BY IDOCK:   -1.10 KCAL/MOL
REMARK 927      BINDING AFFINITY PREDICTED BY RF-SCORE:    0.00 PKD
ROOT
HETATM    1  C   UNL     1      -7.204   8.218  71.748  1.00  0.00    -0.095 C  
HETATM    2  C   UNL     1      -7.239   8.319  70.222  1.00  0.00    -0.051 C  
HETATM    3  C   UNL     1      -6.764   6.994  69.614  1.00  0.00    -0.049 C  
ENDROOT
BRANCH   2   4
HETATM    4  N   UNL     1      -8.603   8.663  69.804  1.00  0.00    -0.128 NA 
HETATM    5  H   UNL     1      -9.279   8.418  70.528  1.00  0.00     0.000 HD 
BRANCH   4   6
HETATM    6  C   UNL     1      -8.741  10.071  69.409  1.00  0.00    -0.186 C  
BRANCH   6   7
HETATM    7  C   UNL     1     -10.203  10.444  69.090  1.00  0.00    -0.222 C  
HETATM    8  O   UNL     1     -10.641   9.784  67.897  1.00  0.00    -0.227 OA 
HETATM    9  H   UNL     1     -11.542  10.014  67.701  1.00  0.00     0.000 HD 
BRANCH   7  10
HETATM   10  C   UNL     1     -11.111  10.060  70.277  1.00  0.00    -0.318 C  
BRANCH  10  11
HETATM   11  O   UNL     1     -11.708   8.764  70.134  1.00  0.00    -0.039 OA 
BRANCH  11  12
HETATM   12  C   UNL     1     -11.317   7.779  71.012  1.00  0.00    -0.271 A  
HETATM   13  C   UNL     1     -11.070   8.021  72.372  1.00  0.00    -0.416 A  
HETATM   14  C   UNL     1     -10.641   7.003  73.221  1.00  0.00    -0.378 A  
HETATM   15  C   UNL     1     -10.426   5.731  72.721  1.00  0.00    -0.242 A  
HETATM   16  C   UNL     1     -10.678   5.465  71.377  1.00  0.00    -0.258 A  
HETATM   17  C   UNL     1     -11.168   6.464  70.517  1.00  0.00    -0.352 A  
BRANCH  17  18
HETATM   18  O   UNL     1     -11.511   6.208  69.201  1.00  0.00    -0.379 OA 
BRANCH  18  19
HETATM   19  C   UNL     1     -10.442   5.681  68.405  1.00  0.00    -0.195 C  
BRANCH  19  20
HETATM   20  C   UNL     1     -10.267   6.476  67.147  1.00  0.00    -0.257 C  
HETATM   21  C   UNL     1      -9.283   6.250  66.263  1.00  0.00    -0.165 C  
ENDBRANCH  19  20
ENDBRANCH  18  19
ENDBRANCH  17  18
ENDBRANCH  11  12
ENDBRANCH  10  11
ENDBRANCH   7  10
ENDBRANCH   6   7
ENDBRANCH   4   6
ENDBRANCH   2   4
TORSDOF 9
ENDMDL
MODEL      277
REMARK 921   NORMALIZED FREE ENERGY PREDICTED BY IDOCK:   -2.98 KCAL/MOL
REMARK 922        TOTAL FREE ENERGY PREDICTED BY IDOCK:   -5.33 KCAL/MOL
REMARK 923 INTER-LIGAND FREE ENERGY PREDICTED BY IDOCK:   -4.51 KCAL/MOL
REMARK 924 INTRA-LIGAND FREE ENERGY PREDICTED BY IDOCK:   -0.82 KCAL/MOL
REMARK 927      BINDING AFFINITY PREDICTED BY RF-SCORE:    0.00 PKD
ROOT
HETATM    1  C   UNL     1      -7.483   8.551  70.962  1.00  0.00    -0.080 C  
HETATM    2  C   UNL     1      -6.628   9.790  70.692  1.00  0.00    -0.113 C  
HETATM    3  C   UNL     1      -5.279   9.644  71.407  1.00  0.00    -0.065 C  
ENDROOT
BRANCH   2   4
HETATM    4  N   UNL     1      -6.471   9.947  69.241  1.00  0.00    -0.047 NA 
HETATM    5  H   UNL     1      -7.201   9.443  68.738  1.00  0.00     0.000 HD 
BRANCH   4   6
HETATM    6  C   UNL     1      -6.417  11.354  68.822  1.00  0.00    -0.056 C  
BRANCH   6   7
HETATM    7  C   UNL     1      -7.393  11.652  67.664  1.00  0.00    -0.108 C  
HETATM    8  O   UNL     1      -6.806  12.572  66.738  1.00  0.00    -0.372 OA 
HETATM    9  H   UNL     1      -7.407  12.755  66.025  1.00  0.00     0.000 HD 
BRANCH   7  10
HETATM   10  C   UNL     1      -7.771  10.339  66.948  1.00  0.00    -0.105 C  
BRANCH  10  11
HETATM   11  O   UNL     1      -9.176  10.223  66.686  1.00  0.00    -0.152 OA 
BRANCH  11  12
HETATM   12  C   UNL     1     -10.046  10.670  67.655  1.00  0.00    -0.177 A  
HETATM   13  C   UNL     1     -10.201  10.033  68.895  1.00  0.00    -0.206 A  
HETATM   14  C   UNL     1     -11.119  10.497  69.836  1.00  0.00    -0.371 A  
HETATM   15  C   UNL     1     -11.915  11.590  69.543  1.00  0.00    -0.402 A  
HETATM   16  C   UNL     1     -11.768  12.246  68.324  1.00  0.00    -0.392 A  
HETATM   17  C   UNL     1     -10.807  11.829  67.385  1.00  0.00    -0.251 A  
BRANCH  17  18
HETATM   18  O   UNL     1     -10.577  12.513  66.205  1.00  0.00    -0.247 OA 
BRANCH  18  19
HETATM   19  C   UNL     1     -11.707  12.564  65.323  1.00  0.00    -0.386 C  
BRANCH  19  20
HETATM   20  C   UNL     1     -11.297  12.286  63.908  1.00  0.00    -0.501 C  
HETATM   21  C   UNL     1     -10.369  11.376  63.575  1.00  0.00    -0.476 C  
ENDBRANCH  19  20
ENDBRANCH  18  19
ENDBRANCH  17  18
ENDBRANCH  11  12
ENDBRANCH  10  11
ENDBRANCH   7  10
ENDBRANCH   6   7
ENDBRANCH   4   6
ENDBRANCH   2   4
TORSDOF 9
ENDMDL
MODEL      278
REMARK 921   NORMALIZED FREE ENERGY PREDICTED BY IDOCK:   -2.98 KCAL/MOL
REMARK 922        TOTAL FREE ENERGY PREDICTED BY IDOCK:   -5.33 KCAL/MOL
REMARK 923 INTER-LIGAND FREE ENERGY PREDICTED BY IDOCK:   -4.59 KCAL/MOL
REMARK 924 INTRA-LIGAND FREE ENERGY PREDICTED BY IDOCK:   -0.74 KCAL/MOL
REMARK 927      BINDING AFFINITY PREDICTED BY RF-SCORE:    0.00 PKD
ROOT
HETATM    1  C   UNL     1     -10.376   8.063  68.332  1.00  0.00    -0.236 C  
HETATM    2  C   UNL     1      -9.552   9.126  67.602  1.00  0.00    -0.149 C  
HETATM    3  C   UNL     1      -9.476   8.776  66.112  1.00  0.00    -0.315 C  
ENDROOT
BRANCH   2   4
HETATM    4  N   UNL     1     -10.168  10.439  67.831  1.00  0.00    -0.170 NA 
HETATM    5  H   UNL     1     -10.995  10.561  67.247  1.00  0.00     0.000 HD 
BRANCH   4   6
HETATM    6  C   UNL     1     -10.481  10.682  69.246  1.00  0.00    -0.227 C  
BRANCH   6   7
HETATM    7  C   UNL     1     -11.710  11.599  69.418  1.00  0.00    -0.340 C  
HETATM    8  O   UNL     1     -12.229  11.497  70.749  1.00  0.00    -0.374 OA 
HETATM    9  H   UNL     1     -12.986  12.062  70.855  1.00  0.00     0.000 HD 
BRANCH   7  10
HETATM   10  C   UNL     1     -11.321  13.059  69.107  1.00  0.00    -0.273 C  
BRANCH  10  11
HETATM   11  O   UNL     1     -10.480  13.185  67.952  1.00  0.00    -0.229 OA 
BRANCH  11  12
HETATM   12  C   UNL     1      -9.397  14.029  68.038  1.00  0.00    -0.205 A  
HETATM   13  C   UNL     1      -8.146  13.621  68.526  1.00  0.00    -0.118 A  
HETATM   14  C   UNL     1      -7.084  14.516  68.630  1.00  0.00    -0.113 A  
HETATM   15  C   UNL     1      -7.260  15.842  68.272  1.00  0.00    -0.118 A  
HETATM   16  C   UNL     1      -8.489  16.265  67.772  1.00  0.00    -0.169 A  
HETATM   17  C   UNL     1      -9.556  15.365  67.604  1.00  0.00    -0.210 A  
BRANCH  17  18
HETATM   18  O   UNL     1     -10.758  15.736  67.028  1.00  0.00    -0.315 OA 
BRANCH  18  19
HETATM   19  C   UNL     1     -10.769  15.671  65.596  1.00  0.00    -0.364 C  
BRANCH  19  20
HETATM   20  C   UNL     1     -11.504  14.455  65.119  1.00  0.00    -0.362 C  
HETATM   21  C   UNL     1     -12.277  14.443  64.023  1.00  0.00    -0.300 C  
ENDBRANCH  19  20
ENDBRANCH  18  19
ENDBRANCH  17  18
ENDBRANCH  11  12
ENDBRANCH  10  11
ENDBRANCH   7  10
ENDBRANCH   6   7
ENDBRANCH   4   6
ENDBRANCH   2   4
TORSDOF 9
ENDMDL
MODEL      279
REMARK 921   NORMALIZED FREE ENERGY PREDICTED BY IDOCK:   -2.96 KCAL/MOL
REMARK 922        TOTAL FREE ENERGY PREDICTED BY IDOCK:   -5.29 KCAL/MOL
REMARK 923 INTER-LIGAND FREE ENERGY PREDICTED BY IDOCK:   -4.49 KCAL/MOL
REMARK 924 INTRA-LIGAND FREE ENERGY PREDICTED BY IDOCK:   -0.80 KCAL/MOL
REMARK 927      BINDING AFFINITY PREDICTED BY RF-SCORE:    0.00 PKD
ROOT
HETATM    1  C   UNL     1     -10.885  20.072  66.283  1.00  0.00    -0.208 C  
HETATM    2  C   UNL     1      -9.672  19.151  66.431  1.00  0.00    -0.364 C  
HETATM    3  C   UNL     1      -8.632  19.823  67.336  1.00  0.00    -0.374 C  
ENDROOT
BRANCH   2   4
HETATM    4  N   UNL     1     -10.123  17.862  66.969  1.00  0.00    -0.324 NA 
HETATM    5  H   UNL     1     -10.635  17.331  66.265  1.00  0.00     0.000 HD 
BRANCH   4   6
HETATM    6  C   UNL     1      -9.025  17.065  67.534  1.00  0.00    -0.219 C  
BRANCH   6   7
HETATM    7  C   UNL     1      -8.103  16.490  66.438  1.00  0.00    -0.327 C  
HETATM    8  O   UNL     1      -6.753  16.415  66.909  1.00  0.00    -0.198 OA 
HETATM    9  H   UNL     1      -6.184  16.061  66.235  1.00  0.00     0.000 HD 
BRANCH   7  10
HETATM   10  C   UNL     1      -8.601  15.093  66.015  1.00  0.00     0.420 C  
BRANCH  10  11
HETATM   11  O   UNL     1      -9.822  14.710  66.661  1.00  0.00    -0.251 OA 
BRANCH  11  12
HETATM   12  C   UNL     1      -9.862  13.478  67.274  1.00  0.00    -0.237 A  
HETATM   13  C   UNL     1      -9.159  12.363  66.794  1.00  0.00    -0.212 A  
HETATM   14  C   UNL     1      -9.253  11.123  67.424  1.00  0.00    -0.157 A  
HETATM   15  C   UNL     1     -10.071  10.971  68.529  1.00  0.00    -0.198 A  
HETATM   16  C   UNL     1     -10.767  12.068  69.031  1.00  0.00    -0.178 A  
HETATM   17  C   UNL     1     -10.640  13.340  68.445  1.00  0.00    -0.252 A  
BRANCH  17  18
HETATM   18  O   UNL     1     -11.248  14.465  68.973  1.00  0.00    -0.240 OA 
BRANCH  18  19
HETATM   19  C   UNL     1     -12.291  14.183  69.915  1.00  0.00    -0.327 C  
BRANCH  19  20
HETATM   20  C   UNL     1     -12.348  15.233  70.984  1.00  0.00    -0.426 C  
HETATM   21  C   UNL     1     -12.855  15.014  72.206  1.00  0.00    -0.414 C  
ENDBRANCH  19  20
ENDBRANCH  18  19
ENDBRANCH  17  18
ENDBRANCH  11  12
ENDBRANCH  10  11
ENDBRANCH   7  10
ENDBRANCH   6   7
ENDBRANCH   4   6
ENDBRANCH   2   4
TORSDOF 9
ENDMDL
MODEL      280
REMARK 921   NORMALIZED FREE ENERGY PREDICTED BY IDOCK:   -2.95 KCAL/MOL
REMARK 922        TOTAL FREE ENERGY PREDICTED BY IDOCK:   -5.28 KCAL/MOL
REMARK 923 INTER-LIGAND FREE ENERGY PREDICTED BY IDOCK:   -4.61 KCAL/MOL
REMARK 924 INTRA-LIGAND FREE ENERGY PREDICTED BY IDOCK:   -0.67 KCAL/MOL
REMARK 927      BINDING AFFINITY PREDICTED BY RF-SCORE:    0.00 PKD
ROOT
HETATM    1  C   UNL     1     -11.181   2.316  62.505  1.00  0.00    -0.186 C  
HETATM    2  C   UNL     1      -9.892   2.270  63.328  1.00  0.00    -0.113 C  
HETATM    3  C   UNL     1      -8.814   3.110  62.632  1.00  0.00    -0.088 C  
ENDROOT
BRANCH   2   4
HETATM    4  N   UNL     1     -10.181   2.755  64.683  1.00  0.00    -0.365 NA 
HETATM    5  H   UNL     1     -10.247   1.979  65.342  1.00  0.00     0.000 HD 
BRANCH   4   6
HETATM    6  C   UNL     1      -9.215   3.759  65.148  1.00  0.00    -0.150 C  
BRANCH   6   7
HETATM    7  C   UNL     1      -9.880   5.128  65.404  1.00  0.00     0.096 C  
HETATM    8  O   UNL     1     -11.305   5.012  65.347  1.00  0.00    -0.817 OA 
HETATM    9  H   UNL     1     -11.715   5.855  65.505  1.00  0.00     0.000 HD 
BRANCH   7  10
HETATM   10  C   UNL     1      -9.442   5.673  66.779  1.00  0.00    -0.141 C  
BRANCH  10  11
HETATM   11  O   UNL     1     -10.425   5.475  67.804  1.00  0.00    -0.205 OA 
BRANCH  11  12
HETATM   12  C   UNL     1     -10.031   4.823  68.951  1.00  0.00    -0.126 A  
HETATM   13  C   UNL     1      -9.443   3.549  68.942  1.00  0.00    -0.210 A  
HETATM   14  C   UNL     1      -9.091   2.908  70.128  1.00  0.00    -0.189 A  
HETATM   15  C   UNL     1      -9.343   3.519  71.344  1.00  0.00    -0.213 A  
HETATM   16  C   UNL     1      -9.913   4.789  71.375  1.00  0.00    -0.267 A  
HETATM   17  C   UNL     1     -10.222   5.477  70.189  1.00  0.00    -0.263 A  
BRANCH  17  18
HETATM   18  O   UNL     1     -10.706   6.773  70.186  1.00  0.00    -0.211 OA 
BRANCH  18  19
HETATM   19  C   UNL     1     -11.665   7.046  71.216  1.00  0.00    -0.317 C  
BRANCH  19  20
HETATM   20  C   UNL     1     -11.306   8.291  71.969  1.00  0.00    -0.390 C  
HETATM   21  C   UNL     1     -11.176   9.493  71.387  1.00  0.00    -0.452 C  
ENDBRANCH  19  20
ENDBRANCH  18  19
ENDBRANCH  17  18
ENDBRANCH  11  12
ENDBRANCH  10  11
ENDBRANCH   7  10
ENDBRANCH   6   7
ENDBRANCH   4   6
ENDBRANCH   2   4
TORSDOF 9
ENDMDL
MODEL      281
REMARK 921   NORMALIZED FREE ENERGY PREDICTED BY IDOCK:   -2.94 KCAL/MOL
REMARK 922        TOTAL FREE ENERGY PREDICTED BY IDOCK:   -5.26 KCAL/MOL
REMARK 923 INTER-LIGAND FREE ENERGY PREDICTED BY IDOCK:   -4.77 KCAL/MOL
REMARK 924 INTRA-LIGAND FREE ENERGY PREDICTED BY IDOCK:   -0.49 KCAL/MOL
REMARK 927      BINDING AFFINITY PREDICTED BY RF-SCORE:    0.00 PKD
ROOT
HETATM    1  C   UNL     1      -7.566   5.760  72.655  1.00  0.00    -0.097 C  
HETATM    2  C   UNL     1      -8.146   7.082  72.149  1.00  0.00    -0.093 C  
HETATM    3  C   UNL     1      -8.331   8.041  73.331  1.00  0.00    -0.278 C  
ENDROOT
BRANCH   2   4
HETATM    4  N   UNL     1      -7.248   7.630  71.126  1.00  0.00    -0.061 NA 
HETATM    5  H   UNL     1      -7.077   6.948  70.387  1.00  0.00     0.000 HD 
BRANCH   4   6
HETATM    6  C   UNL     1      -7.726   8.902  70.569  1.00  0.00    -0.104 C  
BRANCH   6   7
HETATM    7  C   UNL     1      -8.430   8.712  69.209  1.00  0.00    -0.123 C  
HETATM    8  O   UNL     1      -8.168   7.405  68.688  1.00  0.00    -0.123 OA 
HETATM    9  H   UNL     1      -8.601   7.288  67.850  1.00  0.00     0.000 HD 
BRANCH   7  10
HETATM   10  C   UNL     1      -9.948   8.929  69.372  1.00  0.00    -0.192 C  
BRANCH  10  11
HETATM   11  O   UNL     1     -10.650   8.962  68.121  1.00  0.00    -0.214 OA 
BRANCH  11  12
HETATM   12  C   UNL     1     -10.697  10.160  67.446  1.00  0.00    -0.277 A  
HETATM   13  C   UNL     1      -9.928  10.422  66.302  1.00  0.00    -0.283 A  
HETATM   14  C   UNL     1      -9.978  11.662  65.666  1.00  0.00    -0.274 A  
HETATM   15  C   UNL     1     -10.778  12.669  66.178  1.00  0.00    -0.293 A  
HETATM   16  C   UNL     1     -11.559  12.425  67.305  1.00  0.00    -0.435 A  
HETATM   17  C   UNL     1     -11.568  11.164  67.926  1.00  0.00    -0.251 A  
BRANCH  17  18
HETATM   18  O   UNL     1     -12.399  10.865  68.991  1.00  0.00    -0.464 OA 
BRANCH  18  19
HETATM   19  C   UNL     1     -12.152  11.646  70.168  1.00  0.00    -0.333 C  
BRANCH  19  20
HETATM   20  C   UNL     1     -12.244  10.801  71.402  1.00  0.00    -0.374 C  
HETATM   21  C   UNL     1     -13.167   9.842  71.571  1.00  0.00    -0.501 C  
ENDBRANCH  19  20
ENDBRANCH  18  19
ENDBRANCH  17  18
ENDBRANCH  11  12
ENDBRANCH  10  11
ENDBRANCH   7  10
ENDBRANCH   6   7
ENDBRANCH   4   6
ENDBRANCH   2   4
TORSDOF 9
ENDMDL
MODEL      282
REMARK 921   NORMALIZED FREE ENERGY PREDICTED BY IDOCK:   -2.93 KCAL/MOL
REMARK 922        TOTAL FREE ENERGY PREDICTED BY IDOCK:   -5.25 KCAL/MOL
REMARK 923 INTER-LIGAND FREE ENERGY PREDICTED BY IDOCK:   -3.89 KCAL/MOL
REMARK 924 INTRA-LIGAND FREE ENERGY PREDICTED BY IDOCK:   -1.36 KCAL/MOL
REMARK 927      BINDING AFFINITY PREDICTED BY RF-SCORE:    0.00 PKD
ROOT
HETATM    1  C   UNL     1     -10.527   8.065  66.874  1.00  0.00    -0.387 C  
HETATM    2  C   UNL     1      -9.208   7.365  66.542  1.00  0.00    -0.165 C  
HETATM    3  C   UNL     1      -8.066   8.388  66.582  1.00  0.00    -0.101 C  
ENDROOT
BRANCH   2   4
HETATM    4  N   UNL     1      -9.003   6.270  67.497  1.00  0.00    -0.110 NA 
HETATM    5  H   UNL     1      -9.021   6.614  68.457  1.00  0.00     0.000 HD 
BRANCH   4   6
HETATM    6  C   UNL     1      -9.958   5.168  67.314  1.00  0.00    -0.186 C  
BRANCH   6   7
HETATM    7  C   UNL     1      -9.548   3.908  68.104  1.00  0.00    -0.120 C  
HETATM    8  O   UNL     1      -8.268   3.438  67.668  1.00  0.00    -0.083 OA 
HETATM    9  H   UNL     1      -8.015   2.661  68.154  1.00  0.00     0.000 HD 
BRANCH   7  10
HETATM   10  C   UNL     1      -9.517   4.223  69.613  1.00  0.00    -0.188 C  
BRANCH  10  11
HETATM   11  O   UNL     1     -10.523   5.163  70.015  1.00  0.00    -0.293 OA 
BRANCH  11  12
HETATM   12  C   UNL     1     -10.456   5.664  71.295  1.00  0.00    -0.236 A  
HETATM   13  C   UNL     1     -10.525   4.853  72.437  1.00  0.00    -0.269 A  
HETATM   14  C   UNL     1     -10.489   5.403  73.717  1.00  0.00    -0.305 A  
HETATM   15  C   UNL     1     -10.408   6.775  73.877  1.00  0.00    -0.397 A  
HETATM   16  C   UNL     1     -10.324   7.598  72.756  1.00  0.00    -0.351 A  
HETATM   17  C   UNL     1     -10.300   7.059  71.458  1.00  0.00    -0.203 A  
BRANCH  17  18
HETATM   18  O   UNL     1     -10.129   7.843  70.331  1.00  0.00    -0.192 OA 
BRANCH  18  19
HETATM   19  C   UNL     1      -9.052   8.785  70.428  1.00  0.00    -0.176 C  
BRANCH  19  20
HETATM   20  C   UNL     1      -7.725   8.101  70.298  1.00  0.00    -0.085 C  
HETATM   21  C   UNL     1      -6.566   8.661  70.675  1.00  0.00    -0.042 C  
ENDBRANCH  19  20
ENDBRANCH  18  19
ENDBRANCH  17  18
ENDBRANCH  11  12
ENDBRANCH  10  11
ENDBRANCH   7  10
ENDBRANCH   6   7
ENDBRANCH   4   6
ENDBRANCH   2   4
TORSDOF 9
ENDMDL
MODEL      283
REMARK 921   NORMALIZED FREE ENERGY PREDICTED BY IDOCK:   -2.92 KCAL/MOL
REMARK 922        TOTAL FREE ENERGY PREDICTED BY IDOCK:   -5.23 KCAL/MOL
REMARK 923 INTER-LIGAND FREE ENERGY PREDICTED BY IDOCK:   -4.50 KCAL/MOL
REMARK 924 INTRA-LIGAND FREE ENERGY PREDICTED BY IDOCK:   -0.74 KCAL/MOL
REMARK 927      BINDING AFFINITY PREDICTED BY RF-SCORE:    0.00 PKD
ROOT
HETATM    1  C   UNL     1     -11.874  14.286  67.810  1.00  0.00    -0.414 C  
HETATM    2  C   UNL     1     -11.988  13.085  66.868  1.00  0.00    -0.352 C  
HETATM    3  C   UNL     1     -10.893  13.173  65.798  1.00  0.00    -0.289 C  
ENDROOT
BRANCH   2   4
HETATM    4  N   UNL     1     -11.890  11.854  67.660  1.00  0.00    -0.583 NA 
HETATM    5  H   UNL     1     -11.673  11.054  67.066  1.00  0.00     0.000 HD 
BRANCH   4   6
HETATM    6  C   UNL     1     -10.931  11.963  68.767  1.00  0.00    -0.235 C  
BRANCH   6   7
HETATM    7  C   UNL     1     -10.740  10.622  69.505  1.00  0.00    -0.251 C  
HETATM    8  O   UNL     1     -11.899   9.795  69.349  1.00  0.00    -0.448 OA 
HETATM    9  H   UNL     1     -11.782   8.969  69.803  1.00  0.00     0.000 HD 
BRANCH   7  10
HETATM   10  C   UNL     1      -9.491   9.899  68.961  1.00  0.00    -0.183 C  
BRANCH  10  11
HETATM   11  O   UNL     1      -9.806   8.808  68.086  1.00  0.00    -0.158 OA 
BRANCH  11  12
HETATM   12  C   UNL     1      -9.305   8.850  66.804  1.00  0.00    -0.175 A  
HETATM   13  C   UNL     1      -9.177  10.041  66.073  1.00  0.00    -0.204 A  
HETATM   14  C   UNL     1      -8.698  10.037  64.765  1.00  0.00    -0.206 A  
HETATM   15  C   UNL     1      -8.362   8.841  64.156  1.00  0.00    -0.155 A  
HETATM   16  C   UNL     1      -8.468   7.649  64.868  1.00  0.00     0.008 A  
HETATM   17  C   UNL     1      -8.893   7.637  66.208  1.00  0.00    -0.156 A  
BRANCH  17  18
HETATM   18  O   UNL     1      -8.924   6.482  66.968  1.00  0.00    -0.117 OA 
BRANCH  18  19
HETATM   19  C   UNL     1     -10.178   5.786  66.932  1.00  0.00    -0.218 C  
BRANCH  19  20
HETATM   20  C   UNL     1     -10.091   4.567  66.065  1.00  0.00    -0.282 C  
HETATM   21  C   UNL     1      -9.610   3.390  66.495  1.00  0.00    -0.080 C  
ENDBRANCH  19  20
ENDBRANCH  18  19
ENDBRANCH  17  18
ENDBRANCH  11  12
ENDBRANCH  10  11
ENDBRANCH   7  10
ENDBRANCH   6   7
ENDBRANCH   4   6
ENDBRANCH   2   4
TORSDOF 9
ENDMDL
MODEL      284
REMARK 921   NORMALIZED FREE ENERGY PREDICTED BY IDOCK:   -2.92 KCAL/MOL
REMARK 922        TOTAL FREE ENERGY PREDICTED BY IDOCK:   -5.22 KCAL/MOL
REMARK 923 INTER-LIGAND FREE ENERGY PREDICTED BY IDOCK:   -4.48 KCAL/MOL
REMARK 924 INTRA-LIGAND FREE ENERGY PREDICTED BY IDOCK:   -0.74 KCAL/MOL
REMARK 927      BINDING AFFINITY PREDICTED BY RF-SCORE:    0.00 PKD
ROOT
HETATM    1  C   UNL     1      -8.789   5.414  70.810  1.00  0.00    -0.145 C  
HETATM    2  C   UNL     1     -10.017   6.316  70.671  1.00  0.00    -0.186 C  
HETATM    3  C   UNL     1     -10.483   6.758  72.064  1.00  0.00    -0.226 C  
ENDROOT
BRANCH   2   4
HETATM    4  N   UNL     1      -9.670   7.456  69.816  1.00  0.00    -0.170 NA 
HETATM    5  H   UNL     1      -8.730   7.352  69.432  1.00  0.00     0.000 HD 
BRANCH   4   6
HETATM    6  C   UNL     1     -10.652   7.688  68.748  1.00  0.00    -0.145 C  
BRANCH   6   7
HETATM    7  C   UNL     1      -9.993   7.736  67.354  1.00  0.00    -0.195 C  
HETATM    8  O   UNL     1     -10.263   6.531  66.630  1.00  0.00    -0.292 OA 
HETATM    9  H   UNL     1      -9.857   6.560  65.771  1.00  0.00     0.000 HD 
BRANCH   7  10
HETATM   10  C   UNL     1     -10.514   8.959  66.571  1.00  0.00    -0.105 C  
BRANCH  10  11
HETATM   11  O   UNL     1      -9.476   9.878  66.205  1.00  0.00    -0.171 OA 
BRANCH  11  12
HETATM   12  C   UNL     1      -9.854  11.094  65.681  1.00  0.00    -0.235 A  
HETATM   13  C   UNL     1     -10.503  11.224  64.445  1.00  0.00    -0.407 A  
HETATM   14  C   UNL     1     -10.838  12.476  63.932  1.00  0.00    -0.472 A  
HETATM   15  C   UNL     1     -10.507  13.621  64.636  1.00  0.00    -0.442 A  
HETATM   16  C   UNL     1      -9.875  13.514  65.872  1.00  0.00    -0.255 A  
HETATM   17  C   UNL     1      -9.581  12.259  66.433  1.00  0.00    -0.237 A  
BRANCH  17  18
HETATM   18  O   UNL     1      -9.035  12.119  67.697  1.00  0.00    -0.165 OA 
BRANCH  18  19
HETATM   19  C   UNL     1      -9.916  12.496  68.764  1.00  0.00    -0.015 C  
BRANCH  19  20
HETATM   20  C   UNL     1     -10.796  11.351  69.164  1.00  0.00    -0.260 C  
HETATM   21  C   UNL     1     -12.130  11.448  69.267  1.00  0.00    -0.356 C  
ENDBRANCH  19  20
ENDBRANCH  18  19
ENDBRANCH  17  18
ENDBRANCH  11  12
ENDBRANCH  10  11
ENDBRANCH   7  10
ENDBRANCH   6   7
ENDBRANCH   4   6
ENDBRANCH   2   4
TORSDOF 9
ENDMDL
MODEL      285
REMARK 921   NORMALIZED FREE ENERGY PREDICTED BY IDOCK:   -2.91 KCAL/MOL
REMARK 922        TOTAL FREE ENERGY PREDICTED BY IDOCK:   -5.21 KCAL/MOL
REMARK 923 INTER-LIGAND FREE ENERGY PREDICTED BY IDOCK:   -4.72 KCAL/MOL
REMARK 924 INTRA-LIGAND FREE ENERGY PREDICTED BY IDOCK:   -0.50 KCAL/MOL
REMARK 927      BINDING AFFINITY PREDICTED BY RF-SCORE:    0.00 PKD
ROOT
HETATM    1  C   UNL     1     -12.763   6.901  71.727  1.00  0.00    -0.369 C  
HETATM    2  C   UNL     1     -12.837   8.391  71.385  1.00  0.00    -0.245 C  
HETATM    3  C   UNL     1     -13.666   9.116  72.452  1.00  0.00    -0.543 C  
ENDROOT
BRANCH   2   4
HETATM    4  N   UNL     1     -11.472   8.921  71.290  1.00  0.00    -0.278 NA 
HETATM    5  H   UNL     1     -10.916   8.645  72.099  1.00  0.00     0.000 HD 
BRANCH   4   6
HETATM    6  C   UNL     1     -10.802   8.548  70.037  1.00  0.00    -0.223 C  
BRANCH   6   7
HETATM    7  C   UNL     1      -9.806   9.628  69.568  1.00  0.00    -0.206 C  
HETATM    8  O   UNL     1      -9.377   9.366  68.227  1.00  0.00    -0.134 OA 
HETATM    9  H   UNL     1      -8.763  10.032  67.938  1.00  0.00     0.000 HD 
BRANCH   7  10
HETATM   10  C   UNL     1     -10.464  11.020  69.656  1.00  0.00    -0.023 C  
BRANCH  10  11
HETATM   11  O   UNL     1     -10.423  11.744  68.419  1.00  0.00    -0.201 OA 
BRANCH  11  12
HETATM   12  C   UNL     1      -9.547  12.801  68.324  1.00  0.00    -0.211 A  
HETATM   13  C   UNL     1      -8.298  12.705  67.693  1.00  0.00    -0.174 A  
HETATM   14  C   UNL     1      -7.425  13.789  67.650  1.00  0.00    -0.187 A  
HETATM   15  C   UNL     1      -7.774  14.982  68.259  1.00  0.00    -0.111 A  
HETATM   16  C   UNL     1      -9.015  15.104  68.879  1.00  0.00    -0.206 A  
HETATM   17  C   UNL     1      -9.934  14.040  68.883  1.00  0.00    -0.097 A  
BRANCH  17  18
HETATM   18  O   UNL     1     -11.207  14.160  69.412  1.00  0.00    -0.256 OA 
BRANCH  18  19
HETATM   19  C   UNL     1     -11.459  15.413  70.062  1.00  0.00    -0.316 C  
BRANCH  19  20
HETATM   20  C   UNL     1     -12.736  15.365  70.845  1.00  0.00    -0.520 C  
HETATM   21  C   UNL     1     -13.239  14.235  71.365  1.00  0.00    -0.419 C  
ENDBRANCH  19  20
ENDBRANCH  18  19
ENDBRANCH  17  18
ENDBRANCH  11  12
ENDBRANCH  10  11
ENDBRANCH   7  10
ENDBRANCH   6   7
ENDBRANCH   4   6
ENDBRANCH   2   4
TORSDOF 9
ENDMDL
MODEL      286
REMARK 921   NORMALIZED FREE ENERGY PREDICTED BY IDOCK:   -2.91 KCAL/MOL
REMARK 922        TOTAL FREE ENERGY PREDICTED BY IDOCK:   -5.21 KCAL/MOL
REMARK 923 INTER-LIGAND FREE ENERGY PREDICTED BY IDOCK:   -4.62 KCAL/MOL
REMARK 924 INTRA-LIGAND FREE ENERGY PREDICTED BY IDOCK:   -0.59 KCAL/MOL
REMARK 927      BINDING AFFINITY PREDICTED BY RF-SCORE:    0.00 PKD
ROOT
HETATM    1  C   UNL     1      -8.223   6.880  69.275  1.00  0.00    -0.125 C  
HETATM    2  C   UNL     1      -6.842   7.368  68.831  1.00  0.00    -0.072 C  
HETATM    3  C   UNL     1      -6.335   6.484  67.686  1.00  0.00    -0.043 C  
ENDROOT
BRANCH   2   4
HETATM    4  N   UNL     1      -6.945   8.778  68.438  1.00  0.00    -0.065 NA 
HETATM    5  H   UNL     1      -6.122   9.071  67.911  1.00  0.00     0.000 HD 
BRANCH   4   6
HETATM    6  C   UNL     1      -8.178   9.075  67.697  1.00  0.00    -0.109 C  
BRANCH   6   7
HETATM    7  C   UNL     1      -8.936  10.281  68.291  1.00  0.00    -0.132 C  
HETATM    8  O   UNL     1      -8.781  10.320  69.713  1.00  0.00    -0.329 OA 
HETATM    9  H   UNL     1      -9.247  11.062  70.079  1.00  0.00     0.000 HD 
BRANCH   7  10
HETATM   10  C   UNL     1      -8.414  11.588  67.659  1.00  0.00    -0.135 C  
BRANCH  10  11
HETATM   11  O   UNL     1      -9.309  12.695  67.834  1.00  0.00    -0.190 OA 
BRANCH  11  12
HETATM   12  C   UNL     1     -10.253  12.915  66.856  1.00  0.00    -0.242 A  
HETATM   13  C   UNL     1      -9.938  12.973  65.490  1.00  0.00    -0.226 A  
HETATM   14  C   UNL     1     -10.917  13.233  64.533  1.00  0.00    -0.398 A  
HETATM   15  C   UNL     1     -12.223  13.465  64.927  1.00  0.00    -0.450 A  
HETATM   16  C   UNL     1     -12.560  13.399  66.277  1.00  0.00    -0.231 A  
HETATM   17  C   UNL     1     -11.599  13.080  67.252  1.00  0.00    -0.356 A  
BRANCH  17  18
HETATM   18  O   UNL     1     -11.920  12.920  68.588  1.00  0.00    -0.313 OA 
BRANCH  18  19
HETATM   19  C   UNL     1     -12.148  11.559  68.980  1.00  0.00    -0.238 C  
BRANCH  19  20
HETATM   20  C   UNL     1     -12.149  11.424  70.473  1.00  0.00    -0.487 C  
HETATM   21  C   UNL     1     -13.022  10.657  71.142  1.00  0.00    -0.483 C  
ENDBRANCH  19  20
ENDBRANCH  18  19
ENDBRANCH  17  18
ENDBRANCH  11  12
ENDBRANCH  10  11
ENDBRANCH   7  10
ENDBRANCH   6   7
ENDBRANCH   4   6
ENDBRANCH   2   4
TORSDOF 9
ENDMDL
MODEL      287
REMARK 921   NORMALIZED FREE ENERGY PREDICTED BY IDOCK:   -2.90 KCAL/MOL
REMARK 922        TOTAL FREE ENERGY PREDICTED BY IDOCK:   -5.20 KCAL/MOL
REMARK 923 INTER-LIGAND FREE ENERGY PREDICTED BY IDOCK:   -4.37 KCAL/MOL
REMARK 924 INTRA-LIGAND FREE ENERGY PREDICTED BY IDOCK:   -0.83 KCAL/MOL
REMARK 927      BINDING AFFINITY PREDICTED BY RF-SCORE:    0.00 PKD
ROOT
HETATM    1  C   UNL     1      -6.822  10.728  67.012  1.00  0.00    -0.094 C  
HETATM    2  C   UNL     1      -6.951  10.391  65.525  1.00  0.00    -0.134 C  
HETATM    3  C   UNL     1      -6.903   8.869  65.344  1.00  0.00    -0.072 C  
ENDROOT
BRANCH   2   4
HETATM    4  N   UNL     1      -8.200  10.969  65.017  1.00  0.00    -0.376 NA 
HETATM    5  H   UNL     1      -8.159  11.098  64.006  1.00  0.00     0.000 HD 
BRANCH   4   6
HETATM    6  C   UNL     1      -9.386  10.191  65.401  1.00  0.00    -0.216 C  
BRANCH   6   7
HETATM    7  C   UNL     1     -10.267  10.941  66.422  1.00  0.00    -0.238 C  
HETATM    8  O   UNL     1     -11.253  11.731  65.748  1.00  0.00    -0.322 OA 
HETATM    9  H   UNL     1     -11.796  12.193  66.377  1.00  0.00     0.000 HD 
BRANCH   7  10
HETATM   10  C   UNL     1     -10.946   9.931  67.369  1.00  0.00    -0.145 C  
BRANCH  10  11
HETATM   11  O   UNL     1     -10.049   9.379  68.342  1.00  0.00    -0.171 OA 
BRANCH  11  12
HETATM   12  C   UNL     1      -9.983   8.008  68.447  1.00  0.00    -0.185 A  
HETATM   13  C   UNL     1      -9.270   7.207  67.542  1.00  0.00    -0.131 A  
HETATM   14  C   UNL     1      -9.257   5.818  67.662  1.00  0.00    -0.105 A  
HETATM   15  C   UNL     1      -9.976   5.206  68.673  1.00  0.00    -0.227 A  
HETATM   16  C   UNL     1     -10.678   5.983  69.591  1.00  0.00    -0.405 A  
HETATM   17  C   UNL     1     -10.657   7.387  69.522  1.00  0.00    -0.237 A  
BRANCH  17  18
HETATM   18  O   UNL     1     -11.271   8.187  70.469  1.00  0.00    -0.264 OA 
BRANCH  18  19
HETATM   19  C   UNL     1     -11.904   7.461  71.532  1.00  0.00    -0.297 C  
BRANCH  19  20
HETATM   20  C   UNL     1     -11.272   7.783  72.852  1.00  0.00    -0.434 C  
HETATM   21  C   UNL     1     -10.029   7.405  73.186  1.00  0.00    -0.318 C  
ENDBRANCH  19  20
ENDBRANCH  18  19
ENDBRANCH  17  18
ENDBRANCH  11  12
ENDBRANCH  10  11
ENDBRANCH   7  10
ENDBRANCH   6   7
ENDBRANCH   4   6
ENDBRANCH   2   4
TORSDOF 9
ENDMDL
MODEL      288
REMARK 921   NORMALIZED FREE ENERGY PREDICTED BY IDOCK:   -2.90 KCAL/MOL
REMARK 922        TOTAL FREE ENERGY PREDICTED BY IDOCK:   -5.19 KCAL/MOL
REMARK 923 INTER-LIGAND FREE ENERGY PREDICTED BY IDOCK:   -4.54 KCAL/MOL
REMARK 924 INTRA-LIGAND FREE ENERGY PREDICTED BY IDOCK:   -0.65 KCAL/MOL
REMARK 927      BINDING AFFINITY PREDICTED BY RF-SCORE:    0.00 PKD
ROOT
HETATM    1  C   UNL     1     -13.464  15.325  70.630  1.00  0.00    -0.257 C  
HETATM    2  C   UNL     1     -12.467  14.358  71.272  1.00  0.00    -0.352 C  
HETATM    3  C   UNL     1     -13.188  13.512  72.328  1.00  0.00    -0.571 C  
ENDROOT
BRANCH   2   4
HETATM    4  N   UNL     1     -11.867  13.532  70.217  1.00  0.00    -0.490 NA 
HETATM    5  H   UNL     1     -12.574  12.964  69.751  1.00  0.00     0.000 HD 
BRANCH   4   6
HETATM    6  C   UNL     1     -11.099  14.320  69.244  1.00  0.00    -0.265 C  
BRANCH   6   7
HETATM    7  C   UNL     1     -10.088  13.454  68.464  1.00  0.00    -0.207 C  
HETATM    8  O   UNL     1      -8.938  13.177  69.270  1.00  0.00    -0.023 OA 
HETATM    9  H   UNL     1      -8.315  12.643  68.789  1.00  0.00     0.000 HD 
BRANCH   7  10
HETATM   10  C   UNL     1     -10.761  12.138  68.021  1.00  0.00    -0.213 C  
BRANCH  10  11
HETATM   11  O   UNL     1      -9.826  11.158  67.549  1.00  0.00    -0.174 OA 
BRANCH  11  12
HETATM   12  C   UNL     1     -10.063   9.841  67.872  1.00  0.00    -0.173 A  
HETATM   13  C   UNL     1     -10.445   9.426  69.157  1.00  0.00    -0.230 A  
HETATM   14  C   UNL     1     -10.641   8.079  69.452  1.00  0.00    -0.210 A  
HETATM   15  C   UNL     1     -10.434   7.120  68.476  1.00  0.00    -0.229 A  
HETATM   16  C   UNL     1     -10.068   7.511  67.190  1.00  0.00    -0.317 A  
HETATM   17  C   UNL     1      -9.922   8.869  66.856  1.00  0.00    -0.247 A  
BRANCH  17  18
HETATM   18  O   UNL     1      -9.647   9.292  65.568  1.00  0.00    -0.269 OA 
BRANCH  18  19
HETATM   19  C   UNL     1      -8.450   8.735  65.008  1.00  0.00    -0.175 C  
BRANCH  19  20
HETATM   20  C   UNL     1      -7.243   9.164  65.786  1.00  0.00    -0.089 C  
HETATM   21  C   UNL     1      -6.150   8.400  65.932  1.00  0.00    -0.048 C  
ENDBRANCH  19  20
ENDBRANCH  18  19
ENDBRANCH  17  18
ENDBRANCH  11  12
ENDBRANCH  10  11
ENDBRANCH   7  10
ENDBRANCH   6   7
ENDBRANCH   4   6
ENDBRANCH   2   4
TORSDOF 9
ENDMDL
MODEL      289
REMARK 921   NORMALIZED FREE ENERGY PREDICTED BY IDOCK:   -2.90 KCAL/MOL
REMARK 922        TOTAL FREE ENERGY PREDICTED BY IDOCK:   -5.19 KCAL/MOL
REMARK 923 INTER-LIGAND FREE ENERGY PREDICTED BY IDOCK:   -4.90 KCAL/MOL
REMARK 924 INTRA-LIGAND FREE ENERGY PREDICTED BY IDOCK:   -0.29 KCAL/MOL
REMARK 927      BINDING AFFINITY PREDICTED BY RF-SCORE:    0.00 PKD
ROOT
HETATM    1  C   UNL     1     -12.332  11.892  70.870  1.00  0.00    -0.400 C  
HETATM    2  C   UNL     1     -12.645  13.388  70.802  1.00  0.00    -0.294 C  
HETATM    3  C   UNL     1     -13.487  13.786  72.020  1.00  0.00    -0.559 C  
ENDROOT
BRANCH   2   4
HETATM    4  N   UNL     1     -11.381  14.131  70.736  1.00  0.00    -0.490 NA 
HETATM    5  H   UNL     1     -10.619  13.593  71.149  1.00  0.00     0.000 HD 
BRANCH   4   6
HETATM    6  C   UNL     1     -11.043  14.559  69.372  1.00  0.00    -0.268 C  
BRANCH   6   7
HETATM    7  C   UNL     1     -11.692  13.656  68.302  1.00  0.00    -0.363 C  
HETATM    8  O   UNL     1     -12.599  14.412  67.492  1.00  0.00    -0.529 OA 
HETATM    9  H   UNL     1     -12.999  13.856  66.834  1.00  0.00     0.000 HD 
BRANCH   7  10
HETATM   10  C   UNL     1     -10.598  13.015  67.424  1.00  0.00    -0.234 C  
BRANCH  10  11
HETATM   11  O   UNL     1      -9.717  12.154  68.159  1.00  0.00    -0.197 OA 
BRANCH  11  12
HETATM   12  C   UNL     1      -8.423  12.028  67.708  1.00  0.00    -0.157 A  
HETATM   13  C   UNL     1      -8.013  11.006  66.840  1.00  0.00    -0.143 A  
HETATM   14  C   UNL     1      -6.685  10.892  66.434  1.00  0.00    -0.134 A  
HETATM   15  C   UNL     1      -5.738  11.783  66.909  1.00  0.00    -0.142 A  
HETATM   16  C   UNL     1      -6.127  12.814  67.761  1.00  0.00    -0.134 A  
HETATM   17  C   UNL     1      -7.471  12.981  68.136  1.00  0.00    -0.130 A  
BRANCH  17  18
HETATM   18  O   UNL     1      -7.901  14.045  68.908  1.00  0.00    -0.123 OA 
BRANCH  18  19
HETATM   19  C   UNL     1      -7.041  15.192  68.860  1.00  0.00    -0.125 C  
BRANCH  19  20
HETATM   20  C   UNL     1      -7.817  16.455  69.084  1.00  0.00    -0.214 C  
HETATM   21  C   UNL     1      -7.463  17.639  68.563  1.00  0.00    -0.269 C  
ENDBRANCH  19  20
ENDBRANCH  18  19
ENDBRANCH  17  18
ENDBRANCH  11  12
ENDBRANCH  10  11
ENDBRANCH   7  10
ENDBRANCH   6   7
ENDBRANCH   4   6
ENDBRANCH   2   4
TORSDOF 9
ENDMDL
MODEL      290
REMARK 921   NORMALIZED FREE ENERGY PREDICTED BY IDOCK:   -2.89 KCAL/MOL
REMARK 922        TOTAL FREE ENERGY PREDICTED BY IDOCK:   -5.19 KCAL/MOL
REMARK 923 INTER-LIGAND FREE ENERGY PREDICTED BY IDOCK:   -4.59 KCAL/MOL
REMARK 924 INTRA-LIGAND FREE ENERGY PREDICTED BY IDOCK:   -0.60 KCAL/MOL
REMARK 927      BINDING AFFINITY PREDICTED BY RF-SCORE:    0.00 PKD
ROOT
HETATM    1  C   UNL     1      -6.329  13.932  68.044  1.00  0.00    -0.144 C  
HETATM    2  C   UNL     1      -6.521  12.576  68.726  1.00  0.00    -0.084 C  
HETATM    3  C   UNL     1      -6.019  12.659  70.172  1.00  0.00    -0.138 C  
ENDROOT
BRANCH   2   4
HETATM    4  N   UNL     1      -7.940  12.209  68.652  1.00  0.00    -0.275 NA 
HETATM    5  H   UNL     1      -8.481  12.934  68.181  1.00  0.00     0.000 HD 
BRANCH   4   6
HETATM    6  C   UNL     1      -8.158  10.898  68.026  1.00  0.00    -0.119 C  
BRANCH   6   7
HETATM    7  C   UNL     1      -9.351  10.147  68.653  1.00  0.00    -0.161 C  
HETATM    8  O   UNL     1      -9.247  10.143  70.081  1.00  0.00    -0.382 OA 
HETATM    9  H   UNL     1      -9.982   9.680  70.467  1.00  0.00     0.000 HD 
BRANCH   7  10
HETATM   10  C   UNL     1     -10.674  10.809  68.215  1.00  0.00    -0.213 C  
BRANCH  10  11
HETATM   11  O   UNL     1     -10.983  11.997  68.956  1.00  0.00    -0.225 OA 
BRANCH  11  12
HETATM   12  C   UNL     1     -11.844  11.880  70.023  1.00  0.00    -0.328 A  
HETATM   13  C   UNL     1     -12.385  10.654  70.437  1.00  0.00    -0.428 A  
HETATM   14  C   UNL     1     -13.282  10.583  71.501  1.00  0.00    -0.470 A  
HETATM   15  C   UNL     1     -13.672  11.739  72.155  1.00  0.00     0.004 A  
HETATM   16  C   UNL     1     -13.135  12.965  71.769  1.00  0.00    -0.458 A  
HETATM   17  C   UNL     1     -12.185  13.051  70.736  1.00  0.00    -0.272 A  
BRANCH  17  18
HETATM   18  O   UNL     1     -11.569  14.241  70.391  1.00  0.00    -0.264 OA 
BRANCH  18  19
HETATM   19  C   UNL     1     -12.477  15.291  70.031  1.00  0.00    -0.293 C  
BRANCH  19  20
HETATM   20  C   UNL     1     -12.087  15.913  68.725  1.00  0.00    -0.016 C  
HETATM   21  C   UNL     1     -11.150  15.399  67.914  1.00  0.00    -0.323 C  
ENDBRANCH  19  20
ENDBRANCH  18  19
ENDBRANCH  17  18
ENDBRANCH  11  12
ENDBRANCH  10  11
ENDBRANCH   7  10
ENDBRANCH   6   7
ENDBRANCH   4   6
ENDBRANCH   2   4
TORSDOF 9
ENDMDL
MODEL      291
REMARK 921   NORMALIZED FREE ENERGY PREDICTED BY IDOCK:   -2.86 KCAL/MOL
REMARK 922        TOTAL FREE ENERGY PREDICTED BY IDOCK:   -5.14 KCAL/MOL
REMARK 923 INTER-LIGAND FREE ENERGY PREDICTED BY IDOCK:   -4.38 KCAL/MOL
REMARK 924 INTRA-LIGAND FREE ENERGY PREDICTED BY IDOCK:   -0.76 KCAL/MOL
REMARK 927      BINDING AFFINITY PREDICTED BY RF-SCORE:    0.00 PKD
ROOT
HETATM    1  C   UNL     1     -10.494  16.745  67.079  1.00  0.00    -0.285 C  
HETATM    2  C   UNL     1     -10.720  15.266  66.760  1.00  0.00    -0.313 C  
HETATM    3  C   UNL     1      -9.364  14.559  66.643  1.00  0.00    -0.301 C  
ENDROOT
BRANCH   2   4
HETATM    4  N   UNL     1     -11.560  14.680  67.811  1.00  0.00    -0.346 NA 
HETATM    5  H   UNL     1     -12.505  14.509  67.469  1.00  0.00     0.000 HD 
BRANCH   4   6
HETATM    6  C   UNL     1     -10.980  13.462  68.391  1.00  0.00    -0.267 C  
BRANCH   6   7
HETATM    7  C   UNL     1     -11.957  12.269  68.331  1.00  0.00    -0.210 C  
HETATM    8  O   UNL     1     -12.068  11.779  66.991  1.00  0.00    -0.575 OA 
HETATM    9  H   UNL     1     -12.670  11.044  66.954  1.00  0.00     0.000 HD 
BRANCH   7  10
HETATM   10  C   UNL     1     -11.473  11.148  69.273  1.00  0.00    -0.294 C  
BRANCH  10  11
HETATM   11  O   UNL     1     -10.752  10.111  68.592  1.00  0.00    -0.202 OA 
BRANCH  11  12
HETATM   12  C   UNL     1      -9.452   9.875  68.979  1.00  0.00    -0.183 A  
HETATM   13  C   UNL     1      -9.102   9.476  70.278  1.00  0.00    -0.296 A  
HETATM   14  C   UNL     1      -7.771   9.282  70.639  1.00  0.00    -0.170 A  
HETATM   15  C   UNL     1      -6.764   9.507  69.716  1.00  0.00    -0.057 A  
HETATM   16  C   UNL     1      -7.091   9.890  68.417  1.00  0.00    -0.072 A  
HETATM   17  C   UNL     1      -8.431  10.035  68.017  1.00  0.00    -0.117 A  
BRANCH  17  18
HETATM   18  O   UNL     1      -8.788  10.327  66.712  1.00  0.00    -0.132 OA 
BRANCH  18  19
HETATM   19  C   UNL     1      -7.730  10.160  65.760  1.00  0.00    -0.136 C  
BRANCH  19  20
HETATM   20  C   UNL     1      -8.272   9.782  64.415  1.00  0.00    -0.162 C  
HETATM   21  C   UNL     1      -9.147  10.537  63.734  1.00  0.00    -0.258 C  
ENDBRANCH  19  20
ENDBRANCH  18  19
ENDBRANCH  17  18
ENDBRANCH  11  12
ENDBRANCH  10  11
ENDBRANCH   7  10
ENDBRANCH   6   7
ENDBRANCH   4   6
ENDBRANCH   2   4
TORSDOF 9
ENDMDL
MODEL      292
REMARK 921   NORMALIZED FREE ENERGY PREDICTED BY IDOCK:   -2.86 KCAL/MOL
REMARK 922        TOTAL FREE ENERGY PREDICTED BY IDOCK:   -5.14 KCAL/MOL
REMARK 923 INTER-LIGAND FREE ENERGY PREDICTED BY IDOCK:   -4.38 KCAL/MOL
REMARK 924 INTRA-LIGAND FREE ENERGY PREDICTED BY IDOCK:   -0.75 KCAL/MOL
REMARK 927      BINDING AFFINITY PREDICTED BY RF-SCORE:    0.00 PKD
ROOT
HETATM    1  C   UNL     1     -10.654   5.581  67.485  1.00  0.00    -0.252 C  
HETATM    2  C   UNL     1      -9.205   5.932  67.142  1.00  0.00    -0.116 C  
HETATM    3  C   UNL     1      -8.920   5.549  65.685  1.00  0.00    -0.152 C  
ENDROOT
BRANCH   2   4
HETATM    4  N   UNL     1      -8.996   7.364  67.389  1.00  0.00    -0.122 NA 
HETATM    5  H   UNL     1      -8.043   7.640  67.154  1.00  0.00     0.000 HD 
BRANCH   4   6
HETATM    6  C   UNL     1      -9.976   8.210  66.695  1.00  0.00    -0.269 C  
BRANCH   6   7
HETATM    7  C   UNL     1      -9.357   9.539  66.213  1.00  0.00    -0.188 C  
HETATM    8  O   UNL     1      -9.438   9.643  64.788  1.00  0.00    -0.347 OA 
HETATM    9  H   UNL     1      -9.057  10.461  64.492  1.00  0.00     0.000 HD 
BRANCH   7  10
HETATM   10  C   UNL     1     -10.084  10.726  66.879  1.00  0.00    -0.212 C  
BRANCH  10  11
HETATM   11  O   UNL     1      -9.587  11.028  68.190  1.00  0.00    -0.160 OA 
BRANCH  11  12
HETATM   12  C   UNL     1     -10.436  10.831  69.256  1.00  0.00    -0.217 A  
HETATM   13  C   UNL     1     -11.584  11.608  69.472  1.00  0.00    -0.397 A  
HETATM   14  C   UNL     1     -12.398  11.400  70.583  1.00  0.00    -0.466 A  
HETATM   15  C   UNL     1     -12.066  10.428  71.511  1.00  0.00    -0.364 A  
HETATM   16  C   UNL     1     -10.938   9.636  71.308  1.00  0.00    -0.399 A  
HETATM   17  C   UNL     1     -10.136   9.791  70.164  1.00  0.00    -0.265 A  
BRANCH  17  18
HETATM   18  O   UNL     1      -9.063   8.962  69.891  1.00  0.00    -0.149 OA 
BRANCH  18  19
HETATM   19  C   UNL     1      -7.781   9.566  70.111  1.00  0.00    -0.154 C  
BRANCH  19  20
HETATM   20  C   UNL     1      -7.011   8.823  71.161  1.00  0.00    -0.082 C  
HETATM   21  C   UNL     1      -5.859   9.270  71.683  1.00  0.00    -0.070 C  
ENDBRANCH  19  20
ENDBRANCH  18  19
ENDBRANCH  17  18
ENDBRANCH  11  12
ENDBRANCH  10  11
ENDBRANCH   7  10
ENDBRANCH   6   7
ENDBRANCH   4   6
ENDBRANCH   2   4
TORSDOF 9
ENDMDL
MODEL      293
REMARK 921   NORMALIZED FREE ENERGY PREDICTED BY IDOCK:   -2.85 KCAL/MOL
REMARK 922        TOTAL FREE ENERGY PREDICTED BY IDOCK:   -5.12 KCAL/MOL
REMARK 923 INTER-LIGAND FREE ENERGY PREDICTED BY IDOCK:   -4.44 KCAL/MOL
REMARK 924 INTRA-LIGAND FREE ENERGY PREDICTED BY IDOCK:   -0.68 KCAL/MOL
REMARK 927      BINDING AFFINITY PREDICTED BY RF-SCORE:    0.00 PKD
ROOT
HETATM    1  C   UNL     1     -13.303   9.931  71.413  1.00  0.00    -0.447 C  
HETATM    2  C   UNL     1     -12.564   8.609  71.633  1.00  0.00    -0.338 C  
HETATM    3  C   UNL     1     -13.562   7.448  71.543  1.00  0.00    -0.454 C  
ENDROOT
BRANCH   2   4
HETATM    4  N   UNL     1     -11.493   8.497  70.636  1.00  0.00    -0.353 NA 
HETATM    5  H   UNL     1     -10.609   8.843  71.009  1.00  0.00     0.000 HD 
BRANCH   4   6
HETATM    6  C   UNL     1     -11.345   7.133  70.110  1.00  0.00    -0.241 C  
BRANCH   6   7
HETATM    7  C   UNL     1     -10.073   6.978  69.251  1.00  0.00    -0.173 C  
HETATM    8  O   UNL     1     -10.091   5.730  68.549  1.00  0.00    -0.152 OA 
HETATM    9  H   UNL     1      -9.307   5.635  68.020  1.00  0.00     0.000 HD 
BRANCH   7  10
HETATM   10  C   UNL     1      -9.968   8.151  68.255  1.00  0.00    -0.186 C  
BRANCH  10  11
HETATM   11  O   UNL     1     -10.104   7.743  66.887  1.00  0.00    -0.236 OA 
BRANCH  11  12
HETATM   12  C   UNL     1      -9.006   7.878  66.067  1.00  0.00    -0.154 A  
HETATM   13  C   UNL     1      -7.915   6.996  66.101  1.00  0.00    -0.110 A  
HETATM   14  C   UNL     1      -6.806   7.187  65.278  1.00  0.00    -0.051 A  
HETATM   15  C   UNL     1      -6.758   8.277  64.426  1.00  0.00    -0.066 A  
HETATM   16  C   UNL     1      -7.836   9.156  64.367  1.00  0.00    -0.125 A  
HETATM   17  C   UNL     1      -8.988   8.948  65.145  1.00  0.00    -0.137 A  
BRANCH  17  18
HETATM   18  O   UNL     1     -10.109   9.753  65.043  1.00  0.00    -0.225 OA 
BRANCH  18  19
HETATM   19  C   UNL     1      -9.968  11.041  65.658  1.00  0.00    -0.248 C  
BRANCH  19  20
HETATM   20  C   UNL     1     -11.169  11.374  66.489  1.00  0.00    -0.276 C  
HETATM   21  C   UNL     1     -11.682  12.611  66.581  1.00  0.00    -0.464 C  
ENDBRANCH  19  20
ENDBRANCH  18  19
ENDBRANCH  17  18
ENDBRANCH  11  12
ENDBRANCH  10  11
ENDBRANCH   7  10
ENDBRANCH   6   7
ENDBRANCH   4   6
ENDBRANCH   2   4
TORSDOF 9
ENDMDL
MODEL      294
REMARK 921   NORMALIZED FREE ENERGY PREDICTED BY IDOCK:   -2.84 KCAL/MOL
REMARK 922        TOTAL FREE ENERGY PREDICTED BY IDOCK:   -5.11 KCAL/MOL
REMARK 923 INTER-LIGAND FREE ENERGY PREDICTED BY IDOCK:   -4.51 KCAL/MOL
REMARK 924 INTRA-LIGAND FREE ENERGY PREDICTED BY IDOCK:   -0.60 KCAL/MOL
REMARK 927      BINDING AFFINITY PREDICTED BY RF-SCORE:    0.00 PKD
ROOT
HETATM    1  C   UNL     1      -9.561   6.941  71.544  1.00  0.00    -0.162 C  
HETATM    2  C   UNL     1     -10.607   5.840  71.358  1.00  0.00    -0.253 C  
HETATM    3  C   UNL     1     -11.563   5.841  72.557  1.00  0.00    -0.321 C  
ENDROOT
BRANCH   2   4
HETATM    4  N   UNL     1     -11.310   6.067  70.090  1.00  0.00    -0.350 NA 
HETATM    5  H   UNL     1     -12.276   6.348  70.253  1.00  0.00     0.000 HD 
BRANCH   4   6
HETATM    6  C   UNL     1     -10.620   7.030  69.221  1.00  0.00    -0.224 C  
BRANCH   6   7
HETATM    7  C   UNL     1     -10.489   6.514  67.773  1.00  0.00    -0.227 C  
HETATM    8  O   UNL     1     -11.755   6.562  67.107  1.00  0.00    -0.632 OA 
HETATM    9  H   UNL     1     -11.674   6.245  66.215  1.00  0.00     0.000 HD 
BRANCH   7  10
HETATM   10  C   UNL     1      -9.449   7.360  67.009  1.00  0.00    -0.158 C  
BRANCH  10  11
HETATM   11  O   UNL     1      -9.196   8.631  67.622  1.00  0.00    -0.134 OA 
BRANCH  11  12
HETATM   12  C   UNL     1      -9.663   9.755  66.980  1.00  0.00    -0.183 A  
HETATM   13  C   UNL     1     -10.758  10.500  67.442  1.00  0.00    -0.334 A  
HETATM   14  C   UNL     1     -11.222  11.613  66.743  1.00  0.00    -0.371 A  
HETATM   15  C   UNL     1     -10.615  11.986  65.557  1.00  0.00    -0.313 A  
HETATM   16  C   UNL     1      -9.517  11.269  65.088  1.00  0.00    -0.242 A  
HETATM   17  C   UNL     1      -8.997  10.179  65.807  1.00  0.00    -0.160 A  
BRANCH  17  18
HETATM   18  O   UNL     1      -7.856   9.504  65.413  1.00  0.00    -0.105 OA 
BRANCH  18  19
HETATM   19  C   UNL     1      -6.689  10.331  65.311  1.00  0.00    -0.126 C  
BRANCH  19  20
HETATM   20  C   UNL     1      -6.178  10.709  66.668  1.00  0.00    -0.083 C  
HETATM   21  C   UNL     1      -5.736  11.938  66.973  1.00  0.00    -0.139 C  
ENDBRANCH  19  20
ENDBRANCH  18  19
ENDBRANCH  17  18
ENDBRANCH  11  12
ENDBRANCH  10  11
ENDBRANCH   7  10
ENDBRANCH   6   7
ENDBRANCH   4   6
ENDBRANCH   2   4
TORSDOF 9
ENDMDL
MODEL      295
REMARK 921   NORMALIZED FREE ENERGY PREDICTED BY IDOCK:   -2.83 KCAL/MOL
REMARK 922        TOTAL FREE ENERGY PREDICTED BY IDOCK:   -5.10 KCAL/MOL
REMARK 923 INTER-LIGAND FREE ENERGY PREDICTED BY IDOCK:   -3.85 KCAL/MOL
REMARK 924 INTRA-LIGAND FREE ENERGY PREDICTED BY IDOCK:   -1.24 KCAL/MOL
REMARK 927      BINDING AFFINITY PREDICTED BY RF-SCORE:    0.00 PKD
ROOT
HETATM    1  C   UNL     1      -6.466  10.306  62.940  1.00  0.00    -0.136 C  
HETATM    2  C   UNL     1      -6.421   9.709  64.348  1.00  0.00    -0.102 C  
HETATM    3  C   UNL     1      -5.750  10.705  65.301  1.00  0.00    -0.126 C  
ENDROOT
BRANCH   2   4
HETATM    4  N   UNL     1      -7.789   9.379  64.764  1.00  0.00    -0.113 NA 
HETATM    5  H   UNL     1      -8.270   8.841  64.043  1.00  0.00     0.000 HD 
BRANCH   4   6
HETATM    6  C   UNL     1      -7.840   8.688  66.059  1.00  0.00    -0.102 C  
BRANCH   6   7
HETATM    7  C   UNL     1      -9.145   8.987  66.825  1.00  0.00    -0.145 C  
HETATM    8  O   UNL     1      -8.855   9.557  68.106  1.00  0.00    -0.124 OA 
HETATM    9  H   UNL     1      -9.659   9.742  68.578  1.00  0.00     0.000 HD 
BRANCH   7  10
HETATM   10  C   UNL     1     -10.028   9.947  66.000  1.00  0.00    -0.268 C  
BRANCH  10  11
HETATM   11  O   UNL     1      -9.508  11.282  65.941  1.00  0.00    -0.208 OA 
BRANCH  11  12
HETATM   12  C   UNL     1     -10.303  12.300  66.417  1.00  0.00    -0.225 A  
HETATM   13  C   UNL     1     -11.432  12.771  65.730  1.00  0.00    -0.388 A  
HETATM   14  C   UNL     1     -12.192  13.828  66.228  1.00  0.00    -0.489 A  
HETATM   15  C   UNL     1     -11.822  14.448  67.409  1.00  0.00    -0.430 A  
HETATM   16  C   UNL     1     -10.713  13.986  68.114  1.00  0.00    -0.254 A  
HETATM   17  C   UNL     1      -9.968  12.884  67.659  1.00  0.00    -0.218 A  
BRANCH  17  18
HETATM   18  O   UNL     1      -8.917  12.347  68.381  1.00  0.00    -0.187 OA 
BRANCH  18  19
HETATM   19  C   UNL     1      -7.633  12.891  68.045  1.00  0.00    -0.137 C  
BRANCH  19  20
HETATM   20  C   UNL     1      -7.096  13.731  69.164  1.00  0.00    -0.053 C  
HETATM   21  C   UNL     1      -7.068  15.072  69.131  1.00  0.00    -0.149 C  
ENDBRANCH  19  20
ENDBRANCH  18  19
ENDBRANCH  17  18
ENDBRANCH  11  12
ENDBRANCH  10  11
ENDBRANCH   7  10
ENDBRANCH   6   7
ENDBRANCH   4   6
ENDBRANCH   2   4
TORSDOF 9
ENDMDL
MODEL      296
REMARK 921   NORMALIZED FREE ENERGY PREDICTED BY IDOCK:   -2.83 KCAL/MOL
REMARK 922        TOTAL FREE ENERGY PREDICTED BY IDOCK:   -5.10 KCAL/MOL
REMARK 923 INTER-LIGAND FREE ENERGY PREDICTED BY IDOCK:   -4.26 KCAL/MOL
REMARK 924 INTRA-LIGAND FREE ENERGY PREDICTED BY IDOCK:   -0.83 KCAL/MOL
REMARK 927      BINDING AFFINITY PREDICTED BY RF-SCORE:    0.00 PKD
ROOT
HETATM    1  C   UNL     1      -9.865   6.957  71.158  1.00  0.00    -0.184 C  
HETATM    2  C   UNL     1     -11.182   6.481  70.542  1.00  0.00    -0.344 C  
HETATM    3  C   UNL     1     -12.272   6.468  71.620  1.00  0.00    -0.353 C  
ENDROOT
BRANCH   2   4
HETATM    4  N   UNL     1     -11.524   7.363  69.420  1.00  0.00    -0.412 NA 
HETATM    5  H   UNL     1     -12.282   7.997  69.672  1.00  0.00     0.000 HD 
BRANCH   4   6
HETATM    6  C   UNL     1     -10.365   8.106  68.906  1.00  0.00    -0.211 C  
BRANCH   6   7
HETATM    7  C   UNL     1     -10.157   7.883  67.394  1.00  0.00    -0.226 C  
HETATM    8  O   UNL     1     -10.979   6.807  66.928  1.00  0.00    -0.448 OA 
HETATM    9  H   UNL     1     -10.851   6.670  65.996  1.00  0.00     0.000 HD 
BRANCH   7  10
HETATM   10  C   UNL     1     -10.486   9.179  66.624  1.00  0.00    -0.167 C  
BRANCH  10  11
HETATM   11  O   UNL     1      -9.351  10.040  66.457  1.00  0.00    -0.153 OA 
BRANCH  11  12
HETATM   12  C   UNL     1      -9.581  11.395  66.389  1.00  0.00    -0.205 A  
HETATM   13  C   UNL     1     -10.089  12.027  65.245  1.00  0.00    -0.289 A  
HETATM   14  C   UNL     1     -10.275  13.408  65.204  1.00  0.00    -0.316 A  
HETATM   15  C   UNL     1      -9.931  14.183  66.298  1.00  0.00    -0.315 A  
HETATM   16  C   UNL     1      -9.438  13.574  67.449  1.00  0.00    -0.225 A  
HETATM   17  C   UNL     1      -9.299  12.178  67.531  1.00  0.00    -0.181 A  
BRANCH  17  18
HETATM   18  O   UNL     1      -8.896  11.538  68.690  1.00  0.00    -0.163 OA 
BRANCH  18  19
HETATM   19  C   UNL     1      -7.548  11.828  69.085  1.00  0.00     0.081 C  
BRANCH  19  20
HETATM   20  C   UNL     1      -6.828  10.578  69.492  1.00  0.00    -0.098 C  
HETATM   21  C   UNL     1      -6.907   9.426  68.809  1.00  0.00    -0.053 C  
ENDBRANCH  19  20
ENDBRANCH  18  19
ENDBRANCH  17  18
ENDBRANCH  11  12
ENDBRANCH  10  11
ENDBRANCH   7  10
ENDBRANCH   6   7
ENDBRANCH   4   6
ENDBRANCH   2   4
TORSDOF 9
ENDMDL
MODEL      297
REMARK 921   NORMALIZED FREE ENERGY PREDICTED BY IDOCK:   -2.83 KCAL/MOL
REMARK 922        TOTAL FREE ENERGY PREDICTED BY IDOCK:   -5.10 KCAL/MOL
REMARK 923 INTER-LIGAND FREE ENERGY PREDICTED BY IDOCK:   -4.51 KCAL/MOL
REMARK 924 INTRA-LIGAND FREE ENERGY PREDICTED BY IDOCK:   -0.58 KCAL/MOL
REMARK 927      BINDING AFFINITY PREDICTED BY RF-SCORE:    0.00 PKD
ROOT
HETATM    1  C   UNL     1      -9.628  15.920  65.861  1.00  0.00    -0.378 C  
HETATM    2  C   UNL     1     -10.566  14.742  66.131  1.00  0.00    -0.311 C  
HETATM    3  C   UNL     1     -10.126  13.539  65.290  1.00  0.00    -0.277 C  
ENDROOT
BRANCH   2   4
HETATM    4  N   UNL     1     -10.551  14.448  67.569  1.00  0.00    -0.263 NA 
HETATM    5  H   UNL     1     -11.462  14.631  67.988  1.00  0.00     0.000 HD 
BRANCH   4   6
HETATM    6  C   UNL     1     -10.098  13.083  67.866  1.00  0.00    -0.235 C  
BRANCH   6   7
HETATM    7  C   UNL     1     -11.197  12.243  68.549  1.00  0.00    -0.271 C  
HETATM    8  O   UNL     1     -12.485  12.575  68.019  1.00  0.00    -0.045 OA 
HETATM    9  H   UNL     1     -13.162  12.058  68.440  1.00  0.00     0.000 HD 
BRANCH   7  10
HETATM   10  C   UNL     1     -10.908  10.741  68.350  1.00  0.00    -0.232 C  
BRANCH  10  11
HETATM   11  O   UNL     1      -9.739  10.293  69.050  1.00  0.00    -0.184 OA 
BRANCH  11  12
HETATM   12  C   UNL     1      -9.924   9.595  70.222  1.00  0.00    -0.270 A  
HETATM   13  C   UNL     1     -11.173   9.471  70.848  1.00  0.00    -0.411 A  
HETATM   14  C   UNL     1     -11.311   8.785  72.053  1.00  0.00    -0.441 A  
HETATM   15  C   UNL     1     -10.200   8.232  72.665  1.00  0.00    -0.368 A  
HETATM   16  C   UNL     1      -8.953   8.332  72.053  1.00  0.00    -0.260 A  
HETATM   17  C   UNL     1      -8.802   8.969  70.809  1.00  0.00    -0.234 A  
BRANCH  17  18
HETATM   18  O   UNL     1      -7.594   9.006  70.135  1.00  0.00    -0.064 OA 
BRANCH  18  19
HETATM   19  C   UNL     1      -7.293   7.812  69.400  1.00  0.00    -0.086 C  
BRANCH  19  20
HETATM   20  C   UNL     1      -7.245   8.086  67.927  1.00  0.00    -0.091 C  
HETATM   21  C   UNL     1      -7.241   7.119  66.997  1.00  0.00    -0.091 C  
ENDBRANCH  19  20
ENDBRANCH  18  19
ENDBRANCH  17  18
ENDBRANCH  11  12
ENDBRANCH  10  11
ENDBRANCH   7  10
ENDBRANCH   6   7
ENDBRANCH   4   6
ENDBRANCH   2   4
TORSDOF 9
ENDMDL
MODEL      298
REMARK 921   NORMALIZED FREE ENERGY PREDICTED BY IDOCK:   -2.82 KCAL/MOL
REMARK 922        TOTAL FREE ENERGY PREDICTED BY IDOCK:   -5.08 KCAL/MOL
REMARK 923 INTER-LIGAND FREE ENERGY PREDICTED BY IDOCK:   -4.10 KCAL/MOL
REMARK 924 INTRA-LIGAND FREE ENERGY PREDICTED BY IDOCK:   -0.98 KCAL/MOL
REMARK 927      BINDING AFFINITY PREDICTED BY RF-SCORE:    0.00 PKD
ROOT
HETATM    1  C   UNL     1      -7.380   8.010  70.126  1.00  0.00    -0.061 C  
HETATM    2  C   UNL     1      -7.348   8.871  68.861  1.00  0.00    -0.075 C  
HETATM    3  C   UNL     1      -7.265   7.961  67.630  1.00  0.00    -0.088 C  
ENDROOT
BRANCH   2   4
HETATM    4  N   UNL     1      -8.543   9.723  68.841  1.00  0.00    -0.128 NA 
HETATM    5  H   UNL     1      -9.163   9.501  69.620  1.00  0.00     0.000 HD 
BRANCH   4   6
HETATM    6  C   UNL     1      -8.220  11.156  68.816  1.00  0.00    -0.135 C  
BRANCH   6   7
HETATM    7  C   UNL     1      -8.401  11.767  67.411  1.00  0.00    -0.159 C  
HETATM    8  O   UNL     1      -9.763  11.648  66.984  1.00  0.00    -0.184 OA 
HETATM    9  H   UNL     1      -9.874  12.025  66.119  1.00  0.00     0.000 HD 
BRANCH   7  10
HETATM   10  C   UNL     1      -7.973  13.249  67.426  1.00  0.00    -0.170 C  
BRANCH  10  11
HETATM   11  O   UNL     1      -8.336  13.929  68.635  1.00  0.00    -0.152 OA 
BRANCH  11  12
HETATM   12  C   UNL     1      -9.023  15.117  68.519  1.00  0.00    -0.186 A  
HETATM   13  C   UNL     1      -8.384  16.362  68.428  1.00  0.00    -0.191 A  
HETATM   14  C   UNL     1      -9.116  17.545  68.347  1.00  0.00    -0.276 A  
HETATM   15  C   UNL     1     -10.499  17.506  68.381  1.00  0.00    -0.372 A  
HETATM   16  C   UNL     1     -11.153  16.278  68.457  1.00  0.00    -0.368 A  
HETATM   17  C   UNL     1     -10.434  15.070  68.481  1.00  0.00    -0.232 A  
BRANCH  17  18
HETATM   18  O   UNL     1     -11.057  13.835  68.466  1.00  0.00    -0.245 OA 
BRANCH  18  19
HETATM   19  C   UNL     1     -12.189  13.735  69.341  1.00  0.00    -0.278 C  
BRANCH  19  20
HETATM   20  C   UNL     1     -12.008  12.623  70.329  1.00  0.00    -0.363 C  
HETATM   21  C   UNL     1     -11.812  11.345  69.972  1.00  0.00    -0.440 C  
ENDBRANCH  19  20
ENDBRANCH  18  19
ENDBRANCH  17  18
ENDBRANCH  11  12
ENDBRANCH  10  11
ENDBRANCH   7  10
ENDBRANCH   6   7
ENDBRANCH   4   6
ENDBRANCH   2   4
TORSDOF 9
ENDMDL
MODEL      299
REMARK 921   NORMALIZED FREE ENERGY PREDICTED BY IDOCK:   -2.81 KCAL/MOL
REMARK 922        TOTAL FREE ENERGY PREDICTED BY IDOCK:   -5.07 KCAL/MOL
REMARK 923 INTER-LIGAND FREE ENERGY PREDICTED BY IDOCK:   -4.49 KCAL/MOL
REMARK 924 INTRA-LIGAND FREE ENERGY PREDICTED BY IDOCK:   -0.58 KCAL/MOL
REMARK 927      BINDING AFFINITY PREDICTED BY RF-SCORE:    0.00 PKD
ROOT
HETATM    1  C   UNL     1     -12.243  12.711  70.254  1.00  0.00    -0.347 C  
HETATM    2  C   UNL     1     -11.928  11.624  69.224  1.00  0.00    -0.317 C  
HETATM    3  C   UNL     1     -10.417  11.596  68.962  1.00  0.00    -0.159 C  
ENDROOT
BRANCH   2   4
HETATM    4  N   UNL     1     -12.426  10.339  69.728  1.00  0.00    -0.540 NA 
HETATM    5  H   UNL     1     -11.963   9.559  69.261  1.00  0.00     0.000 HD 
BRANCH   4   6
HETATM    6  C   UNL     1     -12.316  10.218  71.188  1.00  0.00    -0.395 C  
BRANCH   6   7
HETATM    7  C   UNL     1     -11.895   8.799  71.623  1.00  0.00    -0.330 C  
HETATM    8  O   UNL     1     -12.845   7.831  71.164  1.00  0.00    -0.488 OA 
HETATM    9  H   UNL     1     -12.585   6.957  71.432  1.00  0.00     0.000 HD 
BRANCH   7  10
HETATM   10  C   UNL     1     -10.492   8.476  71.067  1.00  0.00    -0.212 C  
BRANCH  10  11
HETATM   11  O   UNL     1      -9.944   7.259  71.590  1.00  0.00    -0.180 OA 
BRANCH  11  12
HETATM   12  C   UNL     1      -8.874   7.357  72.450  1.00  0.00    -0.124 A  
HETATM   13  C   UNL     1      -8.974   7.915  73.734  1.00  0.00    -0.324 A  
HETATM   14  C   UNL     1      -7.859   8.028  74.562  1.00  0.00    -0.289 A  
HETATM   15  C   UNL     1      -6.619   7.609  74.111  1.00  0.00    -0.096 A  
HETATM   16  C   UNL     1      -6.500   7.040  72.846  1.00  0.00    -0.061 A  
HETATM   17  C   UNL     1      -7.622   6.863  72.018  1.00  0.00    -0.093 A  
BRANCH  17  18
HETATM   18  O   UNL     1      -7.550   6.222  70.795  1.00  0.00    -0.092 OA 
BRANCH  18  19
HETATM   19  C   UNL     1      -7.670   4.795  70.870  1.00  0.00    -0.073 C  
BRANCH  19  20
HETATM   20  C   UNL     1      -9.009   4.341  70.371  1.00  0.00    -0.147 C  
HETATM   21  C   UNL     1      -9.163   3.397  69.430  1.00  0.00    -0.222 C  
ENDBRANCH  19  20
ENDBRANCH  18  19
ENDBRANCH  17  18
ENDBRANCH  11  12
ENDBRANCH  10  11
ENDBRANCH   7  10
ENDBRANCH   6   7
ENDBRANCH   4   6
ENDBRANCH   2   4
TORSDOF 9
ENDMDL
MODEL      300
REMARK 921   NORMALIZED FREE ENERGY PREDICTED BY IDOCK:   -2.79 KCAL/MOL
REMARK 922        TOTAL FREE ENERGY PREDICTED BY IDOCK:   -5.03 KCAL/MOL
REMARK 923 INTER-LIGAND FREE ENERGY PREDICTED BY IDOCK:   -4.58 KCAL/MOL
REMARK 924 INTRA-LIGAND FREE ENERGY PREDICTED BY IDOCK:   -0.44 KCAL/MOL
REMARK 927      BINDING AFFINITY PREDICTED BY RF-SCORE:    0.00 PKD
ROOT
HETATM    1  C   UNL     1     -10.477   8.128  66.962  1.00  0.00    -0.396 C  
HETATM    2  C   UNL     1      -9.432   9.152  66.515  1.00  0.00    -0.208 C  
HETATM    3  C   UNL     1     -10.126  10.284  65.747  1.00  0.00    -0.325 C  
ENDROOT
BRANCH   2   4
HETATM    4  N   UNL     1      -8.719   9.644  67.700  1.00  0.00    -0.126 NA 
HETATM    5  H   UNL     1      -8.199   8.891  68.152  1.00  0.00     0.000 HD 
BRANCH   4   6
HETATM    6  C   UNL     1      -7.842  10.785  67.404  1.00  0.00    -0.111 C  
BRANCH   6   7
HETATM    7  C   UNL     1      -8.093  11.971  68.358  1.00  0.00    -0.154 C  
HETATM    8  O   UNL     1      -6.954  12.188  69.199  1.00  0.00    -0.154 OA 
HETATM    9  H   UNL     1      -7.109  12.919  69.786  1.00  0.00     0.000 HD 
BRANCH   7  10
HETATM   10  C   UNL     1      -8.405  13.242  67.542  1.00  0.00    -0.186 C  
BRANCH  10  11
HETATM   11  O   UNL     1      -9.810  13.470  67.366  1.00  0.00    -0.221 OA 
BRANCH  11  12
HETATM   12  C   UNL     1     -10.543  13.825  68.475  1.00  0.00    -0.253 A  
HETATM   13  C   UNL     1     -11.134  12.886  69.334  1.00  0.00    -0.131 A  
HETATM   14  C   UNL     1     -11.899  13.288  70.427  1.00  0.00    -0.270 A  
HETATM   15  C   UNL     1     -12.108  14.635  70.667  1.00  0.00    -0.385 A  
HETATM   16  C   UNL     1     -11.518  15.584  69.835  1.00  0.00    -0.338 A  
HETATM   17  C   UNL     1     -10.695  15.200  68.762  1.00  0.00    -0.239 A  
BRANCH  17  18
HETATM   18  O   UNL     1     -10.026  16.120  67.974  1.00  0.00    -0.232 OA 
BRANCH  18  19
HETATM   19  C   UNL     1      -9.613  17.303  68.671  1.00  0.00    -0.284 C  
BRANCH  19  20
HETATM   20  C   UNL     1      -8.493  17.988  67.948  1.00  0.00    -0.253 C  
HETATM   21  C   UNL     1      -7.422  18.506  68.570  1.00  0.00    -0.318 C  
ENDBRANCH  19  20
ENDBRANCH  18  19
ENDBRANCH  17  18
ENDBRANCH  11  12
ENDBRANCH  10  11
ENDBRANCH   7  10
ENDBRANCH   6   7
ENDBRANCH   4   6
ENDBRANCH   2   4
TORSDOF 9
ENDMDL
MODEL      301
REMARK 921   NORMALIZED FREE ENERGY PREDICTED BY IDOCK:   -2.78 KCAL/MOL
REMARK 922        TOTAL FREE ENERGY PREDICTED BY IDOCK:   -5.02 KCAL/MOL
REMARK 923 INTER-LIGAND FREE ENERGY PREDICTED BY IDOCK:   -4.32 KCAL/MOL
REMARK 924 INTRA-LIGAND FREE ENERGY PREDICTED BY IDOCK:   -0.70 KCAL/MOL
REMARK 927      BINDING AFFINITY PREDICTED BY RF-SCORE:    0.00 PKD
ROOT
HETATM    1  C   UNL     1     -13.000  12.631  71.219  1.00  0.00    -0.306 C  
HETATM    2  C   UNL     1     -12.003  12.594  70.060  1.00  0.00    -0.306 C  
HETATM    3  C   UNL     1     -12.128  11.255  69.324  1.00  0.00    -0.372 C  
ENDROOT
BRANCH   2   4
HETATM    4  N   UNL     1     -12.265  13.737  69.177  1.00  0.00    -0.378 NA 
HETATM    5  H   UNL     1     -13.069  14.274  69.504  1.00  0.00     0.000 HD 
BRANCH   4   6
HETATM    6  C   UNL     1     -11.091  14.602  69.001  1.00  0.00    -0.259 C  
BRANCH   6   7
HETATM    7  C   UNL     1     -10.510  14.508  67.575  1.00  0.00    -0.253 C  
HETATM    8  O   UNL     1     -11.382  13.753  66.727  1.00  0.00    -0.311 OA 
HETATM    9  H   UNL     1     -11.024  13.695  65.849  1.00  0.00     0.000 HD 
BRANCH   7  10
HETATM   10  C   UNL     1     -10.301  15.925  67.001  1.00  0.00    -0.297 C  
BRANCH  10  11
HETATM   11  O   UNL     1      -8.947  16.178  66.600  1.00  0.00    -0.209 OA 
BRANCH  11  12
HETATM   12  C   UNL     1      -8.071  16.630  67.560  1.00  0.00    -0.168 A  
HETATM   13  C   UNL     1      -8.064  17.954  68.025  1.00  0.00    -0.252 A  
HETATM   14  C   UNL     1      -7.136  18.381  68.973  1.00  0.00    -0.262 A  
HETATM   15  C   UNL     1      -6.183  17.500  69.454  1.00  0.00    -0.250 A  
HETATM   16  C   UNL     1      -6.181  16.178  69.015  1.00  0.00    -0.139 A  
HETATM   17  C   UNL     1      -7.145  15.712  68.104  1.00  0.00    -0.118 A  
BRANCH  17  18
HETATM   18  O   UNL     1      -7.223  14.386  67.719  1.00  0.00    -0.140 OA 
BRANCH  18  19
HETATM   19  C   UNL     1      -7.306  13.459  68.810  1.00  0.00    -0.076 C  
BRANCH  19  20
HETATM   20  C   UNL     1      -7.333  12.045  68.314  1.00  0.00    -0.095 C  
HETATM   21  C   UNL     1      -7.785  11.016  69.046  1.00  0.00    -0.132 C  
ENDBRANCH  19  20
ENDBRANCH  18  19
ENDBRANCH  17  18
ENDBRANCH  11  12
ENDBRANCH  10  11
ENDBRANCH   7  10
ENDBRANCH   6   7
ENDBRANCH   4   6
ENDBRANCH   2   4
TORSDOF 9
ENDMDL
MODEL      302
REMARK 921   NORMALIZED FREE ENERGY PREDICTED BY IDOCK:   -2.77 KCAL/MOL
REMARK 922        TOTAL FREE ENERGY PREDICTED BY IDOCK:   -4.99 KCAL/MOL
REMARK 923 INTER-LIGAND FREE ENERGY PREDICTED BY IDOCK:   -4.03 KCAL/MOL
REMARK 924 INTRA-LIGAND FREE ENERGY PREDICTED BY IDOCK:   -0.96 KCAL/MOL
REMARK 927      BINDING AFFINITY PREDICTED BY RF-SCORE:    0.00 PKD
ROOT
HETATM    1  C   UNL     1      -7.539  12.395  68.253  1.00  0.00    -0.131 C  
HETATM    2  C   UNL     1      -6.538  11.889  69.294  1.00  0.00    -0.110 C  
HETATM    3  C   UNL     1      -6.028  13.072  70.125  1.00  0.00    -0.135 C  
ENDROOT
BRANCH   2   4
HETATM    4  N   UNL     1      -7.195  10.872  70.123  1.00  0.00    -0.454 NA 
HETATM    5  H   UNL     1      -8.196  10.836  69.932  1.00  0.00     0.000 HD 
BRANCH   4   6
HETATM    6  C   UNL     1      -6.584   9.543  69.985  1.00  0.00    -0.065 C  
BRANCH   6   7
HETATM    7  C   UNL     1      -7.251   8.711  68.870  1.00  0.00    -0.077 C  
HETATM    8  O   UNL     1      -6.629   7.426  68.763  1.00  0.00    -0.045 OA 
HETATM    9  H   UNL     1      -7.040   6.914  68.076  1.00  0.00     0.000 HD 
BRANCH   7  10
HETATM   10  C   UNL     1      -8.757   8.554  69.164  1.00  0.00    -0.134 C  
BRANCH  10  11
HETATM   11  O   UNL     1      -9.054   8.482  70.565  1.00  0.00    -0.143 OA 
BRANCH  11  12
HETATM   12  C   UNL     1      -9.264   7.235  71.111  1.00  0.00    -0.156 A  
HETATM   13  C   UNL     1      -8.253   6.501  71.750  1.00  0.00    -0.112 A  
HETATM   14  C   UNL     1      -8.497   5.227  72.259  1.00  0.00    -0.125 A  
HETATM   15  C   UNL     1      -9.749   4.655  72.116  1.00  0.00    -0.219 A  
HETATM   16  C   UNL     1     -10.771   5.372  71.498  1.00  0.00    -0.262 A  
HETATM   17  C   UNL     1     -10.561   6.681  71.030  1.00  0.00    -0.226 A  
BRANCH  17  18
HETATM   18  O   UNL     1     -11.578   7.450  70.493  1.00  0.00    -0.283 OA 
BRANCH  18  19
HETATM   19  C   UNL     1     -12.691   7.652  71.373  1.00  0.00    -0.327 C  
BRANCH  19  20
HETATM   20  C   UNL     1     -12.539   8.925  72.149  1.00  0.00    -0.467 C  
HETATM   21  C   UNL     1     -13.213  10.049  71.860  1.00  0.00    -0.557 C  
ENDBRANCH  19  20
ENDBRANCH  18  19
ENDBRANCH  17  18
ENDBRANCH  11  12
ENDBRANCH  10  11
ENDBRANCH   7  10
ENDBRANCH   6   7
ENDBRANCH   4   6
ENDBRANCH   2   4
TORSDOF 9
ENDMDL
MODEL      303
REMARK 921   NORMALIZED FREE ENERGY PREDICTED BY IDOCK:   -2.76 KCAL/MOL
REMARK 922        TOTAL FREE ENERGY PREDICTED BY IDOCK:   -4.98 KCAL/MOL
REMARK 923 INTER-LIGAND FREE ENERGY PREDICTED BY IDOCK:   -4.13 KCAL/MOL
REMARK 924 INTRA-LIGAND FREE ENERGY PREDICTED BY IDOCK:   -0.85 KCAL/MOL
REMARK 927      BINDING AFFINITY PREDICTED BY RF-SCORE:    0.00 PKD
ROOT
HETATM    1  C   UNL     1     -13.124  11.823  71.929  1.00  0.00    -0.482 C  
HETATM    2  C   UNL     1     -12.987  11.358  70.478  1.00  0.00     0.064 C  
HETATM    3  C   UNL     1     -11.632  11.814  69.924  1.00  0.00    -0.351 C  
ENDROOT
BRANCH   2   4
HETATM    4  N   UNL     1     -13.141   9.899  70.434  1.00  0.00    -0.576 NA 
HETATM    5  H   UNL     1     -12.835   9.527  69.535  1.00  0.00     0.000 HD 
BRANCH   4   6
HETATM    6  C   UNL     1     -12.458   9.221  71.544  1.00  0.00    -0.355 C  
BRANCH   6   7
HETATM    7  C   UNL     1     -11.696   7.964  71.075  1.00  0.00    -0.277 C  
HETATM    8  O   UNL     1     -12.597   6.862  70.916  1.00  0.00    -0.479 OA 
HETATM    9  H   UNL     1     -12.127   6.088  70.627  1.00  0.00     0.000 HD 
BRANCH   7  10
HETATM   10  C   UNL     1     -10.970   8.258  69.746  1.00  0.00    -0.129 C  
BRANCH  10  11
HETATM   11  O   UNL     1      -9.800   7.452  69.552  1.00  0.00    -0.163 OA 
BRANCH  11  12
HETATM   12  C   UNL     1      -8.768   7.598  70.451  1.00  0.00    -0.143 A  
HETATM   13  C   UNL     1      -8.166   8.834  70.731  1.00  0.00    -0.178 A  
HETATM   14  C   UNL     1      -7.100   8.934  71.622  1.00  0.00    -0.056 A  
HETATM   15  C   UNL     1      -6.599   7.795  72.230  1.00  0.00    -0.059 A  
HETATM   16  C   UNL     1      -7.191   6.560  71.977  1.00  0.00    -0.086 A  
HETATM   17  C   UNL     1      -8.304   6.447  71.127  1.00  0.00    -0.123 A  
BRANCH  17  18
HETATM   18  O   UNL     1      -8.967   5.249  70.926  1.00  0.00    -0.132 OA 
BRANCH  18  19
HETATM   19  C   UNL     1      -9.177   4.484  72.121  1.00  0.00    -0.130 C  
BRANCH  19  20
HETATM   20  C   UNL     1     -10.639   4.274  72.374  1.00  0.00    -0.145 C  
HETATM   21  C   UNL     1     -11.198   4.372  73.589  1.00  0.00    -0.335 C  
ENDBRANCH  19  20
ENDBRANCH  18  19
ENDBRANCH  17  18
ENDBRANCH  11  12
ENDBRANCH  10  11
ENDBRANCH   7  10
ENDBRANCH   6   7
ENDBRANCH   4   6
ENDBRANCH   2   4
TORSDOF 9
ENDMDL
MODEL      304
REMARK 921   NORMALIZED FREE ENERGY PREDICTED BY IDOCK:   -2.76 KCAL/MOL
REMARK 922        TOTAL FREE ENERGY PREDICTED BY IDOCK:   -4.98 KCAL/MOL
REMARK 923 INTER-LIGAND FREE ENERGY PREDICTED BY IDOCK:   -4.27 KCAL/MOL
REMARK 924 INTRA-LIGAND FREE ENERGY PREDICTED BY IDOCK:   -0.71 KCAL/MOL
REMARK 927      BINDING AFFINITY PREDICTED BY RF-SCORE:    0.00 PKD
ROOT
HETATM    1  C   UNL     1     -12.218   7.945  71.991  1.00  0.00    -0.357 C  
HETATM    2  C   UNL     1     -12.248   9.109  70.999  1.00  0.00    -0.242 C  
HETATM    3  C   UNL     1     -12.780  10.363  71.702  1.00  0.00    -0.560 C  
ENDROOT
BRANCH   2   4
HETATM    4  N   UNL     1     -10.895   9.306  70.463  1.00  0.00    -0.243 NA 
HETATM    5  H   UNL     1     -10.223   9.452  71.216  1.00  0.00     0.000 HD 
BRANCH   4   6
HETATM    6  C   UNL     1     -10.467   8.214  69.579  1.00  0.00    -0.227 C  
BRANCH   6   7
HETATM    7  C   UNL     1     -10.282   8.686  68.122  1.00  0.00    -0.205 C  
HETATM    8  O   UNL     1      -8.892   8.867  67.827  1.00  0.00    -0.134 OA 
HETATM    9  H   UNL     1      -8.778   9.158  66.929  1.00  0.00     0.000 HD 
BRANCH   7  10
HETATM   10  C   UNL     1     -10.904   7.658  67.155  1.00  0.00    -0.188 C  
BRANCH  10  11
HETATM   11  O   UNL     1     -11.116   6.373  67.758  1.00  0.00    -0.328 OA 
BRANCH  11  12
HETATM   12  C   UNL     1     -10.346   5.323  67.312  1.00  0.00    -0.199 A  
HETATM   13  C   UNL     1      -9.983   5.159  65.967  1.00  0.00    -0.187 A  
HETATM   14  C   UNL     1      -9.231   4.062  65.550  1.00  0.00    -0.150 A  
HETATM   15  C   UNL     1      -8.852   3.097  66.466  1.00  0.00    -0.150 A  
HETATM   16  C   UNL     1      -9.190   3.247  67.809  1.00  0.00    -0.240 A  
HETATM   17  C   UNL     1      -9.897   4.376  68.259  1.00  0.00    -0.064 A  
BRANCH  17  18
HETATM   18  O   UNL     1     -10.171   4.596  69.597  1.00  0.00    -0.221 OA 
BRANCH  18  19
HETATM   19  C   UNL     1      -9.737   3.542  70.468  1.00  0.00    -0.117 C  
BRANCH  19  20
HETATM   20  C   UNL     1      -9.490   4.058  71.854  1.00  0.00    -0.201 C  
HETATM   21  C   UNL     1     -10.309   4.919  72.477  1.00  0.00    -0.256 C  
ENDBRANCH  19  20
ENDBRANCH  18  19
ENDBRANCH  17  18
ENDBRANCH  11  12
ENDBRANCH  10  11
ENDBRANCH   7  10
ENDBRANCH   6   7
ENDBRANCH   4   6
ENDBRANCH   2   4
TORSDOF 9
ENDMDL
MODEL      305
REMARK 921   NORMALIZED FREE ENERGY PREDICTED BY IDOCK:   -2.75 KCAL/MOL
REMARK 922        TOTAL FREE ENERGY PREDICTED BY IDOCK:   -4.97 KCAL/MOL
REMARK 923 INTER-LIGAND FREE ENERGY PREDICTED BY IDOCK:   -4.18 KCAL/MOL
REMARK 924 INTRA-LIGAND FREE ENERGY PREDICTED BY IDOCK:   -0.80 KCAL/MOL
REMARK 927      BINDING AFFINITY PREDICTED BY RF-SCORE:    0.00 PKD
ROOT
HETATM    1  C   UNL     1      -9.943   9.853  66.013  1.00  0.00    -0.338 C  
HETATM    2  C   UNL     1      -8.698  10.150  66.850  1.00  0.00    -0.129 C  
HETATM    3  C   UNL     1      -7.601  10.721  65.944  1.00  0.00    -0.106 C  
ENDROOT
BRANCH   2   4
HETATM    4  N   UNL     1      -9.064  11.077  67.927  1.00  0.00    -0.144 NA 
HETATM    5  H   UNL     1      -9.901  10.758  68.414  1.00  0.00     0.000 HD 
BRANCH   4   6
HETATM    6  C   UNL     1      -7.965  11.317  68.871  1.00  0.00    -0.104 C  
BRANCH   6   7
HETATM    7  C   UNL     1      -7.701  10.097  69.778  1.00  0.00    -0.168 C  
HETATM    8  O   UNL     1      -6.589  10.346  70.644  1.00  0.00    -0.290 OA 
HETATM    9  H   UNL     1      -6.427   9.594  71.202  1.00  0.00     0.000 HD 
BRANCH   7  10
HETATM   10  C   UNL     1      -8.964   9.778  70.605  1.00  0.00     0.124 C  
BRANCH  10  11
HETATM   11  O   UNL     1     -10.051   9.287  69.810  1.00  0.00    -0.185 OA 
BRANCH  11  12
HETATM   12  C   UNL     1     -11.190   8.878  70.466  1.00  0.00    -0.252 A  
HETATM   13  C   UNL     1     -12.219   9.759  70.830  1.00  0.00    -0.390 A  
HETATM   14  C   UNL     1     -13.341   9.311  71.525  1.00  0.00    -0.436 A  
HETATM   15  C   UNL     1     -13.441   7.979  71.890  1.00  0.00    -0.342 A  
HETATM   16  C   UNL     1     -12.437   7.086  71.525  1.00  0.00    -0.426 A  
HETATM   17  C   UNL     1     -11.326   7.506  70.774  1.00  0.00    -0.280 A  
BRANCH  17  18
HETATM   18  O   UNL     1     -10.359   6.626  70.322  1.00  0.00    -0.195 OA 
BRANCH  18  19
HETATM   19  C   UNL     1     -10.720   5.243  70.439  1.00  0.00    -0.146 C  
BRANCH  19  20
HETATM   20  C   UNL     1      -9.836   4.384  69.586  1.00  0.00    -0.272 C  
HETATM   21  C   UNL     1      -8.630   4.774  69.148  1.00  0.00    -0.094 C  
ENDBRANCH  19  20
ENDBRANCH  18  19
ENDBRANCH  17  18
ENDBRANCH  11  12
ENDBRANCH  10  11
ENDBRANCH   7  10
ENDBRANCH   6   7
ENDBRANCH   4   6
ENDBRANCH   2   4
TORSDOF 9
ENDMDL
MODEL      306
REMARK 921   NORMALIZED FREE ENERGY PREDICTED BY IDOCK:   -2.74 KCAL/MOL
REMARK 922        TOTAL FREE ENERGY PREDICTED BY IDOCK:   -4.95 KCAL/MOL
REMARK 923 INTER-LIGAND FREE ENERGY PREDICTED BY IDOCK:   -3.94 KCAL/MOL
REMARK 924 INTRA-LIGAND FREE ENERGY PREDICTED BY IDOCK:   -1.01 KCAL/MOL
REMARK 927      BINDING AFFINITY PREDICTED BY RF-SCORE:    0.00 PKD
ROOT
HETATM    1  C   UNL     1     -10.598   5.456  68.010  1.00  0.00    -0.157 C  
HETATM    2  C   UNL     1      -9.842   5.086  69.287  1.00  0.00    -0.196 C  
HETATM    3  C   UNL     1      -8.405   5.615  69.198  1.00  0.00    -0.100 C  
ENDROOT
BRANCH   2   4
HETATM    4  N   UNL     1     -10.564   5.639  70.439  1.00  0.00    -0.286 NA 
HETATM    5  H   UNL     1      -9.915   5.963  71.156  1.00  0.00     0.000 HD 
BRANCH   4   6
HETATM    6  C   UNL     1     -11.508   6.700  70.064  1.00  0.00    -0.375 C  
BRANCH   6   7
HETATM    7  C   UNL     1     -11.138   8.057  70.698  1.00  0.00    -0.262 C  
HETATM    8  O   UNL     1     -10.722   7.878  72.057  1.00  0.00    -0.217 OA 
HETATM    9  H   UNL     1     -10.494   8.714  72.447  1.00  0.00     0.000 HD 
BRANCH   7  10
HETATM   10  C   UNL     1     -10.016   8.728  69.879  1.00  0.00    -0.187 C  
BRANCH  10  11
HETATM   11  O   UNL     1      -9.989  10.155  70.023  1.00  0.00    -0.240 OA 
BRANCH  11  12
HETATM   12  C   UNL     1     -10.170  10.915  68.890  1.00  0.00    -0.198 A  
HETATM   13  C   UNL     1     -11.436  11.232  68.376  1.00  0.00    -0.377 A  
HETATM   14  C   UNL     1     -11.576  11.975  67.206  1.00  0.00    -0.383 A  
HETATM   15  C   UNL     1     -10.452  12.394  66.515  1.00  0.00    -0.254 A  
HETATM   16  C   UNL     1      -9.185  12.103  67.016  1.00  0.00    -0.202 A  
HETATM   17  C   UNL     1      -9.023  11.405  68.225  1.00  0.00    -0.175 A  
BRANCH  17  18
HETATM   18  O   UNL     1      -7.781  11.179  68.792  1.00  0.00    -0.121 OA 
BRANCH  18  19
HETATM   19  C   UNL     1      -6.816  10.620  67.891  1.00  0.00    -0.073 C  
BRANCH  19  20
HETATM   20  C   UNL     1      -6.870   9.123  67.906  1.00  0.00    -0.069 C  
HETATM   21  C   UNL     1      -6.862   8.374  66.793  1.00  0.00    -0.069 C  
ENDBRANCH  19  20
ENDBRANCH  18  19
ENDBRANCH  17  18
ENDBRANCH  11  12
ENDBRANCH  10  11
ENDBRANCH   7  10
ENDBRANCH   6   7
ENDBRANCH   4   6
ENDBRANCH   2   4
TORSDOF 9
ENDMDL
MODEL      307
REMARK 921   NORMALIZED FREE ENERGY PREDICTED BY IDOCK:   -2.73 KCAL/MOL
REMARK 922        TOTAL FREE ENERGY PREDICTED BY IDOCK:   -4.94 KCAL/MOL
REMARK 923 INTER-LIGAND FREE ENERGY PREDICTED BY IDOCK:   -4.21 KCAL/MOL
REMARK 924 INTRA-LIGAND FREE ENERGY PREDICTED BY IDOCK:   -0.73 KCAL/MOL
REMARK 927      BINDING AFFINITY PREDICTED BY RF-SCORE:    0.00 PKD
ROOT
HETATM    1  C   UNL     1     -10.000   9.671  66.104  1.00  0.00    -0.346 C  
HETATM    2  C   UNL     1      -8.613   9.833  66.729  1.00  0.00    -0.128 C  
HETATM    3  C   UNL     1      -7.589  10.120  65.625  1.00  0.00    -0.144 C  
ENDROOT
BRANCH   2   4
HETATM    4  N   UNL     1      -8.668  10.908  67.726  1.00  0.00    -0.127 NA 
HETATM    5  H   UNL     1      -9.475  10.795  68.340  1.00  0.00     0.000 HD 
BRANCH   4   6
HETATM    6  C   UNL     1      -7.428  11.029  68.503  1.00  0.00    -0.106 C  
BRANCH   6   7
HETATM    7  C   UNL     1      -7.490  12.189  69.519  1.00  0.00     0.489 C  
HETATM    8  O   UNL     1      -6.438  12.068  70.483  1.00  0.00    -0.513 OA 
HETATM    9  H   UNL     1      -6.477  12.782  71.108  1.00  0.00     0.000 HD 
BRANCH   7  10
HETATM   10  C   UNL     1      -7.385  13.538  68.779  1.00  0.00    -0.086 C  
BRANCH  10  11
HETATM   11  O   UNL     1      -8.535  13.832  67.975  1.00  0.00    -0.155 OA 
BRANCH  11  12
HETATM   12  C   UNL     1      -8.753  15.145  67.624  1.00  0.00    -0.170 A  
HETATM   13  C   UNL     1      -8.228  15.721  66.458  1.00  0.00    -0.278 A  
HETATM   14  C   UNL     1      -8.442  17.065  66.157  1.00  0.00    -0.262 A  
HETATM   15  C   UNL     1      -9.163  17.862  67.029  1.00  0.00    -0.260 A  
HETATM   16  C   UNL     1      -9.705  17.306  68.185  1.00  0.00    -0.284 A  
HETATM   17  C   UNL     1      -9.550  15.940  68.478  1.00  0.00    -0.205 A  
BRANCH  17  18
HETATM   18  O   UNL     1     -10.151  15.341  69.571  1.00  0.00    -0.242 OA 
BRANCH  18  19
HETATM   19  C   UNL     1     -11.082  16.182  70.265  1.00  0.00    -0.369 C  
BRANCH  19  20
HETATM   20  C   UNL     1     -11.885  15.393  71.254  1.00  0.00    -0.437 C  
HETATM   21  C   UNL     1     -13.226  15.411  71.297  1.00  0.00    -0.585 C  
ENDBRANCH  19  20
ENDBRANCH  18  19
ENDBRANCH  17  18
ENDBRANCH  11  12
ENDBRANCH  10  11
ENDBRANCH   7  10
ENDBRANCH   6   7
ENDBRANCH   4   6
ENDBRANCH   2   4
TORSDOF 9
ENDMDL
MODEL      308
REMARK 921   NORMALIZED FREE ENERGY PREDICTED BY IDOCK:   -2.72 KCAL/MOL
REMARK 922        TOTAL FREE ENERGY PREDICTED BY IDOCK:   -4.92 KCAL/MOL
REMARK 923 INTER-LIGAND FREE ENERGY PREDICTED BY IDOCK:   -4.73 KCAL/MOL
REMARK 924 INTRA-LIGAND FREE ENERGY PREDICTED BY IDOCK:   -0.18 KCAL/MOL
REMARK 927      BINDING AFFINITY PREDICTED BY RF-SCORE:    0.00 PKD
ROOT
HETATM    1  C   UNL     1     -13.115  14.168  65.354  1.00  0.00    -0.165 C  
HETATM    2  C   UNL     1     -11.804  14.316  66.129  1.00  0.00    -0.402 C  
HETATM    3  C   UNL     1     -11.032  15.527  65.594  1.00  0.00    -0.307 C  
ENDROOT
BRANCH   2   4
HETATM    4  N   UNL     1     -12.114  14.443  67.558  1.00  0.00    -0.587 NA 
HETATM    5  H   UNL     1     -13.082  14.730  67.697  1.00  0.00     0.000 HD 
BRANCH   4   6
HETATM    6  C   UNL     1     -11.812  13.222  68.317  1.00  0.00    -0.354 C  
BRANCH   6   7
HETATM    7  C   UNL     1     -10.453  12.611  67.918  1.00  0.00    -0.218 C  
HETATM    8  O   UNL     1      -9.516  12.727  68.994  1.00  0.00    -0.378 OA 
HETATM    9  H   UNL     1      -8.678  12.351  68.748  1.00  0.00     0.000 HD 
BRANCH   7  10
HETATM   10  C   UNL     1     -10.639  11.131  67.527  1.00  0.00    -0.221 C  
BRANCH  10  11
HETATM   11  O   UNL     1      -9.563  10.291  67.966  1.00  0.00    -0.144 OA 
BRANCH  11  12
HETATM   12  C   UNL     1      -8.390  10.325  67.245  1.00  0.00    -0.121 A  
HETATM   13  C   UNL     1      -7.138  10.555  67.833  1.00  0.00    -0.083 A  
HETATM   14  C   UNL     1      -5.978  10.616  67.063  1.00  0.00    -0.059 A  
HETATM   15  C   UNL     1      -6.053  10.473  65.689  1.00  0.00    -0.131 A  
HETATM   16  C   UNL     1      -7.285  10.229  65.086  1.00  0.00    -0.125 A  
HETATM   17  C   UNL     1      -8.458  10.106  65.851  1.00  0.00    -0.141 A  
BRANCH  17  18
HETATM   18  O   UNL     1      -9.679   9.776  65.291  1.00  0.00    -0.294 OA 
BRANCH  18  19
HETATM   19  C   UNL     1      -9.871  10.276  63.960  1.00  0.00    -0.218 C  
BRANCH  19  20
HETATM   20  C   UNL     1     -10.275  11.719  63.981  1.00  0.00    -0.387 C  
HETATM   21  C   UNL     1     -11.260  12.220  63.220  1.00  0.00    -0.399 C  
ENDBRANCH  19  20
ENDBRANCH  18  19
ENDBRANCH  17  18
ENDBRANCH  11  12
ENDBRANCH  10  11
ENDBRANCH   7  10
ENDBRANCH   6   7
ENDBRANCH   4   6
ENDBRANCH   2   4
TORSDOF 9
ENDMDL
MODEL      309
REMARK 921   NORMALIZED FREE ENERGY PREDICTED BY IDOCK:   -2.71 KCAL/MOL
REMARK 922        TOTAL FREE ENERGY PREDICTED BY IDOCK:   -4.91 KCAL/MOL
REMARK 923 INTER-LIGAND FREE ENERGY PREDICTED BY IDOCK:   -3.93 KCAL/MOL
REMARK 924 INTRA-LIGAND FREE ENERGY PREDICTED BY IDOCK:   -0.98 KCAL/MOL
REMARK 927      BINDING AFFINITY PREDICTED BY RF-SCORE:    0.00 PKD
ROOT
HETATM    1  C   UNL     1     -13.119   9.808  71.842  1.00  0.00    -0.544 C  
HETATM    2  C   UNL     1     -12.423   8.454  71.988  1.00  0.00    -0.359 C  
HETATM    3  C   UNL     1     -13.363   7.344  71.502  1.00  0.00    -0.435 C  
ENDROOT
BRANCH   2   4
HETATM    4  N   UNL     1     -11.166   8.486  71.231  1.00  0.00    -0.252 NA 
HETATM    5  H   UNL     1     -10.363   8.381  71.851  1.00  0.00     0.000 HD 
BRANCH   4   6
HETATM    6  C   UNL     1     -11.128   7.494  70.148  1.00  0.00    -0.231 C  
BRANCH   6   7
HETATM    7  C   UNL     1      -9.730   7.394  69.503  1.00  0.00    -0.159 C  
HETATM    8  O   UNL     1      -9.808   6.723  68.240  1.00  0.00    -0.139 OA 
HETATM    9  H   UNL     1      -8.947   6.661  67.843  1.00  0.00     0.000 HD 
BRANCH   7  10
HETATM   10  C   UNL     1      -9.134   8.805  69.323  1.00  0.00    -0.145 C  
BRANCH  10  11
HETATM   11  O   UNL     1     -10.100   9.775  68.895  1.00  0.00    -0.169 OA 
BRANCH  11  12
HETATM   12  C   UNL     1      -9.986  10.268  67.615  1.00  0.00    -0.179 A  
HETATM   13  C   UNL     1     -10.424   9.564  66.483  1.00  0.00    -0.201 A  
HETATM   14  C   UNL     1     -10.259  10.083  65.200  1.00  0.00    -0.146 A  
HETATM   15  C   UNL     1      -9.631  11.304  65.025  1.00  0.00    -0.267 A  
HETATM   16  C   UNL     1      -9.201  12.026  66.136  1.00  0.00    -0.181 A  
HETATM   17  C   UNL     1      -9.411  11.547  67.441  1.00  0.00    -0.166 A  
BRANCH  17  18
HETATM   18  O   UNL     1      -9.076  12.281  68.564  1.00  0.00    -0.166 OA 
BRANCH  18  19
HETATM   19  C   UNL     1      -7.702  12.689  68.613  1.00  0.00    -0.066 C  
BRANCH  19  20
HETATM   20  C   UNL     1      -6.922  11.836  69.567  1.00  0.00     0.027 C  
HETATM   21  C   UNL     1      -5.770  12.227  70.133  1.00  0.00    -0.153 C  
ENDBRANCH  19  20
ENDBRANCH  18  19
ENDBRANCH  17  18
ENDBRANCH  11  12
ENDBRANCH  10  11
ENDBRANCH   7  10
ENDBRANCH   6   7
ENDBRANCH   4   6
ENDBRANCH   2   4
TORSDOF 9
ENDMDL
MODEL      310
REMARK 921   NORMALIZED FREE ENERGY PREDICTED BY IDOCK:   -2.70 KCAL/MOL
REMARK 922        TOTAL FREE ENERGY PREDICTED BY IDOCK:   -4.89 KCAL/MOL
REMARK 923 INTER-LIGAND FREE ENERGY PREDICTED BY IDOCK:   -4.16 KCAL/MOL
REMARK 924 INTRA-LIGAND FREE ENERGY PREDICTED BY IDOCK:   -0.73 KCAL/MOL
REMARK 927      BINDING AFFINITY PREDICTED BY RF-SCORE:    0.00 PKD
ROOT
HETATM    1  C   UNL     1      -8.751   6.882  66.574  1.00  0.00    -0.137 C  
HETATM    2  C   UNL     1      -8.709   8.359  66.175  1.00  0.00    -0.151 C  
HETATM    3  C   UNL     1     -10.136   8.917  66.140  1.00  0.00    -0.209 C  
ENDROOT
BRANCH   2   4
HETATM    4  N   UNL     1      -7.856   9.080  67.127  1.00  0.00    -0.098 NA 
HETATM    5  H   UNL     1      -6.873   9.004  66.867  1.00  0.00     0.000 HD 
BRANCH   4   6
HETATM    6  C   UNL     1      -8.250  10.485  67.294  1.00  0.00    -0.119 C  
BRANCH   6   7
HETATM    7  C   UNL     1      -8.241  10.918  68.775  1.00  0.00    -0.151 C  
HETATM    8  O   UNL     1      -8.460  12.329  68.886  1.00  0.00    -0.359 OA 
HETATM    9  H   UNL     1      -8.454  12.595  69.799  1.00  0.00     0.000 HD 
BRANCH   7  10
HETATM   10  C   UNL     1      -9.327  10.146  69.553  1.00  0.00    -0.210 C  
BRANCH  10  11
HETATM   11  O   UNL     1      -8.954   8.793  69.848  1.00  0.00    -0.143 OA 
BRANCH  11  12
HETATM   12  C   UNL     1      -9.120   8.352  71.142  1.00  0.00    -0.174 A  
HETATM   13  C   UNL     1      -8.169   8.567  72.150  1.00  0.00    -0.175 A  
HETATM   14  C   UNL     1      -8.359   8.073  73.439  1.00  0.00    -0.278 A  
HETATM   15  C   UNL     1      -9.492   7.335  73.737  1.00  0.00    -0.313 A  
HETATM   16  C   UNL     1     -10.455   7.123  72.754  1.00  0.00    -0.278 A  
HETATM   17  C   UNL     1     -10.310   7.661  71.464  1.00  0.00    -0.196 A  
BRANCH  17  18
HETATM   18  O   UNL     1     -11.290   7.542  70.494  1.00  0.00    -0.275 OA 
BRANCH  18  19
HETATM   19  C   UNL     1     -10.974   6.614  69.448  1.00  0.00    -0.309 C  
BRANCH  19  20
HETATM   20  C   UNL     1     -10.534   5.298  70.013  1.00  0.00    -0.351 C  
HETATM   21  C   UNL     1      -9.435   4.649  69.599  1.00  0.00    -0.232 C  
ENDBRANCH  19  20
ENDBRANCH  18  19
ENDBRANCH  17  18
ENDBRANCH  11  12
ENDBRANCH  10  11
ENDBRANCH   7  10
ENDBRANCH   6   7
ENDBRANCH   4   6
ENDBRANCH   2   4
TORSDOF 9
ENDMDL
MODEL      311
REMARK 921   NORMALIZED FREE ENERGY PREDICTED BY IDOCK:   -2.69 KCAL/MOL
REMARK 922        TOTAL FREE ENERGY PREDICTED BY IDOCK:   -4.88 KCAL/MOL
REMARK 923 INTER-LIGAND FREE ENERGY PREDICTED BY IDOCK:   -3.85 KCAL/MOL
REMARK 924 INTRA-LIGAND FREE ENERGY PREDICTED BY IDOCK:   -1.03 KCAL/MOL
REMARK 927      BINDING AFFINITY PREDICTED BY RF-SCORE:    0.00 PKD
ROOT
HETATM    1  C   UNL     1      -7.383   8.107  69.704  1.00  0.00    -0.073 C  
HETATM    2  C   UNL     1      -6.358   8.872  68.865  1.00  0.00    -0.044 C  
HETATM    3  C   UNL     1      -6.240   8.215  67.484  1.00  0.00    -0.052 C  
ENDROOT
BRANCH   2   4
HETATM    4  N   UNL     1      -6.775  10.276  68.776  1.00  0.00    -0.052 NA 
HETATM    5  H   UNL     1      -7.138  10.606  69.670  1.00  0.00     0.000 HD 
BRANCH   4   6
HETATM    6  C   UNL     1      -5.709  11.158  68.283  1.00  0.00    -0.045 C  
BRANCH   6   7
HETATM    7  C   UNL     1      -6.232  12.182  67.254  1.00  0.00    -0.152 C  
HETATM    8  O   UNL     1      -6.492  11.544  65.999  1.00  0.00    -0.367 OA 
HETATM    9  H   UNL     1      -6.814  12.174  65.365  1.00  0.00     0.000 HD 
BRANCH   7  10
HETATM   10  C   UNL     1      -7.514  12.852  67.789  1.00  0.00    -0.136 C  
BRANCH  10  11
HETATM   11  O   UNL     1      -8.677  12.023  67.668  1.00  0.00    -0.152 OA 
BRANCH  11  12
HETATM   12  C   UNL     1      -9.892  12.646  67.492  1.00  0.00    -0.203 A  
HETATM   13  C   UNL     1     -10.637  13.182  68.553  1.00  0.00    -0.274 A  
HETATM   14  C   UNL     1     -11.879  13.774  68.336  1.00  0.00    -0.411 A  
HETATM   15  C   UNL     1     -12.410  13.819  67.059  1.00  0.00    -0.289 A  
HETATM   16  C   UNL     1     -11.681  13.306  65.989  1.00  0.00    -0.408 A  
HETATM   17  C   UNL     1     -10.401  12.757  66.178  1.00  0.00    -0.269 A  
BRANCH  17  18
HETATM   18  O   UNL     1      -9.617  12.321  65.125  1.00  0.00    -0.143 OA 
BRANCH  18  19
HETATM   19  C   UNL     1     -10.187  11.240  64.375  1.00  0.00    -0.320 C  
BRANCH  19  20
HETATM   20  C   UNL     1      -9.135  10.247  63.980  1.00  0.00    -0.283 C  
HETATM   21  C   UNL     1      -8.293  10.434  62.953  1.00  0.00    -0.180 C  
ENDBRANCH  19  20
ENDBRANCH  18  19
ENDBRANCH  17  18
ENDBRANCH  11  12
ENDBRANCH  10  11
ENDBRANCH   7  10
ENDBRANCH   6   7
ENDBRANCH   4   6
ENDBRANCH   2   4
TORSDOF 9
ENDMDL
MODEL      312
REMARK 921   NORMALIZED FREE ENERGY PREDICTED BY IDOCK:   -2.68 KCAL/MOL
REMARK 922        TOTAL FREE ENERGY PREDICTED BY IDOCK:   -4.86 KCAL/MOL
REMARK 923 INTER-LIGAND FREE ENERGY PREDICTED BY IDOCK:   -3.43 KCAL/MOL
REMARK 924 INTRA-LIGAND FREE ENERGY PREDICTED BY IDOCK:   -1.43 KCAL/MOL
REMARK 927      BINDING AFFINITY PREDICTED BY RF-SCORE:    0.00 PKD
ROOT
HETATM    1  C   UNL     1      -7.611  10.396  69.633  1.00  0.00    -0.158 C  
HETATM    2  C   UNL     1      -7.387  11.387  68.489  1.00  0.00    -0.105 C  
HETATM    3  C   UNL     1      -5.982  11.989  68.605  1.00  0.00    -0.054 C  
ENDROOT
BRANCH   2   4
HETATM    4  N   UNL     1      -7.585  10.686  67.214  1.00  0.00    -0.098 NA 
HETATM    5  H   UNL     1      -8.362  11.091  66.692  1.00  0.00     0.000 HD 
BRANCH   4   6
HETATM    6  C   UNL     1      -6.367  10.639  66.395  1.00  0.00    -0.109 C  
BRANCH   6   7
HETATM    7  C   UNL     1      -5.877   9.194  66.167  1.00  0.00    -0.054 C  
HETATM    8  O   UNL     1      -5.895   8.459  67.396  1.00  0.00    -0.041 OA 
HETATM    9  H   UNL     1      -5.593   7.569  67.255  1.00  0.00     0.000 HD 
BRANCH   7  10
HETATM   10  C   UNL     1      -6.765   8.499  65.115  1.00  0.00    -0.064 C  
BRANCH  10  11
HETATM   11  O   UNL     1      -8.164   8.758  65.298  1.00  0.00    -0.127 OA 
BRANCH  11  12
HETATM   12  C   UNL     1      -8.934   7.756  65.845  1.00  0.00    -0.113 A  
HETATM   13  C   UNL     1      -8.658   6.393  65.658  1.00  0.00    -0.138 A  
HETATM   14  C   UNL     1      -9.482   5.409  66.199  1.00  0.00    -0.171 A  
HETATM   15  C   UNL     1     -10.610   5.769  66.916  1.00  0.00    -0.377 A  
HETATM   16  C   UNL     1     -10.894   7.116  67.125  1.00  0.00    -0.403 A  
HETATM   17  C   UNL     1     -10.044   8.124  66.637  1.00  0.00    -0.273 A  
BRANCH  17  18
HETATM   18  O   UNL     1     -10.252   9.465  66.904  1.00  0.00    -0.224 OA 
BRANCH  18  19
HETATM   19  C   UNL     1     -10.924   9.721  68.145  1.00  0.00    -0.175 C  
BRANCH  19  20
HETATM   20  C   UNL     1     -11.503  11.104  68.167  1.00  0.00    -0.373 C  
HETATM   21  C   UNL     1     -11.220  12.036  67.245  1.00  0.00    -0.371 C  
ENDBRANCH  19  20
ENDBRANCH  18  19
ENDBRANCH  17  18
ENDBRANCH  11  12
ENDBRANCH  10  11
ENDBRANCH   7  10
ENDBRANCH   6   7
ENDBRANCH   4   6
ENDBRANCH   2   4
TORSDOF 9
ENDMDL
MODEL      313
REMARK 921   NORMALIZED FREE ENERGY PREDICTED BY IDOCK:   -2.67 KCAL/MOL
REMARK 922        TOTAL FREE ENERGY PREDICTED BY IDOCK:   -4.85 KCAL/MOL
REMARK 923 INTER-LIGAND FREE ENERGY PREDICTED BY IDOCK:   -4.02 KCAL/MOL
REMARK 924 INTRA-LIGAND FREE ENERGY PREDICTED BY IDOCK:   -0.83 KCAL/MOL
REMARK 927      BINDING AFFINITY PREDICTED BY RF-SCORE:    0.00 PKD
ROOT
HETATM    1  C   UNL     1     -12.329   9.706  70.950  1.00  0.00    -0.346 C  
HETATM    2  C   UNL     1     -12.440   8.654  72.055  1.00  0.00    -0.373 C  
HETATM    3  C   UNL     1     -12.933   7.333  71.451  1.00  0.00    -0.420 C  
ENDROOT
BRANCH   2   4
HETATM    4  N   UNL     1     -11.131   8.511  72.704  1.00  0.00    -0.259 NA 
HETATM    5  H   UNL     1     -11.009   7.570  73.077  1.00  0.00     0.000 HD 
BRANCH   4   6
HETATM    6  C   UNL     1     -10.015   8.877  71.821  1.00  0.00    -0.327 C  
BRANCH   6   7
HETATM    7  C   UNL     1      -8.648   8.504  72.431  1.00  0.00    -0.152 C  
HETATM    8  O   UNL     1      -8.695   8.591  73.859  1.00  0.00    -0.254 OA 
HETATM    9  H   UNL     1      -7.853   8.362  74.234  1.00  0.00     0.000 HD 
BRANCH   7  10
HETATM   10  C   UNL     1      -8.251   7.079  71.994  1.00  0.00    -0.101 C  
BRANCH  10  11
HETATM   11  O   UNL     1      -9.363   6.301  71.529  1.00  0.00    -0.149 OA 
BRANCH  11  12
HETATM   12  C   UNL     1      -9.795   5.264  72.325  1.00  0.00    -0.168 A  
HETATM   13  C   UNL     1     -10.058   5.411  73.695  1.00  0.00    -0.213 A  
HETATM   14  C   UNL     1     -10.461   4.327  74.473  1.00  0.00    -0.284 A  
HETATM   15  C   UNL     1     -10.583   3.073  73.901  1.00  0.00    -0.267 A  
HETATM   16  C   UNL     1     -10.341   2.909  72.539  1.00  0.00    -0.189 A  
HETATM   17  C   UNL     1      -9.991   4.000  71.725  1.00  0.00    -0.170 A  
BRANCH  17  18
HETATM   18  O   UNL     1      -9.831   3.884  70.356  1.00  0.00    -0.196 OA 
BRANCH  18  19
HETATM   19  C   UNL     1      -8.482   3.632  69.939  1.00  0.00    -0.056 C  
BRANCH  19  20
HETATM   20  C   UNL     1      -8.182   2.163  69.953  1.00  0.00    -0.062 C  
HETATM   21  C   UNL     1      -6.942   1.663  69.851  1.00  0.00    -0.033 C  
ENDBRANCH  19  20
ENDBRANCH  18  19
ENDBRANCH  17  18
ENDBRANCH  11  12
ENDBRANCH  10  11
ENDBRANCH   7  10
ENDBRANCH   6   7
ENDBRANCH   4   6
ENDBRANCH   2   4
TORSDOF 9
ENDMDL
MODEL      314
REMARK 921   NORMALIZED FREE ENERGY PREDICTED BY IDOCK:   -2.67 KCAL/MOL
REMARK 922        TOTAL FREE ENERGY PREDICTED BY IDOCK:   -4.84 KCAL/MOL
REMARK 923 INTER-LIGAND FREE ENERGY PREDICTED BY IDOCK:   -4.07 KCAL/MOL
REMARK 924 INTRA-LIGAND FREE ENERGY PREDICTED BY IDOCK:   -0.77 KCAL/MOL
REMARK 927      BINDING AFFINITY PREDICTED BY RF-SCORE:    0.00 PKD
ROOT
HETATM    1  C   UNL     1      -8.697  15.917  69.266  1.00  0.00    -0.250 C  
HETATM    2  C   UNL     1      -9.106  15.333  67.913  1.00  0.00    -0.175 C  
HETATM    3  C   UNL     1      -7.878  14.718  67.232  1.00  0.00    -0.223 C  
ENDROOT
BRANCH   2   4
HETATM    4  N   UNL     1     -10.171  14.347  68.129  1.00  0.00    -0.228 NA 
HETATM    5  H   UNL     1     -11.090  14.788  68.095  1.00  0.00     0.000 HD 
BRANCH   4   6
HETATM    6  C   UNL     1     -10.097  13.214  67.196  1.00  0.00    -0.242 C  
BRANCH   6   7
HETATM    7  C   UNL     1     -11.398  12.386  67.184  1.00  0.00    -0.329 C  
HETATM    8  O   UNL     1     -12.322  12.918  66.229  1.00  0.00    -0.477 OA 
HETATM    9  H   UNL     1     -13.124  12.408  66.222  1.00  0.00     0.000 HD 
BRANCH   7  10
HETATM   10  C   UNL     1     -11.077  10.913  66.855  1.00  0.00    -0.167 C  
BRANCH  10  11
HETATM   11  O   UNL     1     -11.065  10.066  68.012  1.00  0.00    -0.266 OA 
BRANCH  11  12
HETATM   12  C   UNL     1     -10.383   8.874  67.925  1.00  0.00    -0.230 A  
HETATM   13  C   UNL     1     -10.452   8.034  66.803  1.00  0.00    -0.319 A  
HETATM   14  C   UNL     1      -9.773   6.818  66.768  1.00  0.00    -0.222 A  
HETATM   15  C   UNL     1      -9.034   6.408  67.864  1.00  0.00    -0.114 A  
HETATM   16  C   UNL     1      -8.940   7.233  68.982  1.00  0.00    -0.134 A  
HETATM   17  C   UNL     1      -9.569   8.490  69.014  1.00  0.00    -0.167 A  
BRANCH  17  18
HETATM   18  O   UNL     1      -9.421   9.368  70.073  1.00  0.00    -0.195 OA 
BRANCH  18  19
HETATM   19  C   UNL     1      -8.070   9.787  70.306  1.00  0.00    -0.154 C  
BRANCH  19  20
HETATM   20  C   UNL     1      -7.592  10.690  69.210  1.00  0.00    -0.138 C  
HETATM   21  C   UNL     1      -6.353  10.636  68.698  1.00  0.00    -0.046 C  
ENDBRANCH  19  20
ENDBRANCH  18  19
ENDBRANCH  17  18
ENDBRANCH  11  12
ENDBRANCH  10  11
ENDBRANCH   7  10
ENDBRANCH   6   7
ENDBRANCH   4   6
ENDBRANCH   2   4
TORSDOF 9
ENDMDL
MODEL      315
REMARK 921   NORMALIZED FREE ENERGY PREDICTED BY IDOCK:   -2.66 KCAL/MOL
REMARK 922        TOTAL FREE ENERGY PREDICTED BY IDOCK:   -4.83 KCAL/MOL
REMARK 923 INTER-LIGAND FREE ENERGY PREDICTED BY IDOCK:   -4.16 KCAL/MOL
REMARK 924 INTRA-LIGAND FREE ENERGY PREDICTED BY IDOCK:   -0.67 KCAL/MOL
REMARK 927      BINDING AFFINITY PREDICTED BY RF-SCORE:    0.00 PKD
ROOT
HETATM    1  C   UNL     1      -5.814  18.821  69.251  1.00  0.00    -0.237 C  
HETATM    2  C   UNL     1      -7.283  18.650  68.858  1.00  0.00    -0.285 C  
HETATM    3  C   UNL     1      -7.652  19.701  67.804  1.00  0.00    -0.313 C  
ENDROOT
BRANCH   2   4
HETATM    4  N   UNL     1      -7.484  17.281  68.370  1.00  0.00    -0.224 NA 
HETATM    5  H   UNL     1      -6.665  16.702  68.559  1.00  0.00     0.000 HD 
BRANCH   4   6
HETATM    6  C   UNL     1      -8.703  16.659  68.903  1.00  0.00    -0.238 C  
BRANCH   6   7
HETATM    7  C   UNL     1      -9.668  16.220  67.782  1.00  0.00    -0.233 C  
HETATM    8  O   UNL     1     -10.442  17.333  67.322  1.00  0.00    -0.334 OA 
HETATM    9  H   UNL     1     -11.036  17.062  66.632  1.00  0.00     0.000 HD 
BRANCH   7  10
HETATM   10  C   UNL     1      -8.868  15.605  66.615  1.00  0.00    -0.292 C  
BRANCH  10  11
HETATM   11  O   UNL     1      -8.903  14.171  66.600  1.00  0.00    -0.209 OA 
BRANCH  11  12
HETATM   12  C   UNL     1      -8.008  13.501  67.402  1.00  0.00    -0.156 A  
HETATM   13  C   UNL     1      -6.696  13.948  67.621  1.00  0.00    -0.189 A  
HETATM   14  C   UNL     1      -5.808  13.221  68.412  1.00  0.00    -0.087 A  
HETATM   15  C   UNL     1      -6.208  12.023  68.977  1.00  0.00    -0.079 A  
HETATM   16  C   UNL     1      -7.511  11.568  68.784  1.00  0.00    -0.119 A  
HETATM   17  C   UNL     1      -8.439  12.315  68.037  1.00  0.00    -0.171 A  
BRANCH  17  18
HETATM   18  O   UNL     1      -9.762  11.934  67.902  1.00  0.00    -0.181 OA 
BRANCH  18  19
HETATM   19  C   UNL     1      -9.967  10.817  67.027  1.00  0.00    -0.197 C  
BRANCH  19  20
HETATM   20  C   UNL     1     -10.344   9.591  67.801  1.00  0.00    -0.291 C  
HETATM   21  C   UNL     1     -10.566   8.398  67.229  1.00  0.00    -0.328 C  
ENDBRANCH  19  20
ENDBRANCH  18  19
ENDBRANCH  17  18
ENDBRANCH  11  12
ENDBRANCH  10  11
ENDBRANCH   7  10
ENDBRANCH   6   7
ENDBRANCH   4   6
ENDBRANCH   2   4
TORSDOF 9
ENDMDL
MODEL      316
REMARK 921   NORMALIZED FREE ENERGY PREDICTED BY IDOCK:   -2.65 KCAL/MOL
REMARK 922        TOTAL FREE ENERGY PREDICTED BY IDOCK:   -4.82 KCAL/MOL
REMARK 923 INTER-LIGAND FREE ENERGY PREDICTED BY IDOCK:   -4.09 KCAL/MOL
REMARK 924 INTRA-LIGAND FREE ENERGY PREDICTED BY IDOCK:   -0.73 KCAL/MOL
REMARK 927      BINDING AFFINITY PREDICTED BY RF-SCORE:    0.00 PKD
ROOT
HETATM    1  C   UNL     1      -6.778  12.891  68.298  1.00  0.00    -0.093 C  
HETATM    2  C   UNL     1      -6.514  11.586  69.052  1.00  0.00    -0.076 C  
HETATM    3  C   UNL     1      -5.483  11.837  70.158  1.00  0.00    -0.116 C  
ENDROOT
BRANCH   2   4
HETATM    4  N   UNL     1      -7.786  11.085  69.584  1.00  0.00    -0.364 NA 
HETATM    5  H   UNL     1      -8.496  11.040  68.853  1.00  0.00     0.000 HD 
BRANCH   4   6
HETATM    6  C   UNL     1      -7.649   9.790  70.264  1.00  0.00    -0.172 C  
BRANCH   6   7
HETATM    7  C   UNL     1      -7.742   8.605  69.280  1.00  0.00    -0.096 C  
HETATM    8  O   UNL     1      -8.743   7.675  69.708  1.00  0.00    -0.138 OA 
HETATM    9  H   UNL     1      -8.800   6.945  69.101  1.00  0.00     0.000 HD 
BRANCH   7  10
HETATM   10  C   UNL     1      -8.065   9.126  67.864  1.00  0.00    -0.105 C  
BRANCH  10  11
HETATM   11  O   UNL     1      -9.370   9.712  67.763  1.00  0.00    -0.128 OA 
BRANCH  11  12
HETATM   12  C   UNL     1      -9.667  10.416  66.618  1.00  0.00    -0.190 A  
HETATM   13  C   UNL     1      -9.697   9.827  65.345  1.00  0.00    -0.383 A  
HETATM   14  C   UNL     1      -9.969  10.581  64.206  1.00  0.00    -0.398 A  
HETATM   15  C   UNL     1     -10.190  11.943  64.316  1.00  0.00    -0.346 A  
HETATM   16  C   UNL     1     -10.179  12.546  65.571  1.00  0.00    -0.295 A  
HETATM   17  C   UNL     1      -9.965  11.792  66.738  1.00  0.00    -0.201 A  
BRANCH  17  18
HETATM   18  O   UNL     1     -10.036  12.346  68.004  1.00  0.00    -0.202 OA 
BRANCH  18  19
HETATM   19  C   UNL     1     -11.186  13.175  68.220  1.00  0.00    -0.274 C  
BRANCH  19  20
HETATM   20  C   UNL     1     -10.848  14.622  68.028  1.00  0.00    -0.260 C  
HETATM   21  C   UNL     1     -10.477  15.432  69.031  1.00  0.00    -0.249 C  
ENDBRANCH  19  20
ENDBRANCH  18  19
ENDBRANCH  17  18
ENDBRANCH  11  12
ENDBRANCH  10  11
ENDBRANCH   7  10
ENDBRANCH   6   7
ENDBRANCH   4   6
ENDBRANCH   2   4
TORSDOF 9
ENDMDL
MODEL      317
REMARK 921   NORMALIZED FREE ENERGY PREDICTED BY IDOCK:   -2.65 KCAL/MOL
REMARK 922        TOTAL FREE ENERGY PREDICTED BY IDOCK:   -4.81 KCAL/MOL
REMARK 923 INTER-LIGAND FREE ENERGY PREDICTED BY IDOCK:   -4.19 KCAL/MOL
REMARK 924 INTRA-LIGAND FREE ENERGY PREDICTED BY IDOCK:   -0.63 KCAL/MOL
REMARK 927      BINDING AFFINITY PREDICTED BY RF-SCORE:    0.00 PKD
ROOT
HETATM    1  C   UNL     1      -6.875  10.834  66.848  1.00  0.00    -0.101 C  
HETATM    2  C   UNL     1      -8.177  10.707  66.056  1.00  0.00    -0.158 C  
HETATM    3  C   UNL     1      -8.076   9.511  65.101  1.00  0.00    -0.126 C  
ENDROOT
BRANCH   2   4
HETATM    4  N   UNL     1      -9.291  10.567  67.001  1.00  0.00    -0.154 NA 
HETATM    5  H   UNL     1      -9.948  11.342  66.908  1.00  0.00     0.000 HD 
BRANCH   4   6
HETATM    6  C   UNL     1      -9.981   9.275  66.883  1.00  0.00    -0.233 C  
BRANCH   6   7
HETATM    7  C   UNL     1      -9.982   8.495  68.214  1.00  0.00    -0.184 C  
HETATM    8  O   UNL     1     -10.685   9.227  69.223  1.00  0.00    -0.225 OA 
HETATM    9  H   UNL     1     -10.686   8.746  70.043  1.00  0.00     0.000 HD 
BRANCH   7  10
HETATM   10  C   UNL     1     -10.631   7.110  68.008  1.00  0.00    -0.196 C  
BRANCH  10  11
HETATM   11  O   UNL     1     -11.092   6.516  69.228  1.00  0.00    -0.300 OA 
BRANCH  11  12
HETATM   12  C   UNL     1     -10.466   5.367  69.657  1.00  0.00    -0.291 A  
HETATM   13  C   UNL     1      -9.849   4.461  68.782  1.00  0.00    -0.149 A  
HETATM   14  C   UNL     1      -9.256   3.291  69.252  1.00  0.00    -0.218 A  
HETATM   15  C   UNL     1      -9.292   2.995  70.604  1.00  0.00    -0.221 A  
HETATM   16  C   UNL     1      -9.887   3.887  71.492  1.00  0.00    -0.247 A  
HETATM   17  C   UNL     1     -10.439   5.100  71.044  1.00  0.00    -0.171 A  
BRANCH  17  18
HETATM   18  O   UNL     1     -10.956   6.046  71.911  1.00  0.00    -0.243 OA 
BRANCH  18  19
HETATM   19  C   UNL     1     -10.825   5.707  73.299  1.00  0.00    -0.282 C  
BRANCH  19  20
HETATM   20  C   UNL     1      -9.979   6.713  74.019  1.00  0.00    -0.346 C  
HETATM   21  C   UNL     1      -9.534   7.844  73.451  1.00  0.00    -0.341 C  
ENDBRANCH  19  20
ENDBRANCH  18  19
ENDBRANCH  17  18
ENDBRANCH  11  12
ENDBRANCH  10  11
ENDBRANCH   7  10
ENDBRANCH   6   7
ENDBRANCH   4   6
ENDBRANCH   2   4
TORSDOF 9
ENDMDL
MODEL      318
REMARK 921   NORMALIZED FREE ENERGY PREDICTED BY IDOCK:   -2.63 KCAL/MOL
REMARK 922        TOTAL FREE ENERGY PREDICTED BY IDOCK:   -4.79 KCAL/MOL
REMARK 923 INTER-LIGAND FREE ENERGY PREDICTED BY IDOCK:   -4.20 KCAL/MOL
REMARK 924 INTRA-LIGAND FREE ENERGY PREDICTED BY IDOCK:   -0.59 KCAL/MOL
REMARK 927      BINDING AFFINITY PREDICTED BY RF-SCORE:    0.00 PKD
ROOT
HETATM    1  C   UNL     1     -11.696  15.594  69.385  1.00  0.00    -0.395 C  
HETATM    2  C   UNL     1     -11.797  14.789  70.682  1.00  0.00    -0.305 C  
HETATM    3  C   UNL     1     -13.171  15.025  71.321  1.00  0.00    -0.502 C  
ENDROOT
BRANCH   2   4
HETATM    4  N   UNL     1     -11.565  13.372  70.376  1.00  0.00    -0.525 NA 
HETATM    5  H   UNL     1     -10.588  13.122  70.526  1.00  0.00     0.000 HD 
BRANCH   4   6
HETATM    6  C   UNL     1     -12.458  12.475  71.121  1.00  0.00    -0.223 C  
BRANCH   6   7
HETATM    7  C   UNL     1     -12.216  10.992  70.768  1.00  0.00    -0.380 C  
HETATM    8  O   UNL     1     -13.435  10.248  70.870  1.00  0.00    -0.338 OA 
HETATM    9  H   UNL     1     -13.286   9.334  70.652  1.00  0.00     0.000 HD 
BRANCH   7  10
HETATM   10  C   UNL     1     -11.639  10.882  69.342  1.00  0.00    -0.316 C  
BRANCH  10  11
HETATM   11  O   UNL     1     -10.347  10.260  69.303  1.00  0.00    -0.203 OA 
BRANCH  11  12
HETATM   12  C   UNL     1      -9.776  10.050  68.068  1.00  0.00    -0.139 A  
HETATM   13  C   UNL     1     -10.517   9.675  66.937  1.00  0.00    -0.282 A  
HETATM   14  C   UNL     1      -9.896   9.438  65.713  1.00  0.00    -0.345 A  
HETATM   15  C   UNL     1      -8.520   9.546  65.603  1.00  0.00    -0.143 A  
HETATM   16  C   UNL     1      -7.767   9.930  66.710  1.00  0.00    -0.099 A  
HETATM   17  C   UNL     1      -8.381  10.231  67.939  1.00  0.00    -0.114 A  
BRANCH  17  18
HETATM   18  O   UNL     1      -7.670  10.700  69.029  1.00  0.00    -0.110 OA 
BRANCH  18  19
HETATM   19  C   UNL     1      -6.832  11.828  68.745  1.00  0.00    -0.095 C  
BRANCH  19  20
HETATM   20  C   UNL     1      -6.119  12.292  69.979  1.00  0.00    -0.130 C  
HETATM   21  C   UNL     1      -6.433  13.422  70.631  1.00  0.00     0.439 C  
ENDBRANCH  19  20
ENDBRANCH  18  19
ENDBRANCH  17  18
ENDBRANCH  11  12
ENDBRANCH  10  11
ENDBRANCH   7  10
ENDBRANCH   6   7
ENDBRANCH   4   6
ENDBRANCH   2   4
TORSDOF 9
ENDMDL
MODEL      319
REMARK 921   NORMALIZED FREE ENERGY PREDICTED BY IDOCK:   -2.62 KCAL/MOL
REMARK 922        TOTAL FREE ENERGY PREDICTED BY IDOCK:   -4.78 KCAL/MOL
REMARK 923 INTER-LIGAND FREE ENERGY PREDICTED BY IDOCK:   -3.77 KCAL/MOL
REMARK 924 INTRA-LIGAND FREE ENERGY PREDICTED BY IDOCK:   -1.01 KCAL/MOL
REMARK 927      BINDING AFFINITY PREDICTED BY RF-SCORE:    0.00 PKD
ROOT
HETATM    1  C   UNL     1      -7.049  10.739  66.910  1.00  0.00    -0.114 C  
HETATM    2  C   UNL     1      -8.048  10.429  65.793  1.00  0.00    -0.155 C  
HETATM    3  C   UNL     1      -7.683   9.090  65.142  1.00  0.00    -0.101 C  
ENDROOT
BRANCH   2   4
HETATM    4  N   UNL     1      -9.401  10.418  66.361  1.00  0.00    -0.161 NA 
HETATM    5  H   UNL     1     -10.010  11.070  65.867  1.00  0.00     0.000 HD 
BRANCH   4   6
HETATM    6  C   UNL     1      -9.992   9.074  66.401  1.00  0.00    -0.300 C  
BRANCH   6   7
HETATM    7  C   UNL     1     -10.111   8.535  67.842  1.00  0.00    -0.207 C  
HETATM    8  O   UNL     1     -11.482   8.496  68.250  1.00  0.00     0.102 OA 
HETATM    9  H   UNL     1     -11.556   8.164  69.138  1.00  0.00     0.000 HD 
BRANCH   7  10
HETATM   10  C   UNL     1      -9.486   7.127  67.927  1.00  0.00    -0.130 C  
BRANCH  10  11
HETATM   11  O   UNL     1     -10.167   6.263  68.847  1.00  0.00    -0.156 OA 
BRANCH  11  12
HETATM   12  C   UNL     1      -9.847   6.372  70.182  1.00  0.00    -0.167 A  
HETATM   13  C   UNL     1      -8.554   6.149  70.679  1.00  0.00    -0.135 A  
HETATM   14  C   UNL     1      -8.280   6.235  72.042  1.00  0.00    -0.110 A  
HETATM   15  C   UNL     1      -9.298   6.521  72.935  1.00  0.00    -0.144 A  
HETATM   16  C   UNL     1     -10.586   6.759  72.462  1.00  0.00    -0.249 A  
HETATM   17  C   UNL     1     -10.871   6.734  71.085  1.00  0.00    -0.238 A  
BRANCH  17  18
HETATM   18  O   UNL     1     -12.119   7.054  70.580  1.00  0.00    -0.313 OA 
BRANCH  18  19
HETATM   19  C   UNL     1     -13.093   7.382  71.579  1.00  0.00    -0.374 C  
BRANCH  19  20
HETATM   20  C   UNL     1     -13.680   8.739  71.332  1.00  0.00    -0.311 C  
HETATM   21  C   UNL     1     -12.976   9.876  71.433  1.00  0.00    -0.504 C  
ENDBRANCH  19  20
ENDBRANCH  18  19
ENDBRANCH  17  18
ENDBRANCH  11  12
ENDBRANCH  10  11
ENDBRANCH   7  10
ENDBRANCH   6   7
ENDBRANCH   4   6
ENDBRANCH   2   4
TORSDOF 9
ENDMDL
MODEL      320
REMARK 921   NORMALIZED FREE ENERGY PREDICTED BY IDOCK:   -2.62 KCAL/MOL
REMARK 922        TOTAL FREE ENERGY PREDICTED BY IDOCK:   -4.77 KCAL/MOL
REMARK 923 INTER-LIGAND FREE ENERGY PREDICTED BY IDOCK:   -4.04 KCAL/MOL
REMARK 924 INTRA-LIGAND FREE ENERGY PREDICTED BY IDOCK:   -0.73 KCAL/MOL
REMARK 927      BINDING AFFINITY PREDICTED BY RF-SCORE:    0.00 PKD
ROOT
HETATM    1  C   UNL     1     -14.001  15.008  71.458  1.00  0.00    -0.590 C  
HETATM    2  C   UNL     1     -12.580  14.458  71.327  1.00  0.00    -0.351 C  
HETATM    3  C   UNL     1     -12.642  12.990  70.886  1.00  0.00    -0.364 C  
ENDROOT
BRANCH   2   4
HETATM    4  N   UNL     1     -11.838  15.291  70.373  1.00  0.00    -0.296 NA 
HETATM    5  H   UNL     1     -10.842  15.077  70.400  1.00  0.00     0.000 HD 
BRANCH   4   6
HETATM    6  C   UNL     1     -12.361  15.193  69.004  1.00  0.00    -0.015 C  
BRANCH   6   7
HETATM    7  C   UNL     1     -11.355  15.719  67.959  1.00  0.00    -0.310 C  
HETATM    8  O   UNL     1     -10.987  17.070  68.254  1.00  0.00    -0.365 OA 
HETATM    9  H   UNL     1     -10.367  17.394  67.610  1.00  0.00     0.000 HD 
BRANCH   7  10
HETATM   10  C   UNL     1     -10.104  14.816  67.938  1.00  0.00    -0.221 C  
BRANCH  10  11
HETATM   11  O   UNL     1      -9.113  15.202  68.901  1.00  0.00    -0.186 OA 
BRANCH  11  12
HETATM   12  C   UNL     1      -7.894  14.564  68.854  1.00  0.00    -0.134 A  
HETATM   13  C   UNL     1      -7.696  13.342  68.195  1.00  0.00    -0.143 A  
HETATM   14  C   UNL     1      -6.453  12.711  68.201  1.00  0.00    -0.080 A  
HETATM   15  C   UNL     1      -5.394  13.278  68.888  1.00  0.00    -0.073 A  
HETATM   16  C   UNL     1      -5.566  14.498  69.537  1.00  0.00    -0.092 A  
HETATM   17  C   UNL     1      -6.795  15.179  69.494  1.00  0.00    -0.179 A  
BRANCH  17  18
HETATM   18  O   UNL     1      -6.970  16.433  70.053  1.00  0.00     0.090 OA 
BRANCH  18  19
HETATM   19  C   UNL     1      -6.946  17.509  69.106  1.00  0.00    -0.211 C  
BRANCH  19  20
HETATM   20  C   UNL     1      -6.017  18.597  69.553  1.00  0.00    -0.267 C  
HETATM   21  C   UNL     1      -5.248  18.506  70.648  1.00  0.00    -0.257 C  
ENDBRANCH  19  20
ENDBRANCH  18  19
ENDBRANCH  17  18
ENDBRANCH  11  12
ENDBRANCH  10  11
ENDBRANCH   7  10
ENDBRANCH   6   7
ENDBRANCH   4   6
ENDBRANCH   2   4
TORSDOF 9
ENDMDL
MODEL      321
REMARK 921   NORMALIZED FREE ENERGY PREDICTED BY IDOCK:   -2.62 KCAL/MOL
REMARK 922        TOTAL FREE ENERGY PREDICTED BY IDOCK:   -4.77 KCAL/MOL
REMARK 923 INTER-LIGAND FREE ENERGY PREDICTED BY IDOCK:   -4.06 KCAL/MOL
REMARK 924 INTRA-LIGAND FREE ENERGY PREDICTED BY IDOCK:   -0.72 KCAL/MOL
REMARK 927      BINDING AFFINITY PREDICTED BY RF-SCORE:    0.00 PKD
ROOT
HETATM    1  C   UNL     1      -5.628  13.679  67.671  1.00  0.00    -0.015 C  
HETATM    2  C   UNL     1      -5.984  12.419  68.462  1.00  0.00    -0.055 C  
HETATM    3  C   UNL     1      -6.303  12.802  69.912  1.00  0.00    -0.030 C  
ENDROOT
BRANCH   2   4
HETATM    4  N   UNL     1      -7.115  11.754  67.804  1.00  0.00    -0.088 NA 
HETATM    5  H   UNL     1      -7.037  10.740  67.881  1.00  0.00     0.000 HD 
BRANCH   4   6
HETATM    6  C   UNL     1      -8.417  12.220  68.300  1.00  0.00    -0.173 C  
BRANCH   6   7
HETATM    7  C   UNL     1      -9.594  11.564  67.547  1.00  0.00    -0.172 C  
HETATM    8  O   UNL     1      -9.197  10.302  66.999  1.00  0.00    -0.148 OA 
HETATM    9  H   UNL     1      -9.921   9.898  66.535  1.00  0.00     0.000 HD 
BRANCH   7  10
HETATM   10  C   UNL     1     -10.790  11.381  68.503  1.00  0.00    -0.211 C  
BRANCH  10  11
HETATM   11  O   UNL     1     -10.422  10.795  69.760  1.00  0.00    -0.198 OA 
BRANCH  11  12
HETATM   12  C   UNL     1     -11.404  10.149  70.476  1.00  0.00    -0.338 A  
HETATM   13  C   UNL     1     -12.456  10.824  71.113  1.00  0.00    -0.519 A  
HETATM   14  C   UNL     1     -13.411  10.135  71.858  1.00  0.00    -0.505 A  
HETATM   15  C   UNL     1     -13.318   8.762  71.999  1.00  0.00    -0.455 A  
HETATM   16  C   UNL     1     -12.290   8.070  71.363  1.00  0.00    -0.328 A  
HETATM   17  C   UNL     1     -11.350   8.739  70.560  1.00  0.00    -0.227 A  
BRANCH  17  18
HETATM   18  O   UNL     1     -10.373   8.070  69.845  1.00  0.00    -0.210 OA 
BRANCH  18  19
HETATM   19  C   UNL     1      -9.385   7.425  70.660  1.00  0.00    -0.160 C  
BRANCH  19  20
HETATM   20  C   UNL     1      -8.049   8.088  70.509  1.00  0.00    -0.105 C  
HETATM   21  C   UNL     1      -7.408   8.693  71.520  1.00  0.00    -0.118 C  
ENDBRANCH  19  20
ENDBRANCH  18  19
ENDBRANCH  17  18
ENDBRANCH  11  12
ENDBRANCH  10  11
ENDBRANCH   7  10
ENDBRANCH   6   7
ENDBRANCH   4   6
ENDBRANCH   2   4
TORSDOF 9
ENDMDL
MODEL      322
REMARK 921   NORMALIZED FREE ENERGY PREDICTED BY IDOCK:   -2.62 KCAL/MOL
REMARK 922        TOTAL FREE ENERGY PREDICTED BY IDOCK:   -4.77 KCAL/MOL
REMARK 923 INTER-LIGAND FREE ENERGY PREDICTED BY IDOCK:   -4.03 KCAL/MOL
REMARK 924 INTRA-LIGAND FREE ENERGY PREDICTED BY IDOCK:   -0.75 KCAL/MOL
REMARK 927      BINDING AFFINITY PREDICTED BY RF-SCORE:    0.00 PKD
ROOT
HETATM    1  C   UNL     1      -9.054   6.696  68.030  1.00  0.00    -0.114 C  
HETATM    2  C   UNL     1      -8.352   7.114  69.323  1.00  0.00    -0.133 C  
HETATM    3  C   UNL     1      -6.967   7.683  68.989  1.00  0.00    -0.069 C  
ENDROOT
BRANCH   2   4
HETATM    4  N   UNL     1      -9.196   8.089  70.023  1.00  0.00    -0.155 NA 
HETATM    5  H   UNL     1      -8.628   8.751  70.552  1.00  0.00     0.000 HD 
BRANCH   4   6
HETATM    6  C   UNL     1     -10.122   8.791  69.123  1.00  0.00    -0.198 C  
BRANCH   6   7
HETATM    7  C   UNL     1      -9.792  10.295  69.010  1.00  0.00    -0.207 C  
HETATM    8  O   UNL     1      -8.766  10.654  69.941  1.00  0.00    -0.346 OA 
HETATM    9  H   UNL     1      -8.564  11.580  69.872  1.00  0.00     0.000 HD 
BRANCH   7  10
HETATM   10  C   UNL     1      -9.349  10.626  67.570  1.00  0.00    -0.146 C  
BRANCH  10  11
HETATM   11  O   UNL     1      -9.569  11.997  67.214  1.00  0.00    -0.180 OA 
BRANCH  11  12
HETATM   12  C   UNL     1     -10.484  12.261  66.219  1.00  0.00    -0.238 A  
HETATM   13  C   UNL     1     -11.774  12.747  66.478  1.00  0.00    -0.463 A  
HETATM   14  C   UNL     1     -12.683  12.968  65.445  1.00  0.00    -0.369 A  
HETATM   15  C   UNL     1     -12.327  12.682  64.138  1.00  0.00    -0.518 A  
HETATM   16  C   UNL     1     -11.046  12.212  63.858  1.00  0.00    -0.470 A  
HETATM   17  C   UNL     1     -10.095  12.038  64.879  1.00  0.00    -0.260 A  
BRANCH  17  18
HETATM   18  O   UNL     1      -8.790  11.657  64.622  1.00  0.00     0.227 OA 
BRANCH  18  19
HETATM   19  C   UNL     1      -8.660  10.351  64.046  1.00  0.00    -0.175 C  
BRANCH  19  20
HETATM   20  C   UNL     1      -7.289   9.793  64.282  1.00  0.00    -0.129 C  
HETATM   21  C   UNL     1      -6.982   9.007  65.325  1.00  0.00    -0.083 C  
ENDBRANCH  19  20
ENDBRANCH  18  19
ENDBRANCH  17  18
ENDBRANCH  11  12
ENDBRANCH  10  11
ENDBRANCH   7  10
ENDBRANCH   6   7
ENDBRANCH   4   6
ENDBRANCH   2   4
TORSDOF 9
ENDMDL
MODEL      323
REMARK 921   NORMALIZED FREE ENERGY PREDICTED BY IDOCK:   -2.61 KCAL/MOL
REMARK 922        TOTAL FREE ENERGY PREDICTED BY IDOCK:   -4.76 KCAL/MOL
REMARK 923 INTER-LIGAND FREE ENERGY PREDICTED BY IDOCK:   -4.36 KCAL/MOL
REMARK 924 INTRA-LIGAND FREE ENERGY PREDICTED BY IDOCK:   -0.39 KCAL/MOL
REMARK 927      BINDING AFFINITY PREDICTED BY RF-SCORE:    0.00 PKD
ROOT
HETATM    1  C   UNL     1      -7.391  13.021  67.438  1.00  0.00    -0.122 C  
HETATM    2  C   UNL     1      -6.426  13.124  68.620  1.00  0.00    -0.087 C  
HETATM    3  C   UNL     1      -6.223  14.600  68.984  1.00  0.00    -0.091 C  
ENDROOT
BRANCH   2   4
HETATM    4  N   UNL     1      -6.969  12.347  69.741  1.00  0.00    -0.325 NA 
HETATM    5  H   UNL     1      -7.971  12.196  69.628  1.00  0.00     0.000 HD 
BRANCH   4   6
HETATM    6  C   UNL     1      -6.263  11.075  69.947  1.00  0.00    -0.127 C  
BRANCH   6   7
HETATM    7  C   UNL     1      -7.177   9.858  69.693  1.00  0.00    -0.108 C  
HETATM    8  O   UNL     1      -6.965   8.855  70.693  1.00  0.00    -0.048 OA 
HETATM    9  H   UNL     1      -7.528   8.105  70.536  1.00  0.00     0.000 HD 
BRANCH   7  10
HETATM   10  C   UNL     1      -8.653  10.304  69.687  1.00  0.00    -0.107 C  
BRANCH  10  11
HETATM   11  O   UNL     1      -9.552   9.287  70.150  1.00  0.00    -0.188 OA 
BRANCH  11  12
HETATM   12  C   UNL     1     -10.008   8.370  69.231  1.00  0.00    -0.195 A  
HETATM   13  C   UNL     1      -9.927   8.572  67.845  1.00  0.00    -0.225 A  
HETATM   14  C   UNL     1     -10.433   7.634  66.947  1.00  0.00    -0.388 A  
HETATM   15  C   UNL     1     -11.050   6.489  67.419  1.00  0.00    -0.411 A  
HETATM   16  C   UNL     1     -11.129   6.262  68.791  1.00  0.00    -0.424 A  
HETATM   17  C   UNL     1     -10.573   7.167  69.712  1.00  0.00    -0.234 A  
BRANCH  17  18
HETATM   18  O   UNL     1     -10.557   6.926  71.074  1.00  0.00    -0.217 OA 
BRANCH  18  19
HETATM   19  C   UNL     1     -11.616   7.567  71.798  1.00  0.00    -0.270 C  
BRANCH  19  20
HETATM   20  C   UNL     1     -12.855   6.725  71.796  1.00  0.00    -0.307 C  
HETATM   21  C   UNL     1     -14.095   7.237  71.761  1.00  0.00    -0.485 C  
ENDBRANCH  19  20
ENDBRANCH  18  19
ENDBRANCH  17  18
ENDBRANCH  11  12
ENDBRANCH  10  11
ENDBRANCH   7  10
ENDBRANCH   6   7
ENDBRANCH   4   6
ENDBRANCH   2   4
TORSDOF 9
ENDMDL
MODEL      324
REMARK 921   NORMALIZED FREE ENERGY PREDICTED BY IDOCK:   -2.59 KCAL/MOL
REMARK 922        TOTAL FREE ENERGY PREDICTED BY IDOCK:   -4.72 KCAL/MOL
REMARK 923 INTER-LIGAND FREE ENERGY PREDICTED BY IDOCK:   -5.04 KCAL/MOL
REMARK 924 INTRA-LIGAND FREE ENERGY PREDICTED BY IDOCK:    0.32 KCAL/MOL
REMARK 927      BINDING AFFINITY PREDICTED BY RF-SCORE:    0.00 PKD
ROOT
HETATM    1  C   UNL     1      -8.811   6.420  68.908  1.00  0.00    -0.125 C  
HETATM    2  C   UNL     1     -10.113   6.005  69.597  1.00  0.00    -0.190 C  
HETATM    3  C   UNL     1      -9.796   5.451  70.991  1.00  0.00    -0.246 C  
ENDROOT
BRANCH   2   4
HETATM    4  N   UNL     1     -11.007   7.167  69.653  1.00  0.00    -0.336 NA 
HETATM    5  H   UNL     1     -11.182   7.447  70.618  1.00  0.00     0.000 HD 
BRANCH   4   6
HETATM    6  C   UNL     1     -10.520   8.300  68.856  1.00  0.00    -0.191 C  
BRANCH   6   7
HETATM    7  C   UNL     1     -10.383   9.586  69.698  1.00  0.00    -0.221 C  
HETATM    8  O   UNL     1      -9.529   9.359  70.824  1.00  0.00    -0.258 OA 
HETATM    9  H   UNL     1      -9.445  10.150  71.343  1.00  0.00     0.000 HD 
BRANCH   7  10
HETATM   10  C   UNL     1      -9.825  10.727  68.824  1.00  0.00    -0.194 C  
BRANCH  10  11
HETATM   11  O   UNL     1     -10.789  11.753  68.552  1.00  0.00    -0.202 OA 
BRANCH  11  12
HETATM   12  C   UNL     1     -11.568  12.192  69.598  1.00  0.00    -0.291 A  
HETATM   13  C   UNL     1     -12.264  11.321  70.450  1.00  0.00    -0.453 A  
HETATM   14  C   UNL     1     -13.071  11.806  71.477  1.00  0.00    -0.389 A  
HETATM   15  C   UNL     1     -13.217  13.170  71.655  1.00  0.00    -0.435 A  
HETATM   16  C   UNL     1     -12.525  14.053  70.829  1.00  0.00    -0.442 A  
HETATM   17  C   UNL     1     -11.660  13.583  69.825  1.00  0.00    -0.244 A  
BRANCH  17  18
HETATM   18  O   UNL     1     -10.892  14.433  69.049  1.00  0.00    -0.241 OA 
BRANCH  18  19
HETATM   19  C   UNL     1     -10.022  15.291  69.800  1.00  0.00    -0.198 C  
BRANCH  19  20
HETATM   20  C   UNL     1      -8.696  15.441  69.118  1.00  0.00    -0.242 C  
HETATM   21  C   UNL     1      -7.962  14.400  68.697  1.00  0.00    -0.145 C  
ENDBRANCH  19  20
ENDBRANCH  18  19
ENDBRANCH  17  18
ENDBRANCH  11  12
ENDBRANCH  10  11
ENDBRANCH   7  10
ENDBRANCH   6   7
ENDBRANCH   4   6
ENDBRANCH   2   4
TORSDOF 9
ENDMDL
MODEL      325
REMARK 921   NORMALIZED FREE ENERGY PREDICTED BY IDOCK:   -2.57 KCAL/MOL
REMARK 922        TOTAL FREE ENERGY PREDICTED BY IDOCK:   -4.70 KCAL/MOL
REMARK 923 INTER-LIGAND FREE ENERGY PREDICTED BY IDOCK:   -3.70 KCAL/MOL
REMARK 924 INTRA-LIGAND FREE ENERGY PREDICTED BY IDOCK:   -1.00 KCAL/MOL
REMARK 927      BINDING AFFINITY PREDICTED BY RF-SCORE:    0.00 PKD
ROOT
HETATM    1  C   UNL     1      -7.708   5.425  68.284  1.00  0.00    -0.081 C  
HETATM    2  C   UNL     1      -8.704   4.300  68.570  1.00  0.00    -0.097 C  
HETATM    3  C   UNL     1      -8.341   3.625  69.899  1.00  0.00    -0.079 C  
ENDROOT
BRANCH   2   4
HETATM    4  N   UNL     1     -10.059   4.863  68.588  1.00  0.00    -0.128 NA 
HETATM    5  H   UNL     1     -10.741   4.186  68.247  1.00  0.00     0.000 HD 
BRANCH   4   6
HETATM    6  C   UNL     1     -10.444   5.380  69.908  1.00  0.00    -0.308 C  
BRANCH   6   7
HETATM    7  C   UNL     1     -11.492   6.508  69.807  1.00  0.00    -0.379 C  
HETATM    8  O   UNL     1     -12.220   6.628  71.034  1.00  0.00    -0.367 OA 
HETATM    9  H   UNL     1     -12.865   7.323  70.971  1.00  0.00     0.000 HD 
BRANCH   7  10
HETATM   10  C   UNL     1     -10.795   7.841  69.465  1.00  0.00    -0.153 C  
BRANCH  10  11
HETATM   11  O   UNL     1     -10.436   7.951  68.081  1.00  0.00    -0.207 OA 
BRANCH  11  12
HETATM   12  C   UNL     1     -10.378   9.213  67.534  1.00  0.00    -0.261 A  
HETATM   13  C   UNL     1     -11.254  10.246  67.901  1.00  0.00    -0.290 A  
HETATM   14  C   UNL     1     -11.184  11.500  67.298  1.00  0.00    -0.365 A  
HETATM   15  C   UNL     1     -10.255  11.736  66.300  1.00  0.00    -0.255 A  
HETATM   16  C   UNL     1      -9.367  10.729  65.930  1.00  0.00    -0.220 A  
HETATM   17  C   UNL     1      -9.382   9.476  66.567  1.00  0.00    -0.171 A  
BRANCH  17  18
HETATM   18  O   UNL     1      -8.456   8.487  66.284  1.00  0.00    -0.114 OA 
BRANCH  18  19
HETATM   19  C   UNL     1      -7.168   8.982  65.891  1.00  0.00    -0.093 C  
BRANCH  19  20
HETATM   20  C   UNL     1      -6.689   8.300  64.645  1.00  0.00    -0.068 C  
HETATM   21  C   UNL     1      -7.153   7.112  64.230  1.00  0.00    -0.063 C  
ENDBRANCH  19  20
ENDBRANCH  18  19
ENDBRANCH  17  18
ENDBRANCH  11  12
ENDBRANCH  10  11
ENDBRANCH   7  10
ENDBRANCH   6   7
ENDBRANCH   4   6
ENDBRANCH   2   4
TORSDOF 9
ENDMDL
MODEL      326
REMARK 921   NORMALIZED FREE ENERGY PREDICTED BY IDOCK:   -2.57 KCAL/MOL
REMARK 922        TOTAL FREE ENERGY PREDICTED BY IDOCK:   -4.70 KCAL/MOL
REMARK 923 INTER-LIGAND FREE ENERGY PREDICTED BY IDOCK:   -3.83 KCAL/MOL
REMARK 924 INTRA-LIGAND FREE ENERGY PREDICTED BY IDOCK:   -0.87 KCAL/MOL
REMARK 927      BINDING AFFINITY PREDICTED BY RF-SCORE:    0.00 PKD
ROOT
HETATM    1  C   UNL     1      -7.009   8.552  72.142  1.00  0.00    -0.096 C  
HETATM    2  C   UNL     1      -7.375   8.462  70.659  1.00  0.00    -0.056 C  
HETATM    3  C   UNL     1      -6.249   9.077  69.820  1.00  0.00    -0.038 C  
ENDROOT
BRANCH   2   4
HETATM    4  N   UNL     1      -7.616   7.055  70.317  1.00  0.00    -0.086 NA 
HETATM    5  H   UNL     1      -8.540   6.757  70.628  1.00  0.00     0.000 HD 
BRANCH   4   6
HETATM    6  C   UNL     1      -7.425   6.776  68.888  1.00  0.00    -0.096 C  
BRANCH   6   7
HETATM    7  C   UNL     1      -8.315   5.613  68.400  1.00  0.00    -0.106 C  
HETATM    8  O   UNL     1      -7.687   4.355  68.667  1.00  0.00    -0.070 OA 
HETATM    9  H   UNL     1      -8.236   3.639  68.367  1.00  0.00     0.000 HD 
BRANCH   7  10
HETATM   10  C   UNL     1      -9.691   5.682  69.094  1.00  0.00    -0.145 C  
BRANCH  10  11
HETATM   11  O   UNL     1     -10.480   6.804  68.673  1.00  0.00    -0.181 OA 
BRANCH  11  12
HETATM   12  C   UNL     1     -10.757   7.777  69.607  1.00  0.00    -0.223 A  
HETATM   13  C   UNL     1     -10.950   7.497  70.968  1.00  0.00    -0.266 A  
HETATM   14  C   UNL     1     -11.264   8.507  71.876  1.00  0.00    -0.397 A  
HETATM   15  C   UNL     1     -11.414   9.810  71.435  1.00  0.00    -0.435 A  
HETATM   16  C   UNL     1     -11.212  10.112  70.090  1.00  0.00    -0.377 A  
HETATM   17  C   UNL     1     -10.838   9.118  69.169  1.00  0.00    -0.110 A  
BRANCH  17  18
HETATM   18  O   UNL     1     -10.545   9.403  67.847  1.00  0.00    -0.237 OA 
BRANCH  18  19
HETATM   19  C   UNL     1     -10.974  10.701  67.415  1.00  0.00    -0.298 C  
BRANCH  19  20
HETATM   20  C   UNL     1     -10.513  10.981  66.017  1.00  0.00    -0.304 C  
HETATM   21  C   UNL     1     -10.556  12.199  65.456  1.00  0.00    -0.314 C  
ENDBRANCH  19  20
ENDBRANCH  18  19
ENDBRANCH  17  18
ENDBRANCH  11  12
ENDBRANCH  10  11
ENDBRANCH   7  10
ENDBRANCH   6   7
ENDBRANCH   4   6
ENDBRANCH   2   4
TORSDOF 9
ENDMDL
MODEL      327
REMARK 921   NORMALIZED FREE ENERGY PREDICTED BY IDOCK:   -2.56 KCAL/MOL
REMARK 922        TOTAL FREE ENERGY PREDICTED BY IDOCK:   -4.68 KCAL/MOL
REMARK 923 INTER-LIGAND FREE ENERGY PREDICTED BY IDOCK:   -4.24 KCAL/MOL
REMARK 924 INTRA-LIGAND FREE ENERGY PREDICTED BY IDOCK:   -0.45 KCAL/MOL
REMARK 927      BINDING AFFINITY PREDICTED BY RF-SCORE:    0.00 PKD
ROOT
HETATM    1  C   UNL     1      -7.577   8.245  69.907  1.00  0.00    -0.080 C  
HETATM    2  C   UNL     1      -7.100   9.298  68.905  1.00  0.00    -0.068 C  
HETATM    3  C   UNL     1      -6.455   8.600  67.702  1.00  0.00    -0.061 C  
ENDROOT
BRANCH   2   4
HETATM    4  N   UNL     1      -8.244  10.129  68.515  1.00  0.00    -0.107 NA 
HETATM    5  H   UNL     1      -9.076   9.881  69.051  1.00  0.00     0.000 HD 
BRANCH   4   6
HETATM    6  C   UNL     1      -7.964  11.568  68.615  1.00  0.00    -0.135 C  
BRANCH   6   7
HETATM    7  C   UNL     1      -7.722  12.209  67.233  1.00  0.00    -0.168 C  
HETATM    8  O   UNL     1      -8.644  11.689  66.270  1.00  0.00    -0.266 OA 
HETATM    9  H   UNL     1      -8.495  12.084  65.419  1.00  0.00     0.000 HD 
BRANCH   7  10
HETATM   10  C   UNL     1      -7.863  13.742  67.335  1.00  0.00    -0.153 C  
BRANCH  10  11
HETATM   11  O   UNL     1      -9.195  14.166  67.656  1.00  0.00    -0.181 OA 
BRANCH  11  12
HETATM   12  C   UNL     1      -9.503  15.496  67.482  1.00  0.00    -0.208 A  
HETATM   13  C   UNL     1      -9.073  16.501  68.362  1.00  0.00    -0.222 A  
HETATM   14  C   UNL     1      -9.435  17.833  68.170  1.00  0.00    -0.282 A  
HETATM   15  C   UNL     1     -10.254  18.180  67.109  1.00  0.00    -0.376 A  
HETATM   16  C   UNL     1     -10.679  17.200  66.215  1.00  0.00    -0.079 A  
HETATM   17  C   UNL     1     -10.277  15.860  66.358  1.00  0.00    -0.301 A  
BRANCH  17  18
HETATM   18  O   UNL     1     -10.611  14.883  65.438  1.00  0.00    -0.318 OA 
BRANCH  18  19
HETATM   19  C   UNL     1     -11.982  14.465  65.493  1.00  0.00    -0.358 C  
BRANCH  19  20
HETATM   20  C   UNL     1     -12.084  12.983  65.694  1.00  0.00    -0.507 C  
HETATM   21  C   UNL     1     -11.385  12.092  64.974  1.00  0.00    -0.365 C  
ENDBRANCH  19  20
ENDBRANCH  18  19
ENDBRANCH  17  18
ENDBRANCH  11  12
ENDBRANCH  10  11
ENDBRANCH   7  10
ENDBRANCH   6   7
ENDBRANCH   4   6
ENDBRANCH   2   4
TORSDOF 9
ENDMDL
MODEL      328
REMARK 921   NORMALIZED FREE ENERGY PREDICTED BY IDOCK:   -2.55 KCAL/MOL
REMARK 922        TOTAL FREE ENERGY PREDICTED BY IDOCK:   -4.67 KCAL/MOL
REMARK 923 INTER-LIGAND FREE ENERGY PREDICTED BY IDOCK:   -3.95 KCAL/MOL
REMARK 924 INTRA-LIGAND FREE ENERGY PREDICTED BY IDOCK:   -0.72 KCAL/MOL
REMARK 927      BINDING AFFINITY PREDICTED BY RF-SCORE:    0.00 PKD
ROOT
HETATM    1  C   UNL     1     -10.591   7.941  67.228  1.00  0.00    -0.365 C  
HETATM    2  C   UNL     1      -9.177   7.374  67.361  1.00  0.00    -0.132 C  
HETATM    3  C   UNL     1      -8.190   8.521  67.608  1.00  0.00    -0.118 C  
ENDROOT
BRANCH   2   4
HETATM    4  N   UNL     1      -9.164   6.389  68.449  1.00  0.00    -0.121 NA 
HETATM    5  H   UNL     1      -9.567   6.781  69.300  1.00  0.00     0.000 HD 
BRANCH   4   6
HETATM    6  C   UNL     1      -9.826   5.129  68.085  1.00  0.00    -0.151 C  
BRANCH   6   7
HETATM    7  C   UNL     1      -9.337   3.947  68.947  1.00  0.00    -0.164 C  
HETATM    8  O   UNL     1      -8.266   3.258  68.292  1.00  0.00    -0.075 OA 
HETATM    9  H   UNL     1      -7.965   2.530  68.823  1.00  0.00     0.000 HD 
BRANCH   7  10
HETATM   10  C   UNL     1      -8.877   4.461  70.327  1.00  0.00    -0.080 C  
BRANCH  10  11
HETATM   11  O   UNL     1      -9.950   4.989  71.119  1.00  0.00    -0.186 OA 
BRANCH  11  12
HETATM   12  C   UNL     1      -9.665   6.036  71.966  1.00  0.00    -0.156 A  
HETATM   13  C   UNL     1      -8.882   5.892  73.122  1.00  0.00    -0.121 A  
HETATM   14  C   UNL     1      -8.645   6.969  73.973  1.00  0.00    -0.189 A  
HETATM   15  C   UNL     1      -9.207   8.204  73.697  1.00  0.00    -0.177 A  
HETATM   16  C   UNL     1      -9.975   8.372  72.548  1.00  0.00    -0.356 A  
HETATM   17  C   UNL     1     -10.178   7.313  71.646  1.00  0.00    -0.192 A  
BRANCH  17  18
HETATM   18  O   UNL     1     -10.860   7.472  70.453  1.00  0.00    -0.235 OA 
BRANCH  18  19
HETATM   19  C   UNL     1     -12.143   6.831  70.418  1.00  0.00    -0.211 C  
BRANCH  19  20
HETATM   20  C   UNL     1     -12.995   7.272  71.570  1.00  0.00    -0.434 C  
HETATM   21  C   UNL     1     -14.228   7.780  71.422  1.00  0.00    -0.489 C  
ENDBRANCH  19  20
ENDBRANCH  18  19
ENDBRANCH  17  18
ENDBRANCH  11  12
ENDBRANCH  10  11
ENDBRANCH   7  10
ENDBRANCH   6   7
ENDBRANCH   4   6
ENDBRANCH   2   4
TORSDOF 9
ENDMDL
MODEL      329
REMARK 921   NORMALIZED FREE ENERGY PREDICTED BY IDOCK:   -2.55 KCAL/MOL
REMARK 922        TOTAL FREE ENERGY PREDICTED BY IDOCK:   -4.66 KCAL/MOL
REMARK 923 INTER-LIGAND FREE ENERGY PREDICTED BY IDOCK:   -4.16 KCAL/MOL
REMARK 924 INTRA-LIGAND FREE ENERGY PREDICTED BY IDOCK:   -0.50 KCAL/MOL
REMARK 927      BINDING AFFINITY PREDICTED BY RF-SCORE:    0.00 PKD
ROOT
HETATM    1  C   UNL     1     -10.990  10.829  67.361  1.00  0.00    -0.361 C  
HETATM    2  C   UNL     1      -9.891  11.013  68.409  1.00  0.00    -0.182 C  
HETATM    3  C   UNL     1      -9.230  12.383  68.216  1.00  0.00    -0.189 C  
ENDROOT
BRANCH   2   4
HETATM    4  N   UNL     1     -10.483  10.867  69.744  1.00  0.00    -0.448 NA 
HETATM    5  H   UNL     1     -11.485  11.056  69.721  1.00  0.00     0.000 HD 
BRANCH   4   6
HETATM    6  C   UNL     1     -10.208   9.557  70.349  1.00  0.00    -0.279 C  
BRANCH   6   7
HETATM    7  C   UNL     1     -11.077   8.440  69.734  1.00  0.00    -0.056 C  
HETATM    8  O   UNL     1     -10.260   7.498  69.031  1.00  0.00    -0.194 OA 
HETATM    9  H   UNL     1     -10.796   6.810  68.653  1.00  0.00     0.000 HD 
BRANCH   7  10
HETATM   10  C   UNL     1     -11.878   7.730  70.845  1.00  0.00    -0.239 C  
BRANCH  10  11
HETATM   11  O   UNL     1     -11.364   6.430  71.168  1.00  0.00    -0.293 OA 
BRANCH  11  12
HETATM   12  C   UNL     1     -10.426   6.345  72.173  1.00  0.00    -0.207 A  
HETATM   13  C   UNL     1     -10.673   6.772  73.486  1.00  0.00    -0.319 A  
HETATM   14  C   UNL     1      -9.685   6.701  74.466  1.00  0.00    -0.315 A  
HETATM   15  C   UNL     1      -8.426   6.226  74.144  1.00  0.00    -0.120 A  
HETATM   16  C   UNL     1      -8.164   5.784  72.850  1.00  0.00    -0.119 A  
HETATM   17  C   UNL     1      -9.164   5.793  71.862  1.00  0.00    -0.144 A  
BRANCH  17  18
HETATM   18  O   UNL     1      -8.960   5.278  70.594  1.00  0.00    -0.129 OA 
BRANCH  18  19
HETATM   19  C   UNL     1      -9.715   4.092  70.311  1.00  0.00    -0.207 C  
BRANCH  19  20
HETATM   20  C   UNL     1      -9.138   2.906  71.022  1.00  0.00    -0.185 C  
HETATM   21  C   UNL     1      -9.359   1.639  70.641  1.00  0.00    -0.175 C  
ENDBRANCH  19  20
ENDBRANCH  18  19
ENDBRANCH  17  18
ENDBRANCH  11  12
ENDBRANCH  10  11
ENDBRANCH   7  10
ENDBRANCH   6   7
ENDBRANCH   4   6
ENDBRANCH   2   4
TORSDOF 9
ENDMDL
MODEL      330
REMARK 921   NORMALIZED FREE ENERGY PREDICTED BY IDOCK:   -2.52 KCAL/MOL
REMARK 922        TOTAL FREE ENERGY PREDICTED BY IDOCK:   -4.61 KCAL/MOL
REMARK 923 INTER-LIGAND FREE ENERGY PREDICTED BY IDOCK:   -4.03 KCAL/MOL
REMARK 924 INTRA-LIGAND FREE ENERGY PREDICTED BY IDOCK:   -0.58 KCAL/MOL
REMARK 927      BINDING AFFINITY PREDICTED BY RF-SCORE:    0.00 PKD
ROOT
HETATM    1  C   UNL     1     -12.370   9.801  70.847  1.00  0.00    -0.379 C  
HETATM    2  C   UNL     1     -12.180   8.733  71.926  1.00  0.00    -0.361 C  
HETATM    3  C   UNL     1     -12.696   7.387  71.406  1.00  0.00    -0.408 C  
ENDROOT
BRANCH   2   4
HETATM    4  N   UNL     1     -10.760   8.679  72.290  1.00  0.00    -0.346 NA 
HETATM    5  H   UNL     1     -10.485   7.731  72.549  1.00  0.00     0.000 HD 
BRANCH   4   6
HETATM    6  C   UNL     1      -9.881   9.212  71.240  1.00  0.00    -0.293 C  
BRANCH   6   7
HETATM    7  C   UNL     1      -8.419   8.752  71.418  1.00  0.00    -0.188 C  
HETATM    8  O   UNL     1      -8.074   8.705  72.806  1.00  0.00    -0.380 OA 
HETATM    9  H   UNL     1      -7.173   8.421  72.915  1.00  0.00     0.000 HD 
BRANCH   7  10
HETATM   10  C   UNL     1      -8.225   7.366  70.770  1.00  0.00    -0.111 C  
BRANCH  10  11
HETATM   11  O   UNL     1      -7.874   7.436  69.381  1.00  0.00    -0.116 OA 
BRANCH  11  12
HETATM   12  C   UNL     1      -8.771   6.931  68.468  1.00  0.00    -0.125 A  
HETATM   13  C   UNL     1     -10.156   6.906  68.691  1.00  0.00    -0.164 A  
HETATM   14  C   UNL     1     -11.028   6.354  67.755  1.00  0.00    -0.425 A  
HETATM   15  C   UNL     1     -10.530   5.793  66.592  1.00  0.00    -0.330 A  
HETATM   16  C   UNL     1      -9.159   5.819  66.345  1.00  0.00    -0.152 A  
HETATM   17  C   UNL     1      -8.268   6.424  67.249  1.00  0.00    -0.113 A  
BRANCH  17  18
HETATM   18  O   UNL     1      -6.914   6.544  66.989  1.00  0.00    -0.064 OA 
BRANCH  18  19
HETATM   19  C   UNL     1      -6.143   5.387  67.340  1.00  0.00    -0.030 C  
BRANCH  19  20
HETATM   20  C   UNL     1      -6.068   4.424  66.195  1.00  0.00    -0.031 C  
HETATM   21  C   UNL     1      -5.593   3.175  66.312  1.00  0.00    -0.018 C  
ENDBRANCH  19  20
ENDBRANCH  18  19
ENDBRANCH  17  18
ENDBRANCH  11  12
ENDBRANCH  10  11
ENDBRANCH   7  10
ENDBRANCH   6   7
ENDBRANCH   4   6
ENDBRANCH   2   4
TORSDOF 9
ENDMDL
MODEL      331
REMARK 921   NORMALIZED FREE ENERGY PREDICTED BY IDOCK:   -2.51 KCAL/MOL
REMARK 922        TOTAL FREE ENERGY PREDICTED BY IDOCK:   -4.60 KCAL/MOL
REMARK 923 INTER-LIGAND FREE ENERGY PREDICTED BY IDOCK:   -4.19 KCAL/MOL
REMARK 924 INTRA-LIGAND FREE ENERGY PREDICTED BY IDOCK:   -0.41 KCAL/MOL
REMARK 927      BINDING AFFINITY PREDICTED BY RF-SCORE:    0.00 PKD
ROOT
HETATM    1  C   UNL     1     -10.025   3.631  64.196  1.00  0.00    -0.192 C  
HETATM    2  C   UNL     1      -9.261   3.886  65.497  1.00  0.00    -0.151 C  
HETATM    3  C   UNL     1      -8.109   4.861  65.227  1.00  0.00    -0.115 C  
ENDROOT
BRANCH   2   4
HETATM    4  N   UNL     1     -10.199   4.403  66.501  1.00  0.00    -0.336 NA 
HETATM    5  H   UNL     1     -10.677   3.640  66.980  1.00  0.00     0.000 HD 
BRANCH   4   6
HETATM    6  C   UNL     1      -9.561   5.311  67.463  1.00  0.00    -0.134 C  
BRANCH   6   7
HETATM    7  C   UNL     1     -10.251   6.691  67.503  1.00  0.00    -0.181 C  
HETATM    8  O   UNL     1     -11.296   6.758  66.527  1.00  0.00    -0.501 OA 
HETATM    9  H   UNL     1     -11.720   7.608  66.552  1.00  0.00     0.000 HD 
BRANCH   7  10
HETATM   10  C   UNL     1     -10.819   6.950  68.914  1.00  0.00    -0.207 C  
BRANCH  10  11
HETATM   11  O   UNL     1     -10.387   8.196  69.476  1.00  0.00    -0.213 OA 
BRANCH  11  12
HETATM   12  C   UNL     1     -11.288   8.898  70.245  1.00  0.00    -0.159 A  
HETATM   13  C   UNL     1     -12.091   9.927  69.732  1.00  0.00     0.140 A  
HETATM   14  C   UNL     1     -12.966  10.637  70.552  1.00  0.00    -0.277 A  
HETATM   15  C   UNL     1     -13.035  10.347  71.904  1.00  0.00    -0.555 A  
HETATM   16  C   UNL     1     -12.256   9.320  72.431  1.00  0.00    -0.203 A  
HETATM   17  C   UNL     1     -11.411   8.553  71.610  1.00  0.00    -0.295 A  
BRANCH  17  18
HETATM   18  O   UNL     1     -10.693   7.471  72.087  1.00  0.00    -0.217 OA 
BRANCH  18  19
HETATM   19  C   UNL     1      -9.788   7.788  73.153  1.00  0.00    -0.298 C  
BRANCH  19  20
HETATM   20  C   UNL     1      -9.240   6.542  73.781  1.00  0.00    -0.160 C  
HETATM   21  C   UNL     1      -9.191   5.359  73.151  1.00  0.00    -0.133 C  
ENDBRANCH  19  20
ENDBRANCH  18  19
ENDBRANCH  17  18
ENDBRANCH  11  12
ENDBRANCH  10  11
ENDBRANCH   7  10
ENDBRANCH   6   7
ENDBRANCH   4   6
ENDBRANCH   2   4
TORSDOF 9
ENDMDL
MODEL      332
REMARK 921   NORMALIZED FREE ENERGY PREDICTED BY IDOCK:   -2.50 KCAL/MOL
REMARK 922        TOTAL FREE ENERGY PREDICTED BY IDOCK:   -4.59 KCAL/MOL
REMARK 923 INTER-LIGAND FREE ENERGY PREDICTED BY IDOCK:   -4.20 KCAL/MOL
REMARK 924 INTRA-LIGAND FREE ENERGY PREDICTED BY IDOCK:   -0.39 KCAL/MOL
REMARK 927      BINDING AFFINITY PREDICTED BY RF-SCORE:    0.00 PKD
ROOT
HETATM    1  C   UNL     1      -9.321   6.535  71.763  1.00  0.00    -0.149 C  
HETATM    2  C   UNL     1     -10.557   5.651  71.583  1.00  0.00    -0.241 C  
HETATM    3  C   UNL     1     -11.163   5.340  72.957  1.00  0.00    -0.387 C  
ENDROOT
BRANCH   2   4
HETATM    4  N   UNL     1     -11.506   6.342  70.703  1.00  0.00    -0.354 NA 
HETATM    5  H   UNL     1     -12.202   6.852  71.245  1.00  0.00     0.000 HD 
BRANCH   4   6
HETATM    6  C   UNL     1     -10.844   7.224  69.732  1.00  0.00    -0.235 C  
BRANCH   6   7
HETATM    7  C   UNL     1     -10.596   6.519  68.382  1.00  0.00    -0.246 C  
HETATM    8  O   UNL     1     -11.747   6.632  67.538  1.00  0.00    -0.601 OA 
HETATM    9  H   UNL     1     -11.594   6.198  66.707  1.00  0.00     0.000 HD 
BRANCH   7  10
HETATM   10  C   UNL     1      -9.362   7.134  67.690  1.00  0.00    -0.127 C  
BRANCH  10  11
HETATM   11  O   UNL     1      -8.917   8.350  68.307  1.00  0.00    -0.139 OA 
BRANCH  11  12
HETATM   12  C   UNL     1      -8.065   9.158  67.587  1.00  0.00    -0.104 A  
HETATM   13  C   UNL     1      -7.392   8.724  66.436  1.00  0.00    -0.084 A  
HETATM   14  C   UNL     1      -6.511   9.562  65.755  1.00  0.00    -0.074 A  
HETATM   15  C   UNL     1      -6.268  10.840  66.228  1.00  0.00    -0.130 A  
HETATM   16  C   UNL     1      -6.937  11.295  67.362  1.00  0.00    -0.101 A  
HETATM   17  C   UNL     1      -7.874  10.486  68.029  1.00  0.00    -0.105 A  
BRANCH  17  18
HETATM   18  O   UNL     1      -8.618  10.942  69.102  1.00  0.00    -0.138 OA 
BRANCH  18  19
HETATM   19  C   UNL     1      -9.954  11.340  68.766  1.00  0.00    -0.193 C  
BRANCH  19  20
HETATM   20  C   UNL     1     -10.955  10.666  69.655  1.00  0.00    -0.331 C  
HETATM   21  C   UNL     1     -11.977  11.311  70.236  1.00  0.00    -0.466 C  
ENDBRANCH  19  20
ENDBRANCH  18  19
ENDBRANCH  17  18
ENDBRANCH  11  12
ENDBRANCH  10  11
ENDBRANCH   7  10
ENDBRANCH   6   7
ENDBRANCH   4   6
ENDBRANCH   2   4
TORSDOF 9
ENDMDL
MODEL      333
REMARK 921   NORMALIZED FREE ENERGY PREDICTED BY IDOCK:   -2.50 KCAL/MOL
REMARK 922        TOTAL FREE ENERGY PREDICTED BY IDOCK:   -4.59 KCAL/MOL
REMARK 923 INTER-LIGAND FREE ENERGY PREDICTED BY IDOCK:   -3.97 KCAL/MOL
REMARK 924 INTRA-LIGAND FREE ENERGY PREDICTED BY IDOCK:   -0.62 KCAL/MOL
REMARK 927      BINDING AFFINITY PREDICTED BY RF-SCORE:    0.00 PKD
ROOT
HETATM    1  C   UNL     1      -7.520   8.234  70.011  1.00  0.00    -0.064 C  
HETATM    2  C   UNL     1      -6.913   9.335  69.139  1.00  0.00    -0.058 C  
HETATM    3  C   UNL     1      -6.912   8.880  67.674  1.00  0.00    -0.075 C  
ENDROOT
BRANCH   2   4
HETATM    4  N   UNL     1      -7.682  10.569  69.335  1.00  0.00    -0.163 NA 
HETATM    5  H   UNL     1      -8.213  10.534  70.205  1.00  0.00     0.000 HD 
BRANCH   4   6
HETATM    6  C   UNL     1      -6.846  11.776  69.276  1.00  0.00    -0.093 C  
BRANCH   6   7
HETATM    7  C   UNL     1      -7.350  12.779  68.217  1.00  0.00    -0.117 C  
HETATM    8  O   UNL     1      -8.781  12.784  68.172  1.00  0.00    -0.183 OA 
HETATM    9  H   UNL     1      -9.091  13.402  67.520  1.00  0.00     0.000 HD 
BRANCH   7  10
HETATM   10  C   UNL     1      -6.820  14.191  68.541  1.00  0.00    -0.102 C  
BRANCH  10  11
HETATM   11  O   UNL     1      -7.768  15.001  69.251  1.00  0.00    -0.173 OA 
BRANCH  11  12
HETATM   12  C   UNL     1      -7.700  16.365  69.079  1.00  0.00    -0.235 A  
HETATM   13  C   UNL     1      -6.527  17.104  69.295  1.00  0.00    -0.235 A  
HETATM   14  C   UNL     1      -6.509  18.489  69.143  1.00  0.00    -0.277 A  
HETATM   15  C   UNL     1      -7.668  19.162  68.798  1.00  0.00    -0.390 A  
HETATM   16  C   UNL     1      -8.839  18.445  68.566  1.00  0.00    -0.336 A  
HETATM   17  C   UNL     1      -8.865  17.043  68.656  1.00  0.00    -0.267 A  
BRANCH  17  18
HETATM   18  O   UNL     1      -9.988  16.298  68.345  1.00  0.00    -0.224 OA 
BRANCH  18  19
HETATM   19  C   UNL     1     -10.958  16.226  69.399  1.00  0.00    -0.337 C  
BRANCH  19  20
HETATM   20  C   UNL     1     -11.510  14.839  69.527  1.00  0.00    -0.331 C  
HETATM   21  C   UNL     1     -12.152  14.207  68.533  1.00  0.00    -0.312 C  
ENDBRANCH  19  20
ENDBRANCH  18  19
ENDBRANCH  17  18
ENDBRANCH  11  12
ENDBRANCH  10  11
ENDBRANCH   7  10
ENDBRANCH   6   7
ENDBRANCH   4   6
ENDBRANCH   2   4
TORSDOF 9
ENDMDL
MODEL      334
REMARK 921   NORMALIZED FREE ENERGY PREDICTED BY IDOCK:   -2.50 KCAL/MOL
REMARK 922        TOTAL FREE ENERGY PREDICTED BY IDOCK:   -4.58 KCAL/MOL
REMARK 923 INTER-LIGAND FREE ENERGY PREDICTED BY IDOCK:   -3.61 KCAL/MOL
REMARK 924 INTRA-LIGAND FREE ENERGY PREDICTED BY IDOCK:   -0.98 KCAL/MOL
REMARK 927      BINDING AFFINITY PREDICTED BY RF-SCORE:    0.00 PKD
ROOT
HETATM    1  C   UNL     1     -11.535   9.878  70.705  1.00  0.00    -0.433 C  
HETATM    2  C   UNL     1     -11.143   8.885  71.801  1.00  0.00    -0.363 C  
HETATM    3  C   UNL     1     -11.614   7.480  71.405  1.00  0.00    -0.302 C  
ENDROOT
BRANCH   2   4
HETATM    4  N   UNL     1      -9.690   8.946  71.995  1.00  0.00    -0.299 NA 
HETATM    5  H   UNL     1      -9.332   8.063  72.359  1.00  0.00     0.000 HD 
BRANCH   4   6
HETATM    6  C   UNL     1      -8.969   9.345  70.778  1.00  0.00    -0.191 C  
BRANCH   6   7
HETATM    7  C   UNL     1      -7.547   8.747  70.724  1.00  0.00    -0.094 C  
HETATM    8  O   UNL     1      -7.041   8.539  72.047  1.00  0.00    -0.092 OA 
HETATM    9  H   UNL     1      -6.165   8.171  72.014  1.00  0.00     0.000 HD 
BRANCH   7  10
HETATM   10  C   UNL     1      -7.568   7.417  69.943  1.00  0.00    -0.090 C  
BRANCH  10  11
HETATM   11  O   UNL     1      -7.661   7.598  68.524  1.00  0.00    -0.104 OA 
BRANCH  11  12
HETATM   12  C   UNL     1      -8.622   6.879  67.849  1.00  0.00    -0.122 A  
HETATM   13  C   UNL     1      -9.980   6.901  68.201  1.00  0.00    -0.170 A  
HETATM   14  C   UNL     1     -10.916   6.131  67.514  1.00  0.00    -0.404 A  
HETATM   15  C   UNL     1     -10.508   5.307  66.480  1.00  0.00    -0.354 A  
HETATM   16  C   UNL     1      -9.167   5.281  66.106  1.00  0.00    -0.158 A  
HETATM   17  C   UNL     1      -8.216   6.093  66.747  1.00  0.00    -0.109 A  
BRANCH  17  18
HETATM   18  O   UNL     1      -6.895   6.155  66.340  1.00  0.00    -0.058 OA 
BRANCH  18  19
HETATM   19  C   UNL     1      -6.708   6.705  65.029  1.00  0.00    -0.050 C  
BRANCH  19  20
HETATM   20  C   UNL     1      -7.058   8.163  65.004  1.00  0.00    -0.071 C  
HETATM   21  C   UNL     1      -7.829   8.719  64.058  1.00  0.00    -0.140 C  
ENDBRANCH  19  20
ENDBRANCH  18  19
ENDBRANCH  17  18
ENDBRANCH  11  12
ENDBRANCH  10  11
ENDBRANCH   7  10
ENDBRANCH   6   7
ENDBRANCH   4   6
ENDBRANCH   2   4
TORSDOF 9
ENDMDL
MODEL      335
REMARK 921   NORMALIZED FREE ENERGY PREDICTED BY IDOCK:   -2.45 KCAL/MOL
REMARK 922        TOTAL FREE ENERGY PREDICTED BY IDOCK:   -4.52 KCAL/MOL
REMARK 923 INTER-LIGAND FREE ENERGY PREDICTED BY IDOCK:   -3.68 KCAL/MOL
REMARK 924 INTRA-LIGAND FREE ENERGY PREDICTED BY IDOCK:   -0.84 KCAL/MOL
REMARK 927      BINDING AFFINITY PREDICTED BY RF-SCORE:    0.00 PKD
ROOT
HETATM    1  C   UNL     1     -12.068  10.401  70.911  1.00  0.00    -0.477 C  
HETATM    2  C   UNL     1     -10.826   9.519  70.768  1.00  0.00    -0.318 C  
HETATM    3  C   UNL     1     -11.143   8.344  69.837  1.00  0.00    -0.109 C  
ENDROOT
BRANCH   2   4
HETATM    4  N   UNL     1      -9.720  10.342  70.265  1.00  0.00    -0.344 NA 
HETATM    5  H   UNL     1      -9.291  10.878  71.020  1.00  0.00     0.000 HD 
BRANCH   4   6
HETATM    6  C   UNL     1      -8.712   9.558  69.538  1.00  0.00    -0.174 C  
BRANCH   6   7
HETATM    7  C   UNL     1      -7.401   9.412  70.339  1.00  0.00    -0.121 C  
HETATM    8  O   UNL     1      -6.835  10.698  70.612  1.00  0.00    -0.447 OA 
HETATM    9  H   UNL     1      -6.028  10.608  71.106  1.00  0.00     0.000 HD 
BRANCH   7  10
HETATM   10  C   UNL     1      -7.675   8.656  71.655  1.00  0.00    -0.108 C  
BRANCH  10  11
HETATM   11  O   UNL     1      -7.974   7.268  71.457  1.00  0.00    -0.098 OA 
BRANCH  11  12
HETATM   12  C   UNL     1      -8.654   6.611  72.457  1.00  0.00    -0.124 A  
HETATM   13  C   UNL     1      -9.829   7.112  73.038  1.00  0.00    -0.233 A  
HETATM   14  C   UNL     1     -10.469   6.434  74.073  1.00  0.00    -0.286 A  
HETATM   15  C   UNL     1      -9.933   5.255  74.563  1.00  0.00    -0.258 A  
HETATM   16  C   UNL     1      -8.775   4.733  73.990  1.00  0.00    -0.108 A  
HETATM   17  C   UNL     1      -8.147   5.372  72.907  1.00  0.00    -0.109 A  
BRANCH  17  18
HETATM   18  O   UNL     1      -7.049   4.831  72.262  1.00  0.00    -0.072 OA 
BRANCH  18  19
HETATM   19  C   UNL     1      -7.295   3.560  71.645  1.00  0.00    -0.047 C  
BRANCH  19  20
HETATM   20  C   UNL     1      -8.160   3.711  70.431  1.00  0.00    -0.062 C  
HETATM   21  C   UNL     1      -9.154   2.864  70.124  1.00  0.00    -0.189 C  
ENDBRANCH  19  20
ENDBRANCH  18  19
ENDBRANCH  17  18
ENDBRANCH  11  12
ENDBRANCH  10  11
ENDBRANCH   7  10
ENDBRANCH   6   7
ENDBRANCH   4   6
ENDBRANCH   2   4
TORSDOF 9
ENDMDL
MODEL      336
REMARK 921   NORMALIZED FREE ENERGY PREDICTED BY IDOCK:   -2.44 KCAL/MOL
REMARK 922        TOTAL FREE ENERGY PREDICTED BY IDOCK:   -4.50 KCAL/MOL
REMARK 923 INTER-LIGAND FREE ENERGY PREDICTED BY IDOCK:   -3.77 KCAL/MOL
REMARK 924 INTRA-LIGAND FREE ENERGY PREDICTED BY IDOCK:   -0.73 KCAL/MOL
REMARK 927      BINDING AFFINITY PREDICTED BY RF-SCORE:    0.00 PKD
ROOT
HETATM    1  C   UNL     1      -9.562   6.948  71.169  1.00  0.00    -0.167 C  
HETATM    2  C   UNL     1     -10.768   6.029  70.966  1.00  0.00    -0.265 C  
HETATM    3  C   UNL     1     -11.734   6.190  72.146  1.00  0.00    -0.361 C  
ENDROOT
BRANCH   2   4
HETATM    4  N   UNL     1     -11.401   6.359  69.684  1.00  0.00    -0.482 NA 
HETATM    5  H   UNL     1     -12.357   6.686  69.822  1.00  0.00     0.000 HD 
BRANCH   4   6
HETATM    6  C   UNL     1     -10.623   7.325  68.896  1.00  0.00    -0.191 C  
BRANCH   6   7
HETATM    7  C   UNL     1     -10.352   6.820  67.463  1.00  0.00    -0.210 C  
HETATM    8  O   UNL     1     -11.584   6.545  66.788  1.00  0.00    -0.731 OA 
HETATM    9  H   UNL     1     -11.417   6.235  65.905  1.00  0.00     0.000 HD 
BRANCH   7  10
HETATM   10  C   UNL     1      -9.538   7.874  66.683  1.00  0.00    -0.226 C  
BRANCH  10  11
HETATM   11  O   UNL     1      -8.212   8.056  67.198  1.00  0.00    -0.114 OA 
BRANCH  11  12
HETATM   12  C   UNL     1      -7.725   9.342  67.268  1.00  0.00    -0.095 A  
HETATM   13  C   UNL     1      -8.061  10.231  68.301  1.00  0.00    -0.107 A  
HETATM   14  C   UNL     1      -7.574  11.536  68.317  1.00  0.00    -0.115 A  
HETATM   15  C   UNL     1      -6.763  11.984  67.288  1.00  0.00    -0.144 A  
HETATM   16  C   UNL     1      -6.406  11.113  66.261  1.00  0.00    -0.090 A  
HETATM   17  C   UNL     1      -6.839   9.776  66.257  1.00  0.00    -0.092 A  
BRANCH  17  18
HETATM   18  O   UNL     1      -6.429   8.865  65.300  1.00  0.00    -0.066 OA 
BRANCH  18  19
HETATM   19  C   UNL     1      -7.062   9.028  64.023  1.00  0.00    -0.095 C  
BRANCH  19  20
HETATM   20  C   UNL     1      -6.097   9.569  63.011  1.00  0.00    -0.100 C  
HETATM   21  C   UNL     1      -6.247  10.759  62.412  1.00  0.00    -0.123 C  
ENDBRANCH  19  20
ENDBRANCH  18  19
ENDBRANCH  17  18
ENDBRANCH  11  12
ENDBRANCH  10  11
ENDBRANCH   7  10
ENDBRANCH   6   7
ENDBRANCH   4   6
ENDBRANCH   2   4
TORSDOF 9
ENDMDL
MODEL      337
REMARK 921   NORMALIZED FREE ENERGY PREDICTED BY IDOCK:   -2.41 KCAL/MOL
REMARK 922        TOTAL FREE ENERGY PREDICTED BY IDOCK:   -4.45 KCAL/MOL
REMARK 923 INTER-LIGAND FREE ENERGY PREDICTED BY IDOCK:   -3.75 KCAL/MOL
REMARK 924 INTRA-LIGAND FREE ENERGY PREDICTED BY IDOCK:   -0.70 KCAL/MOL
REMARK 927      BINDING AFFINITY PREDICTED BY RF-SCORE:    0.00 PKD
ROOT
HETATM    1  C   UNL     1      -9.496   6.703  71.281  1.00  0.00    -0.166 C  
HETATM    2  C   UNL     1     -10.795   5.957  70.968  1.00  0.00    -0.273 C  
HETATM    3  C   UNL     1     -11.694   5.959  72.210  1.00  0.00    -0.309 C  
ENDROOT
BRANCH   2   4
HETATM    4  N   UNL     1     -11.440   6.599  69.817  1.00  0.00    -0.557 NA 
HETATM    5  H   UNL     1     -12.149   7.266  70.121  1.00  0.00     0.000 HD 
BRANCH   4   6
HETATM    6  C   UNL     1     -10.479   7.231  68.904  1.00  0.00    -0.206 C  
BRANCH   6   7
HETATM    7  C   UNL     1     -10.331   6.446  67.583  1.00  0.00    -0.197 C  
HETATM    8  O   UNL     1     -11.443   6.703  66.720  1.00  0.00    -0.776 OA 
HETATM    9  H   UNL     1     -11.351   6.220  65.907  1.00  0.00     0.000 HD 
BRANCH   7  10
HETATM   10  C   UNL     1      -9.011   6.838  66.887  1.00  0.00    -0.128 C  
BRANCH  10  11
HETATM   11  O   UNL     1      -8.683   8.226  67.040  1.00  0.00    -0.123 OA 
BRANCH  11  12
HETATM   12  C   UNL     1      -8.157   8.883  65.951  1.00  0.00    -0.109 A  
HETATM   13  C   UNL     1      -8.828   8.987  64.724  1.00  0.00    -0.165 A  
HETATM   14  C   UNL     1      -8.245   9.630  63.633  1.00  0.00    -0.162 A  
HETATM   15  C   UNL     1      -6.970  10.158  63.743  1.00  0.00    -0.105 A  
HETATM   16  C   UNL     1      -6.292  10.077  64.957  1.00  0.00    -0.116 A  
HETATM   17  C   UNL     1      -6.885   9.485  66.085  1.00  0.00    -0.090 A  
BRANCH  17  18
HETATM   18  O   UNL     1      -6.272   9.469  67.325  1.00  0.00    -0.062 OA 
BRANCH  18  19
HETATM   19  C   UNL     1      -5.531  10.658  67.631  1.00  0.00    -0.043 C  
BRANCH  19  20
HETATM   20  C   UNL     1      -6.422  11.711  68.215  1.00  0.00    -0.051 C  
HETATM   21  C   UNL     1      -6.238  13.025  68.018  1.00  0.00    -0.112 C  
ENDBRANCH  19  20
ENDBRANCH  18  19
ENDBRANCH  17  18
ENDBRANCH  11  12
ENDBRANCH  10  11
ENDBRANCH   7  10
ENDBRANCH   6   7
ENDBRANCH   4   6
ENDBRANCH   2   4
TORSDOF 9
ENDMDL
MODEL      338
REMARK 921   NORMALIZED FREE ENERGY PREDICTED BY IDOCK:   -2.41 KCAL/MOL
REMARK 922        TOTAL FREE ENERGY PREDICTED BY IDOCK:   -4.45 KCAL/MOL
REMARK 923 INTER-LIGAND FREE ENERGY PREDICTED BY IDOCK:   -4.67 KCAL/MOL
REMARK 924 INTRA-LIGAND FREE ENERGY PREDICTED BY IDOCK:    0.23 KCAL/MOL
REMARK 927      BINDING AFFINITY PREDICTED BY RF-SCORE:    0.00 PKD
ROOT
HETATM    1  C   UNL     1     -11.250  11.152  67.853  1.00  0.00    -0.365 C  
HETATM    2  C   UNL     1     -10.323  12.237  67.302  1.00  0.00    -0.214 C  
HETATM    3  C   UNL     1      -9.051  11.585  66.745  1.00  0.00    -0.184 C  
ENDROOT
BRANCH   2   4
HETATM    4  N   UNL     1     -11.047  13.001  66.279  1.00  0.00    -0.284 NA 
HETATM    5  H   UNL     1     -12.040  13.060  66.502  1.00  0.00     0.000 HD 
BRANCH   4   6
HETATM    6  C   UNL     1     -10.477  14.336  66.054  1.00  0.00    -0.301 C  
BRANCH   6   7
HETATM    7  C   UNL     1     -10.916  15.344  67.137  1.00  0.00    -0.317 C  
HETATM    8  O   UNL     1     -10.480  14.911  68.430  1.00  0.00    -0.234 OA 
HETATM    9  H   UNL     1     -10.751  15.532  69.097  1.00  0.00     0.000 HD 
BRANCH   7  10
HETATM   10  C   UNL     1     -10.340  16.739  66.817  1.00  0.00    -0.293 C  
BRANCH  10  11
HETATM   11  O   UNL     1      -8.988  16.695  66.341  1.00  0.00    -0.248 OA 
BRANCH  11  12
HETATM   12  C   UNL     1      -7.982  16.626  67.278  1.00  0.00    -0.167 A  
HETATM   13  C   UNL     1      -7.153  15.504  67.427  1.00  0.00    -0.235 A  
HETATM   14  C   UNL     1      -6.168  15.460  68.411  1.00  0.00    -0.109 A  
HETATM   15  C   UNL     1      -6.011  16.526  69.280  1.00  0.00    -0.165 A  
HETATM   16  C   UNL     1      -6.814  17.655  69.140  1.00  0.00    -0.229 A  
HETATM   17  C   UNL     1      -7.774  17.743  68.117  1.00  0.00    -0.254 A  
BRANCH  17  18
HETATM   18  O   UNL     1      -8.524  18.885  67.898  1.00  0.00    -0.278 OA 
BRANCH  18  19
HETATM   19  C   UNL     1      -7.745  20.059  67.628  1.00  0.00    -0.294 C  
BRANCH  19  20
HETATM   20  C   UNL     1      -6.596  19.743  66.719  1.00  0.00    -0.206 C  
HETATM   21  C   UNL     1      -6.529  20.156  65.445  1.00  0.00    -0.299 C  
ENDBRANCH  19  20
ENDBRANCH  18  19
ENDBRANCH  17  18
ENDBRANCH  11  12
ENDBRANCH  10  11
ENDBRANCH   7  10
ENDBRANCH   6   7
ENDBRANCH   4   6
ENDBRANCH   2   4
TORSDOF 9
ENDMDL
MODEL      339
REMARK 921   NORMALIZED FREE ENERGY PREDICTED BY IDOCK:   -2.40 KCAL/MOL
REMARK 922        TOTAL FREE ENERGY PREDICTED BY IDOCK:   -4.43 KCAL/MOL
REMARK 923 INTER-LIGAND FREE ENERGY PREDICTED BY IDOCK:   -3.83 KCAL/MOL
REMARK 924 INTRA-LIGAND FREE ENERGY PREDICTED BY IDOCK:   -0.60 KCAL/MOL
REMARK 927      BINDING AFFINITY PREDICTED BY RF-SCORE:    0.00 PKD
ROOT
HETATM    1  C   UNL     1      -7.586  14.967  69.048  1.00  0.00    -0.151 C  
HETATM    2  C   UNL     1      -8.126  14.303  67.780  1.00  0.00    -0.170 C  
HETATM    3  C   UNL     1      -7.253  13.092  67.429  1.00  0.00    -0.119 C  
ENDROOT
BRANCH   2   4
HETATM    4  N   UNL     1      -9.527  13.929  68.005  1.00  0.00    -0.202 NA 
HETATM    5  H   UNL     1     -10.143  14.409  67.349  1.00  0.00     0.000 HD 
BRANCH   4   6
HETATM    6  C   UNL     1      -9.743  12.476  67.962  1.00  0.00    -0.215 C  
BRANCH   6   7
HETATM    7  C   UNL     1     -10.929  12.039  68.847  1.00  0.00    -0.232 C  
HETATM    8  O   UNL     1     -12.155  12.586  68.347  1.00  0.00    -0.272 OA 
HETATM    9  H   UNL     1     -12.885  12.317  68.893  1.00  0.00     0.000 HD 
BRANCH   7  10
HETATM   10  C   UNL     1     -11.009  10.500  68.892  1.00  0.00    -0.246 C  
BRANCH  10  11
HETATM   11  O   UNL     1      -9.805   9.859  68.447  1.00  0.00    -0.147 OA 
BRANCH  11  12
HETATM   12  C   UNL     1      -9.030   9.226  69.393  1.00  0.00    -0.147 A  
HETATM   13  C   UNL     1      -8.048   9.890  70.143  1.00  0.00    -0.169 A  
HETATM   14  C   UNL     1      -7.260   9.206  71.067  1.00  0.00    -0.113 A  
HETATM   15  C   UNL     1      -7.423   7.842  71.238  1.00  0.00    -0.078 A  
HETATM   16  C   UNL     1      -8.402   7.167  70.512  1.00  0.00    -0.131 A  
HETATM   17  C   UNL     1      -9.246   7.849  69.619  1.00  0.00    -0.153 A  
BRANCH  17  18
HETATM   18  O   UNL     1     -10.284   7.222  68.952  1.00  0.00    -0.182 OA 
BRANCH  18  19
HETATM   19  C   UNL     1     -10.933   6.192  69.709  1.00  0.00    -0.390 C  
BRANCH  19  20
HETATM   20  C   UNL     1     -12.028   6.761  70.561  1.00  0.00    -0.385 C  
HETATM   21  C   UNL     1     -11.803   7.411  71.713  1.00  0.00    -0.327 C  
ENDBRANCH  19  20
ENDBRANCH  18  19
ENDBRANCH  17  18
ENDBRANCH  11  12
ENDBRANCH  10  11
ENDBRANCH   7  10
ENDBRANCH   6   7
ENDBRANCH   4   6
ENDBRANCH   2   4
TORSDOF 9
ENDMDL
MODEL      340
REMARK 921   NORMALIZED FREE ENERGY PREDICTED BY IDOCK:   -2.39 KCAL/MOL
REMARK 922        TOTAL FREE ENERGY PREDICTED BY IDOCK:   -4.41 KCAL/MOL
REMARK 923 INTER-LIGAND FREE ENERGY PREDICTED BY IDOCK:   -3.73 KCAL/MOL
REMARK 924 INTRA-LIGAND FREE ENERGY PREDICTED BY IDOCK:   -0.69 KCAL/MOL
REMARK 927      BINDING AFFINITY PREDICTED BY RF-SCORE:    0.00 PKD
ROOT
HETATM    1  C   UNL     1      -7.959   5.070  64.896  1.00  0.00    -0.099 C  
HETATM    2  C   UNL     1      -9.093   4.998  65.920  1.00  0.00    -0.150 C  
HETATM    3  C   UNL     1      -8.819   3.853  66.903  1.00  0.00    -0.133 C  
ENDROOT
BRANCH   2   4
HETATM    4  N   UNL     1      -9.198   6.296  66.597  1.00  0.00    -0.142 NA 
HETATM    5  H   UNL     1      -9.455   6.176  67.577  1.00  0.00     0.000 HD 
BRANCH   4   6
HETATM    6  C   UNL     1      -7.981   7.107  66.467  1.00  0.00    -0.112 C  
BRANCH   6   7
HETATM    7  C   UNL     1      -8.299   8.608  66.301  1.00  0.00    -0.122 C  
HETATM    8  O   UNL     1      -7.622   9.140  65.157  1.00  0.00    -0.095 OA 
HETATM    9  H   UNL     1      -7.818  10.065  65.055  1.00  0.00     0.000 HD 
BRANCH   7  10
HETATM   10  C   UNL     1      -9.823   8.807  66.162  1.00  0.00    -0.227 C  
BRANCH  10  11
HETATM   11  O   UNL     1     -10.482   9.014  67.419  1.00  0.00    -0.249 OA 
BRANCH  11  12
HETATM   12  C   UNL     1     -11.000  10.264  67.671  1.00  0.00    -0.294 A  
HETATM   13  C   UNL     1     -11.370  11.157  66.654  1.00  0.00    -0.079 A  
HETATM   14  C   UNL     1     -11.858  12.428  66.951  1.00  0.00    -0.377 A  
HETATM   15  C   UNL     1     -11.961  12.838  68.269  1.00  0.00    -0.276 A  
HETATM   16  C   UNL     1     -11.612  11.962  69.294  1.00  0.00    -0.376 A  
HETATM   17  C   UNL     1     -11.173  10.656  69.017  1.00  0.00    -0.265 A  
BRANCH  17  18
HETATM   18  O   UNL     1     -10.904   9.736  70.015  1.00  0.00    -0.239 OA 
BRANCH  18  19
HETATM   19  C   UNL     1     -11.965   8.802  70.256  1.00  0.00     0.252 C  
BRANCH  19  20
HETATM   20  C   UNL     1     -12.158   8.576  71.725  1.00  0.00    -0.391 C  
HETATM   21  C   UNL     1     -11.610   7.549  72.392  1.00  0.00    -0.356 C  
ENDBRANCH  19  20
ENDBRANCH  18  19
ENDBRANCH  17  18
ENDBRANCH  11  12
ENDBRANCH  10  11
ENDBRANCH   7  10
ENDBRANCH   6   7
ENDBRANCH   4   6
ENDBRANCH   2   4
TORSDOF 9
ENDMDL
MODEL      341
REMARK 921   NORMALIZED FREE ENERGY PREDICTED BY IDOCK:   -2.38 KCAL/MOL
REMARK 922        TOTAL FREE ENERGY PREDICTED BY IDOCK:   -4.41 KCAL/MOL
REMARK 923 INTER-LIGAND FREE ENERGY PREDICTED BY IDOCK:   -4.41 KCAL/MOL
REMARK 924 INTRA-LIGAND FREE ENERGY PREDICTED BY IDOCK:   -0.00 KCAL/MOL
REMARK 927      BINDING AFFINITY PREDICTED BY RF-SCORE:    0.00 PKD
ROOT
HETATM    1  C   UNL     1      -5.792  18.531  68.760  1.00  0.00    -0.206 C  
HETATM    2  C   UNL     1      -6.447  17.315  68.103  1.00  0.00    -0.162 C  
HETATM    3  C   UNL     1      -6.216  16.078  68.979  1.00  0.00    -0.136 C  
ENDROOT
BRANCH   2   4
HETATM    4  N   UNL     1      -7.874  17.596  67.908  1.00  0.00    -0.216 NA 
HETATM    5  H   UNL     1      -8.087  17.740  66.921  1.00  0.00     0.000 HD 
BRANCH   4   6
HETATM    6  C   UNL     1      -8.743  16.563  68.489  1.00  0.00    -0.228 C  
BRANCH   6   7
HETATM    7  C   UNL     1      -9.488  15.756  67.405  1.00  0.00    -0.212 C  
HETATM    8  O   UNL     1      -9.682  16.552  66.231  1.00  0.00    -0.270 OA 
HETATM    9  H   UNL     1     -10.141  16.055  65.564  1.00  0.00     0.000 HD 
BRANCH   7  10
HETATM   10  C   UNL     1      -8.691  14.481  67.062  1.00  0.00    -0.234 C  
BRANCH  10  11
HETATM   11  O   UNL     1      -9.516  13.314  66.942  1.00  0.00    -0.233 OA 
BRANCH  11  12
HETATM   12  C   UNL     1      -8.893  12.087  66.948  1.00  0.00    -0.197 A  
HETATM   13  C   UNL     1      -7.935  11.721  67.905  1.00  0.00    -0.141 A  
HETATM   14  C   UNL     1      -7.301  10.481  67.855  1.00  0.00    -0.089 A  
HETATM   15  C   UNL     1      -7.596   9.595  66.834  1.00  0.00    -0.095 A  
HETATM   16  C   UNL     1      -8.555   9.933  65.882  1.00  0.00    -0.149 A  
HETATM   17  C   UNL     1      -9.248  11.154  65.948  1.00  0.00    -0.206 A  
BRANCH  17  18
HETATM   18  O   UNL     1     -10.267  11.479  65.070  1.00  0.00    -0.252 OA 
BRANCH  18  19
HETATM   19  C   UNL     1     -11.512  11.798  65.706  1.00  0.00    -0.194 C  
BRANCH  19  20
HETATM   20  C   UNL     1     -12.402  12.575  64.783  1.00  0.00    -0.544 C  
HETATM   21  C   UNL     1     -12.487  12.335  63.466  1.00  0.00    -0.642 C  
ENDBRANCH  19  20
ENDBRANCH  18  19
ENDBRANCH  17  18
ENDBRANCH  11  12
ENDBRANCH  10  11
ENDBRANCH   7  10
ENDBRANCH   6   7
ENDBRANCH   4   6
ENDBRANCH   2   4
TORSDOF 9
ENDMDL
MODEL      342
REMARK 921   NORMALIZED FREE ENERGY PREDICTED BY IDOCK:   -2.38 KCAL/MOL
REMARK 922        TOTAL FREE ENERGY PREDICTED BY IDOCK:   -4.41 KCAL/MOL
REMARK 923 INTER-LIGAND FREE ENERGY PREDICTED BY IDOCK:   -3.56 KCAL/MOL
REMARK 924 INTRA-LIGAND FREE ENERGY PREDICTED BY IDOCK:   -0.85 KCAL/MOL
REMARK 927      BINDING AFFINITY PREDICTED BY RF-SCORE:    0.00 PKD
ROOT
HETATM    1  C   UNL     1      -9.872   6.950  71.125  1.00  0.00    -0.184 C  
HETATM    2  C   UNL     1     -11.122   6.147  70.761  1.00  0.00    -0.309 C  
HETATM    3  C   UNL     1     -12.140   6.245  71.903  1.00  0.00    -0.311 C  
ENDROOT
BRANCH   2   4
HETATM    4  N   UNL     1     -11.660   6.661  69.495  1.00  0.00    -0.640 NA 
HETATM    5  H   UNL     1     -12.521   7.184  69.650  1.00  0.00     0.000 HD 
BRANCH   4   6
HETATM    6  C   UNL     1     -10.684   7.462  68.745  1.00  0.00    -0.118 C  
BRANCH   6   7
HETATM    7  C   UNL     1     -10.382   6.859  67.357  1.00  0.00    -0.231 C  
HETATM    8  O   UNL     1     -11.596   6.490  66.696  1.00  0.00    -0.678 OA 
HETATM    9  H   UNL     1     -11.410   6.118  65.841  1.00  0.00     0.000 HD 
BRANCH   7  10
HETATM   10  C   UNL     1      -9.596   7.877  66.505  1.00  0.00    -0.212 C  
BRANCH  10  11
HETATM   11  O   UNL     1      -8.175   7.772  66.667  1.00  0.00    -0.117 OA 
BRANCH  11  12
HETATM   12  C   UNL     1      -7.440   8.935  66.636  1.00  0.00    -0.086 A  
HETATM   13  C   UNL     1      -7.044   9.556  65.442  1.00  0.00    -0.095 A  
HETATM   14  C   UNL     1      -6.270  10.715  65.452  1.00  0.00    -0.071 A  
HETATM   15  C   UNL     1      -5.857  11.259  66.656  1.00  0.00    -0.138 A  
HETATM   16  C   UNL     1      -6.251  10.666  67.853  1.00  0.00    -0.054 A  
HETATM   17  C   UNL     1      -7.080   9.531  67.865  1.00  0.00    -0.081 A  
BRANCH  17  18
HETATM   18  O   UNL     1      -7.560   8.973  69.037  1.00  0.00    -0.076 OA 
BRANCH  18  19
HETATM   19  C   UNL     1      -6.556   8.340  69.842  1.00  0.00    -0.039 C  
BRANCH  19  20
HETATM   20  C   UNL     1      -6.555   8.895  71.234  1.00  0.00    -0.080 C  
HETATM   21  C   UNL     1      -5.575   9.674  71.717  1.00  0.00    -0.036 C  
ENDBRANCH  19  20
ENDBRANCH  18  19
ENDBRANCH  17  18
ENDBRANCH  11  12
ENDBRANCH  10  11
ENDBRANCH   7  10
ENDBRANCH   6   7
ENDBRANCH   4   6
ENDBRANCH   2   4
TORSDOF 9
ENDMDL
MODEL      343
REMARK 921   NORMALIZED FREE ENERGY PREDICTED BY IDOCK:   -2.37 KCAL/MOL
REMARK 922        TOTAL FREE ENERGY PREDICTED BY IDOCK:   -4.38 KCAL/MOL
REMARK 923 INTER-LIGAND FREE ENERGY PREDICTED BY IDOCK:   -3.99 KCAL/MOL
REMARK 924 INTRA-LIGAND FREE ENERGY PREDICTED BY IDOCK:   -0.39 KCAL/MOL
REMARK 927      BINDING AFFINITY PREDICTED BY RF-SCORE:    0.00 PKD
ROOT
HETATM    1  C   UNL     1     -12.670  12.505  70.519  1.00  0.00    -0.059 C  
HETATM    2  C   UNL     1     -11.994  13.812  70.101  1.00  0.00    -0.334 C  
HETATM    3  C   UNL     1     -11.911  14.751  71.310  1.00  0.00    -0.404 C  
ENDROOT
BRANCH   2   4
HETATM    4  N   UNL     1     -10.670  13.502  69.549  1.00  0.00    -0.436 NA 
HETATM    5  H   UNL     1     -10.748  13.109  68.611  1.00  0.00     0.000 HD 
BRANCH   4   6
HETATM    6  C   UNL     1      -9.763  14.658  69.561  1.00  0.00     0.124 C  
BRANCH   6   7
HETATM    7  C   UNL     1     -10.228  15.770  68.597  1.00  0.00    -0.221 C  
HETATM    8  O   UNL     1      -9.397  16.928  68.730  1.00  0.00    -0.255 OA 
HETATM    9  H   UNL     1      -9.683  17.613  68.136  1.00  0.00     0.000 HD 
BRANCH   7  10
HETATM   10  C   UNL     1     -10.194  15.251  67.145  1.00  0.00    -0.252 C  
BRANCH  10  11
HETATM   11  O   UNL     1     -10.649  13.897  67.019  1.00  0.00    -0.276 OA 
BRANCH  11  12
HETATM   12  C   UNL     1     -10.480  13.276  65.801  1.00  0.00    -0.284 A  
HETATM   13  C   UNL     1     -10.796  13.890  64.581  1.00  0.00    -0.420 A  
HETATM   14  C   UNL     1     -10.644  13.215  63.371  1.00  0.00     0.642 A  
HETATM   15  C   UNL     1     -10.198  11.905  63.363  1.00  0.00    -0.478 A  
HETATM   16  C   UNL     1      -9.865  11.281  64.563  1.00  0.00    -0.317 A  
HETATM   17  C   UNL     1      -9.955  11.964  65.788  1.00  0.00    -0.236 A  
BRANCH  17  18
HETATM   18  O   UNL     1      -9.549  11.401  66.985  1.00  0.00    -0.174 OA 
BRANCH  18  19
HETATM   19  C   UNL     1     -10.538  10.576  67.614  1.00  0.00    -0.250 C  
BRANCH  19  20
HETATM   20  C   UNL     1      -9.902   9.600  68.557  1.00  0.00    -0.170 C  
HETATM   21  C   UNL     1     -10.589   8.645  69.203  1.00  0.00    -0.193 C  
ENDBRANCH  19  20
ENDBRANCH  18  19
ENDBRANCH  17  18
ENDBRANCH  11  12
ENDBRANCH  10  11
ENDBRANCH   7  10
ENDBRANCH   6   7
ENDBRANCH   4   6
ENDBRANCH   2   4
TORSDOF 9
ENDMDL
MODEL      344
REMARK 921   NORMALIZED FREE ENERGY PREDICTED BY IDOCK:   -2.36 KCAL/MOL
REMARK 922        TOTAL FREE ENERGY PREDICTED BY IDOCK:   -4.37 KCAL/MOL
REMARK 923 INTER-LIGAND FREE ENERGY PREDICTED BY IDOCK:   -3.55 KCAL/MOL
REMARK 924 INTRA-LIGAND FREE ENERGY PREDICTED BY IDOCK:   -0.82 KCAL/MOL
REMARK 927      BINDING AFFINITY PREDICTED BY RF-SCORE:    0.00 PKD
ROOT
HETATM    1  C   UNL     1      -6.765  10.195  63.307  1.00  0.00    -0.131 C  
HETATM    2  C   UNL     1      -6.290   9.351  64.491  1.00  0.00    -0.080 C  
HETATM    3  C   UNL     1      -5.366  10.195  65.378  1.00  0.00    -0.071 C  
ENDROOT
BRANCH   2   4
HETATM    4  N   UNL     1      -7.464   8.863  65.223  1.00  0.00    -0.088 NA 
HETATM    5  H   UNL     1      -8.198   8.565  64.580  1.00  0.00     0.000 HD 
BRANCH   4   6
HETATM    6  C   UNL     1      -7.137   7.797  66.180  1.00  0.00    -0.069 C  
BRANCH   6   7
HETATM    7  C   UNL     1      -8.292   7.530  67.168  1.00  0.00    -0.121 C  
HETATM    8  O   UNL     1      -7.800   7.484  68.512  1.00  0.00    -0.117 OA 
HETATM    9  H   UNL     1      -8.511   7.320  69.121  1.00  0.00     0.000 HD 
BRANCH   7  10
HETATM   10  C   UNL     1      -9.365   8.629  67.028  1.00  0.00    -0.159 C  
BRANCH  10  11
HETATM   11  O   UNL     1      -9.091   9.790  67.825  1.00  0.00    -0.131 OA 
BRANCH  11  12
HETATM   12  C   UNL     1     -10.131  10.330  68.547  1.00  0.00    -0.165 A  
HETATM   13  C   UNL     1     -10.904  11.405  68.085  1.00  0.00    -0.259 A  
HETATM   14  C   UNL     1     -11.927  11.946  68.862  1.00  0.00    -0.313 A  
HETATM   15  C   UNL     1     -12.178  11.438  70.124  1.00  0.00    -0.401 A  
HETATM   16  C   UNL     1     -11.431  10.361  70.597  1.00  0.00    -0.438 A  
HETATM   17  C   UNL     1     -10.434   9.764  69.805  1.00  0.00    -0.250 A  
BRANCH  17  18
HETATM   18  O   UNL     1      -9.738   8.639  70.211  1.00  0.00    -0.167 OA 
BRANCH  18  19
HETATM   19  C   UNL     1      -8.704   8.901  71.170  1.00  0.00    -0.222 C  
BRANCH  19  20
HETATM   20  C   UNL     1      -8.872   8.044  72.388  1.00  0.00    -0.232 C  
HETATM   21  C   UNL     1      -8.857   6.703  72.353  1.00  0.00    -0.134 C  
ENDBRANCH  19  20
ENDBRANCH  18  19
ENDBRANCH  17  18
ENDBRANCH  11  12
ENDBRANCH  10  11
ENDBRANCH   7  10
ENDBRANCH   6   7
ENDBRANCH   4   6
ENDBRANCH   2   4
TORSDOF 9
ENDMDL
MODEL      345
REMARK 921   NORMALIZED FREE ENERGY PREDICTED BY IDOCK:   -2.35 KCAL/MOL
REMARK 922        TOTAL FREE ENERGY PREDICTED BY IDOCK:   -4.35 KCAL/MOL
REMARK 923 INTER-LIGAND FREE ENERGY PREDICTED BY IDOCK:   -4.09 KCAL/MOL
REMARK 924 INTRA-LIGAND FREE ENERGY PREDICTED BY IDOCK:   -0.26 KCAL/MOL
REMARK 927      BINDING AFFINITY PREDICTED BY RF-SCORE:    0.00 PKD
ROOT
HETATM    1  C   UNL     1      -7.151   8.277  71.732  1.00  0.00    -0.090 C  
HETATM    2  C   UNL     1      -6.821   8.317  70.238  1.00  0.00    -0.036 C  
HETATM    3  C   UNL     1      -6.575   6.890  69.734  1.00  0.00    -0.045 C  
ENDROOT
BRANCH   2   4
HETATM    4  N   UNL     1      -7.928   8.971  69.530  1.00  0.00    -0.096 NA 
HETATM    5  H   UNL     1      -8.762   9.013  70.115  1.00  0.00     0.000 HD 
BRANCH   4   6
HETATM    6  C   UNL     1      -7.572  10.304  69.024  1.00  0.00    -0.102 C  
BRANCH   6   7
HETATM    7  C   UNL     1      -8.762  10.997  68.328  1.00  0.00    -0.144 C  
HETATM    8  O   UNL     1      -9.149  10.272  67.155  1.00  0.00    -0.141 OA 
HETATM    9  H   UNL     1      -9.882  10.700  66.727  1.00  0.00     0.000 HD 
BRANCH   7  10
HETATM   10  C   UNL     1      -9.949  11.105  69.307  1.00  0.00    -0.007 C  
BRANCH  10  11
HETATM   11  O   UNL     1     -10.843   9.986  69.234  1.00  0.00    -0.213 OA 
BRANCH  11  12
HETATM   12  C   UNL     1     -11.753   9.827  70.255  1.00  0.00    -0.190 A  
HETATM   13  C   UNL     1     -12.458  10.899  70.824  1.00  0.00    -0.489 A  
HETATM   14  C   UNL     1     -13.345  10.700  71.880  1.00  0.00    -0.454 A  
HETATM   15  C   UNL     1     -13.524   9.432  72.403  1.00  0.00    -0.506 A  
HETATM   16  C   UNL     1     -12.845   8.352  71.843  1.00  0.00    -0.384 A  
HETATM   17  C   UNL     1     -11.991   8.522  70.740  1.00  0.00    -0.112 A  
BRANCH  17  18
HETATM   18  O   UNL     1     -11.372   7.457  70.109  1.00  0.00    -0.255 OA 
BRANCH  18  19
HETATM   19  C   UNL     1     -10.471   6.719  70.945  1.00  0.00    -0.213 C  
BRANCH  19  20
HETATM   20  C   UNL     1     -11.191   6.122  72.115  1.00  0.00    -0.335 C  
HETATM   21  C   UNL     1     -10.602   5.314  73.009  1.00  0.00    -0.278 C  
ENDBRANCH  19  20
ENDBRANCH  18  19
ENDBRANCH  17  18
ENDBRANCH  11  12
ENDBRANCH  10  11
ENDBRANCH   7  10
ENDBRANCH   6   7
ENDBRANCH   4   6
ENDBRANCH   2   4
TORSDOF 9
ENDMDL
MODEL      346
REMARK 921   NORMALIZED FREE ENERGY PREDICTED BY IDOCK:   -2.31 KCAL/MOL
REMARK 922        TOTAL FREE ENERGY PREDICTED BY IDOCK:   -4.29 KCAL/MOL
REMARK 923 INTER-LIGAND FREE ENERGY PREDICTED BY IDOCK:   -3.80 KCAL/MOL
REMARK 924 INTRA-LIGAND FREE ENERGY PREDICTED BY IDOCK:   -0.49 KCAL/MOL
REMARK 927      BINDING AFFINITY PREDICTED BY RF-SCORE:    0.00 PKD
ROOT
HETATM    1  C   UNL     1      -7.268  15.069  69.149  1.00  0.00    -0.159 C  
HETATM    2  C   UNL     1      -7.595  14.020  68.085  1.00  0.00    -0.141 C  
HETATM    3  C   UNL     1      -6.366  13.134  67.849  1.00  0.00    -0.139 C  
ENDROOT
BRANCH   2   4
HETATM    4  N   UNL     1      -8.759  13.245  68.531  1.00  0.00    -0.335 NA 
HETATM    5  H   UNL     1      -9.616  13.592  68.100  1.00  0.00     0.000 HD 
BRANCH   4   6
HETATM    6  C   UNL     1      -8.603  11.802  68.304  1.00  0.00    -0.162 C  
BRANCH   6   7
HETATM    7  C   UNL     1      -9.405  10.964  69.322  1.00  0.00    -0.006 C  
HETATM    8  O   UNL     1     -10.739  11.468  69.446  1.00  0.00    -0.389 OA 
HETATM    9  H   UNL     1     -11.232  10.952  70.073  1.00  0.00     0.000 HD 
BRANCH   7  10
HETATM   10  C   UNL     1      -9.429   9.487  68.880  1.00  0.00    -0.155 C  
BRANCH  10  11
HETATM   11  O   UNL     1      -8.699   8.622  69.762  1.00  0.00    -0.127 OA 
BRANCH  11  12
HETATM   12  C   UNL     1      -9.422   7.856  70.649  1.00  0.00    -0.162 A  
HETATM   13  C   UNL     1      -9.954   8.367  71.842  1.00  0.00    -0.331 A  
HETATM   14  C   UNL     1     -10.650   7.551  72.731  1.00  0.00    -0.365 A  
HETATM   15  C   UNL     1     -10.804   6.203  72.455  1.00  0.00    -0.275 A  
HETATM   16  C   UNL     1     -10.295   5.678  71.269  1.00  0.00    -0.289 A  
HETATM   17  C   UNL     1      -9.641   6.497  70.332  1.00  0.00    -0.162 A  
BRANCH  17  18
HETATM   18  O   UNL     1      -9.205   6.023  69.108  1.00  0.00    -0.125 OA 
BRANCH  18  19
HETATM   19  C   UNL     1     -10.164   5.215  68.413  1.00  0.00    -0.105 C  
BRANCH  19  20
HETATM   20  C   UNL     1      -9.929   5.256  66.934  1.00  0.00    -0.219 C  
HETATM   21  C   UNL     1     -10.902   5.076  66.028  1.00  0.00    -0.152 C  
ENDBRANCH  19  20
ENDBRANCH  18  19
ENDBRANCH  17  18
ENDBRANCH  11  12
ENDBRANCH  10  11
ENDBRANCH   7  10
ENDBRANCH   6   7
ENDBRANCH   4   6
ENDBRANCH   2   4
TORSDOF 9
ENDMDL
MODEL      347
REMARK 921   NORMALIZED FREE ENERGY PREDICTED BY IDOCK:   -2.26 KCAL/MOL
REMARK 922        TOTAL FREE ENERGY PREDICTED BY IDOCK:   -4.23 KCAL/MOL
REMARK 923 INTER-LIGAND FREE ENERGY PREDICTED BY IDOCK:   -3.44 KCAL/MOL
REMARK 924 INTRA-LIGAND FREE ENERGY PREDICTED BY IDOCK:   -0.78 KCAL/MOL
REMARK 927      BINDING AFFINITY PREDICTED BY RF-SCORE:    0.00 PKD
ROOT
HETATM    1  C   UNL     1      -8.609   6.253  72.063  1.00  0.00    -0.131 C  
HETATM    2  C   UNL     1     -10.019   6.832  72.185  1.00  0.00    -0.162 C  
HETATM    3  C   UNL     1     -10.143   7.595  73.509  1.00  0.00    -0.345 C  
ENDROOT
BRANCH   2   4
HETATM    4  N   UNL     1     -10.277   7.692  71.024  1.00  0.00    -0.194 NA 
HETATM    5  H   UNL     1     -10.097   8.670  71.247  1.00  0.00     0.000 HD 
BRANCH   4   6
HETATM    6  C   UNL     1      -9.527   7.278  69.830  1.00  0.00    -0.157 C  
BRANCH   6   7
HETATM    7  C   UNL     1     -10.366   6.373  68.903  1.00  0.00    -0.201 C  
HETATM    8  O   UNL     1     -11.637   6.973  68.634  1.00  0.00    -0.365 OA 
HETATM    9  H   UNL     1     -12.154   6.415  68.063  1.00  0.00     0.000 HD 
BRANCH   7  10
HETATM   10  C   UNL     1      -9.602   6.123  67.586  1.00  0.00    -0.111 C  
BRANCH  10  11
HETATM   11  O   UNL     1      -8.480   6.998  67.410  1.00  0.00    -0.121 OA 
BRANCH  11  12
HETATM   12  C   UNL     1      -8.365   7.656  66.206  1.00  0.00    -0.133 A  
HETATM   13  C   UNL     1      -8.097   6.995  64.997  1.00  0.00    -0.119 A  
HETATM   14  C   UNL     1      -7.954   7.702  63.805  1.00  0.00    -0.090 A  
HETATM   15  C   UNL     1      -8.050   9.082  63.804  1.00  0.00    -0.164 A  
HETATM   16  C   UNL     1      -8.329   9.756  64.990  1.00  0.00    -0.149 A  
HETATM   17  C   UNL     1      -8.535   9.058  66.193  1.00  0.00    -0.127 A  
BRANCH  17  18
HETATM   18  O   UNL     1      -8.901   9.692  67.367  1.00  0.00    -0.128 OA 
BRANCH  18  19
HETATM   19  C   UNL     1     -10.195  10.310  67.324  1.00  0.00    -0.218 C  
BRANCH  19  20
HETATM   20  C   UNL     1     -10.087  11.795  67.495  1.00  0.00    -0.207 C  
HETATM   21  C   UNL     1     -11.050  12.651  67.123  1.00  0.00    -0.321 C  
ENDBRANCH  19  20
ENDBRANCH  18  19
ENDBRANCH  17  18
ENDBRANCH  11  12
ENDBRANCH  10  11
ENDBRANCH   7  10
ENDBRANCH   6   7
ENDBRANCH   4   6
ENDBRANCH   2   4
TORSDOF 9
ENDMDL
MODEL      348
REMARK 921   NORMALIZED FREE ENERGY PREDICTED BY IDOCK:   -2.23 KCAL/MOL
REMARK 922        TOTAL FREE ENERGY PREDICTED BY IDOCK:   -4.18 KCAL/MOL
REMARK 923 INTER-LIGAND FREE ENERGY PREDICTED BY IDOCK:   -3.38 KCAL/MOL
REMARK 924 INTRA-LIGAND FREE ENERGY PREDICTED BY IDOCK:   -0.80 KCAL/MOL
REMARK 927      BINDING AFFINITY PREDICTED BY RF-SCORE:    0.00 PKD
ROOT
HETATM    1  C   UNL     1     -10.953  13.398  64.610  1.00  0.00    -0.388 C  
HETATM    2  C   UNL     1     -10.051  12.361  65.281  1.00  0.00    -0.265 C  
HETATM    3  C   UNL     1      -9.676  12.847  66.686  1.00  0.00    -0.254 C  
ENDROOT
BRANCH   2   4
HETATM    4  N   UNL     1     -10.754  11.073  65.310  1.00  0.00    -0.211 NA 
HETATM    5  H   UNL     1     -10.984  10.762  64.366  1.00  0.00     0.000 HD 
BRANCH   4   6
HETATM    6  C   UNL     1     -10.014  10.036  66.041  1.00  0.00    -0.267 C  
BRANCH   6   7
HETATM    7  C   UNL     1     -10.909   9.288  67.052  1.00  0.00    -0.007 C  
HETATM    8  O   UNL     1     -10.995   7.900  66.713  1.00  0.00    -0.390 OA 
HETATM    9  H   UNL     1     -11.547   7.440  67.336  1.00  0.00     0.000 HD 
BRANCH   7  10
HETATM   10  C   UNL     1     -10.343   9.458  68.477  1.00  0.00    -0.209 C  
BRANCH  10  11
HETATM   11  O   UNL     1     -10.195   8.214  69.177  1.00  0.00    -0.205 OA 
BRANCH  11  12
HETATM   12  C   UNL     1      -8.919   7.803  69.488  1.00  0.00    -0.142 A  
HETATM   13  C   UNL     1      -7.804   8.651  69.414  1.00  0.00    -0.096 A  
HETATM   14  C   UNL     1      -6.522   8.186  69.704  1.00  0.00    -0.037 A  
HETATM   15  C   UNL     1      -6.330   6.859  70.047  1.00  0.00    -0.035 A  
HETATM   16  C   UNL     1      -7.426   6.004  70.140  1.00  0.00    -0.090 A  
HETATM   17  C   UNL     1      -8.733   6.467  69.909  1.00  0.00    -0.140 A  
BRANCH  17  18
HETATM   18  O   UNL     1      -9.847   5.665  70.079  1.00  0.00    -0.165 OA 
BRANCH  18  19
HETATM   19  C   UNL     1      -9.788   4.418  69.373  1.00  0.00    -0.168 C  
BRANCH  19  20
HETATM   20  C   UNL     1     -10.129   4.605  67.925  1.00  0.00    -0.085 C  
HETATM   21  C   UNL     1      -9.530   3.929  66.934  1.00  0.00    -0.225 C  
ENDBRANCH  19  20
ENDBRANCH  18  19
ENDBRANCH  17  18
ENDBRANCH  11  12
ENDBRANCH  10  11
ENDBRANCH   7  10
ENDBRANCH   6   7
ENDBRANCH   4   6
ENDBRANCH   2   4
TORSDOF 9
ENDMDL
MODEL      349
REMARK 921   NORMALIZED FREE ENERGY PREDICTED BY IDOCK:   -2.21 KCAL/MOL
REMARK 922        TOTAL FREE ENERGY PREDICTED BY IDOCK:   -4.14 KCAL/MOL
REMARK 923 INTER-LIGAND FREE ENERGY PREDICTED BY IDOCK:   -3.63 KCAL/MOL
REMARK 924 INTRA-LIGAND FREE ENERGY PREDICTED BY IDOCK:   -0.52 KCAL/MOL
REMARK 927      BINDING AFFINITY PREDICTED BY RF-SCORE:    0.00 PKD
ROOT
HETATM    1  C   UNL     1      -6.526  10.308  63.154  1.00  0.00    -0.127 C  
HETATM    2  C   UNL     1      -6.190   9.524  64.424  1.00  0.00    -0.084 C  
HETATM    3  C   UNL     1      -5.515  10.459  65.435  1.00  0.00    -0.111 C  
ENDROOT
BRANCH   2   4
HETATM    4  N   UNL     1      -7.424   8.934  64.955  1.00  0.00    -0.096 NA 
HETATM    5  H   UNL     1      -7.857   8.315  64.269  1.00  0.00     0.000 HD 
BRANCH   4   6
HETATM    6  C   UNL     1      -7.221   8.242  66.235  1.00  0.00    -0.074 C  
BRANCH   6   7
HETATM    7  C   UNL     1      -8.530   8.121  67.043  1.00  0.00    -0.120 C  
HETATM    8  O   UNL     1      -8.285   8.368  68.432  1.00  0.00    -0.121 OA 
HETATM    9  H   UNL     1      -9.091   8.293  68.930  1.00  0.00     0.000 HD 
BRANCH   7  10
HETATM   10  C   UNL     1      -9.574   9.117  66.499  1.00  0.00    -0.227 C  
BRANCH  10  11
HETATM   11  O   UNL     1      -9.351  10.465  66.936  1.00  0.00    -0.159 OA 
BRANCH  11  12
HETATM   12  C   UNL     1     -10.120  10.936  67.976  1.00  0.00    -0.177 A  
HETATM   13  C   UNL     1     -10.895  10.099  68.793  1.00  0.00    -0.259 A  
HETATM   14  C   UNL     1     -11.688  10.619  69.814  1.00  0.00    -0.385 A  
HETATM   15  C   UNL     1     -11.739  11.986  70.021  1.00  0.00    -0.346 A  
HETATM   16  C   UNL     1     -10.966  12.834  69.231  1.00  0.00    -0.126 A  
HETATM   17  C   UNL     1     -10.115  12.325  68.234  1.00  0.00    -0.218 A  
BRANCH  17  18
HETATM   18  O   UNL     1      -9.270  13.133  67.495  1.00  0.00    -0.189 OA 
BRANCH  18  19
HETATM   19  C   UNL     1      -9.912  13.823  66.414  1.00  0.00    -0.297 C  
BRANCH  19  20
HETATM   20  C   UNL     1     -10.048  15.284  66.715  1.00  0.00    -0.262 C  
HETATM   21  C   UNL     1      -8.999  16.101  66.897  1.00  0.00    -0.248 C  
ENDBRANCH  19  20
ENDBRANCH  18  19
ENDBRANCH  17  18
ENDBRANCH  11  12
ENDBRANCH  10  11
ENDBRANCH   7  10
ENDBRANCH   6   7
ENDBRANCH   4   6
ENDBRANCH   2   4
TORSDOF 9
ENDMDL
MODEL      350
REMARK 921   NORMALIZED FREE ENERGY PREDICTED BY IDOCK:   -2.20 KCAL/MOL
REMARK 922        TOTAL FREE ENERGY PREDICTED BY IDOCK:   -4.12 KCAL/MOL
REMARK 923 INTER-LIGAND FREE ENERGY PREDICTED BY IDOCK:   -3.37 KCAL/MOL
REMARK 924 INTRA-LIGAND FREE ENERGY PREDICTED BY IDOCK:   -0.75 KCAL/MOL
REMARK 927      BINDING AFFINITY PREDICTED BY RF-SCORE:    0.00 PKD
ROOT
HETATM    1  C   UNL     1      -8.198   6.904  71.787  1.00  0.00    -0.105 C  
HETATM    2  C   UNL     1      -9.634   7.350  71.503  1.00  0.00    -0.151 C  
HETATM    3  C   UNL     1      -9.981   8.545  72.400  1.00  0.00    -0.365 C  
ENDROOT
BRANCH   2   4
HETATM    4  N   UNL     1      -9.753   7.676  70.077  1.00  0.00    -0.172 NA 
HETATM    5  H   UNL     1      -9.334   8.584  69.874  1.00  0.00     0.000 HD 
BRANCH   4   6
HETATM    6  C   UNL     1      -9.198   6.632  69.206  1.00  0.00    -0.140 C  
BRANCH   6   7
HETATM    7  C   UNL     1     -10.302   5.782  68.543  1.00  0.00    -0.215 C  
HETATM    8  O   UNL     1     -11.180   6.611  67.775  1.00  0.00    -0.530 OA 
HETATM    9  H   UNL     1     -11.860   6.088  67.367  1.00  0.00     0.000 HD 
BRANCH   7  10
HETATM   10  C   UNL     1      -9.663   4.703  67.645  1.00  0.00    -0.161 C  
BRANCH  10  11
HETATM   11  O   UNL     1      -8.528   5.180  66.910  1.00  0.00    -0.108 OA 
BRANCH  11  12
HETATM   12  C   UNL     1      -8.599   5.154  65.535  1.00  0.00    -0.143 A  
HETATM   13  C   UNL     1      -9.092   4.055  64.817  1.00  0.00    -0.141 A  
HETATM   14  C   UNL     1      -9.115   4.054  63.424  1.00  0.00    -0.124 A  
HETATM   15  C   UNL     1      -8.623   5.142  62.724  1.00  0.00    -0.100 A  
HETATM   16  C   UNL     1      -8.142   6.249  63.418  1.00  0.00    -0.048 A  
HETATM   17  C   UNL     1      -8.164   6.294  64.823  1.00  0.00    -0.100 A  
BRANCH  17  18
HETATM   18  O   UNL     1      -7.777   7.414  65.537  1.00  0.00    -0.094 OA 
BRANCH  18  19
HETATM   19  C   UNL     1      -8.802   8.406  65.677  1.00  0.00    -0.156 C  
BRANCH  19  20
HETATM   20  C   UNL     1      -8.527   9.590  64.800  1.00  0.00    -0.170 C  
HETATM   21  C   UNL     1      -9.489  10.397  64.328  1.00  0.00    -0.349 C  
ENDBRANCH  19  20
ENDBRANCH  18  19
ENDBRANCH  17  18
ENDBRANCH  11  12
ENDBRANCH  10  11
ENDBRANCH   7  10
ENDBRANCH   6   7
ENDBRANCH   4   6
ENDBRANCH   2   4
TORSDOF 9
ENDMDL
MODEL      351
REMARK 921   NORMALIZED FREE ENERGY PREDICTED BY IDOCK:   -2.12 KCAL/MOL
REMARK 922        TOTAL FREE ENERGY PREDICTED BY IDOCK:   -4.01 KCAL/MOL
REMARK 923 INTER-LIGAND FREE ENERGY PREDICTED BY IDOCK:   -2.78 KCAL/MOL
REMARK 924 INTRA-LIGAND FREE ENERGY PREDICTED BY IDOCK:   -1.24 KCAL/MOL
REMARK 927      BINDING AFFINITY PREDICTED BY RF-SCORE:    0.00 PKD
ROOT
HETATM    1  C   UNL     1      -8.477   9.171  70.915  1.00  0.00    -0.251 C  
HETATM    2  C   UNL     1      -7.811   9.906  69.751  1.00  0.00    -0.163 C  
HETATM    3  C   UNL     1      -6.554  10.624  70.255  1.00  0.00    -0.127 C  
ENDROOT
BRANCH   2   4
HETATM    4  N   UNL     1      -7.507   8.935  68.693  1.00  0.00    -0.086 NA 
HETATM    5  H   UNL     1      -7.899   9.234  67.800  1.00  0.00     0.000 HD 
BRANCH   4   6
HETATM    6  C   UNL     1      -6.070   8.658  68.570  1.00  0.00    -0.046 C  
BRANCH   6   7
HETATM    7  C   UNL     1      -5.776   7.145  68.486  1.00  0.00    -0.022 C  
HETATM    8  O   UNL     1      -6.605   6.422  69.403  1.00  0.00    -0.041 OA 
HETATM    9  H   UNL     1      -6.424   5.490  69.351  1.00  0.00     0.000 HD 
BRANCH   7  10
HETATM   10  C   UNL     1      -6.010   6.646  67.045  1.00  0.00    -0.021 C  
BRANCH  10  11
HETATM   11  O   UNL     1      -7.186   7.201  66.440  1.00  0.00    -0.075 OA 
BRANCH  11  12
HETATM   12  C   UNL     1      -8.294   6.391  66.335  1.00  0.00    -0.119 A  
HETATM   13  C   UNL     1      -8.214   5.020  66.047  1.00  0.00    -0.113 A  
HETATM   14  C   UNL     1      -9.361   4.241  65.914  1.00  0.00    -0.163 A  
HETATM   15  C   UNL     1     -10.610   4.824  66.042  1.00  0.00    -0.300 A  
HETATM   16  C   UNL     1     -10.712   6.180  66.341  1.00  0.00    -0.081 A  
HETATM   17  C   UNL     1      -9.567   6.971  66.537  1.00  0.00    -0.144 A  
BRANCH  17  18
HETATM   18  O   UNL     1      -9.636   8.298  66.922  1.00  0.00    -0.174 OA 
BRANCH  18  19
HETATM   19  C   UNL     1      -9.779   9.220  65.833  1.00  0.00    -0.285 C  
BRANCH  19  20
HETATM   20  C   UNL     1      -9.882  10.629  66.333  1.00  0.00    -0.259 C  
HETATM   21  C   UNL     1     -10.896  11.451  66.019  1.00  0.00    -0.306 C  
ENDBRANCH  19  20
ENDBRANCH  18  19
ENDBRANCH  17  18
ENDBRANCH  11  12
ENDBRANCH  10  11
ENDBRANCH   7  10
ENDBRANCH   6   7
ENDBRANCH   4   6
ENDBRANCH   2   4
TORSDOF 9
ENDMDL
MODEL      352
REMARK 921   NORMALIZED FREE ENERGY PREDICTED BY IDOCK:   -2.12 KCAL/MOL
REMARK 922        TOTAL FREE ENERGY PREDICTED BY IDOCK:   -4.01 KCAL/MOL
REMARK 923 INTER-LIGAND FREE ENERGY PREDICTED BY IDOCK:   -4.56 KCAL/MOL
REMARK 924 INTRA-LIGAND FREE ENERGY PREDICTED BY IDOCK:    0.55 KCAL/MOL
REMARK 927      BINDING AFFINITY PREDICTED BY RF-SCORE:    0.00 PKD
ROOT
HETATM    1  C   UNL     1     -12.973   6.997  71.389  1.00  0.00    -0.395 C  
HETATM    2  C   UNL     1     -13.187   8.512  71.377  1.00  0.00    -0.220 C  
HETATM    3  C   UNL     1     -14.065   8.911  72.569  1.00  0.00    -0.441 C  
ENDROOT
BRANCH   2   4
HETATM    4  N   UNL     1     -11.877   9.173  71.409  1.00  0.00    -0.320 NA 
HETATM    5  H   UNL     1     -11.203   8.621  71.939  1.00  0.00     0.000 HD 
BRANCH   4   6
HETATM    6  C   UNL     1     -11.364   9.486  70.068  1.00  0.00    -0.166 C  
BRANCH   6   7
HETATM    7  C   UNL     1     -10.750  10.900  69.998  1.00  0.00     0.014 C  
HETATM    8  O   UNL     1      -9.321  10.827  70.007  1.00  0.00    -0.202 OA 
HETATM    9  H   UNL     1      -8.943  11.697  69.964  1.00  0.00     0.000 HD 
BRANCH   7  10
HETATM   10  C   UNL     1     -11.241  11.621  68.726  1.00  0.00    -0.245 C  
BRANCH  10  11
HETATM   11  O   UNL     1     -11.377  10.745  67.598  1.00  0.00    -0.392 OA 
BRANCH  11  12
HETATM   12  C   UNL     1     -10.276  10.563  66.793  1.00  0.00    -0.234 A  
HETATM   13  C   UNL     1      -9.929   9.320  66.243  1.00  0.00    -0.357 A  
HETATM   14  C   UNL     1      -8.785   9.170  65.461  1.00  0.00    -0.210 A  
HETATM   15  C   UNL     1      -7.955  10.255  65.236  1.00  0.00    -0.148 A  
HETATM   16  C   UNL     1      -8.289  11.501  65.761  1.00  0.00     0.187 A  
HETATM   17  C   UNL     1      -9.468  11.685  66.504  1.00  0.00    -0.206 A  
BRANCH  17  18
HETATM   18  O   UNL     1      -9.871  12.927  66.962  1.00  0.00    -0.224 OA 
BRANCH  18  19
HETATM   19  C   UNL     1     -10.787  13.607  66.093  1.00  0.00    -0.279 C  
BRANCH  19  20
HETATM   20  C   UNL     1     -11.683  14.524  66.870  1.00  0.00    -0.399 C  
HETATM   21  C   UNL     1     -11.235  15.380  67.799  1.00  0.00    -0.321 C  
ENDBRANCH  19  20
ENDBRANCH  18  19
ENDBRANCH  17  18
ENDBRANCH  11  12
ENDBRANCH  10  11
ENDBRANCH   7  10
ENDBRANCH   6   7
ENDBRANCH   4   6
ENDBRANCH   2   4
TORSDOF 9
ENDMDL
MODEL      353
REMARK 921   NORMALIZED FREE ENERGY PREDICTED BY IDOCK:   -2.11 KCAL/MOL
REMARK 922        TOTAL FREE ENERGY PREDICTED BY IDOCK:   -3.99 KCAL/MOL
REMARK 923 INTER-LIGAND FREE ENERGY PREDICTED BY IDOCK:   -3.31 KCAL/MOL
REMARK 924 INTRA-LIGAND FREE ENERGY PREDICTED BY IDOCK:   -0.68 KCAL/MOL
REMARK 927      BINDING AFFINITY PREDICTED BY RF-SCORE:    0.00 PKD
ROOT
HETATM    1  C   UNL     1     -11.439  10.291  70.598  1.00  0.00    -0.435 C  
HETATM    2  C   UNL     1     -10.236   9.682  69.875  1.00  0.00    -0.245 C  
HETATM    3  C   UNL     1     -10.730   8.784  68.734  1.00  0.00    -0.111 C  
ENDROOT
BRANCH   2   4
HETATM    4  N   UNL     1      -9.378  10.770  69.391  1.00  0.00    -0.415 NA 
HETATM    5  H   UNL     1      -9.033  11.335  70.167  1.00  0.00     0.000 HD 
BRANCH   4   6
HETATM    6  C   UNL     1      -8.269  10.292  68.554  1.00  0.00    -0.111 C  
BRANCH   6   7
HETATM    7  C   UNL     1      -7.053   9.854  69.397  1.00  0.00    -0.067 C  
HETATM    8  O   UNL     1      -6.825  10.778  70.467  1.00  0.00    -0.461 OA 
HETATM    9  H   UNL     1      -6.076  10.508  70.986  1.00  0.00     0.000 HD 
BRANCH   7  10
HETATM   10  C   UNL     1      -7.287   8.435  69.955  1.00  0.00    -0.059 C  
BRANCH  10  11
HETATM   11  O   UNL     1      -7.446   7.444  68.931  1.00  0.00    -0.095 OA 
BRANCH  11  12
HETATM   12  C   UNL     1      -7.899   6.200  69.309  1.00  0.00    -0.104 A  
HETATM   13  C   UNL     1      -8.413   5.930  70.586  1.00  0.00    -0.129 A  
HETATM   14  C   UNL     1      -8.829   4.648  70.940  1.00  0.00    -0.149 A  
HETATM   15  C   UNL     1      -8.714   3.609  70.033  1.00  0.00    -0.122 A  
HETATM   16  C   UNL     1      -8.220   3.859  68.755  1.00  0.00    -0.083 A  
HETATM   17  C   UNL     1      -7.850   5.156  68.359  1.00  0.00    -0.087 A  
BRANCH  17  18
HETATM   18  O   UNL     1      -7.440   5.450  67.071  1.00  0.00    -0.085 OA 
BRANCH  18  19
HETATM   19  C   UNL     1      -8.038   4.628  66.060  1.00  0.00    -0.103 C  
BRANCH  19  20
HETATM   20  C   UNL     1      -9.335   5.213  65.589  1.00  0.00    -0.149 C  
HETATM   21  C   UNL     1     -10.534   4.710  65.920  1.00  0.00    -0.305 C  
ENDBRANCH  19  20
ENDBRANCH  18  19
ENDBRANCH  17  18
ENDBRANCH  11  12
ENDBRANCH  10  11
ENDBRANCH   7  10
ENDBRANCH   6   7
ENDBRANCH   4   6
ENDBRANCH   2   4
TORSDOF 9
ENDMDL
MODEL      354
REMARK 921   NORMALIZED FREE ENERGY PREDICTED BY IDOCK:   -2.09 KCAL/MOL
REMARK 922        TOTAL FREE ENERGY PREDICTED BY IDOCK:   -3.96 KCAL/MOL
REMARK 923 INTER-LIGAND FREE ENERGY PREDICTED BY IDOCK:   -2.97 KCAL/MOL
REMARK 924 INTRA-LIGAND FREE ENERGY PREDICTED BY IDOCK:   -1.00 KCAL/MOL
REMARK 927      BINDING AFFINITY PREDICTED BY RF-SCORE:    0.00 PKD
ROOT
HETATM    1  C   UNL     1      -8.302   9.273  70.652  1.00  0.00    -0.245 C  
HETATM    2  C   UNL     1      -8.253  10.050  69.335  1.00  0.00    -0.155 C  
HETATM    3  C   UNL     1      -7.109  11.071  69.390  1.00  0.00    -0.128 C  
ENDROOT
BRANCH   2   4
HETATM    4  N   UNL     1      -8.091   9.097  68.231  1.00  0.00    -0.104 NA 
HETATM    5  H   UNL     1      -8.909   9.101  67.622  1.00  0.00     0.000 HD 
BRANCH   4   6
HETATM    6  C   UNL     1      -6.859   9.319  67.462  1.00  0.00    -0.077 C  
BRANCH   6   7
HETATM    7  C   UNL     1      -5.898   8.116  67.545  1.00  0.00    -0.039 C  
HETATM    8  O   UNL     1      -5.850   7.603  68.881  1.00  0.00    -0.026 OA 
HETATM    9  H   UNL     1      -5.258   6.862  68.932  1.00  0.00     0.000 HD 
BRANCH   7  10
HETATM   10  C   UNL     1      -6.353   7.014  66.565  1.00  0.00    -0.050 C  
BRANCH  10  11
HETATM   11  O   UNL     1      -7.767   7.018  66.329  1.00  0.00    -0.089 OA 
BRANCH  11  12
HETATM   12  C   UNL     1      -8.299   5.968  65.615  1.00  0.00    -0.145 A  
HETATM   13  C   UNL     1      -7.902   5.655  64.307  1.00  0.00    -0.112 A  
HETATM   14  C   UNL     1      -8.490   4.605  63.605  1.00  0.00    -0.125 A  
HETATM   15  C   UNL     1      -9.504   3.866  64.189  1.00  0.00    -0.159 A  
HETATM   16  C   UNL     1      -9.904   4.151  65.492  1.00  0.00    -0.210 A  
HETATM   17  C   UNL     1      -9.283   5.168  66.238  1.00  0.00    -0.146 A  
BRANCH  17  18
HETATM   18  O   UNL     1      -9.598   5.416  67.563  1.00  0.00    -0.117 OA 
BRANCH  18  19
HETATM   19  C   UNL     1     -10.829   6.126  67.753  1.00  0.00    -0.325 C  
BRANCH  19  20
HETATM   20  C   UNL     1     -10.836   6.848  69.066  1.00  0.00    -0.247 C  
HETATM   21  C   UNL     1     -11.625   6.502  70.094  1.00  0.00    -0.466 C  
ENDBRANCH  19  20
ENDBRANCH  18  19
ENDBRANCH  17  18
ENDBRANCH  11  12
ENDBRANCH  10  11
ENDBRANCH   7  10
ENDBRANCH   6   7
ENDBRANCH   4   6
ENDBRANCH   2   4
TORSDOF 9
ENDMDL
MODEL      355
REMARK 921   NORMALIZED FREE ENERGY PREDICTED BY IDOCK:   -2.06 KCAL/MOL
REMARK 922        TOTAL FREE ENERGY PREDICTED BY IDOCK:   -3.92 KCAL/MOL
REMARK 923 INTER-LIGAND FREE ENERGY PREDICTED BY IDOCK:   -3.15 KCAL/MOL
REMARK 924 INTRA-LIGAND FREE ENERGY PREDICTED BY IDOCK:   -0.77 KCAL/MOL
REMARK 927      BINDING AFFINITY PREDICTED BY RF-SCORE:    0.00 PKD
ROOT
HETATM    1  C   UNL     1      -9.153   4.076  71.718  1.00  0.00    -0.171 C  
HETATM    2  C   UNL     1     -10.303   4.667  72.537  1.00  0.00    -0.199 C  
HETATM    3  C   UNL     1      -9.758   5.204  73.865  1.00  0.00    -0.155 C  
ENDROOT
BRANCH   2   4
HETATM    4  N   UNL     1     -10.958   5.713  71.743  1.00  0.00    -0.249 NA 
HETATM    5  H   UNL     1     -10.719   6.641  72.095  1.00  0.00     0.000 HD 
BRANCH   4   6
HETATM    6  C   UNL     1     -10.668   5.604  70.307  1.00  0.00    -0.294 C  
BRANCH   6   7
HETATM    7  C   UNL     1     -10.434   6.983  69.656  1.00  0.00    -0.223 C  
HETATM    8  O   UNL     1     -11.443   7.911  70.070  1.00  0.00    -0.466 OA 
HETATM    9  H   UNL     1     -11.299   8.760  69.669  1.00  0.00     0.000 HD 
BRANCH   7  10
HETATM   10  C   UNL     1      -9.035   7.510  70.036  1.00  0.00    -0.144 C  
BRANCH  10  11
HETATM   11  O   UNL     1      -8.036   7.221  69.049  1.00  0.00    -0.115 OA 
BRANCH  11  12
HETATM   12  C   UNL     1      -8.090   7.915  67.861  1.00  0.00    -0.129 A  
HETATM   13  C   UNL     1      -8.346   9.293  67.792  1.00  0.00    -0.116 A  
HETATM   14  C   UNL     1      -8.428   9.952  66.568  1.00  0.00    -0.127 A  
HETATM   15  C   UNL     1      -8.280   9.241  65.389  1.00  0.00    -0.129 A  
HETATM   16  C   UNL     1      -8.012   7.875  65.435  1.00  0.00    -0.123 A  
HETATM   17  C   UNL     1      -7.868   7.203  66.661  1.00  0.00    -0.109 A  
BRANCH  17  18
HETATM   18  O   UNL     1      -7.514   5.868  66.739  1.00  0.00    -0.084 OA 
BRANCH  18  19
HETATM   19  C   UNL     1      -7.168   5.276  65.480  1.00  0.00    -0.068 C  
BRANCH  19  20
HETATM   20  C   UNL     1      -8.052   4.105  65.176  1.00  0.00    -0.101 C  
HETATM   21  C   UNL     1      -9.072   4.158  64.306  1.00  0.00    -0.147 C  
ENDBRANCH  19  20
ENDBRANCH  18  19
ENDBRANCH  17  18
ENDBRANCH  11  12
ENDBRANCH  10  11
ENDBRANCH   7  10
ENDBRANCH   6   7
ENDBRANCH   4   6
ENDBRANCH   2   4
TORSDOF 9
ENDMDL
MODEL      356
REMARK 921   NORMALIZED FREE ENERGY PREDICTED BY IDOCK:   -2.05 KCAL/MOL
REMARK 922        TOTAL FREE ENERGY PREDICTED BY IDOCK:   -3.90 KCAL/MOL
REMARK 923 INTER-LIGAND FREE ENERGY PREDICTED BY IDOCK:   -2.93 KCAL/MOL
REMARK 924 INTRA-LIGAND FREE ENERGY PREDICTED BY IDOCK:   -0.97 KCAL/MOL
REMARK 927      BINDING AFFINITY PREDICTED BY RF-SCORE:    0.00 PKD
ROOT
HETATM    1  C   UNL     1     -12.111  11.238  70.768  1.00  0.00    -0.450 C  
HETATM    2  C   UNL     1     -11.671  10.804  69.368  1.00  0.00    -0.306 C  
HETATM    3  C   UNL     1     -12.144  11.841  68.342  1.00  0.00    -0.098 C  
ENDROOT
BRANCH   2   4
HETATM    4  N   UNL     1     -10.212  10.644  69.361  1.00  0.00    -0.313 NA 
HETATM    5  H   UNL     1      -9.916   9.967  70.064  1.00  0.00     0.000 HD 
BRANCH   4   6
HETATM    6  C   UNL     1      -9.684  10.293  68.036  1.00  0.00    -0.149 C  
BRANCH   6   7
HETATM    7  C   UNL     1      -8.220   9.811  68.104  1.00  0.00    -0.109 C  
HETATM    8  O   UNL     1      -7.431  10.713  68.888  1.00  0.00    -0.090 OA 
HETATM    9  H   UNL     1      -6.530  10.416  68.929  1.00  0.00     0.000 HD 
BRANCH   7  10
HETATM   10  C   UNL     1      -8.164   8.391  68.704  1.00  0.00    -0.123 C  
BRANCH  10  11
HETATM   11  O   UNL     1      -9.349   7.624  68.450  1.00  0.00    -0.146 OA 
BRANCH  11  12
HETATM   12  C   UNL     1      -9.289   6.660  67.469  1.00  0.00    -0.123 A  
HETATM   13  C   UNL     1      -8.482   6.780  66.328  1.00  0.00    -0.131 A  
HETATM   14  C   UNL     1      -8.476   5.797  65.340  1.00  0.00    -0.151 A  
HETATM   15  C   UNL     1      -9.296   4.689  65.464  1.00  0.00    -0.159 A  
HETATM   16  C   UNL     1     -10.094   4.543  66.596  1.00  0.00    -0.238 A  
HETATM   17  C   UNL     1     -10.071   5.494  67.631  1.00  0.00    -0.178 A  
BRANCH  17  18
HETATM   18  O   UNL     1     -10.784   5.332  68.805  1.00  0.00    -0.124 OA 
BRANCH  18  19
HETATM   19  C   UNL     1     -10.247   4.338  69.689  1.00  0.00     0.287 C  
BRANCH  19  20
HETATM   20  C   UNL     1      -9.531   4.975  70.842  1.00  0.00    -0.222 C  
HETATM   21  C   UNL     1      -8.211   5.211  70.850  1.00  0.00    -0.110 C  
ENDBRANCH  19  20
ENDBRANCH  18  19
ENDBRANCH  17  18
ENDBRANCH  11  12
ENDBRANCH  10  11
ENDBRANCH   7  10
ENDBRANCH   6   7
ENDBRANCH   4   6
ENDBRANCH   2   4
TORSDOF 9
ENDMDL
MODEL      357
REMARK 921   NORMALIZED FREE ENERGY PREDICTED BY IDOCK:   -2.04 KCAL/MOL
REMARK 922        TOTAL FREE ENERGY PREDICTED BY IDOCK:   -3.88 KCAL/MOL
REMARK 923 INTER-LIGAND FREE ENERGY PREDICTED BY IDOCK:   -4.16 KCAL/MOL
REMARK 924 INTRA-LIGAND FREE ENERGY PREDICTED BY IDOCK:    0.28 KCAL/MOL
REMARK 927      BINDING AFFINITY PREDICTED BY RF-SCORE:    0.00 PKD
ROOT
HETATM    1  C   UNL     1     -13.029   6.782  71.375  1.00  0.00    -0.250 C  
HETATM    2  C   UNL     1     -12.934   8.300  71.207  1.00  0.00    -0.150 C  
HETATM    3  C   UNL     1     -13.650   8.986  72.376  1.00  0.00    -0.533 C  
ENDROOT
BRANCH   2   4
HETATM    4  N   UNL     1     -11.519   8.677  71.126  1.00  0.00    -0.271 NA 
HETATM    5  H   UNL     1     -10.938   8.035  71.666  1.00  0.00     0.000 HD 
BRANCH   4   6
HETATM    6  C   UNL     1     -11.036   8.787  69.743  1.00  0.00    -0.140 C  
BRANCH   6   7
HETATM    7  C   UNL     1     -10.015   9.932  69.574  1.00  0.00    -0.222 C  
HETATM    8  O   UNL     1      -8.695   9.404  69.401  1.00  0.00    -0.139 OA 
HETATM    9  H   UNL     1      -8.066  10.110  69.297  1.00  0.00     0.000 HD 
BRANCH   7  10
HETATM   10  C   UNL     1     -10.405  10.806  68.364  1.00  0.00    -0.180 C  
BRANCH  10  11
HETATM   11  O   UNL     1      -9.361  10.915  67.387  1.00  0.00    -0.154 OA 
BRANCH  11  12
HETATM   12  C   UNL     1      -8.363  11.835  67.617  1.00  0.00    -0.145 A  
HETATM   13  C   UNL     1      -7.027  11.473  67.842  1.00  0.00    -0.075 A  
HETATM   14  C   UNL     1      -6.052  12.434  68.106  1.00  0.00    -0.065 A  
HETATM   15  C   UNL     1      -6.402  13.771  68.175  1.00  0.00    -0.125 A  
HETATM   16  C   UNL     1      -7.721  14.154  67.941  1.00  0.00    -0.161 A  
HETATM   17  C   UNL     1      -8.707  13.206  67.616  1.00  0.00    -0.192 A  
BRANCH  17  18
HETATM   18  O   UNL     1     -10.003  13.564  67.291  1.00  0.00    -0.230 OA 
BRANCH  18  19
HETATM   19  C   UNL     1     -10.191  13.911  65.913  1.00  0.00    -0.315 C  
BRANCH  19  20
HETATM   20  C   UNL     1     -11.619  13.715  65.500  1.00  0.00    -0.337 C  
HETATM   21  C   UNL     1     -12.028  13.750  64.223  1.00  0.00    -0.481 C  
ENDBRANCH  19  20
ENDBRANCH  18  19
ENDBRANCH  17  18
ENDBRANCH  11  12
ENDBRANCH  10  11
ENDBRANCH   7  10
ENDBRANCH   6   7
ENDBRANCH   4   6
ENDBRANCH   2   4
TORSDOF 9
ENDMDL
MODEL      358
REMARK 921   NORMALIZED FREE ENERGY PREDICTED BY IDOCK:   -2.01 KCAL/MOL
REMARK 922        TOTAL FREE ENERGY PREDICTED BY IDOCK:   -3.83 KCAL/MOL
REMARK 923 INTER-LIGAND FREE ENERGY PREDICTED BY IDOCK:   -2.86 KCAL/MOL
REMARK 924 INTRA-LIGAND FREE ENERGY PREDICTED BY IDOCK:   -0.97 KCAL/MOL
REMARK 927      BINDING AFFINITY PREDICTED BY RF-SCORE:    0.00 PKD
ROOT
HETATM    1  C   UNL     1     -11.895  11.362  70.118  1.00  0.00    -0.440 C  
HETATM    2  C   UNL     1     -11.171  11.114  68.793  1.00  0.00    -0.253 C  
HETATM    3  C   UNL     1     -11.674  12.114  67.744  1.00  0.00    -0.390 C  
ENDROOT
BRANCH   2   4
HETATM    4  N   UNL     1      -9.726  11.228  69.018  1.00  0.00    -0.391 NA 
HETATM    5  H   UNL     1      -9.413  10.567  69.728  1.00  0.00     0.000 HD 
BRANCH   4   6
HETATM    6  C   UNL     1      -8.943  11.082  67.782  1.00  0.00    -0.140 C  
BRANCH   6   7
HETATM    7  C   UNL     1      -7.432  10.955  68.065  1.00  0.00    -0.090 C  
HETATM    8  O   UNL     1      -6.891  12.216  68.474  1.00  0.00    -0.074 OA 
HETATM    9  H   UNL     1      -5.960  12.138  68.648  1.00  0.00     0.000 HD 
BRANCH   7  10
HETATM   10  C   UNL     1      -7.191   9.890  69.154  1.00  0.00    -0.072 C  
BRANCH  10  11
HETATM   11  O   UNL     1      -8.105   8.788  69.077  1.00  0.00    -0.112 OA 
BRANCH  11  12
HETATM   12  C   UNL     1      -7.681   7.650  68.430  1.00  0.00    -0.119 A  
HETATM   13  C   UNL     1      -6.811   7.676  67.329  1.00  0.00    -0.069 A  
HETATM   14  C   UNL     1      -6.433   6.503  66.679  1.00  0.00    -0.043 A  
HETATM   15  C   UNL     1      -6.938   5.285  67.101  1.00  0.00    -0.065 A  
HETATM   16  C   UNL     1      -7.791   5.236  68.201  1.00  0.00    -0.088 A  
HETATM   17  C   UNL     1      -8.138   6.401  68.907  1.00  0.00    -0.111 A  
BRANCH  17  18
HETATM   18  O   UNL     1      -8.911   6.372  70.054  1.00  0.00    -0.140 OA 
BRANCH  18  19
HETATM   19  C   UNL     1      -8.246   5.820  71.198  1.00  0.00    -0.122 C  
BRANCH  19  20
HETATM   20  C   UNL     1      -7.820   6.900  72.145  1.00  0.00    -0.094 C  
HETATM   21  C   UNL     1      -6.599   7.455  72.130  1.00  0.00    -0.051 C  
ENDBRANCH  19  20
ENDBRANCH  18  19
ENDBRANCH  17  18
ENDBRANCH  11  12
ENDBRANCH  10  11
ENDBRANCH   7  10
ENDBRANCH   6   7
ENDBRANCH   4   6
ENDBRANCH   2   4
TORSDOF 9
ENDMDL
MODEL      359
REMARK 921   NORMALIZED FREE ENERGY PREDICTED BY IDOCK:   -1.97 KCAL/MOL
REMARK 922        TOTAL FREE ENERGY PREDICTED BY IDOCK:   -3.78 KCAL/MOL
REMARK 923 INTER-LIGAND FREE ENERGY PREDICTED BY IDOCK:   -3.74 KCAL/MOL
REMARK 924 INTRA-LIGAND FREE ENERGY PREDICTED BY IDOCK:   -0.04 KCAL/MOL
REMARK 927      BINDING AFFINITY PREDICTED BY RF-SCORE:    0.00 PKD
ROOT
HETATM    1  C   UNL     1      -9.478   6.963  71.320  1.00  0.00    -0.165 C  
HETATM    2  C   UNL     1     -10.725   6.084  71.204  1.00  0.00    -0.264 C  
HETATM    3  C   UNL     1     -11.704   6.441  72.329  1.00  0.00    -0.333 C  
ENDROOT
BRANCH   2   4
HETATM    4  N   UNL     1     -11.315   6.277  69.875  1.00  0.00    -0.427 NA 
HETATM    5  H   UNL     1     -12.224   6.736  69.942  1.00  0.00     0.000 HD 
BRANCH   4   6
HETATM    6  C   UNL     1     -10.426   7.002  68.956  1.00  0.00    -0.207 C  
BRANCH   6   7
HETATM    7  C   UNL     1     -10.233   6.250  67.622  1.00  0.00    -0.169 C  
HETATM    8  O   UNL     1     -11.469   6.182  66.902  1.00  0.00    -0.556 OA 
HETATM    9  H   UNL     1     -11.350   5.720  66.081  1.00  0.00     0.000 HD 
BRANCH   7  10
HETATM   10  C   UNL     1      -9.158   6.959  66.774  1.00  0.00    -0.145 C  
BRANCH  10  11
HETATM   11  O   UNL     1      -9.146   8.382  66.952  1.00  0.00    -0.137 OA 
BRANCH  11  12
HETATM   12  C   UNL     1      -8.996   9.166  65.830  1.00  0.00    -0.189 A  
HETATM   13  C   UNL     1     -10.063   9.847  65.226  1.00  0.00    -0.227 A  
HETATM   14  C   UNL     1      -9.876  10.602  64.070  1.00  0.00    -0.399 A  
HETATM   15  C   UNL     1      -8.624  10.670  63.484  1.00  0.00    -0.124 A  
HETATM   16  C   UNL     1      -7.548  10.012  64.076  1.00  0.00    -0.139 A  
HETATM   17  C   UNL     1      -7.703   9.293  65.273  1.00  0.00    -0.103 A  
BRANCH  17  18
HETATM   18  O   UNL     1      -6.637   8.706  65.931  1.00  0.00    -0.056 OA 
BRANCH  18  19
HETATM   19  C   UNL     1      -6.246   7.433  65.398  1.00  0.00    -0.038 C  
BRANCH  19  20
HETATM   20  C   UNL     1      -5.218   7.596  64.320  1.00  0.00    -0.029 C  
HETATM   21  C   UNL     1      -5.457   7.333  63.027  1.00  0.00    -0.037 C  
ENDBRANCH  19  20
ENDBRANCH  18  19
ENDBRANCH  17  18
ENDBRANCH  11  12
ENDBRANCH  10  11
ENDBRANCH   7  10
ENDBRANCH   6   7
ENDBRANCH   4   6
ENDBRANCH   2   4
TORSDOF 9
ENDMDL
MODEL      360
REMARK 921   NORMALIZED FREE ENERGY PREDICTED BY IDOCK:   -1.95 KCAL/MOL
REMARK 922        TOTAL FREE ENERGY PREDICTED BY IDOCK:   -3.74 KCAL/MOL
REMARK 923 INTER-LIGAND FREE ENERGY PREDICTED BY IDOCK:   -3.55 KCAL/MOL
REMARK 924 INTRA-LIGAND FREE ENERGY PREDICTED BY IDOCK:   -0.19 KCAL/MOL
REMARK 927      BINDING AFFINITY PREDICTED BY RF-SCORE:    0.00 PKD
ROOT
HETATM    1  C   UNL     1      -5.454  13.785  67.520  1.00  0.00     0.126 C  
HETATM    2  C   UNL     1      -5.381  12.459  68.280  1.00  0.00    -0.058 C  
HETATM    3  C   UNL     1      -5.259  12.740  69.782  1.00  0.00    -0.083 C  
ENDROOT
BRANCH   2   4
HETATM    4  N   UNL     1      -6.574  11.667  67.960  1.00  0.00    -0.060 NA 
HETATM    5  H   UNL     1      -6.357  10.939  67.278  1.00  0.00     0.000 HD 
BRANCH   4   6
HETATM    6  C   UNL     1      -7.216  11.096  69.152  1.00  0.00    -0.123 C  
BRANCH   6   7
HETATM    7  C   UNL     1      -8.615  10.524  68.840  1.00  0.00    -0.153 C  
HETATM    8  O   UNL     1      -9.620  11.524  69.038  1.00  0.00    -0.397 OA 
HETATM    9  H   UNL     1     -10.482  11.172  68.846  1.00  0.00     0.000 HD 
BRANCH   7  10
HETATM   10  C   UNL     1      -8.655  10.004  67.389  1.00  0.00    -0.125 C  
BRANCH  10  11
HETATM   11  O   UNL     1      -8.211  10.973  66.429  1.00  0.00    -0.158 OA 
BRANCH  11  12
HETATM   12  C   UNL     1      -8.712  10.883  65.150  1.00  0.00    -0.122 A  
HETATM   13  C   UNL     1      -8.248   9.948  64.213  1.00  0.00    -0.161 A  
HETATM   14  C   UNL     1      -8.757   9.912  62.916  1.00  0.00    -0.213 A  
HETATM   15  C   UNL     1      -9.721  10.826  62.527  1.00  0.00    -0.176 A  
HETATM   16  C   UNL     1     -10.205  11.754  63.446  1.00  0.00    -0.482 A  
HETATM   17  C   UNL     1      -9.746  11.768  64.775  1.00  0.00    -0.161 A  
BRANCH  17  18
HETATM   18  O   UNL     1     -10.272  12.617  65.733  1.00  0.00    -0.264 OA 
BRANCH  18  19
HETATM   19  C   UNL     1      -9.929  13.998  65.548  1.00  0.00    -0.276 C  
BRANCH  19  20
HETATM   20  C   UNL     1     -11.084  14.888  65.893  1.00  0.00    -0.338 C  
HETATM   21  C   UNL     1     -11.734  14.832  67.066  1.00  0.00    -0.330 C  
ENDBRANCH  19  20
ENDBRANCH  18  19
ENDBRANCH  17  18
ENDBRANCH  11  12
ENDBRANCH  10  11
ENDBRANCH   7  10
ENDBRANCH   6   7
ENDBRANCH   4   6
ENDBRANCH   2   4
TORSDOF 9
ENDMDL
MODEL      361
REMARK 921   NORMALIZED FREE ENERGY PREDICTED BY IDOCK:   -1.93 KCAL/MOL
REMARK 922        TOTAL FREE ENERGY PREDICTED BY IDOCK:   -3.71 KCAL/MOL
REMARK 923 INTER-LIGAND FREE ENERGY PREDICTED BY IDOCK:   -3.31 KCAL/MOL
REMARK 924 INTRA-LIGAND FREE ENERGY PREDICTED BY IDOCK:   -0.41 KCAL/MOL
REMARK 927      BINDING AFFINITY PREDICTED BY RF-SCORE:    0.00 PKD
ROOT
HETATM    1  C   UNL     1      -7.185  14.954  69.371  1.00  0.00    -0.182 C  
HETATM    2  C   UNL     1      -7.057  13.921  68.249  1.00  0.00    -0.108 C  
HETATM    3  C   UNL     1      -5.589  13.821  67.816  1.00  0.00    -0.064 C  
ENDROOT
BRANCH   2   4
HETATM    4  N   UNL     1      -7.581  12.637  68.729  1.00  0.00    -0.270 NA 
HETATM    5  H   UNL     1      -8.601  12.648  68.761  1.00  0.00     0.000 HD 
BRANCH   4   6
HETATM    6  C   UNL     1      -7.092  11.494  67.947  1.00  0.00    -0.076 C  
BRANCH   6   7
HETATM    7  C   UNL     1      -7.141  10.177  68.751  1.00  0.00    -0.075 C  
HETATM    8  O   UNL     1      -5.934  10.001  69.499  1.00  0.00    -0.040 OA 
HETATM    9  H   UNL     1      -5.964   9.190  69.994  1.00  0.00     0.000 HD 
BRANCH   7  10
HETATM   10  C   UNL     1      -8.360  10.188  69.697  1.00  0.00    -0.161 C  
BRANCH  10  11
HETATM   11  O   UNL     1      -8.915   8.884  69.916  1.00  0.00    -0.143 OA 
BRANCH  11  12
HETATM   12  C   UNL     1      -8.539   8.212  71.057  1.00  0.00    -0.137 A  
HETATM   13  C   UNL     1      -7.268   7.643  71.225  1.00  0.00    -0.062 A  
HETATM   14  C   UNL     1      -6.937   6.941  72.382  1.00  0.00    -0.066 A  
HETATM   15  C   UNL     1      -7.880   6.773  73.381  1.00  0.00    -0.097 A  
HETATM   16  C   UNL     1      -9.144   7.342  73.241  1.00  0.00    -0.220 A  
HETATM   17  C   UNL     1      -9.478   8.104  72.108  1.00  0.00    -0.225 A  
BRANCH  17  18
HETATM   18  O   UNL     1     -10.692   8.754  71.981  1.00  0.00    -0.325 OA 
BRANCH  18  19
HETATM   19  C   UNL     1     -11.786   8.092  72.630  1.00  0.00    -0.358 C  
BRANCH  19  20
HETATM   20  C   UNL     1     -13.003   8.080  71.756  1.00  0.00    -0.354 C  
HETATM   21  C   UNL     1     -13.622   9.195  71.340  1.00  0.00    -0.348 C  
ENDBRANCH  19  20
ENDBRANCH  18  19
ENDBRANCH  17  18
ENDBRANCH  11  12
ENDBRANCH  10  11
ENDBRANCH   7  10
ENDBRANCH   6   7
ENDBRANCH   4   6
ENDBRANCH   2   4
TORSDOF 9
ENDMDL
MODEL      362
REMARK 921   NORMALIZED FREE ENERGY PREDICTED BY IDOCK:   -1.92 KCAL/MOL
REMARK 922        TOTAL FREE ENERGY PREDICTED BY IDOCK:   -3.70 KCAL/MOL
REMARK 923 INTER-LIGAND FREE ENERGY PREDICTED BY IDOCK:   -3.44 KCAL/MOL
REMARK 924 INTRA-LIGAND FREE ENERGY PREDICTED BY IDOCK:   -0.26 KCAL/MOL
REMARK 927      BINDING AFFINITY PREDICTED BY RF-SCORE:    0.00 PKD
ROOT
HETATM    1  C   UNL     1     -13.892   9.685  72.221  1.00  0.00    -0.301 C  
HETATM    2  C   UNL     1     -12.775   9.938  71.207  1.00  0.00    -0.383 C  
HETATM    3  C   UNL     1     -12.679  11.441  70.920  1.00  0.00    -0.397 C  
ENDROOT
BRANCH   2   4
HETATM    4  N   UNL     1     -11.520   9.396  71.742  1.00  0.00    -0.386 NA 
HETATM    5  H   UNL     1     -11.684   8.889  72.612  1.00  0.00     0.000 HD 
BRANCH   4   6
HETATM    6  C   UNL     1     -10.800   8.561  70.772  1.00  0.00    -0.231 C  
BRANCH   6   7
HETATM    7  C   UNL     1      -9.523   9.249  70.248  1.00  0.00    -0.238 C  
HETATM    8  O   UNL     1      -8.529   9.311  71.277  1.00  0.00    -0.314 OA 
HETATM    9  H   UNL     1      -7.742   9.736  70.955  1.00  0.00     0.000 HD 
BRANCH   7  10
HETATM   10  C   UNL     1      -8.979   8.483  69.025  1.00  0.00    -0.146 C  
BRANCH  10  11
HETATM   11  O   UNL     1      -7.565   8.640  68.843  1.00  0.00    -0.088 OA 
BRANCH  11  12
HETATM   12  C   UNL     1      -7.081   8.629  67.555  1.00  0.00    -0.080 A  
HETATM   13  C   UNL     1      -6.509   9.755  66.944  1.00  0.00    -0.066 A  
HETATM   14  C   UNL     1      -6.062   9.712  65.625  1.00  0.00    -0.066 A  
HETATM   15  C   UNL     1      -6.202   8.551  64.885  1.00  0.00    -0.060 A  
HETATM   16  C   UNL     1      -6.755   7.417  65.477  1.00  0.00    -0.048 A  
HETATM   17  C   UNL     1      -7.158   7.422  66.823  1.00  0.00    -0.079 A  
BRANCH  17  18
HETATM   18  O   UNL     1      -7.627   6.289  67.463  1.00  0.00    -0.093 OA 
BRANCH  18  19
HETATM   19  C   UNL     1      -8.586   5.540  66.705  1.00  0.00    -0.116 C  
BRANCH  19  20
HETATM   20  C   UNL     1      -9.648   4.969  67.596  1.00  0.00    -0.173 C  
HETATM   21  C   UNL     1      -9.572   3.747  68.143  1.00  0.00    -0.176 C  
ENDBRANCH  19  20
ENDBRANCH  18  19
ENDBRANCH  17  18
ENDBRANCH  11  12
ENDBRANCH  10  11
ENDBRANCH   7  10
ENDBRANCH   6   7
ENDBRANCH   4   6
ENDBRANCH   2   4
TORSDOF 9
ENDMDL
MODEL      363
REMARK 921   NORMALIZED FREE ENERGY PREDICTED BY IDOCK:   -1.83 KCAL/MOL
REMARK 922        TOTAL FREE ENERGY PREDICTED BY IDOCK:   -3.57 KCAL/MOL
REMARK 923 INTER-LIGAND FREE ENERGY PREDICTED BY IDOCK:   -2.68 KCAL/MOL
REMARK 924 INTRA-LIGAND FREE ENERGY PREDICTED BY IDOCK:   -0.89 KCAL/MOL
REMARK 927      BINDING AFFINITY PREDICTED BY RF-SCORE:    0.00 PKD
ROOT
HETATM    1  C   UNL     1     -11.351   6.485  70.661  1.00  0.00    -0.409 C  
HETATM    2  C   UNL     1     -10.356   7.356  69.892  1.00  0.00    -0.218 C  
HETATM    3  C   UNL     1     -10.257   8.730  70.565  1.00  0.00    -0.240 C  
ENDROOT
BRANCH   2   4
HETATM    4  N   UNL     1      -9.061   6.666  69.851  1.00  0.00    -0.144 NA 
HETATM    5  H   UNL     1      -8.889   6.159  70.719  1.00  0.00     0.000 HD 
BRANCH   4   6
HETATM    6  C   UNL     1      -8.925   5.780  68.687  1.00  0.00    -0.112 C  
BRANCH   6   7
HETATM    7  C   UNL     1      -8.324   6.511  67.468  1.00  0.00    -0.121 C  
HETATM    8  O   UNL     1      -7.019   6.003  67.173  1.00  0.00    -0.065 OA 
HETATM    9  H   UNL     1      -6.649   6.453  66.422  1.00  0.00     0.000 HD 
BRANCH   7  10
HETATM   10  C   UNL     1      -9.253   6.342  66.248  1.00  0.00    -0.145 C  
BRANCH  10  11
HETATM   11  O   UNL     1      -9.931   5.079  66.225  1.00  0.00    -0.180 OA 
BRANCH  11  12
HETATM   12  C   UNL     1      -9.440   4.104  65.387  1.00  0.00    -0.173 A  
HETATM   13  C   UNL     1      -9.232   4.310  64.015  1.00  0.00    -0.148 A  
HETATM   14  C   UNL     1      -8.766   3.286  63.193  1.00  0.00    -0.089 A  
HETATM   15  C   UNL     1      -8.524   2.031  63.722  1.00  0.00    -0.081 A  
HETATM   16  C   UNL     1      -8.712   1.808  65.085  1.00  0.00    -0.114 A  
HETATM   17  C   UNL     1      -9.125   2.843  65.941  1.00  0.00    -0.132 A  
BRANCH  17  18
HETATM   18  O   UNL     1      -9.234   2.676  67.310  1.00  0.00    -0.168 OA 
BRANCH  18  19
HETATM   19  C   UNL     1      -8.324   1.712  67.860  1.00  0.00    -0.065 C  
BRANCH  19  20
HETATM   20  C   UNL     1      -7.135   2.386  68.475  1.00  0.00    -0.044 C  
HETATM   21  C   UNL     1      -7.056   2.696  69.778  1.00  0.00    -0.036 C  
ENDBRANCH  19  20
ENDBRANCH  18  19
ENDBRANCH  17  18
ENDBRANCH  11  12
ENDBRANCH  10  11
ENDBRANCH   7  10
ENDBRANCH   6   7
ENDBRANCH   4   6
ENDBRANCH   2   4
TORSDOF 9
ENDMDL
MODEL      364
REMARK 921   NORMALIZED FREE ENERGY PREDICTED BY IDOCK:   -1.75 KCAL/MOL
REMARK 922        TOTAL FREE ENERGY PREDICTED BY IDOCK:   -3.45 KCAL/MOL
REMARK 923 INTER-LIGAND FREE ENERGY PREDICTED BY IDOCK:   -3.07 KCAL/MOL
REMARK 924 INTRA-LIGAND FREE ENERGY PREDICTED BY IDOCK:   -0.38 KCAL/MOL
REMARK 927      BINDING AFFINITY PREDICTED BY RF-SCORE:    0.00 PKD
ROOT
HETATM    1  C   UNL     1      -5.736  14.880  71.945  1.00  0.00     0.251 C  
HETATM    2  C   UNL     1      -5.670  13.699  70.976  1.00  0.00    -0.201 C  
HETATM    3  C   UNL     1      -5.160  12.459  71.720  1.00  0.00    -0.022 C  
ENDROOT
BRANCH   2   4
HETATM    4  N   UNL     1      -7.003  13.488  70.399  1.00  0.00     0.085 NA 
HETATM    5  H   UNL     1      -7.461  14.378  70.203  1.00  0.00     0.000 HD 
BRANCH   4   6
HETATM    6  C   UNL     1      -6.978  12.635  69.203  1.00  0.00    -0.019 C  
BRANCH   6   7
HETATM    7  C   UNL     1      -6.505  13.404  67.952  1.00  0.00    -0.151 C  
HETATM    8  O   UNL     1      -5.908  12.507  67.009  1.00  0.00    -0.362 OA 
HETATM    9  H   UNL     1      -5.616  12.981  66.238  1.00  0.00     0.000 HD 
BRANCH   7  10
HETATM   10  C   UNL     1      -7.698  14.141  67.308  1.00  0.00    -0.108 C  
BRANCH  10  11
HETATM   11  O   UNL     1      -8.568  14.753  68.270  1.00  0.00    -0.151 OA 
BRANCH  11  12
HETATM   12  C   UNL     1      -8.529  16.125  68.385  1.00  0.00    -0.184 A  
HETATM   13  C   UNL     1      -7.405  16.820  68.855  1.00  0.00    -0.235 A  
HETATM   14  C   UNL     1      -7.418  18.207  68.990  1.00  0.00    -0.177 A  
HETATM   15  C   UNL     1      -8.563  18.920  68.681  1.00  0.00    -0.376 A  
HETATM   16  C   UNL     1      -9.685  18.251  68.199  1.00  0.00    -0.341 A  
HETATM   17  C   UNL     1      -9.673  16.859  68.001  1.00  0.00    -0.256 A  
BRANCH  17  18
HETATM   18  O   UNL     1     -10.740  16.179  67.441  1.00  0.00    -0.312 OA 
BRANCH  18  19
HETATM   19  C   UNL     1     -11.410  15.289  68.344  1.00  0.00    -0.329 C  
BRANCH  19  20
HETATM   20  C   UNL     1     -11.449  13.895  67.794  1.00  0.00    -0.354 C  
HETATM   21  C   UNL     1     -12.397  13.002  68.116  1.00  0.00     0.170 C  
ENDBRANCH  19  20
ENDBRANCH  18  19
ENDBRANCH  17  18
ENDBRANCH  11  12
ENDBRANCH  10  11
ENDBRANCH   7  10
ENDBRANCH   6   7
ENDBRANCH   4   6
ENDBRANCH   2   4
TORSDOF 9
ENDMDL
MODEL      365
REMARK 921   NORMALIZED FREE ENERGY PREDICTED BY IDOCK:   -1.61 KCAL/MOL
REMARK 922        TOTAL FREE ENERGY PREDICTED BY IDOCK:   -3.23 KCAL/MOL
REMARK 923 INTER-LIGAND FREE ENERGY PREDICTED BY IDOCK:   -3.26 KCAL/MOL
REMARK 924 INTRA-LIGAND FREE ENERGY PREDICTED BY IDOCK:    0.03 KCAL/MOL
REMARK 927      BINDING AFFINITY PREDICTED BY RF-SCORE:    0.00 PKD
ROOT
HETATM    1  C   UNL     1      -5.197  13.720  67.999  1.00  0.00    -0.105 C  
HETATM    2  C   UNL     1      -5.471  12.517  68.903  1.00  0.00    -0.062 C  
HETATM    3  C   UNL     1      -5.995  13.008  70.258  1.00  0.00    -0.126 C  
ENDROOT
BRANCH   2   4
HETATM    4  N   UNL     1      -6.426  11.629  68.230  1.00  0.00    -0.050 NA 
HETATM    5  H   UNL     1      -6.196  10.650  68.399  1.00  0.00     0.000 HD 
BRANCH   4   6
HETATM    6  C   UNL     1      -7.821  11.912  68.592  1.00  0.00    -0.104 C  
BRANCH   6   7
HETATM    7  C   UNL     1      -8.424  13.046  67.737  1.00  0.00    -0.188 C  
HETATM    8  O   UNL     1      -7.505  13.446  66.715  1.00  0.00    -0.250 OA 
HETATM    9  H   UNL     1      -7.876  14.144  66.188  1.00  0.00     0.000 HD 
BRANCH   7  10
HETATM   10  C   UNL     1      -9.753  12.578  67.109  1.00  0.00    -0.205 C  
BRANCH  10  11
HETATM   11  O   UNL     1      -9.723  11.209  66.682  1.00  0.00    -0.189 OA 
BRANCH  11  12
HETATM   12  C   UNL     1      -9.426  10.957  65.362  1.00  0.00    -0.214 A  
HETATM   13  C   UNL     1     -10.112  11.558  64.296  1.00  0.00    -0.338 A  
HETATM   14  C   UNL     1      -9.804  11.250  62.973  1.00  0.00    -0.370 A  
HETATM   15  C   UNL     1      -8.821  10.317  62.692  1.00  0.00    -0.249 A  
HETATM   16  C   UNL     1      -8.117   9.719  63.735  1.00  0.00    -0.149 A  
HETATM   17  C   UNL     1      -8.373  10.060  65.074  1.00  0.00    -0.155 A  
BRANCH  17  18
HETATM   18  O   UNL     1      -7.632   9.550  66.125  1.00  0.00    -0.098 OA 
BRANCH  18  19
HETATM   19  C   UNL     1      -7.909   8.177  66.430  1.00  0.00    -0.093 C  
BRANCH  19  20
HETATM   20  C   UNL     1      -8.642   8.053  67.732  1.00  0.00    -0.128 C  
HETATM   21  C   UNL     1      -9.897   7.589  67.830  1.00  0.00    -0.185 C  
ENDBRANCH  19  20
ENDBRANCH  18  19
ENDBRANCH  17  18
ENDBRANCH  11  12
ENDBRANCH  10  11
ENDBRANCH   7  10
ENDBRANCH   6   7
ENDBRANCH   4   6
ENDBRANCH   2   4
TORSDOF 9
ENDMDL
MODEL      366
REMARK 921   NORMALIZED FREE ENERGY PREDICTED BY IDOCK:   -1.53 KCAL/MOL
REMARK 922        TOTAL FREE ENERGY PREDICTED BY IDOCK:   -3.10 KCAL/MOL
REMARK 923 INTER-LIGAND FREE ENERGY PREDICTED BY IDOCK:   -4.04 KCAL/MOL
REMARK 924 INTRA-LIGAND FREE ENERGY PREDICTED BY IDOCK:    0.94 KCAL/MOL
REMARK 927      BINDING AFFINITY PREDICTED BY RF-SCORE:    0.00 PKD
ROOT
HETATM    1  C   UNL     1     -13.221   7.140  71.565  1.00  0.00    -0.419 C  
HETATM    2  C   UNL     1     -13.162   8.669  71.555  1.00  0.00    -0.300 C  
HETATM    3  C   UNL     1     -13.824   9.212  72.827  1.00  0.00    -0.282 C  
ENDROOT
BRANCH   2   4
HETATM    4  N   UNL     1     -11.760   9.086  71.439  1.00  0.00    -0.298 NA 
HETATM    5  H   UNL     1     -11.231   8.823  72.271  1.00  0.00     0.000 HD 
BRANCH   4   6
HETATM    6  C   UNL     1     -11.113   8.579  70.222  1.00  0.00    -0.214 C  
BRANCH   6   7
HETATM    7  C   UNL     1     -10.524   9.716  69.361  1.00  0.00    -0.220 C  
HETATM    8  O   UNL     1      -9.120   9.853  69.605  1.00  0.00    -0.201 OA 
HETATM    9  H   UNL     1      -8.757  10.553  69.075  1.00  0.00     0.000 HD 
BRANCH   7  10
HETATM   10  C   UNL     1     -10.782   9.428  67.867  1.00  0.00    -0.210 C  
BRANCH  10  11
HETATM   11  O   UNL     1     -11.012   8.040  67.592  1.00  0.00    -0.094 OA 
BRANCH  11  12
HETATM   12  C   UNL     1     -10.108   7.389  66.783  1.00  0.00    -0.235 A  
HETATM   13  C   UNL     1     -10.172   6.014  66.517  1.00  0.00    -0.200 A  
HETATM   14  C   UNL     1      -9.215   5.386  65.721  1.00  0.00    -0.149 A  
HETATM   15  C   UNL     1      -8.165   6.119  65.197  1.00  0.00    -0.141 A  
HETATM   16  C   UNL     1      -8.090   7.489  65.437  1.00  0.00    -0.133 A  
HETATM   17  C   UNL     1      -9.076   8.151  66.189  1.00  0.00    -0.183 A  
BRANCH  17  18
HETATM   18  O   UNL     1      -9.077   9.522  66.369  1.00  0.00    -0.147 OA 
BRANCH  18  19
HETATM   19  C   UNL     1      -9.055  10.277  65.150  1.00  0.00    -0.197 C  
BRANCH  19  20
HETATM   20  C   UNL     1      -9.577  11.665  65.367  1.00  0.00    -0.228 C  
HETATM   21  C   UNL     1      -9.197  12.443  66.391  1.00  0.00    -0.192 C  
ENDBRANCH  19  20
ENDBRANCH  18  19
ENDBRANCH  17  18
ENDBRANCH  11  12
ENDBRANCH  10  11
ENDBRANCH   7  10
ENDBRANCH   6   7
ENDBRANCH   4   6
ENDBRANCH   2   4
TORSDOF 9
ENDMDL
MODEL      367
REMARK 921   NORMALIZED FREE ENERGY PREDICTED BY IDOCK:   -1.49 KCAL/MOL
REMARK 922        TOTAL FREE ENERGY PREDICTED BY IDOCK:   -3.04 KCAL/MOL
REMARK 923 INTER-LIGAND FREE ENERGY PREDICTED BY IDOCK:   -2.95 KCAL/MOL
REMARK 924 INTRA-LIGAND FREE ENERGY PREDICTED BY IDOCK:   -0.09 KCAL/MOL
REMARK 927      BINDING AFFINITY PREDICTED BY RF-SCORE:    0.00 PKD
ROOT
HETATM    1  C   UNL     1      -5.532  14.867  71.702  1.00  0.00     0.013 C  
HETATM    2  C   UNL     1      -5.624  13.716  70.698  1.00  0.00    -0.165 C  
HETATM    3  C   UNL     1      -5.481  12.382  71.440  1.00  0.00     0.044 C  
ENDROOT
BRANCH   2   4
HETATM    4  N   UNL     1      -6.901  13.817  69.982  1.00  0.00    -0.365 NA 
HETATM    5  H   UNL     1      -6.924  14.648  69.391  1.00  0.00     0.000 HD 
BRANCH   4   6
HETATM    6  C   UNL     1      -7.217  12.610  69.207  1.00  0.00     0.162 C  
BRANCH   6   7
HETATM    7  C   UNL     1      -6.307  12.461  67.969  1.00  0.00    -0.082 C  
HETATM    8  O   UNL     1      -5.547  11.251  68.048  1.00  0.00    -0.043 OA 
HETATM    9  H   UNL     1      -4.987  11.160  67.286  1.00  0.00     0.000 HD 
BRANCH   7  10
HETATM   10  C   UNL     1      -7.164  12.472  66.686  1.00  0.00     0.532 C  
BRANCH  10  11
HETATM   11  O   UNL     1      -8.476  11.925  66.879  1.00  0.00    -0.168 OA 
BRANCH  11  12
HETATM   12  C   UNL     1      -9.494  12.411  66.091  1.00  0.00    -0.199 A  
HETATM   13  C   UNL     1      -9.674  13.778  65.832  1.00  0.00    -0.217 A  
HETATM   14  C   UNL     1     -10.739  14.232  65.056  1.00  0.00    -0.435 A  
HETATM   15  C   UNL     1     -11.656  13.330  64.546  1.00  0.00    -0.407 A  
HETATM   16  C   UNL     1     -11.488  11.967  64.779  1.00  0.00    -0.323 A  
HETATM   17  C   UNL     1     -10.388  11.484  65.510  1.00  0.00    -0.273 A  
BRANCH  17  18
HETATM   18  O   UNL     1     -10.147  10.132  65.682  1.00  0.00    -0.271 OA 
BRANCH  18  19
HETATM   19  C   UNL     1     -10.215   9.691  67.045  1.00  0.00    -0.244 C  
BRANCH  19  20
HETATM   20  C   UNL     1     -10.181   8.195  67.127  1.00  0.00    -0.366 C  
HETATM   21  C   UNL     1     -10.781   7.496  68.102  1.00  0.00    -0.145 C  
ENDBRANCH  19  20
ENDBRANCH  18  19
ENDBRANCH  17  18
ENDBRANCH  11  12
ENDBRANCH  10  11
ENDBRANCH   7  10
ENDBRANCH   6   7
ENDBRANCH   4   6
ENDBRANCH   2   4
TORSDOF 9
ENDMDL
MODEL      368
REMARK 921   NORMALIZED FREE ENERGY PREDICTED BY IDOCK:   -1.30 KCAL/MOL
REMARK 922        TOTAL FREE ENERGY PREDICTED BY IDOCK:   -2.75 KCAL/MOL
REMARK 923 INTER-LIGAND FREE ENERGY PREDICTED BY IDOCK:   -2.26 KCAL/MOL
REMARK 924 INTRA-LIGAND FREE ENERGY PREDICTED BY IDOCK:   -0.49 KCAL/MOL
REMARK 927      BINDING AFFINITY PREDICTED BY RF-SCORE:    0.00 PKD
ROOT
HETATM    1  C   UNL     1      -5.997  18.554  68.735  1.00  0.00    -0.212 C  
HETATM    2  C   UNL     1      -6.317  17.069  68.552  1.00  0.00    -0.154 C  
HETATM    3  C   UNL     1      -5.345  16.233  69.392  1.00  0.00    -0.117 C  
ENDROOT
BRANCH   2   4
HETATM    4  N   UNL     1      -7.716  16.838  68.930  1.00  0.00    -0.243 NA 
HETATM    5  H   UNL     1      -8.304  16.728  68.104  1.00  0.00     0.000 HD 
BRANCH   4   6
HETATM    6  C   UNL     1      -7.879  15.703  69.848  1.00  0.00     0.180 C  
BRANCH   6   7
HETATM    7  C   UNL     1      -9.166  14.902  69.558  1.00  0.00     0.032 C  
HETATM    8  O   UNL     1     -10.253  15.789  69.270  1.00  0.00    -0.214 OA 
HETATM    9  H   UNL     1     -11.045  15.296  69.092  1.00  0.00     0.000 HD 
BRANCH   7  10
HETATM   10  C   UNL     1      -8.930  13.942  68.374  1.00  0.00    -0.178 C  
BRANCH  10  11
HETATM   11  O   UNL     1      -8.799  12.572  68.776  1.00  0.00    -0.008 OA 
BRANCH  11  12
HETATM   12  C   UNL     1      -8.575  11.636  67.792  1.00  0.00    -0.144 A  
HETATM   13  C   UNL     1      -7.940  11.940  66.578  1.00  0.00     0.041 A  
HETATM   14  C   UNL     1      -7.763  10.971  65.593  1.00  0.00     0.090 A  
HETATM   15  C   UNL     1      -8.239   9.687  65.793  1.00  0.00    -0.120 A  
HETATM   16  C   UNL     1      -8.860   9.360  66.997  1.00  0.00    -0.139 A  
HETATM   17  C   UNL     1      -8.996  10.308  68.026  1.00  0.00    -0.132 A  
BRANCH  17  18
HETATM   18  O   UNL     1      -9.527   9.989  69.264  1.00  0.00    -0.191 OA 
BRANCH  18  19
HETATM   19  C   UNL     1      -8.560   9.530  70.219  1.00  0.00    -0.226 C  
BRANCH  19  20
HETATM   20  C   UNL     1      -9.232   8.904  71.403  1.00  0.00    -0.328 C  
HETATM   21  C   UNL     1     -10.011   7.815  71.318  1.00  0.00    -0.199 C  
ENDBRANCH  19  20
ENDBRANCH  18  19
ENDBRANCH  17  18
ENDBRANCH  11  12
ENDBRANCH  10  11
ENDBRANCH   7  10
ENDBRANCH   6   7
ENDBRANCH   4   6
ENDBRANCH   2   4
TORSDOF 9
ENDMDL
MODEL      369
REMARK 921   NORMALIZED FREE ENERGY PREDICTED BY IDOCK:   -1.24 KCAL/MOL
REMARK 922        TOTAL FREE ENERGY PREDICTED BY IDOCK:   -2.66 KCAL/MOL
REMARK 923 INTER-LIGAND FREE ENERGY PREDICTED BY IDOCK:   -3.72 KCAL/MOL
REMARK 924 INTRA-LIGAND FREE ENERGY PREDICTED BY IDOCK:    1.05 KCAL/MOL
REMARK 927      BINDING AFFINITY PREDICTED BY RF-SCORE:    0.00 PKD
ROOT
HETATM    1  C   UNL     1      -5.740  14.891  71.874  1.00  0.00     0.251 C  
HETATM    2  C   UNL     1      -5.690  13.834  70.769  1.00  0.00    -0.199 C  
HETATM    3  C   UNL     1      -5.154  12.519  71.348  1.00  0.00    -0.132 C  
ENDROOT
BRANCH   2   4
HETATM    4  N   UNL     1      -7.035  13.681  70.203  1.00  0.00    -0.227 NA 
HETATM    5  H   UNL     1      -7.511  14.581  70.145  1.00  0.00     0.000 HD 
BRANCH   4   6
HETATM    6  C   UNL     1      -7.031  13.003  68.899  1.00  0.00    -0.088 C  
BRANCH   6   7
HETATM    7  C   UNL     1      -6.700  13.970  67.743  1.00  0.00    -0.177 C  
HETATM    8  O   UNL     1      -5.984  13.287  66.708  1.00  0.00    -0.138 OA 
HETATM    9  H   UNL     1      -5.780  13.883  65.996  1.00  0.00     0.000 HD 
BRANCH   7  10
HETATM   10  C   UNL     1      -8.002  14.578  67.182  1.00  0.00    -0.138 C  
BRANCH  10  11
HETATM   11  O   UNL     1      -9.176  13.852  67.567  1.00  0.00    -0.190 OA 
BRANCH  11  12
HETATM   12  C   UNL     1     -10.093  14.495  68.367  1.00  0.00    -0.241 A  
HETATM   13  C   UNL     1      -9.793  14.947  69.661  1.00  0.00    -0.010 A  
HETATM   14  C   UNL     1     -10.760  15.563  70.453  1.00  0.00    -0.342 A  
HETATM   15  C   UNL     1     -12.050  15.716  69.975  1.00  0.00    -0.379 A  
HETATM   16  C   UNL     1     -12.365  15.288  68.688  1.00  0.00     0.124 A  
HETATM   17  C   UNL     1     -11.390  14.717  67.851  1.00  0.00    -0.315 A  
BRANCH  17  18
HETATM   18  O   UNL     1     -11.651  14.363  66.540  1.00  0.00    -0.354 OA 
BRANCH  18  19
HETATM   19  C   UNL     1     -10.975  13.176  66.104  1.00  0.00    -0.283 C  
BRANCH  19  20
HETATM   20  C   UNL     1     -10.565  13.287  64.667  1.00  0.00    -0.421 C  
HETATM   21  C   UNL     1     -10.411  12.227  63.860  1.00  0.00    -0.458 C  
ENDBRANCH  19  20
ENDBRANCH  18  19
ENDBRANCH  17  18
ENDBRANCH  11  12
ENDBRANCH  10  11
ENDBRANCH   7  10
ENDBRANCH   6   7
ENDBRANCH   4   6
ENDBRANCH   2   4
TORSDOF 9
ENDMDL
MODEL      370
REMARK 921   NORMALIZED FREE ENERGY PREDICTED BY IDOCK:   -1.14 KCAL/MOL
REMARK 922        TOTAL FREE ENERGY PREDICTED BY IDOCK:   -2.51 KCAL/MOL
REMARK 923 INTER-LIGAND FREE ENERGY PREDICTED BY IDOCK:   -2.54 KCAL/MOL
REMARK 924 INTRA-LIGAND FREE ENERGY PREDICTED BY IDOCK:    0.03 KCAL/MOL
REMARK 927      BINDING AFFINITY PREDICTED BY RF-SCORE:    0.00 PKD
ROOT
HETATM    1  C   UNL     1      -5.360  16.132  72.158  1.00  0.00     0.630 C  
HETATM    2  C   UNL     1      -5.497  14.705  71.625  1.00  0.00    -0.079 C  
HETATM    3  C   UNL     1      -5.162  13.710  72.743  1.00  0.00    -0.120 C  
ENDROOT
BRANCH   2   4
HETATM    4  N   UNL     1      -6.859  14.522  71.111  1.00  0.00     0.079 NA 
HETATM    5  H   UNL     1      -7.374  15.402  71.122  1.00  0.00     0.000 HD 
BRANCH   4   6
HETATM    6  C   UNL     1      -6.888  13.911  69.776  1.00  0.00     0.063 C  
BRANCH   6   7
HETATM    7  C   UNL     1      -5.917  14.606  68.799  1.00  0.00    -0.084 C  
HETATM    8  O   UNL     1      -5.828  13.872  67.573  1.00  0.00    -0.334 OA 
HETATM    9  H   UNL     1      -5.230  14.301  66.971  1.00  0.00     0.000 HD 
BRANCH   7  10
HETATM   10  C   UNL     1      -6.393  16.048  68.526  1.00  0.00    -0.115 C  
BRANCH  10  11
HETATM   11  O   UNL     1      -6.970  16.215  67.223  1.00  0.00    -0.163 OA 
BRANCH  11  12
HETATM   12  C   UNL     1      -8.248  15.744  67.025  1.00  0.00    -0.228 A  
HETATM   13  C   UNL     1      -8.521  14.484  66.472  1.00  0.00     0.130 A  
HETATM   14  C   UNL     1      -9.830  14.058  66.255  1.00  0.00    -0.318 A  
HETATM   15  C   UNL     1     -10.888  14.895  66.563  1.00  0.00    -0.322 A  
HETATM   16  C   UNL     1     -10.640  16.145  67.126  1.00  0.00    -0.294 A  
HETATM   17  C   UNL     1      -9.330  16.569  67.407  1.00  0.00    -0.222 A  
BRANCH  17  18
HETATM   18  O   UNL     1      -9.057  17.765  68.046  1.00  0.00    -0.257 OA 
BRANCH  18  19
HETATM   19  C   UNL     1      -9.301  18.930  67.246  1.00  0.00    -0.293 C  
BRANCH  19  20
HETATM   20  C   UNL     1      -8.189  19.923  67.390  1.00  0.00    -0.356 C  
HETATM   21  C   UNL     1      -7.089  19.916  66.622  1.00  0.00    -0.253 C  
ENDBRANCH  19  20
ENDBRANCH  18  19
ENDBRANCH  17  18
ENDBRANCH  11  12
ENDBRANCH  10  11
ENDBRANCH   7  10
ENDBRANCH   6   7
ENDBRANCH   4   6
ENDBRANCH   2   4
TORSDOF 9
ENDMDL
MODEL      371
REMARK 921   NORMALIZED FREE ENERGY PREDICTED BY IDOCK:   -0.65 KCAL/MOL
REMARK 922        TOTAL FREE ENERGY PREDICTED BY IDOCK:   -1.76 KCAL/MOL
REMARK 923 INTER-LIGAND FREE ENERGY PREDICTED BY IDOCK:   -2.09 KCAL/MOL
REMARK 924 INTRA-LIGAND FREE ENERGY PREDICTED BY IDOCK:    0.33 KCAL/MOL
REMARK 927      BINDING AFFINITY PREDICTED BY RF-SCORE:    0.00 PKD
ROOT
HETATM    1  C   UNL     1      -9.956   9.824  66.295  1.00  0.00    -0.331 C  
HETATM    2  C   UNL     1      -8.915   9.693  67.409  1.00  0.00    -0.131 C  
HETATM    3  C   UNL     1      -7.516   9.604  66.788  1.00  0.00    -0.094 C  
ENDROOT
BRANCH   2   4
HETATM    4  N   UNL     1      -9.047  10.840  68.315  1.00  0.00    -0.151 NA 
HETATM    5  H   UNL     1      -9.945  10.822  68.797  1.00  0.00     0.000 HD 
BRANCH   4   6
HETATM    6  C   UNL     1      -7.937  10.941  69.271  1.00  0.00    -0.070 C  
BRANCH   6   7
HETATM    7  C   UNL     1      -7.531   9.564  69.836  1.00  0.00    -0.113 C  
HETATM    8  O   UNL     1      -6.415   9.695  70.723  1.00  0.00    -0.092 OA 
HETATM    9  H   UNL     1      -6.165   8.847  71.071  1.00  0.00     0.000 HD 
BRANCH   7  10
HETATM   10  C   UNL     1      -8.728   8.927  70.572  1.00  0.00    -0.186 C  
BRANCH  10  11
HETATM   11  O   UNL     1      -9.237   7.758  69.916  1.00  0.00    -0.147 OA 
BRANCH  11  12
HETATM   12  C   UNL     1     -10.056   6.922  70.642  1.00  0.00    -0.194 A  
HETATM   13  C   UNL     1     -11.446   6.869  70.460  1.00  0.00    -0.390 A  
HETATM   14  C   UNL     1     -12.245   6.035  71.240  1.00  0.00     0.377 A  
HETATM   15  C   UNL     1     -11.671   5.258  72.231  1.00  0.00     0.073 A  
HETATM   16  C   UNL     1     -10.291   5.285  72.418  1.00  0.00    -0.259 A  
HETATM   17  C   UNL     1      -9.461   6.075  71.604  1.00  0.00    -0.148 A  
BRANCH  17  18
HETATM   18  O   UNL     1      -8.082   6.055  71.707  1.00  0.00    -0.112 OA 
BRANCH  18  19
HETATM   19  C   UNL     1      -7.554   4.869  72.316  1.00  0.00    -0.090 C  
BRANCH  19  20
HETATM   20  C   UNL     1      -6.121   4.659  71.929  1.00  0.00    -0.021 C  
HETATM   21  C   UNL     1      -5.313   5.652  71.529  1.00  0.00    -0.009 C  
ENDBRANCH  19  20
ENDBRANCH  18  19
ENDBRANCH  17  18
ENDBRANCH  11  12
ENDBRANCH  10  11
ENDBRANCH   7  10
ENDBRANCH   6   7
ENDBRANCH   4   6
ENDBRANCH   2   4
TORSDOF 9
ENDMDL
MODEL      372
REMARK 921   NORMALIZED FREE ENERGY PREDICTED BY IDOCK:   -0.40 KCAL/MOL
REMARK 922        TOTAL FREE ENERGY PREDICTED BY IDOCK:   -1.39 KCAL/MOL
REMARK 923 INTER-LIGAND FREE ENERGY PREDICTED BY IDOCK:   -2.70 KCAL/MOL
REMARK 924 INTRA-LIGAND FREE ENERGY PREDICTED BY IDOCK:    1.31 KCAL/MOL
REMARK 927      BINDING AFFINITY PREDICTED BY RF-SCORE:    0.00 PKD
ROOT
HETATM    1  C   UNL     1      -6.141  18.830  69.068  1.00  0.00    -0.242 C  
HETATM    2  C   UNL     1      -7.377  17.931  69.008  1.00  0.00    -0.190 C  
HETATM    3  C   UNL     1      -8.380  18.512  68.004  1.00  0.00    -0.295 C  
ENDROOT
BRANCH   2   4
HETATM    4  N   UNL     1      -6.955  16.573  68.645  1.00  0.00    -0.158 NA 
HETATM    5  H   UNL     1      -5.943  16.472  68.726  1.00  0.00     0.000 HD 
BRANCH   4   6
HETATM    6  C   UNL     1      -7.652  15.535  69.415  1.00  0.00    -0.225 C  
BRANCH   6   7
HETATM    7  C   UNL     1      -8.713  14.799  68.570  1.00  0.00    -0.174 C  
HETATM    8  O   UNL     1      -9.930  14.652  69.310  1.00  0.00    -0.348 OA 
HETATM    9  H   UNL     1     -10.583  14.198  68.789  1.00  0.00     0.000 HD 
BRANCH   7  10
HETATM   10  C   UNL     1      -8.972  15.577  67.264  1.00  0.00    -0.201 C  
BRANCH  10  11
HETATM   11  O   UNL     1      -9.323  14.729  66.162  1.00  0.00    -0.295 OA 
BRANCH  11  12
HETATM   12  C   UNL     1      -9.122  13.375  66.308  1.00  0.00     0.036 A  
HETATM   13  C   UNL     1      -7.848  12.799  66.421  1.00  0.00     0.814 A  
HETATM   14  C   UNL     1      -7.686  11.419  66.532  1.00  0.00    -0.093 A  
HETATM   15  C   UNL     1      -8.793  10.590  66.508  1.00  0.00    -0.155 A  
HETATM   16  C   UNL     1     -10.068  11.142  66.411  1.00  0.00    -0.269 A  
HETATM   17  C   UNL     1     -10.257  12.534  66.356  1.00  0.00    -0.244 A  
BRANCH  17  18
HETATM   18  O   UNL     1     -11.513  13.114  66.349  1.00  0.00    -0.308 OA 
BRANCH  18  19
HETATM   19  C   UNL     1     -12.360  12.696  67.428  1.00  0.00     0.414 C  
BRANCH  19  20
HETATM   20  C   UNL     1     -11.554  12.355  68.644  1.00  0.00    -0.365 C  
HETATM   21  C   UNL     1     -11.703  11.213  69.331  1.00  0.00    -0.402 C  
ENDBRANCH  19  20
ENDBRANCH  18  19
ENDBRANCH  17  18
ENDBRANCH  11  12
ENDBRANCH  10  11
ENDBRANCH   7  10
ENDBRANCH   6   7
ENDBRANCH   4   6
ENDBRANCH   2   4
TORSDOF 9
ENDMDL
MODEL      373
REMARK 921   NORMALIZED FREE ENERGY PREDICTED BY IDOCK:   -0.32 KCAL/MOL
REMARK 922        TOTAL FREE ENERGY PREDICTED BY IDOCK:   -1.26 KCAL/MOL
REMARK 923 INTER-LIGAND FREE ENERGY PREDICTED BY IDOCK:   -1.08 KCAL/MOL
REMARK 924 INTRA-LIGAND FREE ENERGY PREDICTED BY IDOCK:   -0.18 KCAL/MOL
REMARK 927      BINDING AFFINITY PREDICTED BY RF-SCORE:    0.00 PKD
ROOT
HETATM    1  C   UNL     1     -11.982  14.078  70.458  1.00  0.00    -0.390 C  
HETATM    2  C   UNL     1     -10.694  14.478  69.735  1.00  0.00    -0.047 C  
HETATM    3  C   UNL     1     -10.201  13.301  68.886  1.00  0.00    -0.033 C  
ENDROOT
BRANCH   2   4
HETATM    4  N   UNL     1     -10.961  15.672  68.925  1.00  0.00    -0.249 NA 
HETATM    5  H   UNL     1     -11.803  15.551  68.362  1.00  0.00     0.000 HD 
BRANCH   4   6
HETATM    6  C   UNL     1     -11.037  16.901  69.727  1.00  0.00     0.151 C  
BRANCH   6   7
HETATM    7  C   UNL     1      -9.969  17.933  69.310  1.00  0.00    -0.102 C  
HETATM    8  O   UNL     1      -9.663  18.807  70.402  1.00  0.00     1.185 OA 
HETATM    9  H   UNL     1      -9.005  19.443  70.145  1.00  0.00     0.000 HD 
BRANCH   7  10
HETATM   10  C   UNL     1      -8.695  17.204  68.835  1.00  0.00    -0.185 C  
BRANCH  10  11
HETATM   11  O   UNL     1      -8.233  17.652  67.553  1.00  0.00    -0.212 OA 
BRANCH  11  12
HETATM   12  C   UNL     1      -9.071  18.460  66.818  1.00  0.00    -0.292 A  
HETATM   13  C   UNL     1     -10.295  18.016  66.296  1.00  0.00    -0.384 A  
HETATM   14  C   UNL     1     -11.099  18.854  65.526  1.00  0.00     0.415 A  
HETATM   15  C   UNL     1     -10.682  20.144  65.245  1.00  0.00     0.045 A  
HETATM   16  C   UNL     1      -9.477  20.609  65.765  1.00  0.00     0.363 A  
HETATM   17  C   UNL     1      -8.679  19.798  66.591  1.00  0.00    -0.354 A  
BRANCH  17  18
HETATM   18  O   UNL     1      -7.524  20.261  67.194  1.00  0.00    -0.267 OA 
BRANCH  18  19
HETATM   19  C   UNL     1      -6.481  20.613  66.276  1.00  0.00    -0.242 C  
BRANCH  19  20
HETATM   20  C   UNL     1      -6.167  19.472  65.356  1.00  0.00    -0.271 C  
HETATM   21  C   UNL     1      -5.351  18.461  65.688  1.00  0.00    -0.207 C  
ENDBRANCH  19  20
ENDBRANCH  18  19
ENDBRANCH  17  18
ENDBRANCH  11  12
ENDBRANCH  10  11
ENDBRANCH   7  10
ENDBRANCH   6   7
ENDBRANCH   4   6
ENDBRANCH   2   4
TORSDOF 9
ENDMDL
MODEL      374
REMARK 921   NORMALIZED FREE ENERGY PREDICTED BY IDOCK:    0.86 KCAL/MOL
REMARK 922        TOTAL FREE ENERGY PREDICTED BY IDOCK:    0.53 KCAL/MOL
REMARK 923 INTER-LIGAND FREE ENERGY PREDICTED BY IDOCK:    0.22 KCAL/MOL
REMARK 924 INTRA-LIGAND FREE ENERGY PREDICTED BY IDOCK:    0.31 KCAL/MOL
REMARK 927      BINDING AFFINITY PREDICTED BY RF-SCORE:    0.00 PKD
ROOT
HETATM    1  C   UNL     1     -11.280   6.219  70.507  1.00  0.00    -0.420 C  
HETATM    2  C   UNL     1      -9.977   7.021  70.550  1.00  0.00    -0.183 C  
HETATM    3  C   UNL     1      -9.528   7.182  72.007  1.00  0.00    -0.151 C  
ENDROOT
BRANCH   2   4
HETATM    4  N   UNL     1      -8.972   6.331  69.734  1.00  0.00    -0.139 NA 
HETATM    5  H   UNL     1      -9.389   5.556  69.218  1.00  0.00     0.000 HD 
BRANCH   4   6
HETATM    6  C   UNL     1      -8.251   7.237  68.830  1.00  0.00    -0.125 C  
BRANCH   6   7
HETATM    7  C   UNL     1      -6.775   7.415  69.242  1.00  0.00    -0.041 C  
HETATM    8  O   UNL     1      -5.926   7.387  68.090  1.00  0.00    -0.032 OA 
HETATM    9  H   UNL     1      -5.017   7.496  68.344  1.00  0.00     0.000 HD 
BRANCH   7  10
HETATM   10  C   UNL     1      -6.601   8.745  70.003  1.00  0.00    -0.038 C  
BRANCH  10  11
HETATM   11  O   UNL     1      -7.284   9.843  69.384  1.00  0.00    -0.067 OA 
BRANCH  11  12
HETATM   12  C   UNL     1      -6.963  10.143  68.079  1.00  0.00    -0.082 A  
HETATM   13  C   UNL     1      -5.643  10.333  67.642  1.00  0.00    -0.044 A  
HETATM   14  C   UNL     1      -5.362  10.670  66.320  1.00  0.00    -0.079 A  
HETATM   15  C   UNL     1      -6.396  10.847  65.417  1.00  0.00     0.102 A  
HETATM   16  C   UNL     1      -7.713  10.648  65.827  1.00  0.00    -0.130 A  
HETATM   17  C   UNL     1      -8.014  10.251  67.141  1.00  0.00    -0.114 A  
BRANCH  17  18
HETATM   18  O   UNL     1      -9.302   9.961  67.553  1.00  0.00    -0.139 OA 
BRANCH  18  19
HETATM   19  C   UNL     1     -10.193   9.600  66.489  1.00  0.00    -0.224 C  
BRANCH  19  20
HETATM   20  C   UNL     1     -10.450   8.123  66.482  1.00  0.00    -0.041 C  
HETATM   21  C   UNL     1     -11.645   7.582  66.761  1.00  0.00     2.168 C  
ENDBRANCH  19  20
ENDBRANCH  18  19
ENDBRANCH  17  18
ENDBRANCH  11  12
ENDBRANCH  10  11
ENDBRANCH   7  10
ENDBRANCH   6   7
ENDBRANCH   4   6
ENDBRANCH   2   4
TORSDOF 9
ENDMDL
MODEL      375
REMARK 921   NORMALIZED FREE ENERGY PREDICTED BY IDOCK:    0.86 KCAL/MOL
REMARK 922        TOTAL FREE ENERGY PREDICTED BY IDOCK:    0.54 KCAL/MOL
REMARK 923 INTER-LIGAND FREE ENERGY PREDICTED BY IDOCK:   -1.89 KCAL/MOL
REMARK 924 INTRA-LIGAND FREE ENERGY PREDICTED BY IDOCK:    2.44 KCAL/MOL
REMARK 927      BINDING AFFINITY PREDICTED BY RF-SCORE:    0.00 PKD
ROOT
HETATM    1  C   UNL     1     -10.862   7.309  70.819  1.00  0.00    -0.260 C  
HETATM    2  C   UNL     1     -12.105   7.673  71.633  1.00  0.00    -0.306 C  
HETATM    3  C   UNL     1     -11.695   7.978  73.078  1.00  0.00    -0.037 C  
ENDROOT
BRANCH   2   4
HETATM    4  N   UNL     1     -12.770   8.815  70.993  1.00  0.00    -0.496 NA 
HETATM    5  H   UNL     1     -12.735   9.640  71.592  1.00  0.00     0.000 HD 
BRANCH   4   6
HETATM    6  C   UNL     1     -12.235   9.110  69.657  1.00  0.00     1.161 C  
BRANCH   6   7
HETATM    7  C   UNL     1     -11.173  10.229  69.692  1.00  0.00    -0.269 C  
HETATM    8  O   UNL     1     -10.673  10.405  71.023  1.00  0.00    -0.208 OA 
HETATM    9  H   UNL     1     -10.019  11.094  71.044  1.00  0.00     0.000 HD 
BRANCH   7  10
HETATM   10  C   UNL     1     -10.019   9.885  68.728  1.00  0.00    -0.173 C  
BRANCH  10  11
HETATM   11  O   UNL     1      -9.659  10.974  67.867  1.00  0.00    -0.166 OA 
BRANCH  11  12
HETATM   12  C   UNL     1      -9.045  10.669  66.673  1.00  0.00    -0.160 A  
HETATM   13  C   UNL     1      -9.758  10.392  65.497  1.00  0.00    -0.307 A  
HETATM   14  C   UNL     1      -9.099  10.053  64.316  1.00  0.00    -0.296 A  
HETATM   15  C   UNL     1      -7.719   9.961  64.298  1.00  0.00    -0.139 A  
HETATM   16  C   UNL     1      -6.991  10.246  65.451  1.00  0.00    -0.139 A  
HETATM   17  C   UNL     1      -7.633  10.646  66.636  1.00  0.00    -0.129 A  
BRANCH  17  18
HETATM   18  O   UNL     1      -6.934  11.021  67.769  1.00  0.00    -0.077 OA 
BRANCH  18  19
HETATM   19  C   UNL     1      -7.725  11.707  68.749  1.00  0.00    -0.111 C  
BRANCH  19  20
HETATM   20  C   UNL     1      -6.868  12.223  69.865  1.00  0.00     0.332 C  
HETATM   21  C   UNL     1      -6.238  13.406  69.824  1.00  0.00    -0.113 C  
ENDBRANCH  19  20
ENDBRANCH  18  19
ENDBRANCH  17  18
ENDBRANCH  11  12
ENDBRANCH  10  11
ENDBRANCH   7  10
ENDBRANCH   6   7
ENDBRANCH   4   6
ENDBRANCH   2   4
TORSDOF 9
ENDMDL
MODEL      376
REMARK 921   NORMALIZED FREE ENERGY PREDICTED BY IDOCK:    1.15 KCAL/MOL
REMARK 922        TOTAL FREE ENERGY PREDICTED BY IDOCK:    0.98 KCAL/MOL
REMARK 923 INTER-LIGAND FREE ENERGY PREDICTED BY IDOCK:   -1.50 KCAL/MOL
REMARK 924 INTRA-LIGAND FREE ENERGY PREDICTED BY IDOCK:    2.48 KCAL/MOL
REMARK 927      BINDING AFFINITY PREDICTED BY RF-SCORE:    0.00 PKD
ROOT
HETATM    1  C   UNL     1     -10.836   7.377  70.825  1.00  0.00    -0.257 C  
HETATM    2  C   UNL     1     -12.097   7.621  71.656  1.00  0.00    -0.306 C  
HETATM    3  C   UNL     1     -11.718   7.712  73.139  1.00  0.00     0.122 C  
ENDROOT
BRANCH   2   4
HETATM    4  N   UNL     1     -12.748   8.844  71.175  1.00  0.00    -0.478 NA 
HETATM    5  H   UNL     1     -12.831   9.532  71.923  1.00  0.00     0.000 HD 
BRANCH   4   6
HETATM    6  C   UNL     1     -12.081   9.421  70.000  1.00  0.00     0.350 C  
BRANCH   6   7
HETATM    7  C   UNL     1     -11.094  10.542  70.386  1.00  0.00    -0.244 C  
HETATM    8  O   UNL     1     -10.026  10.017  71.182  1.00  0.00    -0.143 OA 
HETATM    9  H   UNL     1      -9.417  10.708  71.420  1.00  0.00     0.000 HD 
BRANCH   7  10
HETATM   10  C   UNL     1     -10.534  11.207  69.112  1.00  0.00    -0.182 C  
BRANCH  10  11
HETATM   11  O   UNL     1     -10.525  12.640  69.180  1.00  0.00    -0.058 OA 
BRANCH  11  12
HETATM   12  C   UNL     1     -10.603  13.337  67.996  1.00  0.00    -0.240 A  
HETATM   13  C   UNL     1     -11.821  13.669  67.384  1.00  0.00    -0.429 A  
HETATM   14  C   UNL     1     -11.856  14.346  66.167  1.00  0.00    -0.391 A  
HETATM   15  C   UNL     1     -10.675  14.681  65.528  1.00  0.00    -0.360 A  
HETATM   16  C   UNL     1      -9.455  14.374  66.125  1.00  0.00    -0.271 A  
HETATM   17  C   UNL     1      -9.398  13.744  67.381  1.00  0.00    -0.226 A  
BRANCH  17  18
HETATM   18  O   UNL     1      -8.204  13.506  68.039  1.00  0.00    -0.140 OA 
BRANCH  18  19
HETATM   19  C   UNL     1      -8.351  13.196  69.431  1.00  0.00     1.031 C  
BRANCH  19  20
HETATM   20  C   UNL     1      -7.018  13.141  70.113  1.00  0.00     0.792 C  
HETATM   21  C   UNL     1      -6.395  14.225  70.600  1.00  0.00    -0.074 C  
ENDBRANCH  19  20
ENDBRANCH  18  19
ENDBRANCH  17  18
ENDBRANCH  11  12
ENDBRANCH  10  11
ENDBRANCH   7  10
ENDBRANCH   6   7
ENDBRANCH   4   6
ENDBRANCH   2   4
TORSDOF 9
ENDMDL
MODEL      377
REMARK 921   NORMALIZED FREE ENERGY PREDICTED BY IDOCK:    4.96 KCAL/MOL
REMARK 922        TOTAL FREE ENERGY PREDICTED BY IDOCK:    6.80 KCAL/MOL
REMARK 923 INTER-LIGAND FREE ENERGY PREDICTED BY IDOCK:    7.10 KCAL/MOL
REMARK 924 INTRA-LIGAND FREE ENERGY PREDICTED BY IDOCK:   -0.29 KCAL/MOL
REMARK 927      BINDING AFFINITY PREDICTED BY RF-SCORE:    0.00 PKD
ROOT
HETATM    1  C   UNL     1     -11.933  14.239  70.668  1.00  0.00    -0.392 C  
HETATM    2  C   UNL     1     -10.587  14.959  70.568  1.00  0.00     0.098 C  
HETATM    3  C   UNL     1      -9.552  14.016  69.943  1.00  0.00     1.323 C  
ENDROOT
BRANCH   2   4
HETATM    4  N   UNL     1     -10.765  16.185  69.782  1.00  0.00    -0.317 NA 
HETATM    5  H   UNL     1     -11.259  15.992  68.911  1.00  0.00     0.000 HD 
BRANCH   4   6
HETATM    6  C   UNL     1     -11.430  17.255  70.538  1.00  0.00     1.707 C  
BRANCH   6   7
HETATM    7  C   UNL     1     -10.642  18.581  70.482  1.00  0.00     2.177 C  
HETATM    8  O   UNL     1     -10.749  19.281  71.726  1.00  0.00     1.224 OA 
HETATM    9  H   UNL     1     -10.264  20.097  71.692  1.00  0.00     0.000 HD 
BRANCH   7  10
HETATM   10  C   UNL     1      -9.162  18.296  70.154  1.00  0.00     2.124 C  
BRANCH  10  11
HETATM   11  O   UNL     1      -8.792  18.691  68.826  1.00  0.00    -0.319 OA 
BRANCH  11  12
HETATM   12  C   UNL     1      -8.761  17.716  67.854  1.00  0.00    -0.245 A  
HETATM   13  C   UNL     1      -8.131  16.476  68.036  1.00  0.00    -0.168 A  
HETATM   14  C   UNL     1      -8.092  15.529  67.014  1.00  0.00    -0.272 A  
HETATM   15  C   UNL     1      -8.659  15.815  65.785  1.00  0.00     0.451 A  
HETATM   16  C   UNL     1      -9.302  17.035  65.588  1.00  0.00     0.228 A  
HETATM   17  C   UNL     1      -9.403  17.980  66.624  1.00  0.00    -0.291 A  
BRANCH  17  18
HETATM   18  O   UNL     1     -10.111  19.161  66.486  1.00  0.00    -0.347 OA 
BRANCH  18  19
HETATM   19  C   UNL     1      -9.503  20.112  65.602  1.00  0.00     0.112 C  
BRANCH  19  20
HETATM   20  C   UNL     1      -8.074  20.359  65.980  1.00  0.00    -0.027 C  
HETATM   21  C   UNL     1      -7.705  21.192  66.964  1.00  0.00     0.034 C  
ENDBRANCH  19  20
ENDBRANCH  18  19
ENDBRANCH  17  18
ENDBRANCH  11  12
ENDBRANCH  10  11
ENDBRANCH   7  10
ENDBRANCH   6   7
ENDBRANCH   4   6
ENDBRANCH   2   4
TORSDOF 9
ENDMDL
MODEL      378
REMARK 921   NORMALIZED FREE ENERGY PREDICTED BY IDOCK:    6.96 KCAL/MOL
REMARK 922        TOTAL FREE ENERGY PREDICTED BY IDOCK:    9.85 KCAL/MOL
REMARK 923 INTER-LIGAND FREE ENERGY PREDICTED BY IDOCK:   10.00 KCAL/MOL
REMARK 924 INTRA-LIGAND FREE ENERGY PREDICTED BY IDOCK:   -0.15 KCAL/MOL
REMARK 927      BINDING AFFINITY PREDICTED BY RF-SCORE:    0.00 PKD
ROOT
HETATM    1  C   UNL     1     -12.615   9.868  67.618  1.00  0.00     6.390 C  
HETATM    2  C   UNL     1     -12.380  10.966  68.657  1.00  0.00     0.415 C  
HETATM    3  C   UNL     1     -11.420  10.449  69.735  1.00  0.00    -0.348 C  
ENDROOT
BRANCH   2   4
HETATM    4  N   UNL     1     -11.858  12.156  67.976  1.00  0.00    -0.465 NA 
HETATM    5  H   UNL     1     -12.119  13.007  68.475  1.00  0.00     0.000 HD 
BRANCH   4   6
HETATM    6  C   UNL     1     -10.406  12.097  67.758  1.00  0.00    -0.206 C  
BRANCH   6   7
HETATM    7  C   UNL     1      -9.744  13.485  67.886  1.00  0.00    -0.225 C  
HETATM    8  O   UNL     1      -9.750  13.919  69.250  1.00  0.00    -0.403 OA 
HETATM    9  H   UNL     1      -9.341  14.774  69.329  1.00  0.00     0.000 HD 
BRANCH   7  10
HETATM   10  C   UNL     1      -8.299  13.426  67.350  1.00  0.00    -0.190 C  
BRANCH  10  11
HETATM   11  O   UNL     1      -8.025  12.236  66.596  1.00  0.00    -0.054 OA 
BRANCH  11  12
HETATM   12  C   UNL     1      -8.562  12.142  65.333  1.00  0.00     0.875 A  
HETATM   13  C   UNL     1      -9.049  13.251  64.625  1.00  0.00     1.855 A  
HETATM   14  C   UNL     1      -9.618  13.108  63.361  1.00  0.00     2.772 A  
HETATM   15  C   UNL     1      -9.733  11.851  62.793  1.00  0.00     0.254 A  
HETATM   16  C   UNL     1      -9.243  10.738  63.473  1.00  0.00    -0.275 A  
HETATM   17  C   UNL     1      -8.613  10.868  64.723  1.00  0.00    -0.003 A  
BRANCH  17  18
HETATM   18  O   UNL     1      -8.039   9.795  65.381  1.00  0.00    -0.119 OA 
BRANCH  18  19
HETATM   19  C   UNL     1      -7.132   9.029  64.576  1.00  0.00    -0.089 C  
BRANCH  19  20
HETATM   20  C   UNL     1      -5.843   9.765  64.371  1.00  0.00    -0.092 C  
HETATM   21  C   UNL     1      -5.199  10.412  65.353  1.00  0.00    -0.097 C  
ENDBRANCH  19  20
ENDBRANCH  18  19
ENDBRANCH  17  18
ENDBRANCH  11  12
ENDBRANCH  10  11
ENDBRANCH   7  10
ENDBRANCH   6   7
ENDBRANCH   4   6
ENDBRANCH   2   4
TORSDOF 9
ENDMDL
MODEL      379
REMARK 921   NORMALIZED FREE ENERGY PREDICTED BY IDOCK:   13.28 KCAL/MOL
REMARK 922        TOTAL FREE ENERGY PREDICTED BY IDOCK:   19.49 KCAL/MOL
REMARK 923 INTER-LIGAND FREE ENERGY PREDICTED BY IDOCK:    0.01 KCAL/MOL
REMARK 924 INTRA-LIGAND FREE ENERGY PREDICTED BY IDOCK:   19.48 KCAL/MOL
REMARK 927      BINDING AFFINITY PREDICTED BY RF-SCORE:    0.00 PKD
ROOT
HETATM    1  C   UNL     1      -8.554   8.733  64.873  1.00  0.00    -0.177 C  
HETATM    2  C   UNL     1      -8.380   8.183  63.456  1.00  0.00     0.018 C  
HETATM    3  C   UNL     1      -9.157   6.867  63.323  1.00  0.00     1.537 C  
ENDROOT
BRANCH   2   4
HETATM    4  N   UNL     1      -8.840   9.195  62.498  1.00  0.00    -0.349 NA 
HETATM    5  H   UNL     1      -9.854   9.169  62.397  1.00  0.00     0.000 HD 
BRANCH   4   6
HETATM    6  C   UNL     1      -8.379  10.549  62.836  1.00  0.00    -0.173 C  
BRANCH   6   7
HETATM    7  C   UNL     1      -8.642  10.899  64.315  1.00  0.00     0.053 C  
HETATM    8  O   UNL     1     -10.021  10.695  64.641  1.00  0.00    -0.287 OA 
HETATM    9  H   UNL     1     -10.183  10.911  65.553  1.00  0.00     0.000 HD 
BRANCH   7  10
HETATM   10  C   UNL     1      -7.743  10.035  65.224  1.00  0.00    -0.139 C  
BRANCH  10  11
HETATM   11  O   UNL     1      -6.535   9.609  64.581  1.00  0.00    -0.088 OA 
BRANCH  11  12
HETATM   12  C   UNL     1      -6.210   8.273  64.652  1.00  0.00    -0.064 A  
HETATM   13  C   UNL     1      -5.556   7.589  63.616  1.00  0.00    -0.041 A  
HETATM   14  C   UNL     1      -5.276   6.228  63.712  1.00  0.00    -0.018 A  
HETATM   15  C   UNL     1      -5.668   5.520  64.835  1.00  0.00    -0.017 A  
HETATM   16  C   UNL     1      -6.306   6.182  65.882  1.00  0.00    -0.038 A  
HETATM   17  C   UNL     1      -6.545   7.566  65.829  1.00  0.00    -0.045 A  
BRANCH  17  18
HETATM   18  O   UNL     1      -7.095   8.266  66.888  1.00  0.00    -0.076 OA 
BRANCH  18  19
HETATM   19  C   UNL     1      -6.195   8.481  67.983  1.00  0.00    -0.052 C  
BRANCH  19  20
HETATM   20  C   UNL     1      -5.279   7.308  68.163  1.00  0.00    -0.024 C  
HETATM   21  C   UNL     1      -5.709   6.079  68.487  1.00  0.00    -0.012 C  
ENDBRANCH  19  20
ENDBRANCH  18  19
ENDBRANCH  17  18
ENDBRANCH  11  12
ENDBRANCH  10  11
ENDBRANCH   7  10
ENDBRANCH   6   7
ENDBRANCH   4   6
ENDBRANCH   2   4
TORSDOF 9
ENDMDL
MODEL      380
REMARK 921   NORMALIZED FREE ENERGY PREDICTED BY IDOCK:   25.86 KCAL/MOL
REMARK 922        TOTAL FREE ENERGY PREDICTED BY IDOCK:   38.69 KCAL/MOL
REMARK 923 INTER-LIGAND FREE ENERGY PREDICTED BY IDOCK:   35.76 KCAL/MOL
REMARK 924 INTRA-LIGAND FREE ENERGY PREDICTED BY IDOCK:    2.93 KCAL/MOL
REMARK 927      BINDING AFFINITY PREDICTED BY RF-SCORE:    0.00 PKD
ROOT
HETATM    1  C   UNL     1     -10.646   6.808  71.486  1.00  0.00    -0.245 C  
HETATM    2  C   UNL     1     -11.897   6.998  72.345  1.00  0.00    -0.176 C  
HETATM    3  C   UNL     1     -11.539   6.778  73.819  1.00  0.00     1.417 C  
ENDROOT
BRANCH   2   4
HETATM    4  N   UNL     1     -12.437   8.340  72.100  1.00  0.00    -0.359 NA 
HETATM    5  H   UNL     1     -12.572   8.845  72.976  1.00  0.00     0.000 HD 
BRANCH   4   6
HETATM    6  C   UNL     1     -11.620   9.121  71.163  1.00  0.00    -0.317 C  
BRANCH   6   7
HETATM    7  C   UNL     1     -10.518   9.925  71.884  1.00  0.00     1.515 C  
HETATM    8  O   UNL     1      -9.564   9.042  72.484  1.00  0.00    -0.182 OA 
HETATM    9  H   UNL     1      -8.886   9.537  72.929  1.00  0.00     0.000 HD 
BRANCH   7  10
HETATM   10  C   UNL     1      -9.818  10.868  70.884  1.00  0.00     3.312 C  
BRANCH  10  11
HETATM   11  O   UNL     1      -9.627  12.194  71.397  1.00  0.00     9.770 OA 
BRANCH  11  12
HETATM   12  C   UNL     1      -9.562  13.227  70.490  1.00  0.00     5.184 A  
HETATM   13  C   UNL     1     -10.696  13.913  70.031  1.00  0.00     0.472 A  
HETATM   14  C   UNL     1     -10.591  14.931  69.085  1.00  0.00    -0.248 A  
HETATM   15  C   UNL     1      -9.353  15.265  68.564  1.00  0.00    -0.200 A  
HETATM   16  C   UNL     1      -8.213  14.606  69.016  1.00  0.00    -0.110 A  
HETATM   17  C   UNL     1      -8.290  13.616  70.012  1.00  0.00     2.273 A  
BRANCH  17  18
HETATM   18  O   UNL     1      -7.168  13.008  70.544  1.00  0.00     1.285 OA 
BRANCH  18  19
HETATM   19  C   UNL     1      -7.409  12.287  71.760  1.00  0.00     8.874 C  
BRANCH  19  20
HETATM   20  C   UNL     1      -6.123  11.828  72.377  1.00  0.00     2.873 C  
HETATM   21  C   UNL     1      -5.373  12.599  73.179  1.00  0.00     0.617 C  
ENDBRANCH  19  20
ENDBRANCH  18  19
ENDBRANCH  17  18
ENDBRANCH  11  12
ENDBRANCH  10  11
ENDBRANCH   7  10
ENDBRANCH   6   7
ENDBRANCH   4   6
ENDBRANCH   2   4
TORSDOF 9
ENDMDL
MODEL      381
REMARK 921   NORMALIZED FREE ENERGY PREDICTED BY IDOCK:   28.02 KCAL/MOL
REMARK 922        TOTAL FREE ENERGY PREDICTED BY IDOCK:   41.99 KCAL/MOL
REMARK 923 INTER-LIGAND FREE ENERGY PREDICTED BY IDOCK:    1.48 KCAL/MOL
REMARK 924 INTRA-LIGAND FREE ENERGY PREDICTED BY IDOCK:   40.50 KCAL/MOL
REMARK 927      BINDING AFFINITY PREDICTED BY RF-SCORE:    0.00 PKD
ROOT
HETATM    1  C   UNL     1      -8.679  11.283  66.559  1.00  0.00    -0.178 C  
HETATM    2  C   UNL     1      -7.352  10.536  66.409  1.00  0.00    -0.129 C  
HETATM    3  C   UNL     1      -7.566   9.289  65.542  1.00  0.00    -0.091 C  
ENDROOT
BRANCH   2   4
HETATM    4  N   UNL     1      -6.360  11.449  65.830  1.00  0.00    -0.384 NA 
HETATM    5  H   UNL     1      -6.250  11.282  64.830  1.00  0.00     0.000 HD 
BRANCH   4   6
HETATM    6  C   UNL     1      -6.661  12.862  66.097  1.00  0.00     3.285 C  
BRANCH   6   7
HETATM    7  C   UNL     1      -6.366  13.250  67.561  1.00  0.00    -0.121 C  
HETATM    8  O   UNL     1      -7.248  14.294  67.990  1.00  0.00    -0.110 OA 
HETATM    9  H   UNL     1      -7.067  14.533  68.892  1.00  0.00     0.000 HD 
BRANCH   7  10
HETATM   10  C   UNL     1      -6.518  12.014  68.471  1.00  0.00    -0.058 C  
BRANCH  10  11
HETATM   11  O   UNL     1      -7.391  11.015  67.926  1.00  0.00    -0.088 OA 
BRANCH  11  12
HETATM   12  C   UNL     1      -6.982   9.703  67.993  1.00  0.00    -0.078 A  
HETATM   13  C   UNL     1      -7.288   8.862  69.073  1.00  0.00    -0.073 A  
HETATM   14  C   UNL     1      -6.825   7.548  69.120  1.00  0.00    -0.056 A  
HETATM   15  C   UNL     1      -6.027   7.060  68.099  1.00  0.00    -0.029 A  
HETATM   16  C   UNL     1      -5.723   7.874  67.011  1.00  0.00    -0.037 A  
HETATM   17  C   UNL     1      -6.228   9.183  66.917  1.00  0.00    -0.062 A  
BRANCH  17  18
HETATM   18  O   UNL     1      -6.017   9.983  65.808  1.00  0.00    -0.065 OA 
BRANCH  18  19
HETATM   19  C   UNL     1      -5.260   9.355  64.764  1.00  0.00    -0.049 C  
BRANCH  19  20
HETATM   20  C   UNL     1      -6.105   9.138  63.545  1.00  0.00    -0.088 C  
HETATM   21  C   UNL     1      -7.380   9.543  63.450  1.00  0.00    -0.106 C  
ENDBRANCH  19  20
ENDBRANCH  18  19
ENDBRANCH  17  18
ENDBRANCH  11  12
ENDBRANCH  10  11
ENDBRANCH   7  10
ENDBRANCH   6   7
ENDBRANCH   4   6
ENDBRANCH   2   4
TORSDOF 9
ENDMDL
